# generated using pymatgen
data_Ca2Eu6Ru
_symmetry_space_group_name_H-M   'P 1'
_cell_length_a   7.94409245
_cell_length_b   7.94409209
_cell_length_c   7.94409300
_cell_angle_alpha   60.00000036
_cell_angle_beta   60.00000187
_cell_angle_gamma   59.99999973
_symmetry_Int_Tables_number   1
_chemical_formula_structural   Ca2Eu6Ru
_chemical_formula_sum   'Ca2 Eu6 Ru1'
_cell_volume   354.50134528
_cell_formula_units_Z   1
loop_
 _symmetry_equiv_pos_site_id
 _symmetry_equiv_pos_as_xyz
  1  'x, y, z'
loop_
 _atom_site_type_symbol
 _atom_site_label
 _atom_site_symmetry_multiplicity
 _atom_site_fract_x
 _atom_site_fract_y
 _atom_site_fract_z
 _atom_site_occupancy
  Ca  Ca0  1  0.250000  0.250000  0.250000  1
  Ca  Ca1  1  0.750000  0.750000  0.750000  1
  Eu  Eu2  1  0.751438  0.751438  0.248563  1
  Eu  Eu3  1  0.248562  0.751439  0.248562  1
  Eu  Eu4  1  0.751438  0.248563  0.248563  1
  Eu  Eu5  1  0.751438  0.248563  0.751438  1
  Eu  Eu6  1  0.248564  0.751437  0.751437  1
  Eu  Eu7  1  0.248562  0.248562  0.751439  1
  Ru  Ru8  1  0.000000  0.000000  0.000000  1
