# generated using pymatgen
data_La2PrIn4Te
_symmetry_space_group_name_H-M   'P 1'
_cell_length_a   8.75649395
_cell_length_b   8.75649350
_cell_length_c   8.75649500
_cell_angle_alpha   119.18486762
_cell_angle_beta   119.18486600
_cell_angle_gamma   91.41775305
_symmetry_Int_Tables_number   1
_chemical_formula_structural   La2PrIn4Te
_chemical_formula_sum   'La4 Pr2 In8 Te2'
_cell_volume   480.45202671
_cell_formula_units_Z   2
loop_
 _symmetry_equiv_pos_site_id
 _symmetry_equiv_pos_as_xyz
  1  'x, y, z'
loop_
 _atom_site_type_symbol
 _atom_site_label
 _atom_site_symmetry_multiplicity
 _atom_site_fract_x
 _atom_site_fract_y
 _atom_site_fract_z
 _atom_site_occupancy
  La  La0  1  0.659382  0.159382  0.818765  1
  La  La1  1  0.340618  0.840618  0.181235  1
  La  La2  1  0.159382  0.340618  0.500000  1
  La  La3  1  0.840618  0.659382  0.500000  1
  Pr  Pr4  1  0.750000  0.750000  0.000000  1
  Pr  Pr5  1  0.250000  0.250000  0.000000  1
  In  In6  1  0.332952  0.832952  0.790871  1
  In  In7  1  0.667048  0.167048  0.209129  1
  In  In8  1  0.042079  0.542079  0.209129  1
  In  In9  1  0.832952  0.042079  0.500000  1
  In  In10  1  0.457921  0.667048  0.500000  1
  In  In11  1  0.957921  0.457921  0.790871  1
  In  In12  1  0.167048  0.957921  0.500000  1
  In  In13  1  0.542079  0.332952  0.500000  1
  Te  Te14  1  0.500000  0.500000  0.000000  1
  Te  Te15  1  0.000000  0.000000  0.000000  1
