# generated using pymatgen
data_Tb6Ho2Sc12Si15Bi
_symmetry_space_group_name_H-M   'P 1'
_cell_length_a   7.18367785
_cell_length_b   7.42708792
_cell_length_c   14.09131067
_cell_angle_alpha   90.04303118
_cell_angle_beta   88.74799996
_cell_angle_gamma   90.21102910
_symmetry_Int_Tables_number   1
_chemical_formula_structural   Tb6Ho2Sc12Si15Bi
_chemical_formula_sum   'Tb6 Ho2 Sc12 Si15 Bi1'
_cell_volume   751.64031572
_cell_formula_units_Z   1
loop_
 _symmetry_equiv_pos_site_id
 _symmetry_equiv_pos_as_xyz
  1  'x, y, z'
loop_
 _atom_site_type_symbol
 _atom_site_label
 _atom_site_symmetry_multiplicity
 _atom_site_fract_x
 _atom_site_fract_y
 _atom_site_fract_z
 _atom_site_occupancy
  Tb  Tb0  1  0.011527  0.176302  0.096738  1
  Tb  Tb1  1  0.988746  0.825146  0.904047  1
  Tb  Tb2  1  0.489335  0.675229  0.904222  1
  Tb  Tb3  1  0.993671  0.831213  0.598350  1
  Tb  Tb4  1  0.511160  0.324834  0.097222  1
  Tb  Tb5  1  0.999199  0.170268  0.399114  1
  Ho  Ho6  1  0.510995  0.317135  0.397304  1
  Ho  Ho7  1  0.512536  0.686568  0.601284  1
  Sc  Sc8  1  0.165319  0.500611  0.756087  1
  Sc  Sc9  1  0.833912  0.499391  0.251580  1
  Sc  Sc10  1  0.334278  0.001158  0.250504  1
  Sc  Sc11  1  0.667725  0.999243  0.751071  1
  Sc  Sc12  1  0.350162  0.155876  0.631570  1
  Sc  Sc13  1  0.657458  0.827389  0.372562  1
  Sc  Sc14  1  0.153361  0.682458  0.368965  1
  Sc  Sc15  1  0.666579  0.822916  0.124112  1
  Sc  Sc16  1  0.827263  0.326867  0.625838  1
  Sc  Sc17  1  0.331483  0.175358  0.875259  1
  Sc  Sc18  1  0.832090  0.323638  0.875510  1
  Sc  Sc19  1  0.167837  0.676457  0.125102  1
  Si  Si20  1  0.037581  0.120228  0.751096  1
  Si  Si21  1  0.959738  0.884144  0.246071  1
  Si  Si22  1  0.460267  0.616769  0.247739  1
  Si  Si23  1  0.536642  0.384112  0.752728  1
  Si  Si24  1  0.290433  0.867785  0.752812  1
  Si  Si25  1  0.709641  0.125896  0.246675  1
  Si  Si26  1  0.209335  0.374180  0.249108  1
  Si  Si27  1  0.793637  0.627633  0.751546  1
  Si  Si28  1  0.811256  0.541211  0.456352  1
  Si  Si29  1  0.330284  0.963020  0.459701  1
  Si  Si30  1  0.844127  0.534553  0.039834  1
  Si  Si31  1  0.671089  0.039137  0.538567  1
  Si  Si32  1  0.155133  0.465215  0.961470  1
  Si  Si33  1  0.655094  0.034866  0.960419  1
  Si  Si34  1  0.343579  0.965925  0.040129  1
  Bi  Bi35  1  0.187528  0.457267  0.539312  1
