# generated using pymatgen
data_Ce2GdUC6
_symmetry_space_group_name_H-M   'P 1'
_cell_length_a   7.18798914
_cell_length_b   7.20555413
_cell_length_c   7.14401146
_cell_angle_alpha   109.58911029
_cell_angle_beta   109.48922950
_cell_angle_gamma   109.63344738
_symmetry_Int_Tables_number   1
_chemical_formula_structural   Ce2GdUC6
_chemical_formula_sum   'Ce4 Gd2 U2 C12'
_cell_volume   283.78293372
_cell_formula_units_Z   2
loop_
 _symmetry_equiv_pos_site_id
 _symmetry_equiv_pos_as_xyz
  1  'x, y, z'
loop_
 _atom_site_type_symbol
 _atom_site_label
 _atom_site_symmetry_multiplicity
 _atom_site_fract_x
 _atom_site_fract_y
 _atom_site_fract_z
 _atom_site_occupancy
  Ce  Ce0  1  0.001620  0.405071  0.505707  1
  Ce  Ce1  1  0.400695  0.502369  0.996357  1
  Ce  Ce2  1  0.995913  0.899364  0.494293  1
  Ce  Ce3  1  0.904339  0.506012  0.003643  1
  Gd  Gd4  1  0.596327  0.593138  0.592339  1
  Gd  Gd5  1  0.503988  0.000799  0.407661  1
  U  U6  1  0.499612  0.002626  0.892758  1
  U  U7  1  0.106854  0.109869  0.107242  1
  C  C8  1  0.792313  0.072220  0.788784  1
  C  C9  1  0.960756  0.202785  0.758447  1
  C  C10  1  0.227273  0.516128  0.296600  1
  C  C11  1  0.295806  0.219033  0.509677  1
  C  C12  1  0.757836  0.976779  0.198174  1
  C  C13  1  0.217243  0.759331  0.960120  1
  C  C14  1  0.702308  0.444338  0.241553  1
  C  C15  1  0.430672  0.219528  0.703400  1
  C  C16  1  0.503529  0.283437  0.211216  1
  C  C17  1  0.286128  0.709356  0.490323  1
  C  C18  1  0.757123  0.799211  0.039880  1
  C  C19  1  0.059662  0.778605  0.801826  1
