# generated using pymatgen
data_Yb3HoOs7Ru
_symmetry_space_group_name_H-M   'P 1'
_cell_length_a   5.25422900
_cell_length_b   5.25422806
_cell_length_c   8.90612700
_cell_angle_alpha   90.00000000
_cell_angle_beta   90.00000000
_cell_angle_gamma   119.99999959
_symmetry_Int_Tables_number   1
_chemical_formula_structural   Yb3HoOs7Ru
_chemical_formula_sum   'Yb3 Ho1 Os7 Ru1'
_cell_volume   212.93028444
_cell_formula_units_Z   1
loop_
 _symmetry_equiv_pos_site_id
 _symmetry_equiv_pos_as_xyz
  1  'x, y, z'
loop_
 _atom_site_type_symbol
 _atom_site_label
 _atom_site_symmetry_multiplicity
 _atom_site_fract_x
 _atom_site_fract_y
 _atom_site_fract_z
 _atom_site_occupancy
  Yb  Yb0  1  0.666667  0.333333  0.568877  1
  Yb  Yb1  1  0.666667  0.333333  0.935077  1
  Yb  Yb2  1  0.333333  0.666667  0.060721  1
  Ho  Ho3  1  0.333333  0.666667  0.433434  1
  Os  Os4  1  0.000000  0.000000  0.001096  1
  Os  Os5  1  0.827980  0.172020  0.249319  1
  Os  Os6  1  0.827980  0.655961  0.249319  1
  Os  Os7  1  0.344039  0.172020  0.249319  1
  Os  Os8  1  0.171703  0.828297  0.750739  1
  Os  Os9  1  0.171703  0.343405  0.750739  1
  Os  Os10  1  0.656595  0.828297  0.750739  1
  Ru  Ru11  1  0.000000  0.000000  0.500621  1
