# generated using pymatgen
data_Mn6Sn6RuRh11
_symmetry_space_group_name_H-M   'P 1'
_cell_length_a   4.44939800
_cell_length_b   6.35832700
_cell_length_c   13.26595803
_cell_angle_alpha   90.00000000
_cell_angle_beta   89.99609626
_cell_angle_gamma   90.00000000
_symmetry_Int_Tables_number   1
_chemical_formula_structural   Mn6Sn6RuRh11
_chemical_formula_sum   'Mn6 Sn6 Ru1 Rh11'
_cell_volume   375.30360193
_cell_formula_units_Z   1
loop_
 _symmetry_equiv_pos_site_id
 _symmetry_equiv_pos_as_xyz
  1  'x, y, z'
loop_
 _atom_site_type_symbol
 _atom_site_label
 _atom_site_symmetry_multiplicity
 _atom_site_fract_x
 _atom_site_fract_y
 _atom_site_fract_z
 _atom_site_occupancy
  Mn  Mn0  1  0.000000  0.002142  0.000000  1
  Mn  Mn1  1  0.500072  0.498548  0.166124  1
  Mn  Mn2  1  0.999848  0.999848  0.333245  1
  Mn  Mn3  1  0.500000  0.500281  0.500000  1
  Mn  Mn4  1  0.000151  0.999848  0.666755  1
  Mn  Mn5  1  0.499929  0.498548  0.833876  1
  Sn  Sn6  1  0.000000  0.498115  0.000000  1
  Sn  Sn7  1  0.500132  0.000459  0.165945  1
  Sn  Sn8  1  0.999823  0.500235  0.333417  1
  Sn  Sn9  1  0.500000  0.999991  0.500000  1
  Sn  Sn10  1  0.000177  0.500235  0.666583  1
  Sn  Sn11  1  0.499870  0.000459  0.834055  1
  Ru  Ru12  1  0.500000  0.251294  0.000000  1
  Rh  Rh13  1  0.500000  0.747603  0.000000  1
  Rh  Rh14  1  0.999876  0.249368  0.167621  1
  Rh  Rh15  1  0.999915  0.751007  0.167259  1
  Rh  Rh16  1  0.499879  0.251356  0.333696  1
  Rh  Rh17  1  0.499878  0.749346  0.333497  1
  Rh  Rh18  1  0.000000  0.248855  0.500000  1
  Rh  Rh19  1  0.000000  0.751383  0.500000  1
  Rh  Rh20  1  0.500120  0.251356  0.666303  1
  Rh  Rh21  1  0.500121  0.749346  0.666502  1
  Rh  Rh22  1  0.000124  0.249368  0.832380  1
  Rh  Rh23  1  0.000085  0.751007  0.832742  1
