# generated using pymatgen
data_Dy2Y2Ga12Fe
_symmetry_space_group_name_H-M   'P 1'
_cell_length_a   7.43865790
_cell_length_b   7.43994880
_cell_length_c   7.43865802
_cell_angle_alpha   109.47142297
_cell_angle_beta   109.46377803
_cell_angle_gamma   109.47142779
_symmetry_Int_Tables_number   1
_chemical_formula_structural   Dy2Y2Ga12Fe
_chemical_formula_sum   'Dy2 Y2 Ga12 Fe1'
_cell_volume   316.93844557
_cell_formula_units_Z   1
loop_
 _symmetry_equiv_pos_site_id
 _symmetry_equiv_pos_as_xyz
  1  'x, y, z'
loop_
 _atom_site_type_symbol
 _atom_site_label
 _atom_site_symmetry_multiplicity
 _atom_site_fract_x
 _atom_site_fract_y
 _atom_site_fract_z
 _atom_site_occupancy
  Dy  Dy0  1  0.000000  0.000000  0.500000  1
  Dy  Dy1  1  0.500000  0.000000  0.000000  1
  Y  Y2  1  0.000000  0.500000  0.000000  1
  Y  Y3  1  0.500000  0.500000  0.500000  1
  Ga  Ga4  1  0.750000  0.249783  0.499783  1
  Ga  Ga5  1  0.750000  0.500000  0.250000  1
  Ga  Ga6  1  0.499783  0.249783  0.750000  1
  Ga  Ga7  1  0.250000  0.500000  0.750000  1
  Ga  Ga8  1  0.250000  0.750217  0.500217  1
  Ga  Ga9  1  0.500217  0.750217  0.250000  1
  Ga  Ga10  1  0.716628  0.716870  0.000242  1
  Ga  Ga11  1  0.283370  0.000000  0.283370  1
  Ga  Ga12  1  0.999758  0.283130  0.283372  1
  Ga  Ga13  1  0.283372  0.283130  0.999758  1
  Ga  Ga14  1  0.716630  0.000000  0.716630  1
  Ga  Ga15  1  0.000242  0.716870  0.716628  1
  Fe  Fe16  1  0.000000  0.000000  0.000000  1
