# generated using pymatgen
data_Lu2CuPRh5
_symmetry_space_group_name_H-M   'P 1'
_cell_length_a   5.96914037
_cell_length_b   5.88440328
_cell_length_c   5.88440400
_cell_angle_alpha   60.95501762
_cell_angle_beta   59.52248636
_cell_angle_gamma   59.52249736
_symmetry_Int_Tables_number   1
_chemical_formula_structural   Lu2CuPRh5
_chemical_formula_sum   'Lu2 Cu1 P1 Rh5'
_cell_volume   146.08947036
_cell_formula_units_Z   1
loop_
 _symmetry_equiv_pos_site_id
 _symmetry_equiv_pos_as_xyz
  1  'x, y, z'
loop_
 _atom_site_type_symbol
 _atom_site_label
 _atom_site_symmetry_multiplicity
 _atom_site_fract_x
 _atom_site_fract_y
 _atom_site_fract_z
 _atom_site_occupancy
  Lu  Lu0  1  0.249652  0.250348  0.250348  1
  Lu  Lu1  1  0.749652  0.750348  0.750348  1
  Cu  Cu2  1  0.779024  0.220975  0.220975  1
  P  P3  1  0.501926  0.498074  0.498074  1
  Rh  Rh4  1  0.233560  0.766439  0.238620  1
  Rh  Rh5  1  0.761379  0.766439  0.238620  1
  Rh  Rh6  1  0.233560  0.238620  0.766439  1
  Rh  Rh7  1  0.761379  0.238620  0.766439  1
  Rh  Rh8  1  0.229865  0.770134  0.770134  1
