# generated using pymatgen
data_Tb5Y(AuO7)2
_symmetry_space_group_name_H-M   'P 1'
_cell_length_a   6.52577710
_cell_length_b   6.52286629
_cell_length_c   7.48632300
_cell_angle_alpha   90.00000000
_cell_angle_beta   90.00000000
_cell_angle_gamma   108.95064473
_symmetry_Int_Tables_number   1
_chemical_formula_structural   Tb5Y(AuO7)2
_chemical_formula_sum   'Tb5 Y1 Au2 O14'
_cell_volume   301.39633886
_cell_formula_units_Z   1
loop_
 _symmetry_equiv_pos_site_id
 _symmetry_equiv_pos_as_xyz
  1  'x, y, z'
loop_
 _atom_site_type_symbol
 _atom_site_label
 _atom_site_symmetry_multiplicity
 _atom_site_fract_x
 _atom_site_fract_y
 _atom_site_fract_z
 _atom_site_occupancy
  Tb  Tb0  1  0.500007  0.500059  0.500001  1
  Tb  Tb1  1  0.500007  0.500059  0.999999  1
  Tb  Tb2  1  0.997552  0.529156  0.250000  1
  Tb  Tb3  1  0.470795  0.002462  0.250000  1
  Tb  Tb4  1  0.002413  0.470758  0.750000  1
  Y  Y5  1  0.528638  0.997542  0.750000  1
  Au  Au6  1  0.000068  0.999966  0.500151  1
  Au  Au7  1  0.000068  0.999966  0.999849  1
  O  O8  1  0.671087  0.919008  0.475626  1
  O  O9  1  0.918798  0.671091  0.524812  1
  O  O10  1  0.671087  0.919008  0.024374  1
  O  O11  1  0.918798  0.671091  0.975188  1
  O  O12  1  0.329048  0.081062  0.524969  1
  O  O13  1  0.081211  0.328835  0.475253  1
  O  O14  1  0.329048  0.081062  0.975031  1
  O  O15  1  0.081211  0.328835  0.024747  1
  O  O16  1  0.921029  0.078648  0.750000  1
  O  O17  1  0.078799  0.921293  0.250000  1
  O  O18  1  0.368954  0.632495  0.750000  1
  O  O19  1  0.631495  0.368531  0.250000  1
  O  O20  1  0.638104  0.360867  0.750000  1
  O  O21  1  0.361782  0.638205  0.250000  1
