# generated using pymatgen
data_YTmMgB2Rh5
_symmetry_space_group_name_H-M   'P 1'
_cell_length_a   9.62599519
_cell_length_b   9.62599519
_cell_length_c   3.17871600
_cell_angle_alpha   90.00000000
_cell_angle_beta   90.00000000
_cell_angle_gamma   89.52934689
_symmetry_Int_Tables_number   1
_chemical_formula_structural   YTmMgB2Rh5
_chemical_formula_sum   'Y2 Tm2 Mg2 B4 Rh10'
_cell_volume   294.52919888
_cell_formula_units_Z   2
loop_
 _symmetry_equiv_pos_site_id
 _symmetry_equiv_pos_as_xyz
  1  'x, y, z'
loop_
 _atom_site_type_symbol
 _atom_site_label
 _atom_site_symmetry_multiplicity
 _atom_site_fract_x
 _atom_site_fract_y
 _atom_site_fract_z
 _atom_site_occupancy
  Y  Y0  1  0.676070  0.176070  0.000000  1
  Y  Y1  1  0.323930  0.823930  0.000000  1
  Tm  Tm2  1  0.175304  0.324696  0.000000  1
  Tm  Tm3  1  0.824696  0.675304  0.000000  1
  Mg  Mg4  1  0.000000  0.000000  0.000000  1
  Mg  Mg5  1  0.500000  0.500000  0.000000  1
  B  B6  1  0.122174  0.622174  0.000000  1
  B  B7  1  0.877826  0.377826  0.000000  1
  B  B8  1  0.623055  0.876945  0.000000  1
  B  B9  1  0.376945  0.123055  0.000000  1
  Rh  Rh10  1  0.500000  0.000000  0.500000  1
  Rh  Rh11  1  0.000000  0.500000  0.500000  1
  Rh  Rh12  1  0.222792  0.072841  0.500000  1
  Rh  Rh13  1  0.777208  0.927159  0.500000  1
  Rh  Rh14  1  0.067895  0.774901  0.500000  1
  Rh  Rh15  1  0.725099  0.432105  0.500000  1
  Rh  Rh16  1  0.932105  0.225099  0.500000  1
  Rh  Rh17  1  0.274901  0.567895  0.500000  1
  Rh  Rh18  1  0.572841  0.722792  0.500000  1
  Rh  Rh19  1  0.427159  0.277208  0.500000  1
