# generated using pymatgen
data_Ca4Sc2SbRuO12
_symmetry_space_group_name_H-M   'P 1'
_cell_length_a   5.51127832
_cell_length_b   5.68350232
_cell_length_c   7.89924078
_cell_angle_alpha   90.30514822
_cell_angle_beta   89.89165312
_cell_angle_gamma   90.01963154
_symmetry_Int_Tables_number   1
_chemical_formula_structural   Ca4Sc2SbRuO12
_chemical_formula_sum   'Ca4 Sc2 Sb1 Ru1 O12'
_cell_volume   247.42682212
_cell_formula_units_Z   1
loop_
 _symmetry_equiv_pos_site_id
 _symmetry_equiv_pos_as_xyz
  1  'x, y, z'
loop_
 _atom_site_type_symbol
 _atom_site_label
 _atom_site_symmetry_multiplicity
 _atom_site_fract_x
 _atom_site_fract_y
 _atom_site_fract_z
 _atom_site_occupancy
  Ca  Ca0  1  0.013968  0.949186  0.244989  1
  Ca  Ca1  1  0.487256  0.444015  0.245713  1
  Ca  Ca2  1  0.512744  0.555985  0.754287  1
  Ca  Ca3  1  0.986032  0.050814  0.755011  1
  Sc  Sc4  1  0.000000  0.500000  0.000000  1
  Sc  Sc5  1  0.500000  0.000000  0.500000  1
  Sb  Sb6  1  0.000000  0.500000  0.500000  1
  Ru  Ru7  1  0.500000  0.000000  0.000000  1
  O  O8  1  0.097630  0.467181  0.743628  1
  O  O9  1  0.209771  0.196522  0.047316  1
  O  O10  1  0.192726  0.208646  0.446117  1
  O  O11  1  0.307612  0.712005  0.049905  1
  O  O12  1  0.293402  0.695973  0.449048  1
  O  O13  1  0.405469  0.968352  0.758815  1
  O  O14  1  0.594531  0.031648  0.241185  1
  O  O15  1  0.706598  0.304027  0.550952  1
  O  O16  1  0.692388  0.287995  0.950095  1
  O  O17  1  0.790229  0.803478  0.952684  1
  O  O18  1  0.807274  0.791354  0.553883  1
  O  O19  1  0.902370  0.532819  0.256372  1
