# generated using pymatgen
data_MgPa8S17
_symmetry_space_group_name_H-M   'P 1'
_cell_length_a   7.89991768
_cell_length_b   7.89991800
_cell_length_c   10.53095705
_cell_angle_alpha   79.90838209
_cell_angle_beta   79.90837892
_cell_angle_gamma   64.67441270
_symmetry_Int_Tables_number   1
_chemical_formula_structural   MgPa8S17
_chemical_formula_sum   'Mg1 Pa8 S17'
_cell_volume   581.14347486
_cell_formula_units_Z   1
loop_
 _symmetry_equiv_pos_site_id
 _symmetry_equiv_pos_as_xyz
  1  'x, y, z'
loop_
 _atom_site_type_symbol
 _atom_site_label
 _atom_site_symmetry_multiplicity
 _atom_site_fract_x
 _atom_site_fract_y
 _atom_site_fract_z
 _atom_site_occupancy
  Mg  Mg0  1  0.000000  0.000000  0.000000  1
  Pa  Pa1  1  0.181901  0.697291  0.699792  1
  Pa  Pa2  1  0.697291  0.181901  0.699792  1
  Pa  Pa3  1  0.818099  0.302709  0.300208  1
  Pa  Pa4  1  0.302709  0.818099  0.300208  1
  Pa  Pa5  1  0.796598  0.796598  0.458895  1
  Pa  Pa6  1  0.203402  0.203402  0.541105  1
  Pa  Pa7  1  0.318537  0.318537  0.015987  1
  Pa  Pa8  1  0.681463  0.681463  0.984013  1
  S  S9  1  0.179435  0.567045  0.465448  1
  S  S10  1  0.567045  0.179435  0.465448  1
  S  S11  1  0.820565  0.432955  0.534552  1
  S  S12  1  0.432955  0.820565  0.534552  1
  S  S13  1  0.056467  0.670327  0.963772  1
  S  S14  1  0.670327  0.056467  0.963772  1
  S  S15  1  0.943533  0.329673  0.036228  1
  S  S16  1  0.329673  0.943533  0.036228  1
  S  S17  1  0.786298  0.786298  0.722532  1
  S  S18  1  0.213702  0.213702  0.277468  1
  S  S19  1  0.941810  0.941810  0.233869  1
  S  S20  1  0.058190  0.058190  0.766131  1
  S  S21  1  0.698320  0.698320  0.246230  1
  S  S22  1  0.301680  0.301680  0.753770  1
  S  S23  1  0.480572  0.480572  0.169028  1
  S  S24  1  0.519428  0.519428  0.830972  1
  S  S25  1  0.000000  0.000000  0.500000  1
