# generated using pymatgen
data_Ba2GaNiI
_symmetry_space_group_name_H-M   'P 1'
_cell_length_a   4.44355700
_cell_length_b   4.44355790
_cell_length_c   19.59671100
_cell_angle_alpha   90.00000000
_cell_angle_beta   90.00000000
_cell_angle_gamma   120.00000072
_symmetry_Int_Tables_number   1
_chemical_formula_structural   Ba2GaNiI
_chemical_formula_sum   'Ba4 Ga2 Ni2 I2'
_cell_volume   335.10076232
_cell_formula_units_Z   2
loop_
 _symmetry_equiv_pos_site_id
 _symmetry_equiv_pos_as_xyz
  1  'x, y, z'
loop_
 _atom_site_type_symbol
 _atom_site_label
 _atom_site_symmetry_multiplicity
 _atom_site_fract_x
 _atom_site_fract_y
 _atom_site_fract_z
 _atom_site_occupancy
  Ba  Ba0  1  0.000000  0.000000  0.613628  1
  Ba  Ba1  1  0.000000  0.000000  0.386871  1
  Ba  Ba2  1  0.000000  0.000000  0.113628  1
  Ba  Ba3  1  0.000000  0.000000  0.886871  1
  Ga  Ga4  1  0.666667  0.333333  0.500384  1
  Ga  Ga5  1  0.333333  0.666667  0.000384  1
  Ni  Ni6  1  0.666667  0.333333  0.999556  1
  Ni  Ni7  1  0.333333  0.666667  0.499556  1
  I  I8  1  0.666667  0.333333  0.249561  1
  I  I9  1  0.333333  0.666667  0.749561  1
