# generated using pymatgen
data_Ce2Pa2TlInRh4
_symmetry_space_group_name_H-M   'P 1'
_cell_length_a   7.78422856
_cell_length_b   7.78792463
_cell_length_c   3.62904400
_cell_angle_alpha   90.00000000
_cell_angle_beta   90.00000000
_cell_angle_gamma   92.64406828
_symmetry_Int_Tables_number   1
_chemical_formula_structural   Ce2Pa2TlInRh4
_chemical_formula_sum   'Ce2 Pa2 Tl1 In1 Rh4'
_cell_volume   219.76926208
_cell_formula_units_Z   1
loop_
 _symmetry_equiv_pos_site_id
 _symmetry_equiv_pos_as_xyz
  1  'x, y, z'
loop_
 _atom_site_type_symbol
 _atom_site_label
 _atom_site_symmetry_multiplicity
 _atom_site_fract_x
 _atom_site_fract_y
 _atom_site_fract_z
 _atom_site_occupancy
  Ce  Ce0  1  0.171702  0.331608  0.500000  1
  Ce  Ce1  1  0.828298  0.668392  0.500000  1
  Pa  Pa2  1  0.664999  0.170861  0.500000  1
  Pa  Pa3  1  0.335001  0.829139  0.500000  1
  Tl  Tl4  1  0.000000  0.000000  0.000000  1
  In  In5  1  0.500000  0.500000  0.000000  1
  Rh  Rh6  1  0.147212  0.641677  0.000000  1
  Rh  Rh7  1  0.852788  0.358323  0.000000  1
  Rh  Rh8  1  0.622916  0.870047  0.000000  1
  Rh  Rh9  1  0.377084  0.129953  0.000000  1
