# generated using pymatgen
data_V9ReSi6
_symmetry_space_group_name_H-M   'P 1'
_cell_length_a   4.79582831
_cell_length_b   7.05401104
_cell_length_c   7.05401011
_cell_angle_alpha   83.36427052
_cell_angle_beta   70.12700903
_cell_angle_gamma   70.12701056
_symmetry_Int_Tables_number   1
_chemical_formula_structural   V9ReSi6
_chemical_formula_sum   'V9 Re1 Si6'
_cell_volume   211.05996343
_cell_formula_units_Z   1
loop_
 _symmetry_equiv_pos_site_id
 _symmetry_equiv_pos_as_xyz
  1  'x, y, z'
loop_
 _atom_site_type_symbol
 _atom_site_label
 _atom_site_symmetry_multiplicity
 _atom_site_fract_x
 _atom_site_fract_y
 _atom_site_fract_z
 _atom_site_occupancy
  V  V0  1  0.723614  0.848678  0.700925  1
  V  V1  1  0.273217  0.151322  0.299075  1
  V  V2  1  0.776386  0.299075  0.151322  1
  V  V3  1  0.226783  0.700925  0.848678  1
  V  V4  1  0.575461  0.700925  0.151322  1
  V  V5  1  0.427708  0.299075  0.848678  1
  V  V6  1  0.072292  0.151322  0.700925  1
  V  V7  1  0.924539  0.848678  0.299075  1
  V  V8  1  0.750000  0.500000  0.500000  1
  Re  Re9  1  0.250000  0.500000  0.500000  1
  Si  Si10  1  0.165422  0.500000  0.162888  1
  Si  Si11  1  0.828310  0.500000  0.837112  1
  Si  Si12  1  0.334578  0.837112  0.500000  1
  Si  Si13  1  0.671690  0.162888  0.500000  1
  Si  Si14  1  0.250000  0.000000  0.000000  1
  Si  Si15  1  0.750000  0.000000  0.000000  1
