# generated using pymatgen
data_CeEu2NbO6
_symmetry_space_group_name_H-M   'P 1'
_cell_length_a   5.90207330
_cell_length_b   6.09392200
_cell_length_c   8.45113500
_cell_angle_alpha   89.99985897
_cell_angle_beta   89.73255085
_cell_angle_gamma   89.99934120
_symmetry_Int_Tables_number   1
_chemical_formula_structural   CeEu2NbO6
_chemical_formula_sum   'Ce2 Eu4 Nb2 O12'
_cell_volume   303.95675388
_cell_formula_units_Z   2
loop_
 _symmetry_equiv_pos_site_id
 _symmetry_equiv_pos_as_xyz
  1  'x, y, z'
loop_
 _atom_site_type_symbol
 _atom_site_label
 _atom_site_symmetry_multiplicity
 _atom_site_fract_x
 _atom_site_fract_y
 _atom_site_fract_z
 _atom_site_occupancy
  Ce  Ce0  1  0.500190  0.999585  0.000118  1
  Ce  Ce1  1  0.000048  0.500295  0.500007  1
  Eu  Eu2  1  0.982476  0.948523  0.251045  1
  Eu  Eu3  1  0.517501  0.447795  0.248413  1
  Eu  Eu4  1  0.017478  0.051851  0.749285  1
  Eu  Eu5  1  0.482493  0.551369  0.751942  1
  Nb  Nb6  1  0.499926  0.000067  0.500115  1
  Nb  Nb7  1  0.999902  0.499915  0.000158  1
  O  O8  1  0.317540  0.279820  0.562870  1
  O  O9  1  0.183107  0.779027  0.937068  1
  O  O10  1  0.682869  0.721115  0.436918  1
  O  O11  1  0.817109  0.220357  0.062643  1
  O  O12  1  0.280616  0.310340  0.945161  1
  O  O13  1  0.219219  0.811464  0.554929  1
  O  O14  1  0.719428  0.688890  0.054599  1
  O  O15  1  0.780582  0.189554  0.444850  1
  O  O16  1  0.109137  0.543575  0.230615  1
  O  O17  1  0.390418  0.043422  0.269041  1
  O  O18  1  0.890545  0.456661  0.769411  1
  O  O19  1  0.609414  0.956375  0.730810  1
