# generated using pymatgen
data_Sr2FeCoIrN3
_symmetry_space_group_name_H-M   'P 1'
_cell_length_a   6.56050516
_cell_length_b   6.50092522
_cell_length_c   6.48815157
_cell_angle_alpha   88.61341062
_cell_angle_beta   89.62450685
_cell_angle_gamma   116.43408246
_symmetry_Int_Tables_number   1
_chemical_formula_structural   Sr2FeCoIrN3
_chemical_formula_sum   'Sr4 Fe2 Co2 Ir2 N6'
_cell_volume   247.66511157
_cell_formula_units_Z   2
loop_
 _symmetry_equiv_pos_site_id
 _symmetry_equiv_pos_as_xyz
  1  'x, y, z'
loop_
 _atom_site_type_symbol
 _atom_site_label
 _atom_site_symmetry_multiplicity
 _atom_site_fract_x
 _atom_site_fract_y
 _atom_site_fract_z
 _atom_site_occupancy
  Sr  Sr0  1  0.831259  0.670896  0.894643  1
  Sr  Sr1  1  0.326994  0.164364  0.605418  1
  Sr  Sr2  1  0.168741  0.329104  0.105357  1
  Sr  Sr3  1  0.673006  0.835636  0.394582  1
  Fe  Fe4  1  0.841532  0.446961  0.389662  1
  Fe  Fe5  1  0.158468  0.553039  0.610338  1
  Co  Co6  1  0.557962  0.159259  0.103552  1
  Co  Co7  1  0.442038  0.840741  0.896448  1
  Ir  Ir8  1  0.815499  0.191412  0.749726  1
  Ir  Ir9  1  0.184501  0.808588  0.250274  1
  N  N10  1  0.403639  0.595693  0.746689  1
  N  N11  1  0.596361  0.404307  0.253311  1
  N  N12  1  0.009350  0.725826  0.516160  1
  N  N13  1  0.730082  0.011675  0.009407  1
  N  N14  1  0.990650  0.274174  0.483840  1
  N  N15  1  0.269918  0.988325  0.990593  1
