# generated using pymatgen
data_Hf4NbTe4
_symmetry_space_group_name_H-M   'P 1'
_cell_length_a   7.74351146
_cell_length_b   7.74351112
_cell_length_c   7.74351169
_cell_angle_alpha   93.53658837
_cell_angle_beta   93.53659180
_cell_angle_gamma   151.23824622
_symmetry_Int_Tables_number   1
_chemical_formula_structural   Hf4NbTe4
_chemical_formula_sum   'Hf4 Nb1 Te4'
_cell_volume   216.41394004
_cell_formula_units_Z   1
loop_
 _symmetry_equiv_pos_site_id
 _symmetry_equiv_pos_as_xyz
  1  'x, y, z'
loop_
 _atom_site_type_symbol
 _atom_site_label
 _atom_site_symmetry_multiplicity
 _atom_site_fract_x
 _atom_site_fract_y
 _atom_site_fract_z
 _atom_site_occupancy
  Hf  Hf0  1  0.683959  0.375448  0.059407  1
  Hf  Hf1  1  0.375448  0.316041  0.691491  1
  Hf  Hf2  1  0.624552  0.683959  0.308509  1
  Hf  Hf3  1  0.316041  0.624552  0.940593  1
  Nb  Nb4  1  0.000000  0.000000  0.000000  1
  Te  Te5  1  0.945204  0.286026  0.231230  1
  Te  Te6  1  0.286026  0.054796  0.340823  1
  Te  Te7  1  0.713974  0.945204  0.659177  1
  Te  Te8  1  0.054796  0.713974  0.768770  1
