# generated using pymatgen
data_Tb2Pr3(Sn5Rh2)2
_symmetry_space_group_name_H-M   'P 1'
_cell_length_a   14.21438900
_cell_length_b   14.21438900
_cell_length_c   4.59437100
_cell_angle_alpha   90.00000000
_cell_angle_beta   90.00000000
_cell_angle_gamma   90.00000000
_symmetry_Int_Tables_number   1
_chemical_formula_structural   Tb2Pr3(Sn5Rh2)2
_chemical_formula_sum   'Tb4 Pr6 Sn20 Rh8'
_cell_volume   928.28739836
_cell_formula_units_Z   2
loop_
 _symmetry_equiv_pos_site_id
 _symmetry_equiv_pos_as_xyz
  1  'x, y, z'
loop_
 _atom_site_type_symbol
 _atom_site_label
 _atom_site_symmetry_multiplicity
 _atom_site_fract_x
 _atom_site_fract_y
 _atom_site_fract_z
 _atom_site_occupancy
  Tb  Tb0  1  0.677214  0.177214  0.500000  1
  Tb  Tb1  1  0.322786  0.822786  0.500000  1
  Tb  Tb2  1  0.177214  0.322786  0.500000  1
  Tb  Tb3  1  0.822786  0.677214  0.500000  1
  Pr  Pr4  1  0.500000  0.500000  0.000000  1
  Pr  Pr5  1  0.000000  0.000000  0.000000  1
  Pr  Pr6  1  0.888396  0.388396  0.500000  1
  Pr  Pr7  1  0.111604  0.611604  0.500000  1
  Pr  Pr8  1  0.388396  0.111604  0.500000  1
  Pr  Pr9  1  0.611604  0.888396  0.500000  1
  Sn  Sn10  1  0.570046  0.070046  0.000000  1
  Sn  Sn11  1  0.429954  0.929954  0.000000  1
  Sn  Sn12  1  0.070046  0.429954  0.000000  1
  Sn  Sn13  1  0.929954  0.570046  0.000000  1
  Sn  Sn14  1  0.653834  0.698715  0.000000  1
  Sn  Sn15  1  0.346166  0.301285  0.000000  1
  Sn  Sn16  1  0.153834  0.801285  0.000000  1
  Sn  Sn17  1  0.846166  0.198715  0.000000  1
  Sn  Sn18  1  0.301285  0.653834  0.000000  1
  Sn  Sn19  1  0.698715  0.346166  0.000000  1
  Sn  Sn20  1  0.198715  0.153834  0.000000  1
  Sn  Sn21  1  0.801285  0.846166  0.000000  1
  Sn  Sn22  1  0.664171  0.506071  0.500000  1
  Sn  Sn23  1  0.335829  0.493929  0.500000  1
  Sn  Sn24  1  0.164171  0.993929  0.500000  1
  Sn  Sn25  1  0.835829  0.006071  0.500000  1
  Sn  Sn26  1  0.493929  0.664171  0.500000  1
  Sn  Sn27  1  0.506071  0.335829  0.500000  1
  Sn  Sn28  1  0.006071  0.164171  0.500000  1
  Sn  Sn29  1  0.993929  0.835829  0.500000  1
  Rh  Rh30  1  0.746950  0.530190  0.000000  1
  Rh  Rh31  1  0.253050  0.469810  0.000000  1
  Rh  Rh32  1  0.246950  0.969810  0.000000  1
  Rh  Rh33  1  0.753050  0.030190  0.000000  1
  Rh  Rh34  1  0.469810  0.746950  0.000000  1
  Rh  Rh35  1  0.530190  0.253050  0.000000  1
  Rh  Rh36  1  0.030190  0.246950  0.000000  1
  Rh  Rh37  1  0.969810  0.753050  0.000000  1
