# generated using pymatgen
data_Pr2Hg2IrRh3O14
_symmetry_space_group_name_H-M   'P 1'
_cell_length_a   7.56246799
_cell_length_b   7.34384374
_cell_length_c   7.34331712
_cell_angle_alpha   58.98661492
_cell_angle_beta   59.07585882
_cell_angle_gamma   59.08431792
_symmetry_Int_Tables_number   1
_chemical_formula_structural   Pr2Hg2IrRh3O14
_chemical_formula_sum   'Pr2 Hg2 Ir1 Rh3 O14'
_cell_volume   282.12449025
_cell_formula_units_Z   1
loop_
 _symmetry_equiv_pos_site_id
 _symmetry_equiv_pos_as_xyz
  1  'x, y, z'
loop_
 _atom_site_type_symbol
 _atom_site_label
 _atom_site_symmetry_multiplicity
 _atom_site_fract_x
 _atom_site_fract_y
 _atom_site_fract_z
 _atom_site_occupancy
  Pr  Pr0  1  0.125000  0.125000  0.125000  1
  Pr  Pr1  1  0.625000  0.125000  0.125000  1
  Hg  Hg2  1  0.125000  0.125000  0.625000  1
  Hg  Hg3  1  0.125000  0.625000  0.125000  1
  Ir  Ir4  1  0.125000  0.625000  0.625000  1
  Rh  Rh5  1  0.625000  0.625000  0.625000  1
  Rh  Rh6  1  0.625000  0.125000  0.625000  1
  Rh  Rh7  1  0.625000  0.625000  0.125000  1
  O  O8  1  0.950706  0.555351  0.555246  1
  O  O9  1  0.300593  0.302753  0.703463  1
  O  O10  1  0.949316  0.546578  0.947311  1
  O  O11  1  0.714458  0.287911  0.287809  1
  O  O12  1  0.552919  0.546479  0.952337  1
  O  O13  1  0.552928  0.952344  0.546356  1
  O  O14  1  0.535542  0.962089  0.962191  1
  O  O15  1  0.236824  0.262925  0.262848  1
  O  O16  1  0.299294  0.694649  0.694754  1
  O  O17  1  0.697072  0.297656  0.703644  1
  O  O18  1  0.013176  0.987075  0.987152  1
  O  O19  1  0.949407  0.947247  0.546537  1
  O  O20  1  0.300684  0.703422  0.302689  1
  O  O21  1  0.697081  0.703521  0.297663  1
