# generated using pymatgen
data_YbNp7B24OsRu3
_symmetry_space_group_name_H-M   'P 1'
_cell_length_a   3.56643700
_cell_length_b   9.33183991
_cell_length_c   11.38258176
_cell_angle_alpha   89.96225346
_cell_angle_beta   90.00000000
_cell_angle_gamma   90.00000000
_symmetry_Int_Tables_number   1
_chemical_formula_structural   YbNp7B24OsRu3
_chemical_formula_sum   'Yb1 Np7 B24 Os1 Ru3'
_cell_volume   378.82839217
_cell_formula_units_Z   1
loop_
 _symmetry_equiv_pos_site_id
 _symmetry_equiv_pos_as_xyz
  1  'x, y, z'
loop_
 _atom_site_type_symbol
 _atom_site_label
 _atom_site_symmetry_multiplicity
 _atom_site_fract_x
 _atom_site_fract_y
 _atom_site_fract_z
 _atom_site_occupancy
  Yb  Yb0  1  0.000000  0.338656  0.406802  1
  Np  Np1  1  0.000000  0.661662  0.593515  1
  Np  Np2  1  0.000000  0.838093  0.093629  1
  Np  Np3  1  0.000000  0.161167  0.907325  1
  Np  Np4  1  0.000000  0.959558  0.399385  1
  Np  Np5  1  0.000000  0.042094  0.598423  1
  Np  Np6  1  0.000000  0.458397  0.099348  1
  Np  Np7  1  0.000000  0.541163  0.900615  1
  B  B8  1  0.500000  0.552293  0.431875  1
  B  B9  1  0.500000  0.447725  0.568760  1
  B  B10  1  0.500000  0.051751  0.067928  1
  B  B11  1  0.500000  0.949050  0.932198  1
  B  B12  1  0.500000  0.742679  0.423304  1
  B  B13  1  0.500000  0.256661  0.576789  1
  B  B14  1  0.500000  0.242603  0.076952  1
  B  B15  1  0.500000  0.756852  0.923427  1
  B  B16  1  0.500000  0.805044  0.274421  1
  B  B17  1  0.500000  0.194567  0.725936  1
  B  B18  1  0.500000  0.303854  0.225720  1
  B  B19  1  0.500000  0.694849  0.774173  1
  B  B20  1  0.500000  0.645392  0.189151  1
  B  B21  1  0.500000  0.354066  0.811370  1
  B  B22  1  0.500000  0.144836  0.311280  1
  B  B23  1  0.500000  0.854754  0.688103  1
  B  B24  1  0.500000  0.988310  0.220360  1
  B  B25  1  0.500000  0.013370  0.779006  1
  B  B26  1  0.500000  0.488883  0.280186  1
  B  B27  1  0.500000  0.511997  0.720647  1
  B  B28  1  0.500000  0.645361  0.040173  1
  B  B29  1  0.500000  0.354249  0.959454  1
  B  B30  1  0.500000  0.143283  0.460159  1
  B  B31  1  0.500000  0.855140  0.539688  1
  Os  Os32  1  0.000000  0.856166  0.819772  1
  Ru  Ru33  1  0.000000  0.644859  0.319529  1
  Ru  Ru34  1  0.000000  0.354076  0.680758  1
  Ru  Ru35  1  0.000000  0.146544  0.179839  1
