# generated using pymatgen
data_Hf8Ti3Ga16Mo9
_symmetry_space_group_name_H-M   'P 1'
_cell_length_a   6.75227355
_cell_length_b   6.87256462
_cell_length_c   13.08873704
_cell_angle_alpha   89.98012275
_cell_angle_beta   89.99997190
_cell_angle_gamma   90.00117619
_symmetry_Int_Tables_number   1
_chemical_formula_structural   Hf8Ti3Ga16Mo9
_chemical_formula_sum   'Hf8 Ti3 Ga16 Mo9'
_cell_volume   607.38851571
_cell_formula_units_Z   1
loop_
 _symmetry_equiv_pos_site_id
 _symmetry_equiv_pos_as_xyz
  1  'x, y, z'
loop_
 _atom_site_type_symbol
 _atom_site_label
 _atom_site_symmetry_multiplicity
 _atom_site_fract_x
 _atom_site_fract_y
 _atom_site_fract_z
 _atom_site_occupancy
  Hf  Hf0  1  0.992178  0.171806  0.091332  1
  Hf  Hf1  1  0.009686  0.827449  0.908288  1
  Hf  Hf2  1  0.509600  0.673037  0.910399  1
  Hf  Hf3  1  0.002226  0.824454  0.595111  1
  Hf  Hf4  1  0.490794  0.326761  0.090820  1
  Hf  Hf5  1  0.995535  0.175455  0.408661  1
  Hf  Hf6  1  0.497368  0.327020  0.406099  1
  Hf  Hf7  1  0.507183  0.668913  0.593475  1
  Ti  Ti8  1  0.341589  0.171231  0.628911  1
  Ti  Ti9  1  0.657345  0.830402  0.370826  1
  Ti  Ti10  1  0.161042  0.670920  0.371182  1
  Ga  Ga11  1  0.036490  0.109471  0.749396  1
  Ga  Ga12  1  0.963298  0.891910  0.250602  1
  Ga  Ga13  1  0.462802  0.608050  0.249573  1
  Ga  Ga14  1  0.536216  0.392169  0.751107  1
  Ga  Ga15  1  0.303976  0.848183  0.749623  1
  Ga  Ga16  1  0.698485  0.151387  0.249662  1
  Ga  Ga17  1  0.197757  0.348348  0.249729  1
  Ga  Ga18  1  0.802195  0.651107  0.751729  1
  Ga  Ga19  1  0.172764  0.461734  0.540645  1
  Ga  Ga20  1  0.825459  0.541106  0.459358  1
  Ga  Ga21  1  0.324570  0.962000  0.460047  1
  Ga  Ga22  1  0.824514  0.538204  0.039050  1
  Ga  Ga23  1  0.675513  0.038313  0.539969  1
  Ga  Ga24  1  0.175683  0.460905  0.960229  1
  Ga  Ga25  1  0.676485  0.038727  0.960706  1
  Ga  Ga26  1  0.324133  0.960851  0.039112  1
  Mo  Mo27  1  0.158232  0.482642  0.751362  1
  Mo  Mo28  1  0.840891  0.515857  0.246450  1
  Mo  Mo29  1  0.341141  0.984228  0.246455  1
  Mo  Mo30  1  0.660762  0.016978  0.751777  1
  Mo  Mo31  1  0.658935  0.829385  0.127480  1
  Mo  Mo32  1  0.836864  0.331601  0.628518  1
  Mo  Mo33  1  0.341750  0.169010  0.871399  1
  Mo  Mo34  1  0.839236  0.330951  0.873248  1
  Mo  Mo35  1  0.157303  0.669431  0.127672  1
