# generated using pymatgen
data_TbY4Zr3(As3Pd4)4
_symmetry_space_group_name_H-M   'P 1'
_cell_length_a   13.57224600
_cell_length_b   13.57224529
_cell_length_c   4.10111600
_cell_angle_alpha   90.00000000
_cell_angle_beta   90.00000000
_cell_angle_gamma   120.00000174
_symmetry_Int_Tables_number   1
_chemical_formula_structural   TbY4Zr3(As3Pd4)4
_chemical_formula_sum   'Tb1 Y4 Zr3 As12 Pd16'
_cell_volume   654.23850415
_cell_formula_units_Z   1
loop_
 _symmetry_equiv_pos_site_id
 _symmetry_equiv_pos_as_xyz
  1  'x, y, z'
loop_
 _atom_site_type_symbol
 _atom_site_label
 _atom_site_symmetry_multiplicity
 _atom_site_fract_x
 _atom_site_fract_y
 _atom_site_fract_z
 _atom_site_occupancy
  Tb  Tb0  1  0.333333  0.666667  0.000000  1
  Y  Y1  1  0.189414  0.189421  0.500000  1
  Y  Y2  1  0.810579  0.999994  0.500000  1
  Y  Y3  1  0.000006  0.810586  0.500000  1
  Y  Y4  1  0.666667  0.333333  0.000000  1
  Zr  Zr5  1  0.556367  0.556368  0.000000  1
  Zr  Zr6  1  0.443632  0.999999  0.000000  1
  Zr  Zr7  1  0.000001  0.443633  0.000000  1
  As  As8  1  0.826055  0.826053  0.000000  1
  As  As9  1  0.173947  0.000002  0.000000  1
  As  As10  1  0.999998  0.173945  0.000000  1
  As  As11  1  0.166940  0.483384  0.500000  1
  As  As12  1  0.516616  0.683556  0.500000  1
  As  As13  1  0.316444  0.833060  0.500000  1
  As  As14  1  0.683599  0.516611  0.500000  1
  As  As15  1  0.833012  0.316401  0.500000  1
  As  As16  1  0.483389  0.166988  0.500000  1
  As  As17  1  0.358228  0.358224  0.000000  1
  As  As18  1  0.641776  0.000004  0.000000  1
  As  As19  1  0.999996  0.641772  0.000000  1
  Pd  Pd20  1  0.721951  0.721935  0.500000  1
  Pd  Pd21  1  0.278065  0.000016  0.500000  1
  Pd  Pd22  1  0.999984  0.278049  0.500000  1
  Pd  Pd23  1  0.181683  0.372522  0.000000  1
  Pd  Pd24  1  0.627478  0.809161  0.000000  1
  Pd  Pd25  1  0.190839  0.818317  0.000000  1
  Pd  Pd26  1  0.809152  0.627498  0.000000  1
  Pd  Pd27  1  0.818346  0.190848  0.000000  1
  Pd  Pd28  1  0.372502  0.181654  0.000000  1
  Pd  Pd29  1  0.356968  0.485559  0.500000  1
  Pd  Pd30  1  0.514441  0.871409  0.500000  1
  Pd  Pd31  1  0.128591  0.643032  0.500000  1
  Pd  Pd32  1  0.871360  0.514408  0.500000  1
  Pd  Pd33  1  0.643048  0.128640  0.500000  1
  Pd  Pd34  1  0.485592  0.356952  0.500000  1
  Pd  Pd35  1  0.000000  0.000000  0.000000  1
