# generated using pymatgen
data_SmAgRu2O7
_symmetry_space_group_name_H-M   'P 1'
_cell_length_a   7.17922059
_cell_length_b   7.25949019
_cell_length_c   7.25949022
_cell_angle_alpha   61.52449723
_cell_angle_beta   60.36509164
_cell_angle_gamma   60.36510195
_symmetry_Int_Tables_number   1
_chemical_formula_structural   SmAgRu2O7
_chemical_formula_sum   'Sm2 Ag2 Ru4 O14'
_cell_volume   271.99464961
_cell_formula_units_Z   2
loop_
 _symmetry_equiv_pos_site_id
 _symmetry_equiv_pos_as_xyz
  1  'x, y, z'
loop_
 _atom_site_type_symbol
 _atom_site_label
 _atom_site_symmetry_multiplicity
 _atom_site_fract_x
 _atom_site_fract_y
 _atom_site_fract_z
 _atom_site_occupancy
  Sm  Sm0  1  0.625000  0.625000  0.125000  1
  Sm  Sm1  1  0.625000  0.125000  0.625000  1
  Ag  Ag2  1  0.625000  0.625000  0.625000  1
  Ag  Ag3  1  0.125000  0.625000  0.625000  1
  Ru  Ru4  1  0.125000  0.125000  0.125000  1
  Ru  Ru5  1  0.625000  0.125000  0.125000  1
  Ru  Ru6  1  0.125000  0.125000  0.625000  1
  Ru  Ru7  1  0.125000  0.625000  0.125000  1
  O  O8  1  0.490377  0.509623  0.509623  1
  O  O9  1  0.759623  0.740377  0.740377  1
  O  O10  1  0.048713  0.059191  0.443899  1
  O  O11  1  0.801803  0.806101  0.190809  1
  O  O12  1  0.448197  0.059191  0.443899  1
  O  O13  1  0.459275  0.040725  0.040725  1
  O  O14  1  0.062777  0.437223  0.437223  1
  O  O15  1  0.048713  0.443899  0.059191  1
  O  O16  1  0.448197  0.443899  0.059191  1
  O  O17  1  0.187223  0.812777  0.812777  1
  O  O18  1  0.790725  0.209275  0.209275  1
  O  O19  1  0.201287  0.190809  0.806101  1
  O  O20  1  0.201287  0.806101  0.190809  1
  O  O21  1  0.801803  0.190809  0.806101  1
