# generated using pymatgen
data_EuMgNiSn2
_symmetry_space_group_name_H-M   'P 1'
_cell_length_a   4.57251500
_cell_length_b   4.57251500
_cell_length_c   11.35410300
_cell_angle_alpha   90.00000000
_cell_angle_beta   90.00000000
_cell_angle_gamma   90.00000000
_symmetry_Int_Tables_number   1
_chemical_formula_structural   EuMgNiSn2
_chemical_formula_sum   'Eu2 Mg2 Ni2 Sn4'
_cell_volume   237.39037546
_cell_formula_units_Z   2
loop_
 _symmetry_equiv_pos_site_id
 _symmetry_equiv_pos_as_xyz
  1  'x, y, z'
loop_
 _atom_site_type_symbol
 _atom_site_label
 _atom_site_symmetry_multiplicity
 _atom_site_fract_x
 _atom_site_fract_y
 _atom_site_fract_z
 _atom_site_occupancy
  Eu  Eu0  1  0.000000  0.500000  0.272564  1
  Eu  Eu1  1  0.500000  0.000000  0.727436  1
  Mg  Mg2  1  0.000000  0.000000  0.000000  1
  Mg  Mg3  1  0.500000  0.500000  0.000000  1
  Ni  Ni4  1  0.000000  0.500000  0.611645  1
  Ni  Ni5  1  0.500000  0.000000  0.388355  1
  Sn  Sn6  1  0.000000  0.000000  0.500000  1
  Sn  Sn7  1  0.500000  0.500000  0.500000  1
  Sn  Sn8  1  0.000000  0.500000  0.833520  1
  Sn  Sn9  1  0.500000  0.000000  0.166480  1
