# generated using pymatgen
data_Hf2Ta3Nb(B2Ru5)2
_symmetry_space_group_name_H-M   'P 1'
_cell_length_a   9.45777542
_cell_length_b   9.45777518
_cell_length_c   3.06955000
_cell_angle_alpha   90.00000000
_cell_angle_beta   90.00000000
_cell_angle_gamma   89.99877021
_symmetry_Int_Tables_number   1
_chemical_formula_structural   Hf2Ta3Nb(B2Ru5)2
_chemical_formula_sum   'Hf2 Ta3 Nb1 B4 Ru10'
_cell_volume   274.56975452
_cell_formula_units_Z   1
loop_
 _symmetry_equiv_pos_site_id
 _symmetry_equiv_pos_as_xyz
  1  'x, y, z'
loop_
 _atom_site_type_symbol
 _atom_site_label
 _atom_site_symmetry_multiplicity
 _atom_site_fract_x
 _atom_site_fract_y
 _atom_site_fract_z
 _atom_site_occupancy
  Hf  Hf0  1  0.824092  0.675975  0.000000  1
  Hf  Hf1  1  0.175975  0.324092  0.000000  1
  Ta  Ta2  1  0.676050  0.176050  0.000000  1
  Ta  Ta3  1  0.499893  0.500079  0.000000  1
  Ta  Ta4  1  0.000079  0.999893  0.000000  1
  Nb  Nb5  1  0.324060  0.824060  0.000000  1
  B  B6  1  0.621156  0.878685  0.000000  1
  B  B7  1  0.378685  0.121156  0.000000  1
  B  B8  1  0.121264  0.621264  0.000000  1
  B  B9  1  0.878881  0.378881  0.000000  1
  Ru  Ru10  1  0.568897  0.719544  0.500000  1
  Ru  Ru11  1  0.432304  0.280640  0.500000  1
  Ru  Ru12  1  0.073207  0.782769  0.500000  1
  Ru  Ru13  1  0.925325  0.216710  0.500000  1
  Ru  Ru14  1  0.282769  0.573207  0.500000  1
  Ru  Ru15  1  0.716710  0.425325  0.500000  1
  Ru  Ru16  1  0.219544  0.068897  0.500000  1
  Ru  Ru17  1  0.780640  0.932304  0.500000  1
  Ru  Ru18  1  0.500771  0.000771  0.500000  1
  Ru  Ru19  1  0.999697  0.499697  0.500000  1
