# generated using pymatgen
data_Er16Cd4Co3Ru
_symmetry_space_group_name_H-M   'P 1'
_cell_length_a   9.45184295
_cell_length_b   9.41001208
_cell_length_c   9.41001200
_cell_angle_alpha   59.99999324
_cell_angle_beta   60.14628606
_cell_angle_gamma   60.14628855
_symmetry_Int_Tables_number   1
_chemical_formula_structural   Er16Cd4Co3Ru
_chemical_formula_sum   'Er16 Cd4 Co3 Ru1'
_cell_volume   593.11456165
_cell_formula_units_Z   1
loop_
 _symmetry_equiv_pos_site_id
 _symmetry_equiv_pos_as_xyz
  1  'x, y, z'
loop_
 _atom_site_type_symbol
 _atom_site_label
 _atom_site_symmetry_multiplicity
 _atom_site_fract_x
 _atom_site_fract_y
 _atom_site_fract_z
 _atom_site_occupancy
  Er  Er0  1  0.342560  0.349523  0.349523  1
  Er  Er1  1  0.342560  0.349523  0.958394  1
  Er  Er2  1  0.342560  0.958394  0.349523  1
  Er  Er3  1  0.962297  0.345901  0.345901  1
  Er  Er4  1  0.816387  0.187658  0.187658  1
  Er  Er5  1  0.188030  0.812219  0.812219  1
  Er  Er6  1  0.188030  0.812219  0.187532  1
  Er  Er7  1  0.816387  0.187658  0.808298  1
  Er  Er8  1  0.188030  0.187532  0.812219  1
  Er  Er9  1  0.816387  0.808298  0.187658  1
  Er  Er10  1  0.936417  0.563117  0.563117  1
  Er  Er11  1  0.562103  0.938251  0.938251  1
  Er  Er12  1  0.562103  0.938251  0.561397  1
  Er  Er13  1  0.936417  0.563117  0.937349  1
  Er  Er14  1  0.562103  0.561397  0.938251  1
  Er  Er15  1  0.936417  0.937349  0.563117  1
  Cd  Cd16  1  0.580919  0.580106  0.580106  1
  Cd  Cd17  1  0.580919  0.580106  0.258869  1
  Cd  Cd18  1  0.580919  0.258869  0.580106  1
  Cd  Cd19  1  0.258629  0.580457  0.580457  1
  Co  Co20  1  0.141181  0.141166  0.141166  1
  Co  Co21  1  0.141181  0.141166  0.576486  1
  Co  Co22  1  0.141181  0.576486  0.141166  1
  Ru  Ru23  1  0.576291  0.141237  0.141237  1
