# generated using pymatgen
data_Tm4AgRh
_symmetry_space_group_name_H-M   'P 1'
_cell_length_a   9.41973542
_cell_length_b   9.41973675
_cell_length_c   9.41973600
_cell_angle_alpha   60.00000264
_cell_angle_beta   59.99999795
_cell_angle_gamma   59.99999926
_symmetry_Int_Tables_number   1
_chemical_formula_structural   Tm4AgRh
_chemical_formula_sum   'Tm16 Ag4 Rh4'
_cell_volume   591.01867421
_cell_formula_units_Z   4
loop_
 _symmetry_equiv_pos_site_id
 _symmetry_equiv_pos_as_xyz
  1  'x, y, z'
loop_
 _atom_site_type_symbol
 _atom_site_label
 _atom_site_symmetry_multiplicity
 _atom_site_fract_x
 _atom_site_fract_y
 _atom_site_fract_z
 _atom_site_occupancy
  Tm  Tm0  1  0.065172  0.065172  0.434828  1
  Tm  Tm1  1  0.434828  0.065172  0.434828  1
  Tm  Tm2  1  0.065172  0.434828  0.065172  1
  Tm  Tm3  1  0.057667  0.647445  0.647445  1
  Tm  Tm4  1  0.434828  0.434828  0.065172  1
  Tm  Tm5  1  0.647445  0.057667  0.647445  1
  Tm  Tm6  1  0.188582  0.811418  0.188582  1
  Tm  Tm7  1  0.188582  0.188582  0.811418  1
  Tm  Tm8  1  0.811418  0.811418  0.188582  1
  Tm  Tm9  1  0.434828  0.065172  0.065172  1
  Tm  Tm10  1  0.811418  0.188582  0.188582  1
  Tm  Tm11  1  0.065172  0.434828  0.434828  1
  Tm  Tm12  1  0.811418  0.188582  0.811418  1
  Tm  Tm13  1  0.188582  0.811418  0.811418  1
  Tm  Tm14  1  0.647445  0.647445  0.057667  1
  Tm  Tm15  1  0.647445  0.647445  0.647445  1
  Ag  Ag16  1  0.417510  0.417510  0.417510  1
  Ag  Ag17  1  0.747468  0.417510  0.417510  1
  Ag  Ag18  1  0.417510  0.747468  0.417510  1
  Ag  Ag19  1  0.417510  0.417510  0.747468  1
  Rh  Rh20  1  0.856728  0.856728  0.429816  1
  Rh  Rh21  1  0.856728  0.856728  0.856728  1
  Rh  Rh22  1  0.429816  0.856728  0.856728  1
  Rh  Rh23  1  0.856728  0.429816  0.856728  1
