# generated using pymatgen
data_CsTb3CI6
_symmetry_space_group_name_H-M   'P 1'
_cell_length_a   9.41207226
_cell_length_b   9.47688749
_cell_length_c   9.98316465
_cell_angle_alpha   71.48517128
_cell_angle_beta   84.55132359
_cell_angle_gamma   89.31469855
_symmetry_Int_Tables_number   1
_chemical_formula_structural   CsTb3CI6
_chemical_formula_sum   'Cs2 Tb6 C2 I12'
_cell_volume   840.40913306
_cell_formula_units_Z   2
loop_
 _symmetry_equiv_pos_site_id
 _symmetry_equiv_pos_as_xyz
  1  'x, y, z'
loop_
 _atom_site_type_symbol
 _atom_site_label
 _atom_site_symmetry_multiplicity
 _atom_site_fract_x
 _atom_site_fract_y
 _atom_site_fract_z
 _atom_site_occupancy
  Cs  Cs0  1  0.464708  0.368485  0.328233  1
  Cs  Cs1  1  0.535293  0.631515  0.671767  1
  Tb  Tb2  1  0.919925  0.756951  0.003134  1
  Tb  Tb3  1  0.080075  0.243049  0.996865  1
  Tb  Tb4  1  0.754562  0.082023  0.001336  1
  Tb  Tb5  1  0.245437  0.917977  0.998665  1
  Tb  Tb6  1  0.973205  0.895596  0.310505  1
  Tb  Tb7  1  0.026794  0.104404  0.689496  1
  C  C8  1  0.006545  0.024885  0.924884  1
  C  C9  1  0.993454  0.975115  0.075116  1
  I  I10  1  0.073812  0.200607  0.327794  1
  I  I11  1  0.926188  0.799393  0.672206  1
  I  I12  1  0.204136  0.594242  0.000316  1
  I  I13  1  0.795865  0.405758  0.999684  1
  I  I14  1  0.402859  0.200099  0.001135  1
  I  I15  1  0.597140  0.799902  0.998864  1
  I  I16  1  0.664227  0.002681  0.327349  1
  I  I17  1  0.335773  0.997319  0.672651  1
  I  I18  1  0.279224  0.778343  0.323299  1
  I  I19  1  0.720776  0.221657  0.676701  1
  I  I20  1  0.852967  0.590849  0.326954  1
  I  I21  1  0.147032  0.409151  0.673046  1
