# generated using pymatgen
data_SmBi5(SbO6)3
_symmetry_space_group_name_H-M   'P 1'
_cell_length_a   9.32352500
_cell_length_b   9.30922047
_cell_length_c   5.36170247
_cell_angle_alpha   90.78139307
_cell_angle_beta   90.00000000
_cell_angle_gamma   120.05085395
_symmetry_Int_Tables_number   1
_chemical_formula_structural   SmBi5(SbO6)3
_chemical_formula_sum   'Sm1 Bi5 Sb3 O18'
_cell_volume   402.76350508
_cell_formula_units_Z   1
loop_
 _symmetry_equiv_pos_site_id
 _symmetry_equiv_pos_as_xyz
  1  'x, y, z'
loop_
 _atom_site_type_symbol
 _atom_site_label
 _atom_site_symmetry_multiplicity
 _atom_site_fract_x
 _atom_site_fract_y
 _atom_site_fract_z
 _atom_site_occupancy
  Sm  Sm0  1  0.609911  0.000000  0.500000  1
  Bi  Bi1  1  0.003249  0.625589  0.500977  1
  Bi  Bi2  1  0.997528  0.289015  0.999834  1
  Bi  Bi3  1  0.377660  0.374411  0.499023  1
  Bi  Bi4  1  0.284945  0.000000  0.000000  1
  Bi  Bi5  1  0.708511  0.710985  0.000166  1
  Sb  Sb6  1  0.334845  0.667058  0.988881  1
  Sb  Sb7  1  0.997519  0.000000  0.500000  1
  Sb  Sb8  1  0.667789  0.332942  0.011119  1
  O  O9  1  0.078053  0.870319  0.307092  1
  O  O10  1  0.238961  0.768670  0.760215  1
  O  O11  1  0.131138  0.537214  0.202479  1
  O  O12  1  0.406022  0.868985  0.203327  1
  O  O13  1  0.227753  0.453094  0.781328  1
  O  O14  1  0.118427  0.201483  0.276075  1
  O  O15  1  0.207734  0.129681  0.692908  1
  O  O16  1  0.541874  0.770823  0.774835  1
  O  O17  1  0.467291  0.597424  0.201302  1
  O  O18  1  0.790798  0.914576  0.292642  1
  O  O19  1  0.470291  0.231330  0.239785  1
  O  O20  1  0.593923  0.462786  0.797521  1
  O  O21  1  0.537038  0.131015  0.796673  1
  O  O22  1  0.774659  0.546906  0.218672  1
  O  O23  1  0.916944  0.798517  0.723925  1
  O  O24  1  0.771051  0.229177  0.225165  1
  O  O25  1  0.869866  0.402576  0.798698  1
  O  O26  1  0.876222  0.085424  0.707358  1
