# generated using pymatgen
data_Lu12GaCo5
_symmetry_space_group_name_H-M   'P 1'
_cell_length_a   8.04164687
_cell_length_b   8.04164717
_cell_length_c   8.04164703
_cell_angle_alpha   110.94446562
_cell_angle_beta   110.90197660
_cell_angle_gamma   106.60469413
_symmetry_Int_Tables_number   1
_chemical_formula_structural   Lu12GaCo5
_chemical_formula_sum   'Lu12 Ga1 Co5'
_cell_volume   399.57856432
_cell_formula_units_Z   1
loop_
 _symmetry_equiv_pos_site_id
 _symmetry_equiv_pos_as_xyz
  1  'x, y, z'
loop_
 _atom_site_type_symbol
 _atom_site_label
 _atom_site_symmetry_multiplicity
 _atom_site_fract_x
 _atom_site_fract_y
 _atom_site_fract_z
 _atom_site_occupancy
  Lu  Lu0  1  0.287269  0.185446  0.472715  1
  Lu  Lu1  1  0.712731  0.814554  0.527285  1
  Lu  Lu2  1  0.287269  0.814554  0.101822  1
  Lu  Lu3  1  0.712731  0.185446  0.898178  1
  Lu  Lu4  1  0.618858  0.316142  0.302716  1
  Lu  Lu5  1  0.381142  0.683858  0.697284  1
  Lu  Lu6  1  0.013427  0.316142  0.697284  1
  Lu  Lu7  1  0.986573  0.683858  0.302716  1
  Lu  Lu8  1  0.217562  0.409058  0.191498  1
  Lu  Lu9  1  0.782438  0.590942  0.808502  1
  Lu  Lu10  1  0.217562  0.026064  0.808502  1
  Lu  Lu11  1  0.782438  0.973936  0.191498  1
  Ga  Ga12  1  0.500000  0.500000  0.000000  1
  Co  Co13  1  0.000000  0.374459  0.374459  1
  Co  Co14  1  0.000000  0.625541  0.625541  1
  Co  Co15  1  0.385513  0.885513  0.500000  1
  Co  Co16  1  0.614487  0.114487  0.500000  1
  Co  Co17  1  0.000000  0.000000  0.000000  1
