# generated using pymatgen
data_DyEr5Pa2(ReB6)4
_symmetry_space_group_name_H-M   'P 1'
_cell_length_a   3.68728700
_cell_length_b   9.13911019
_cell_length_c   11.50757400
_cell_angle_alpha   90.32682175
_cell_angle_beta   90.00000000
_cell_angle_gamma   90.00000000
_symmetry_Int_Tables_number   1
_chemical_formula_structural   DyEr5Pa2(ReB6)4
_chemical_formula_sum   'Dy1 Er5 Pa2 Re4 B24'
_cell_volume   387.78192922
_cell_formula_units_Z   1
loop_
 _symmetry_equiv_pos_site_id
 _symmetry_equiv_pos_as_xyz
  1  'x, y, z'
loop_
 _atom_site_type_symbol
 _atom_site_label
 _atom_site_symmetry_multiplicity
 _atom_site_fract_x
 _atom_site_fract_y
 _atom_site_fract_z
 _atom_site_occupancy
  Dy  Dy0  1  0.000000  0.823784  0.085634  1
  Er  Er1  1  0.000000  0.176223  0.914440  1
  Er  Er2  1  0.000000  0.944841  0.372505  1
  Er  Er3  1  0.000000  0.055222  0.627556  1
  Er  Er4  1  0.000000  0.443717  0.126324  1
  Er  Er5  1  0.000000  0.556082  0.873582  1
  Pa  Pa6  1  0.000000  0.321362  0.413094  1
  Pa  Pa7  1  0.000000  0.678634  0.586926  1
  Re  Re8  1  0.000000  0.635541  0.324296  1
  Re  Re9  1  0.000000  0.364330  0.675831  1
  Re  Re10  1  0.000000  0.140587  0.181526  1
  Re  Re11  1  0.000000  0.859738  0.818351  1
  B  B12  1  0.500000  0.553584  0.432833  1
  B  B13  1  0.500000  0.446393  0.567195  1
  B  B14  1  0.500000  0.053589  0.067035  1
  B  B15  1  0.500000  0.946834  0.932738  1
  B  B16  1  0.500000  0.748813  0.419461  1
  B  B17  1  0.500000  0.251197  0.580602  1
  B  B18  1  0.500000  0.248236  0.079769  1
  B  B19  1  0.500000  0.751753  0.919820  1
  B  B20  1  0.500000  0.791778  0.265508  1
  B  B21  1  0.500000  0.208088  0.734772  1
  B  B22  1  0.500000  0.292213  0.233590  1
  B  B23  1  0.500000  0.707790  0.766346  1
  B  B24  1  0.500000  0.631225  0.185199  1
  B  B25  1  0.500000  0.368483  0.814982  1
  B  B26  1  0.500000  0.131845  0.314131  1
  B  B27  1  0.500000  0.868223  0.685892  1
  B  B28  1  0.500000  0.982168  0.212238  1
  B  B29  1  0.500000  0.018271  0.787906  1
  B  B30  1  0.500000  0.482809  0.286361  1
  B  B31  1  0.500000  0.517112  0.713664  1
  B  B32  1  0.500000  0.604238  0.029133  1
  B  B33  1  0.500000  0.395283  0.970741  1
  B  B34  1  0.500000  0.109090  0.469809  1
  B  B35  1  0.500000  0.890923  0.530212  1
