# generated using pymatgen
data_YHo7Re3B24Rh
_symmetry_space_group_name_H-M   'P 1'
_cell_length_a   3.67206900
_cell_length_b   9.15378892
_cell_length_c   11.53181500
_cell_angle_alpha   90.16284356
_cell_angle_beta   90.00000000
_cell_angle_gamma   90.00000000
_symmetry_Int_Tables_number   1
_chemical_formula_structural   YHo7Re3B24Rh
_chemical_formula_sum   'Y1 Ho7 Re3 B24 Rh1'
_cell_volume   387.62130510
_cell_formula_units_Z   1
loop_
 _symmetry_equiv_pos_site_id
 _symmetry_equiv_pos_as_xyz
  1  'x, y, z'
loop_
 _atom_site_type_symbol
 _atom_site_label
 _atom_site_symmetry_multiplicity
 _atom_site_fract_x
 _atom_site_fract_y
 _atom_site_fract_z
 _atom_site_occupancy
  Y  Y0  1  0.000000  0.318139  0.415546  1
  Ho  Ho1  1  0.000000  0.678208  0.591482  1
  Ho  Ho2  1  0.000000  0.827346  0.081142  1
  Ho  Ho3  1  0.000000  0.177476  0.912704  1
  Ho  Ho4  1  0.000000  0.942943  0.369962  1
  Ho  Ho5  1  0.000000  0.055848  0.628946  1
  Ho  Ho6  1  0.000000  0.441267  0.128858  1
  Ho  Ho7  1  0.000000  0.556863  0.871890  1
  Re  Re8  1  0.000000  0.362717  0.678136  1
  Re  Re9  1  0.000000  0.138021  0.179601  1
  Re  Re10  1  0.000000  0.861499  0.820563  1
  B  B11  1  0.500000  0.554215  0.433790  1
  B  B12  1  0.500000  0.447028  0.566902  1
  B  B13  1  0.500000  0.053389  0.066328  1
  B  B14  1  0.500000  0.947313  0.932641  1
  B  B15  1  0.500000  0.748991  0.420334  1
  B  B16  1  0.500000  0.250568  0.581334  1
  B  B17  1  0.500000  0.249253  0.081052  1
  B  B18  1  0.500000  0.751961  0.918988  1
  B  B19  1  0.500000  0.791107  0.264972  1
  B  B20  1  0.500000  0.208389  0.734251  1
  B  B21  1  0.500000  0.291542  0.234834  1
  B  B22  1  0.500000  0.708148  0.765889  1
  B  B23  1  0.500000  0.632023  0.183986  1
  B  B24  1  0.500000  0.369439  0.814384  1
  B  B25  1  0.500000  0.130295  0.314630  1
  B  B26  1  0.500000  0.868398  0.685314  1
  B  B27  1  0.500000  0.982616  0.211749  1
  B  B28  1  0.500000  0.017465  0.787026  1
  B  B29  1  0.500000  0.483506  0.287783  1
  B  B30  1  0.500000  0.518438  0.712595  1
  B  B31  1  0.500000  0.604340  0.029513  1
  B  B32  1  0.500000  0.397176  0.972025  1
  B  B33  1  0.500000  0.101210  0.471085  1
  B  B34  1  0.500000  0.894631  0.528317  1
  Rh  Rh35  1  0.000000  0.638235  0.321451  1
