# generated using pymatgen
data_TbU3Ga12Tc
_symmetry_space_group_name_H-M   'P 1'
_cell_length_a   7.50039268
_cell_length_b   7.48025491
_cell_length_c   7.48025439
_cell_angle_alpha   109.41661910
_cell_angle_beta   109.52576553
_cell_angle_gamma   109.52576851
_symmetry_Int_Tables_number   1
_chemical_formula_structural   TbU3Ga12Tc
_chemical_formula_sum   'Tb1 U3 Ga12 Tc1'
_cell_volume   322.85095665
_cell_formula_units_Z   1
loop_
 _symmetry_equiv_pos_site_id
 _symmetry_equiv_pos_as_xyz
  1  'x, y, z'
loop_
 _atom_site_type_symbol
 _atom_site_label
 _atom_site_symmetry_multiplicity
 _atom_site_fract_x
 _atom_site_fract_y
 _atom_site_fract_z
 _atom_site_occupancy
  Tb  Tb0  1  0.500000  0.000000  0.000000  1
  U  U1  1  0.000000  0.000000  0.500000  1
  U  U2  1  0.500000  0.500000  0.500000  1
  U  U3  1  0.000000  0.500000  0.000000  1
  Ga  Ga4  1  0.290601  0.000000  0.291596  1
  Ga  Ga5  1  0.500000  0.250269  0.749731  1
  Ga  Ga6  1  0.999005  0.708404  0.708404  1
  Ga  Ga7  1  0.709399  0.000000  0.708404  1
  Ga  Ga8  1  0.750269  0.500539  0.250269  1
  Ga  Ga9  1  0.249731  0.749731  0.499461  1
  Ga  Ga10  1  0.750269  0.250269  0.500539  1
  Ga  Ga11  1  0.709399  0.708404  0.000000  1
  Ga  Ga12  1  0.249731  0.499461  0.749731  1
  Ga  Ga13  1  0.500000  0.749731  0.250269  1
  Ga  Ga14  1  0.290601  0.291596  0.000000  1
  Ga  Ga15  1  0.000995  0.291596  0.291596  1
  Tc  Tc16  1  0.000000  0.000000  0.000000  1
