# generated using pymatgen
data_CdPd5Au2
_symmetry_space_group_name_H-M   'P 1'
_cell_length_a   4.14299800
_cell_length_b   5.67295200
_cell_length_c   11.30096300
_cell_angle_alpha   90.00000000
_cell_angle_beta   90.00000000
_cell_angle_gamma   90.00000000
_symmetry_Int_Tables_number   1
_chemical_formula_structural   CdPd5Au2
_chemical_formula_sum   'Cd2 Pd10 Au4'
_cell_volume   265.60685874
_cell_formula_units_Z   2
loop_
 _symmetry_equiv_pos_site_id
 _symmetry_equiv_pos_as_xyz
  1  'x, y, z'
loop_
 _atom_site_type_symbol
 _atom_site_label
 _atom_site_symmetry_multiplicity
 _atom_site_fract_x
 _atom_site_fract_y
 _atom_site_fract_z
 _atom_site_occupancy
  Cd  Cd0  1  0.000000  0.000000  0.500000  1
  Cd  Cd1  1  0.000000  0.500000  0.000000  1
  Pd  Pd2  1  0.500000  0.237110  0.375676  1
  Pd  Pd3  1  0.500000  0.762890  0.624324  1
  Pd  Pd4  1  0.500000  0.262890  0.875676  1
  Pd  Pd5  1  0.500000  0.737110  0.124324  1
  Pd  Pd6  1  0.000000  0.482244  0.251180  1
  Pd  Pd7  1  0.000000  0.517756  0.748820  1
  Pd  Pd8  1  0.000000  0.017756  0.751180  1
  Pd  Pd9  1  0.000000  0.982244  0.248820  1
  Pd  Pd10  1  0.000000  0.000000  0.000000  1
  Pd  Pd11  1  0.000000  0.500000  0.500000  1
  Au  Au12  1  0.500000  0.232880  0.128012  1
  Au  Au13  1  0.500000  0.767120  0.871988  1
  Au  Au14  1  0.500000  0.267120  0.628012  1
  Au  Au15  1  0.500000  0.732880  0.371988  1
