# generated using pymatgen
data_LaNd2UO7
_symmetry_space_group_name_H-M   'P 1'
_cell_length_a   6.79792500
_cell_length_b   6.79792552
_cell_length_c   7.96848500
_cell_angle_alpha   90.00000000
_cell_angle_beta   90.00000000
_cell_angle_gamma   109.16999765
_symmetry_Int_Tables_number   1
_chemical_formula_structural   LaNd2UO7
_chemical_formula_sum   'La2 Nd4 U2 O14'
_cell_volume   347.81857308
_cell_formula_units_Z   2
loop_
 _symmetry_equiv_pos_site_id
 _symmetry_equiv_pos_as_xyz
  1  'x, y, z'
loop_
 _atom_site_type_symbol
 _atom_site_label
 _atom_site_symmetry_multiplicity
 _atom_site_fract_x
 _atom_site_fract_y
 _atom_site_fract_z
 _atom_site_occupancy
  La  La0  1  0.500322  0.500321  0.499999  1
  La  La1  1  0.499678  0.499679  0.999999  1
  Nd  Nd2  1  0.466820  0.997990  0.249983  1
  Nd  Nd3  1  0.001989  0.533141  0.250015  1
  Nd  Nd4  1  0.533180  0.002010  0.749983  1
  Nd  Nd5  1  0.998011  0.466859  0.750015  1
  U  U6  1  0.000048  0.000047  0.500001  1
  U  U7  1  0.999952  0.999953  0.000001  1
  O  O8  1  0.327028  0.078100  0.528702  1
  O  O9  1  0.921881  0.672958  0.971321  1
  O  O10  1  0.672972  0.921900  0.028702  1
  O  O11  1  0.078119  0.327042  0.471321  1
  O  O12  1  0.921746  0.673031  0.528790  1
  O  O13  1  0.326955  0.078235  0.971189  1
  O  O14  1  0.078254  0.326969  0.028790  1
  O  O15  1  0.673045  0.921765  0.471189  1
  O  O16  1  0.631855  0.368135  0.250002  1
  O  O17  1  0.368145  0.631865  0.750002  1
  O  O18  1  0.635675  0.364332  0.749998  1
  O  O19  1  0.364325  0.635668  0.249998  1
  O  O20  1  0.084746  0.915263  0.250001  1
  O  O21  1  0.915254  0.084737  0.750001  1
