# generated using pymatgen
data_Hf6Sn2Ge
_symmetry_space_group_name_H-M   'P 1'
_cell_length_a   7.62498615
_cell_length_b   3.83356900
_cell_length_c   7.62449301
_cell_angle_alpha   90.00000000
_cell_angle_beta   120.00213735
_cell_angle_gamma   90.00000000
_symmetry_Int_Tables_number   1
_chemical_formula_structural   Hf6Sn2Ge
_chemical_formula_sum   'Hf6 Sn2 Ge1'
_cell_volume   193.00768071
_cell_formula_units_Z   1
loop_
 _symmetry_equiv_pos_site_id
 _symmetry_equiv_pos_as_xyz
  1  'x, y, z'
loop_
 _atom_site_type_symbol
 _atom_site_label
 _atom_site_symmetry_multiplicity
 _atom_site_fract_x
 _atom_site_fract_y
 _atom_site_fract_z
 _atom_site_occupancy
  Hf  Hf0  1  0.393675  0.000000  0.000000  1
  Hf  Hf1  1  0.752458  0.499999  0.000000  1
  Hf  Hf2  1  0.247595  0.499999  0.247600  1
  Hf  Hf3  1  0.999996  0.000000  0.393638  1
  Hf  Hf4  1  0.606356  0.000000  0.606360  1
  Hf  Hf5  1  0.999995  0.499999  0.752400  1
  Sn  Sn6  1  0.666743  0.499999  0.333381  1
  Sn  Sn7  1  0.333361  0.499999  0.666617  1
  Ge  Ge8  1  0.999931  0.000000  0.000000  1
