# generated using pymatgen
data_Cs4Rb2V(IrBr6)3
_symmetry_space_group_name_H-M   'P 1'
_cell_length_a   7.69015000
_cell_length_b   7.69015064
_cell_length_c   19.44153500
_cell_angle_alpha   90.00000000
_cell_angle_beta   90.00000000
_cell_angle_gamma   119.99999724
_symmetry_Int_Tables_number   1
_chemical_formula_structural   Cs4Rb2V(IrBr6)3
_chemical_formula_sum   'Cs4 Rb2 V1 Ir3 Br18'
_cell_volume   995.70537962
_cell_formula_units_Z   1
loop_
 _symmetry_equiv_pos_site_id
 _symmetry_equiv_pos_as_xyz
  1  'x, y, z'
loop_
 _atom_site_type_symbol
 _atom_site_label
 _atom_site_symmetry_multiplicity
 _atom_site_fract_x
 _atom_site_fract_y
 _atom_site_fract_z
 _atom_site_occupancy
  Cs  Cs0  1  0.666667  0.333333  0.563187  1
  Cs  Cs1  1  0.333333  0.666667  0.066685  1
  Cs  Cs2  1  0.333333  0.666667  0.430726  1
  Cs  Cs3  1  0.666667  0.333333  0.938580  1
  Rb  Rb4  1  0.000000  0.000000  0.249606  1
  Rb  Rb5  1  0.000000  0.000000  0.750205  1
  V  V6  1  0.666667  0.333333  0.169152  1
  Ir  Ir7  1  0.333333  0.666667  0.664454  1
  Ir  Ir8  1  0.666667  0.333333  0.327809  1
  Ir  Ir9  1  0.333333  0.666667  0.834945  1
  Br  Br10  1  0.821056  0.642112  0.401428  1
  Br  Br11  1  0.177961  0.822039  0.592740  1
  Br  Br12  1  0.644079  0.822039  0.592740  1
  Br  Br13  1  0.821056  0.178944  0.401428  1
  Br  Br14  1  0.357888  0.178944  0.401428  1
  Br  Br15  1  0.178076  0.356153  0.906621  1
  Br  Br16  1  0.040705  0.520353  0.749659  1
  Br  Br17  1  0.643847  0.821924  0.906621  1
  Br  Br18  1  0.824598  0.649196  0.098430  1
  Br  Br19  1  0.177961  0.355921  0.592740  1
  Br  Br20  1  0.479647  0.959295  0.749659  1
  Br  Br21  1  0.510908  0.489092  0.252674  1
  Br  Br22  1  0.479647  0.520353  0.749659  1
  Br  Br23  1  0.178076  0.821924  0.906621  1
  Br  Br24  1  0.350804  0.175402  0.098430  1
  Br  Br25  1  0.978185  0.489092  0.252674  1
  Br  Br26  1  0.510908  0.021815  0.252674  1
  Br  Br27  1  0.824598  0.175402  0.098430  1
