# generated using pymatgen
data_Gd3Ho7(InSb)4
_symmetry_space_group_name_H-M   'P 1'
_cell_length_a   8.81971905
_cell_length_b   8.79342184
_cell_length_c   8.10227100
_cell_angle_alpha   89.97802236
_cell_angle_beta   89.99407535
_cell_angle_gamma   125.12423717
_symmetry_Int_Tables_number   1
_chemical_formula_structural   Gd3Ho7(InSb)4
_chemical_formula_sum   'Gd3 Ho7 In4 Sb4'
_cell_volume   513.95248169
_cell_formula_units_Z   1
loop_
 _symmetry_equiv_pos_site_id
 _symmetry_equiv_pos_as_xyz
  1  'x, y, z'
loop_
 _atom_site_type_symbol
 _atom_site_label
 _atom_site_symmetry_multiplicity
 _atom_site_fract_x
 _atom_site_fract_y
 _atom_site_fract_z
 _atom_site_occupancy
  Gd  Gd0  1  0.033615  0.313556  0.331724  1
  Gd  Gd1  1  0.967511  0.687973  0.668238  1
  Gd  Gd2  1  0.466123  0.187193  0.831521  1
  Ho  Ho3  1  0.804360  0.530199  0.165438  1
  Ho  Ho4  1  0.533611  0.809485  0.166533  1
  Ho  Ho5  1  0.194613  0.469436  0.834535  1
  Ho  Ho6  1  0.695167  0.970503  0.665269  1
  Ho  Ho7  1  0.305057  0.030766  0.334567  1
  Ho  Ho8  1  0.000203  0.999878  0.000356  1
  Ho  Ho9  1  0.500097  0.500409  0.500095  1
  In  In10  1  0.371741  0.372213  0.127994  1
  In  In11  1  0.628154  0.629721  0.872426  1
  In  In12  1  0.127573  0.128426  0.627864  1
  In  In13  1  0.870577  0.870991  0.371315  1
  Sb  Sb14  1  0.798963  0.203735  0.996735  1
  Sb  Sb15  1  0.200330  0.792854  0.007123  1
  Sb  Sb16  1  0.698610  0.294579  0.495003  1
  Sb  Sb17  1  0.303697  0.708080  0.503267  1
