# generated using pymatgen
data_TiNb3(VGe)4
_symmetry_space_group_name_H-M   'P 1'
_cell_length_a   3.42124700
_cell_length_b   6.68740399
_cell_length_c   8.10247534
_cell_angle_alpha   90.13370774
_cell_angle_beta   90.00000000
_cell_angle_gamma   90.00000000
_symmetry_Int_Tables_number   1
_chemical_formula_structural   TiNb3(VGe)4
_chemical_formula_sum   'Ti1 Nb3 V4 Ge4'
_cell_volume   185.37814180
_cell_formula_units_Z   1
loop_
 _symmetry_equiv_pos_site_id
 _symmetry_equiv_pos_as_xyz
  1  'x, y, z'
loop_
 _atom_site_type_symbol
 _atom_site_label
 _atom_site_symmetry_multiplicity
 _atom_site_fract_x
 _atom_site_fract_y
 _atom_site_fract_z
 _atom_site_occupancy
  Ti  Ti0  1  0.250000  0.051335  0.332719  1
  Nb  Nb1  1  0.250000  0.550897  0.168059  1
  Nb  Nb2  1  0.750000  0.445996  0.832376  1
  Nb  Nb3  1  0.750000  0.948241  0.668090  1
  V  V4  1  0.250000  0.626236  0.560272  1
  V  V5  1  0.750000  0.376697  0.437802  1
  V  V6  1  0.750000  0.872765  0.061140  1
  V  V7  1  0.250000  0.128098  0.938609  1
  Ge  Ge8  1  0.250000  0.748958  0.862438  1
  Ge  Ge9  1  0.750000  0.245687  0.142263  1
  Ge  Ge10  1  0.750000  0.757174  0.361471  1
  Ge  Ge11  1  0.250000  0.247918  0.634761  1
