# generated using pymatgen
data_Ti(Pt2Se5)2
_symmetry_space_group_name_H-M   'P 1'
_cell_length_a   16.34253547
_cell_length_b   16.34253600
_cell_length_c   6.62221400
_cell_angle_alpha   87.46670506
_cell_angle_beta   87.46670498
_cell_angle_gamma   13.28228943
_symmetry_Int_Tables_number   1
_chemical_formula_structural   Ti(Pt2Se5)2
_chemical_formula_sum   'Ti1 Pt4 Se10'
_cell_volume   405.94308894
_cell_formula_units_Z   1
loop_
 _symmetry_equiv_pos_site_id
 _symmetry_equiv_pos_as_xyz
  1  'x, y, z'
loop_
 _atom_site_type_symbol
 _atom_site_label
 _atom_site_symmetry_multiplicity
 _atom_site_fract_x
 _atom_site_fract_y
 _atom_site_fract_z
 _atom_site_occupancy
  Ti  Ti0  1  0.417535  0.417535  0.003267  1
  Pt  Pt1  1  0.999775  0.999775  0.992920  1
  Pt  Pt2  1  0.602503  0.602503  0.999815  1
  Pt  Pt3  1  0.205368  0.205368  0.002172  1
  Pt  Pt4  1  0.808233  0.808233  0.999474  1
  Se  Se5  1  0.673112  0.673112  0.812403  1
  Se  Se6  1  0.275440  0.275440  0.811931  1
  Se  Se7  1  0.877987  0.877987  0.811678  1
  Se  Se8  1  0.531032  0.531032  0.187108  1
  Se  Se9  1  0.133857  0.133857  0.190626  1
  Se  Se10  1  0.737211  0.737211  0.189427  1
  Se  Se11  1  0.339864  0.339864  0.185754  1
  Se  Se12  1  0.935109  0.935109  0.244511  1
  Se  Se13  1  0.071088  0.071088  0.807835  1
  Se  Se14  1  0.477610  0.477610  0.761080  1
