# generated using pymatgen
data_Ca3ZnSiPd2
_symmetry_space_group_name_H-M   'P 1'
_cell_length_a   5.69953400
_cell_length_b   8.17344400
_cell_length_c   13.56843300
_cell_angle_alpha   90.00000000
_cell_angle_beta   90.00000000
_cell_angle_gamma   90.00000000
_symmetry_Int_Tables_number   1
_chemical_formula_structural   Ca3ZnSiPd2
_chemical_formula_sum   'Ca12 Zn4 Si4 Pd8'
_cell_volume   632.08303579
_cell_formula_units_Z   4
loop_
 _symmetry_equiv_pos_site_id
 _symmetry_equiv_pos_as_xyz
  1  'x, y, z'
loop_
 _atom_site_type_symbol
 _atom_site_label
 _atom_site_symmetry_multiplicity
 _atom_site_fract_x
 _atom_site_fract_y
 _atom_site_fract_z
 _atom_site_occupancy
  Ca  Ca0  1  0.140760  0.608924  0.104204  1
  Ca  Ca1  1  0.140760  0.891076  0.895796  1
  Ca  Ca2  1  0.859240  0.108924  0.395796  1
  Ca  Ca3  1  0.859240  0.391076  0.604204  1
  Ca  Ca4  1  0.859240  0.391076  0.895796  1
  Ca  Ca5  1  0.859240  0.108924  0.104204  1
  Ca  Ca6  1  0.140760  0.891076  0.604204  1
  Ca  Ca7  1  0.140760  0.608924  0.395796  1
  Ca  Ca8  1  0.351719  0.258086  0.250000  1
  Ca  Ca9  1  0.351719  0.241914  0.750000  1
  Ca  Ca10  1  0.648281  0.758086  0.250000  1
  Ca  Ca11  1  0.648281  0.741914  0.750000  1
  Zn  Zn12  1  0.373140  0.250000  0.000000  1
  Zn  Zn13  1  0.626860  0.750000  0.500000  1
  Zn  Zn14  1  0.626860  0.750000  0.000000  1
  Zn  Zn15  1  0.373140  0.250000  0.500000  1
  Si  Si16  1  0.839479  0.406626  0.250000  1
  Si  Si17  1  0.839479  0.093374  0.750000  1
  Si  Si18  1  0.160521  0.906626  0.250000  1
  Si  Si19  1  0.160521  0.593374  0.750000  1
  Pd  Pd20  1  0.633131  0.468965  0.093971  1
  Pd  Pd21  1  0.633131  0.031035  0.906029  1
  Pd  Pd22  1  0.366869  0.968965  0.406029  1
  Pd  Pd23  1  0.366869  0.531035  0.593971  1
  Pd  Pd24  1  0.366869  0.531035  0.906029  1
  Pd  Pd25  1  0.366869  0.968965  0.093971  1
  Pd  Pd26  1  0.633131  0.031035  0.593971  1
  Pd  Pd27  1  0.633131  0.468965  0.406029  1
