# generated using pymatgen
data_Nd16Cd3AgPt4
_symmetry_space_group_name_H-M   'P 1'
_cell_length_a   10.00510779
_cell_length_b   10.00419725
_cell_length_c   10.00366563
_cell_angle_alpha   60.17500245
_cell_angle_beta   60.20894255
_cell_angle_gamma   60.22756836
_symmetry_Int_Tables_number   1
_chemical_formula_structural   Nd16Cd3AgPt4
_chemical_formula_sum   'Nd16 Cd3 Ag1 Pt4'
_cell_volume   711.29194520
_cell_formula_units_Z   1
loop_
 _symmetry_equiv_pos_site_id
 _symmetry_equiv_pos_as_xyz
  1  'x, y, z'
loop_
 _atom_site_type_symbol
 _atom_site_label
 _atom_site_symmetry_multiplicity
 _atom_site_fract_x
 _atom_site_fract_y
 _atom_site_fract_z
 _atom_site_occupancy
  Nd  Nd0  1  0.349308  0.349589  0.349707  1
  Nd  Nd1  1  0.352536  0.352414  0.943793  1
  Nd  Nd2  1  0.352628  0.943686  0.352469  1
  Nd  Nd3  1  0.943475  0.352703  0.352645  1
  Nd  Nd4  1  0.810467  0.191472  0.191377  1
  Nd  Nd5  1  0.190108  0.809296  0.809215  1
  Nd  Nd6  1  0.191490  0.810610  0.191182  1
  Nd  Nd7  1  0.809371  0.189948  0.809147  1
  Nd  Nd8  1  0.191413  0.191191  0.810670  1
  Nd  Nd9  1  0.809334  0.809192  0.189864  1
  Nd  Nd10  1  0.936220  0.563371  0.563445  1
  Nd  Nd11  1  0.561444  0.936310  0.936271  1
  Nd  Nd12  1  0.563302  0.936110  0.563498  1
  Nd  Nd13  1  0.936283  0.561588  0.936212  1
  Nd  Nd14  1  0.563324  0.563462  0.936058  1
  Nd  Nd15  1  0.936247  0.936194  0.561657  1
  Cd  Cd16  1  0.581034  0.580990  0.258708  1
  Cd  Cd17  1  0.581046  0.258704  0.580981  1
  Cd  Cd18  1  0.258694  0.581029  0.581009  1
  Ag  Ag19  1  0.582510  0.582557  0.582581  1
  Pt  Pt20  1  0.144619  0.144310  0.144180  1
  Pt  Pt21  1  0.142291  0.142347  0.570618  1
  Pt  Pt22  1  0.142291  0.570598  0.142363  1
  Pt  Pt23  1  0.570565  0.142331  0.142351  1
