# generated using pymatgen
data_Pr4Nd3DySe12
_symmetry_space_group_name_H-M   'P 1'
_cell_length_a   4.19656500
_cell_length_b   11.14514001
_cell_length_c   11.55677004
_cell_angle_alpha   90.04865126
_cell_angle_beta   90.00000000
_cell_angle_gamma   90.00000000
_symmetry_Int_Tables_number   1
_chemical_formula_structural   Pr4Nd3DySe12
_chemical_formula_sum   'Pr4 Nd3 Dy1 Se12'
_cell_volume   540.52501536
_cell_formula_units_Z   1
loop_
 _symmetry_equiv_pos_site_id
 _symmetry_equiv_pos_as_xyz
  1  'x, y, z'
loop_
 _atom_site_type_symbol
 _atom_site_label
 _atom_site_symmetry_multiplicity
 _atom_site_fract_x
 _atom_site_fract_y
 _atom_site_fract_z
 _atom_site_occupancy
  Pr  Pr0  1  0.750000  0.499133  0.696278  1
  Pr  Pr1  1  0.750000  0.000003  0.193054  1
  Pr  Pr2  1  0.250000  0.502812  0.304432  1
  Pr  Pr3  1  0.250000  0.996770  0.806436  1
  Nd  Nd4  1  0.250000  0.187653  0.490367  1
  Nd  Nd5  1  0.250000  0.313428  0.990676  1
  Nd  Nd6  1  0.750000  0.812033  0.509657  1
  Dy  Dy7  1  0.750000  0.687879  0.008879  1
  Se  Se8  1  0.250000  0.299028  0.731141  1
  Se  Se9  1  0.250000  0.201929  0.230339  1
  Se  Se10  1  0.750000  0.702437  0.265323  1
  Se  Se11  1  0.750000  0.797081  0.772772  1
  Se  Se12  1  0.750000  0.054646  0.620505  1
  Se  Se13  1  0.750000  0.449386  0.117207  1
  Se  Se14  1  0.250000  0.944535  0.379708  1
  Se  Se15  1  0.250000  0.558865  0.884358  1
  Se  Se16  1  0.250000  0.625330  0.544041  1
  Se  Se17  1  0.250000  0.867581  0.042201  1
  Se  Se18  1  0.750000  0.374989  0.456146  1
  Se  Se19  1  0.750000  0.124480  0.956479  1
