# generated using pymatgen
data_Y8Co17Si10Ni
_symmetry_space_group_name_H-M   'P 1'
_cell_length_a   5.19511480
_cell_length_b   5.19511383
_cell_length_c   21.93108947
_cell_angle_alpha   89.99795322
_cell_angle_beta   90.00204705
_cell_angle_gamma   119.94388252
_symmetry_Int_Tables_number   1
_chemical_formula_structural   Y8Co17Si10Ni
_chemical_formula_sum   'Y8 Co17 Si10 Ni1'
_cell_volume   512.89251411
_cell_formula_units_Z   1
loop_
 _symmetry_equiv_pos_site_id
 _symmetry_equiv_pos_as_xyz
  1  'x, y, z'
loop_
 _atom_site_type_symbol
 _atom_site_label
 _atom_site_symmetry_multiplicity
 _atom_site_fract_x
 _atom_site_fract_y
 _atom_site_fract_z
 _atom_site_occupancy
  Y  Y0  1  0.334400  0.665600  0.528730  1
  Y  Y1  1  0.666872  0.333128  0.472625  1
  Y  Y2  1  0.666705  0.333295  0.027619  1
  Y  Y3  1  0.333242  0.666758  0.972167  1
  Y  Y4  1  0.332656  0.667344  0.674901  1
  Y  Y5  1  0.667548  0.332452  0.324500  1
  Y  Y6  1  0.666941  0.333059  0.173675  1
  Y  Y7  1  0.332845  0.667155  0.825980  1
  Co  Co8  1  0.166180  0.331938  0.088344  1
  Co  Co9  1  0.833731  0.667918  0.911612  1
  Co  Co10  1  0.668062  0.833820  0.088344  1
  Co  Co11  1  0.834371  0.668073  0.588682  1
  Co  Co12  1  0.332082  0.166269  0.911612  1
  Co  Co13  1  0.167645  0.330721  0.411264  1
  Co  Co14  1  0.166401  0.833599  0.087807  1
  Co  Co15  1  0.331927  0.165629  0.588682  1
  Co  Co16  1  0.833485  0.166515  0.912009  1
  Co  Co17  1  0.669279  0.832355  0.411264  1
  Co  Co18  1  0.832841  0.167159  0.589027  1
  Co  Co19  1  0.168100  0.335094  0.249139  1
  Co  Co20  1  0.831784  0.665605  0.750549  1
  Co  Co21  1  0.664906  0.831900  0.249139  1
  Co  Co22  1  0.334395  0.168216  0.750549  1
  Co  Co23  1  0.168478  0.831522  0.250295  1
  Co  Co24  1  0.831567  0.168433  0.750117  1
  Si  Si25  1  0.000035  0.999965  0.999913  1
  Si  Si26  1  0.997330  0.002670  0.501153  1
  Si  Si27  1  0.332487  0.667513  0.167748  1
  Si  Si28  1  0.666839  0.333161  0.832083  1
  Si  Si29  1  0.665120  0.334880  0.668533  1
  Si  Si30  1  0.336550  0.663450  0.331316  1
  Si  Si31  1  0.001734  0.998266  0.168983  1
  Si  Si32  1  0.998650  0.001350  0.831019  1
  Si  Si33  1  0.999547  0.000453  0.669461  1
  Si  Si34  1  0.998180  0.001820  0.329805  1
  Ni  Ni35  1  0.167090  0.832910  0.411348  1
