# generated using pymatgen
data_Tb2Dy4Ho6ZnGaCo4
_symmetry_space_group_name_H-M   'P 1'
_cell_length_a   8.23566895
_cell_length_b   8.23566901
_cell_length_c   8.25349017
_cell_angle_alpha   106.86837131
_cell_angle_beta   109.57485569
_cell_angle_gamma   111.92761517
_symmetry_Int_Tables_number   1
_chemical_formula_structural   Tb2Dy4Ho6ZnGaCo4
_chemical_formula_sum   'Tb2 Dy4 Ho6 Zn1 Ga1 Co4'
_cell_volume   430.53370544
_cell_formula_units_Z   1
loop_
 _symmetry_equiv_pos_site_id
 _symmetry_equiv_pos_as_xyz
  1  'x, y, z'
loop_
 _atom_site_type_symbol
 _atom_site_label
 _atom_site_symmetry_multiplicity
 _atom_site_fract_x
 _atom_site_fract_y
 _atom_site_fract_z
 _atom_site_occupancy
  Tb  Tb0  1  0.304793  0.262911  0.567702  1
  Tb  Tb1  1  0.695207  0.737089  0.432298  1
  Dy  Dy2  1  0.398908  0.218627  0.179419  1
  Dy  Dy3  1  0.039207  0.219489  0.820581  1
  Dy  Dy4  1  0.960793  0.780511  0.179419  1
  Dy  Dy5  1  0.601092  0.781373  0.820581  1
  Ho  Ho6  1  0.304325  0.737353  0.041678  1
  Ho  Ho7  1  0.695675  0.262647  0.958322  1
  Ho  Ho8  1  0.186780  0.514697  0.325947  1
  Ho  Ho9  1  0.188750  0.860833  0.674053  1
  Ho  Ho10  1  0.813220  0.485303  0.674053  1
  Ho  Ho11  1  0.811250  0.139167  0.325947  1
  Zn  Zn12  1  0.500000  0.500000  0.000000  1
  Ga  Ga13  1  0.500000  0.000000  0.500000  1
  Co  Co14  1  0.164084  0.500311  0.664395  1
  Co  Co15  1  0.835916  0.499689  0.335605  1
  Co  Co16  1  0.998039  0.115402  0.113441  1
  Co  Co17  1  0.001961  0.884598  0.886559  1
