# generated using pymatgen
data_NdDyCI
_symmetry_space_group_name_H-M   'P 1'
_cell_length_a   3.82239200
_cell_length_b   3.82239150
_cell_length_c   15.22403000
_cell_angle_alpha   90.00000000
_cell_angle_beta   90.00000000
_cell_angle_gamma   120.00000431
_symmetry_Int_Tables_number   1
_chemical_formula_structural   NdDyCI
_chemical_formula_sum   'Nd2 Dy2 C2 I2'
_cell_volume   192.63297604
_cell_formula_units_Z   2
loop_
 _symmetry_equiv_pos_site_id
 _symmetry_equiv_pos_as_xyz
  1  'x, y, z'
loop_
 _atom_site_type_symbol
 _atom_site_label
 _atom_site_symmetry_multiplicity
 _atom_site_fract_x
 _atom_site_fract_y
 _atom_site_fract_z
 _atom_site_occupancy
  Nd  Nd0  1  0.666667  0.333333  0.586871  1
  Nd  Nd1  1  0.333333  0.666667  0.086871  1
  Dy  Dy2  1  0.333333  0.666667  0.414339  1
  Dy  Dy3  1  0.666667  0.333333  0.914339  1
  C  C4  1  0.000000  0.000000  0.492986  1
  C  C5  1  0.000000  0.000000  0.992986  1
  I  I6  1  0.666667  0.333333  0.255804  1
  I  I7  1  0.333333  0.666667  0.755804  1
