# generated using pymatgen
data_Sr4ZrSi12Ir19
_symmetry_space_group_name_H-M   'P 1'
_cell_length_a   12.91017400
_cell_length_b   12.91017480
_cell_length_c   4.04260300
_cell_angle_alpha   90.00000000
_cell_angle_beta   90.00000000
_cell_angle_gamma   120.00000307
_symmetry_Int_Tables_number   1
_chemical_formula_structural   Sr4ZrSi12Ir19
_chemical_formula_sum   'Sr4 Zr1 Si12 Ir19'
_cell_volume   583.52024783
_cell_formula_units_Z   1
loop_
 _symmetry_equiv_pos_site_id
 _symmetry_equiv_pos_as_xyz
  1  'x, y, z'
loop_
 _atom_site_type_symbol
 _atom_site_label
 _atom_site_symmetry_multiplicity
 _atom_site_fract_x
 _atom_site_fract_y
 _atom_site_fract_z
 _atom_site_occupancy
  Sr  Sr0  1  0.999729  0.816511  0.500000  1
  Sr  Sr1  1  0.183489  0.183218  0.500000  1
  Sr  Sr2  1  0.816782  0.000271  0.500000  1
  Sr  Sr3  1  0.666667  0.333333  0.000000  1
  Zr  Zr4  1  0.333333  0.666667  0.000000  1
  Si  Si5  1  0.002058  0.187699  0.000000  1
  Si  Si6  1  0.812301  0.814359  0.000000  1
  Si  Si7  1  0.185641  0.997942  0.000000  1
  Si  Si8  1  0.517407  0.691347  0.500000  1
  Si  Si9  1  0.308653  0.826060  0.500000  1
  Si  Si10  1  0.173940  0.482593  0.500000  1
  Si  Si11  1  0.478907  0.167663  0.500000  1
  Si  Si12  1  0.688756  0.521093  0.500000  1
  Si  Si13  1  0.832337  0.311244  0.500000  1
  Si  Si14  1  0.998732  0.629059  0.000000  1
  Si  Si15  1  0.370941  0.369673  0.000000  1
  Si  Si16  1  0.630327  0.001268  0.000000  1
  Ir  Ir17  1  0.002886  0.289271  0.500000  1
  Ir  Ir18  1  0.710729  0.713614  0.500000  1
  Ir  Ir19  1  0.286386  0.997114  0.500000  1
  Ir  Ir20  1  0.614093  0.801737  0.000000  1
  Ir  Ir21  1  0.198263  0.812356  0.000000  1
  Ir  Ir22  1  0.187644  0.385907  0.000000  1
  Ir  Ir23  1  0.379366  0.181751  0.000000  1
  Ir  Ir24  1  0.802385  0.620634  0.000000  1
  Ir  Ir25  1  0.818249  0.197615  0.000000  1
  Ir  Ir26  1  0.505012  0.869738  0.500000  1
  Ir  Ir27  1  0.130262  0.635274  0.500000  1
  Ir  Ir28  1  0.364726  0.494988  0.500000  1
  Ir  Ir29  1  0.484222  0.363026  0.500000  1
  Ir  Ir30  1  0.878805  0.515778  0.500000  1
  Ir  Ir31  1  0.636974  0.121195  0.500000  1
  Ir  Ir32  1  0.000000  0.000000  0.000000  1
  Ir  Ir33  1  0.002668  0.449113  0.000000  1
  Ir  Ir34  1  0.550887  0.553555  0.000000  1
  Ir  Ir35  1  0.446445  0.997332  0.000000  1
