# generated using pymatgen
data_AcDy3(Si5Os3)2
_symmetry_space_group_name_H-M   'P 1'
_cell_length_a   8.21751603
_cell_length_b   8.20584500
_cell_length_c   5.85559872
_cell_angle_alpha   70.64900368
_cell_angle_beta   70.28027925
_cell_angle_gamma   93.82703384
_symmetry_Int_Tables_number   1
_chemical_formula_structural   AcDy3(Si5Os3)2
_chemical_formula_sum   'Ac1 Dy3 Si10 Os6'
_cell_volume   343.53843832
_cell_formula_units_Z   1
loop_
 _symmetry_equiv_pos_site_id
 _symmetry_equiv_pos_as_xyz
  1  'x, y, z'
loop_
 _atom_site_type_symbol
 _atom_site_label
 _atom_site_symmetry_multiplicity
 _atom_site_fract_x
 _atom_site_fract_y
 _atom_site_fract_z
 _atom_site_occupancy
  Ac  Ac0  1  0.866499  0.602392  0.756597  1
  Dy  Dy1  1  0.400188  0.130962  0.746201  1
  Dy  Dy2  1  0.132935  0.397605  0.244987  1
  Dy  Dy3  1  0.601367  0.867092  0.254610  1
  Si  Si4  1  0.070579  0.259955  0.834491  1
  Si  Si5  1  0.735841  0.942581  0.663537  1
  Si  Si6  1  0.936364  0.742481  0.163437  1
  Si  Si7  1  0.259756  0.065545  0.334563  1
  Si  Si8  1  0.213689  0.798012  0.747280  1
  Si  Si9  1  0.790336  0.205833  0.252571  1
  Si  Si10  1  0.505710  0.483558  0.753211  1
  Si  Si11  1  0.483380  0.509768  0.253967  1
  Si  Si12  1  0.770908  0.219804  0.750358  1
  Si  Si13  1  0.232642  0.773717  0.244272  1
  Os  Os14  1  0.257596  0.543588  0.633232  1
  Os  Os15  1  0.457972  0.743253  0.865908  1
  Os  Os16  1  0.741807  0.456077  0.371123  1
  Os  Os17  1  0.540603  0.251595  0.132287  1
  Os  Os18  1  0.003898  0.000216  0.749376  1
  Os  Os19  1  0.997930  0.005965  0.247992  1
