# generated using pymatgen
data_Tm5(InSb)2
_symmetry_space_group_name_H-M   'P 1'
_cell_length_a   8.69652805
_cell_length_b   8.69652749
_cell_length_c   8.00707900
_cell_angle_alpha   90.00000000
_cell_angle_beta   90.00000000
_cell_angle_gamma   125.09700406
_symmetry_Int_Tables_number   1
_chemical_formula_structural   Tm5(InSb)2
_chemical_formula_sum   'Tm10 In4 Sb4'
_cell_volume   495.46688505
_cell_formula_units_Z   2
loop_
 _symmetry_equiv_pos_site_id
 _symmetry_equiv_pos_as_xyz
  1  'x, y, z'
loop_
 _atom_site_type_symbol
 _atom_site_label
 _atom_site_symmetry_multiplicity
 _atom_site_fract_x
 _atom_site_fract_y
 _atom_site_fract_z
 _atom_site_occupancy
  Tm  Tm0  1  0.033290  0.308285  0.332420  1
  Tm  Tm1  1  0.966710  0.691715  0.667580  1
  Tm  Tm2  1  0.466710  0.191715  0.832420  1
  Tm  Tm3  1  0.808285  0.533290  0.167580  1
  Tm  Tm4  1  0.533290  0.808285  0.167580  1
  Tm  Tm5  1  0.191715  0.466710  0.832420  1
  Tm  Tm6  1  0.691715  0.966710  0.667580  1
  Tm  Tm7  1  0.308285  0.033290  0.332420  1
  Tm  Tm8  1  0.000000  0.000000  0.000000  1
  Tm  Tm9  1  0.500000  0.500000  0.500000  1
  In  In10  1  0.371046  0.371046  0.128363  1
  In  In11  1  0.628954  0.628954  0.871637  1
  In  In12  1  0.128954  0.128954  0.628363  1
  In  In13  1  0.871046  0.871046  0.371637  1
  Sb  Sb14  1  0.796063  0.203937  0.000000  1
  Sb  Sb15  1  0.203937  0.796063  0.000000  1
  Sb  Sb16  1  0.703937  0.296063  0.500000  1
  Sb  Sb17  1  0.296063  0.703937  0.500000  1
