# generated using pymatgen
data_Yb4P4PdAu3
_symmetry_space_group_name_H-M   'P 1'
_cell_length_a   4.21832800
_cell_length_b   7.91521804
_cell_length_c   7.32404801
_cell_angle_alpha   89.99080629
_cell_angle_beta   90.00000000
_cell_angle_gamma   90.00000000
_symmetry_Int_Tables_number   1
_chemical_formula_structural   Yb4P4PdAu3
_chemical_formula_sum   'Yb4 P4 Pd1 Au3'
_cell_volume   244.54253257
_cell_formula_units_Z   1
loop_
 _symmetry_equiv_pos_site_id
 _symmetry_equiv_pos_as_xyz
  1  'x, y, z'
loop_
 _atom_site_type_symbol
 _atom_site_label
 _atom_site_symmetry_multiplicity
 _atom_site_fract_x
 _atom_site_fract_y
 _atom_site_fract_z
 _atom_site_occupancy
  Yb  Yb0  1  0.250000  0.494015  0.245763  1
  Yb  Yb1  1  0.750000  0.495114  0.753813  1
  Yb  Yb2  1  0.750000  0.005723  0.755781  1
  Yb  Yb3  1  0.250000  0.005257  0.243090  1
  P  P4  1  0.250000  0.748182  0.915966  1
  P  P5  1  0.750000  0.249304  0.075915  1
  P  P6  1  0.750000  0.751726  0.416767  1
  P  P7  1  0.250000  0.250362  0.591489  1
  Pd  Pd8  1  0.250000  0.251688  0.919447  1
  Au  Au9  1  0.250000  0.750330  0.582502  1
  Au  Au10  1  0.750000  0.249695  0.415424  1
  Au  Au11  1  0.750000  0.748604  0.084043  1
