# generated using pymatgen
data_LiTb2ErCd3Pd2
_symmetry_space_group_name_H-M   'P 1'
_cell_length_a   7.70140900
_cell_length_b   7.69092680
_cell_length_c   3.83440700
_cell_angle_alpha   90.00000000
_cell_angle_beta   90.00000000
_cell_angle_gamma   120.04509993
_symmetry_Int_Tables_number   1
_chemical_formula_structural   LiTb2ErCd3Pd2
_chemical_formula_sum   'Li1 Tb2 Er1 Cd3 Pd2'
_cell_volume   196.59848155
_cell_formula_units_Z   1
loop_
 _symmetry_equiv_pos_site_id
 _symmetry_equiv_pos_as_xyz
  1  'x, y, z'
loop_
 _atom_site_type_symbol
 _atom_site_label
 _atom_site_symmetry_multiplicity
 _atom_site_fract_x
 _atom_site_fract_y
 _atom_site_fract_z
 _atom_site_occupancy
  Li  Li0  1  0.999267  0.000000  0.000000  1
  Tb  Tb1  1  0.999847  0.577791  0.000000  1
  Tb  Tb2  1  0.422056  0.422209  0.000000  1
  Er  Er3  1  0.578077  0.000000  0.000000  1
  Cd  Cd4  1  0.248385  0.000000  0.500000  1
  Cd  Cd5  1  0.998532  0.245578  0.500000  1
  Cd  Cd6  1  0.752954  0.754422  0.500000  1
  Pd  Pd7  1  0.334888  0.668897  0.500000  1
  Pd  Pd8  1  0.665992  0.331103  0.500000  1
