# generated using pymatgen
data_Sm7YReOsBr8
_symmetry_space_group_name_H-M   'P 1'
_cell_length_a   9.21798908
_cell_length_b   9.24063114
_cell_length_c   6.62707543
_cell_angle_alpha   89.87036223
_cell_angle_beta   89.36603533
_cell_angle_gamma   89.16193351
_symmetry_Int_Tables_number   1
_chemical_formula_structural   Sm7YReOsBr8
_chemical_formula_sum   'Sm7 Y1 Re1 Os1 Br8'
_cell_volume   564.39834773
_cell_formula_units_Z   1
loop_
 _symmetry_equiv_pos_site_id
 _symmetry_equiv_pos_as_xyz
  1  'x, y, z'
loop_
 _atom_site_type_symbol
 _atom_site_label
 _atom_site_symmetry_multiplicity
 _atom_site_fract_x
 _atom_site_fract_y
 _atom_site_fract_z
 _atom_site_occupancy
  Sm  Sm0  1  0.749832  0.098666  0.992807  1
  Sm  Sm1  1  0.099092  0.752774  0.489858  1
  Sm  Sm2  1  0.096624  0.247345  0.996208  1
  Sm  Sm3  1  0.249399  0.097302  0.493884  1
  Sm  Sm4  1  0.902021  0.752286  0.006859  1
  Sm  Sm5  1  0.900156  0.246932  0.511234  1
  Sm  Sm6  1  0.249112  0.900560  0.009904  1
  Y  Y7  1  0.755472  0.903824  0.508213  1
  Re  Re8  1  0.996408  0.002867  0.250920  1
  Os  Os9  1  0.003741  0.996611  0.750836  1
  Br  Br10  1  0.586161  0.177474  0.575937  1
  Br  Br11  1  0.811460  0.594274  0.425602  1
  Br  Br12  1  0.410189  0.185216  0.078257  1
  Br  Br13  1  0.182721  0.409608  0.577942  1
  Br  Br14  1  0.591070  0.816125  0.909719  1
  Br  Br15  1  0.418999  0.819336  0.418773  1
  Br  Br16  1  0.181559  0.585098  0.075450  1
  Br  Br17  1  0.815986  0.413701  0.927597  1
