# generated using pymatgen
data_Ho20Cd6TcRu
_symmetry_space_group_name_H-M   'P 1'
_cell_length_a   9.52682800
_cell_length_b   9.52682794
_cell_length_c   9.87234500
_cell_angle_alpha   90.00000000
_cell_angle_beta   90.00000000
_cell_angle_gamma   120.00000020
_symmetry_Int_Tables_number   1
_chemical_formula_structural   Ho20Cd6TcRu
_chemical_formula_sum   'Ho20 Cd6 Tc1 Ru1'
_cell_volume   775.97477013
_cell_formula_units_Z   1
loop_
 _symmetry_equiv_pos_site_id
 _symmetry_equiv_pos_as_xyz
  1  'x, y, z'
loop_
 _atom_site_type_symbol
 _atom_site_label
 _atom_site_symmetry_multiplicity
 _atom_site_fract_x
 _atom_site_fract_y
 _atom_site_fract_z
 _atom_site_occupancy
  Ho  Ho0  1  0.000000  0.000000  0.500216  1
  Ho  Ho1  1  0.000000  0.000000  0.999784  1
  Ho  Ho2  1  0.209999  0.790001  0.441340  1
  Ho  Ho3  1  0.209999  0.419998  0.441340  1
  Ho  Ho4  1  0.580002  0.790001  0.441340  1
  Ho  Ho5  1  0.789773  0.210227  0.559128  1
  Ho  Ho6  1  0.789773  0.579544  0.559128  1
  Ho  Ho7  1  0.420456  0.210227  0.559128  1
  Ho  Ho8  1  0.789773  0.210227  0.940872  1
  Ho  Ho9  1  0.789773  0.579544  0.940872  1
  Ho  Ho10  1  0.420456  0.210227  0.940872  1
  Ho  Ho11  1  0.209999  0.790001  0.058660  1
  Ho  Ho12  1  0.209999  0.419998  0.058660  1
  Ho  Ho13  1  0.580002  0.790001  0.058660  1
  Ho  Ho14  1  0.540053  0.459947  0.250000  1
  Ho  Ho15  1  0.540053  0.080107  0.250000  1
  Ho  Ho16  1  0.919893  0.459947  0.250000  1
  Ho  Ho17  1  0.458753  0.541247  0.750000  1
  Ho  Ho18  1  0.458753  0.917507  0.750000  1
  Ho  Ho19  1  0.082493  0.541247  0.750000  1
  Cd  Cd20  1  0.885397  0.114603  0.250000  1
  Cd  Cd21  1  0.885397  0.770794  0.250000  1
  Cd  Cd22  1  0.229206  0.114603  0.250000  1
  Cd  Cd23  1  0.114411  0.885589  0.750000  1
  Cd  Cd24  1  0.114411  0.228823  0.750000  1
  Cd  Cd25  1  0.771177  0.885589  0.750000  1
  Tc  Tc26  1  0.333333  0.666667  0.250000  1
  Ru  Ru27  1  0.666667  0.333333  0.750000  1
