# generated using pymatgen
data_RbHoSiS4
_symmetry_space_group_name_H-M   'P 1'
_cell_length_a   6.67768400
_cell_length_b   6.41149089
_cell_length_c   9.05004972
_cell_angle_alpha   72.41044423
_cell_angle_beta   90.00000000
_cell_angle_gamma   90.00000000
_symmetry_Int_Tables_number   1
_chemical_formula_structural   RbHoSiS4
_chemical_formula_sum   'Rb2 Ho2 Si2 S8'
_cell_volume   369.35224704
_cell_formula_units_Z   2
loop_
 _symmetry_equiv_pos_site_id
 _symmetry_equiv_pos_as_xyz
  1  'x, y, z'
loop_
 _atom_site_type_symbol
 _atom_site_label
 _atom_site_symmetry_multiplicity
 _atom_site_fract_x
 _atom_site_fract_y
 _atom_site_fract_z
 _atom_site_occupancy
  Rb  Rb0  1  0.977245  0.729346  0.065900  1
  Rb  Rb1  1  0.477245  0.270654  0.934100  1
  Ho  Ho2  1  0.500163  0.229193  0.452709  1
  Ho  Ho3  1  0.000163  0.770807  0.547291  1
  Si  Si4  1  0.462197  0.779563  0.332572  1
  Si  Si5  1  0.962197  0.220437  0.667428  1
  S  S6  1  0.467588  0.581685  0.183537  1
  S  S7  1  0.230886  0.022222  0.289428  1
  S  S8  1  0.727306  0.976456  0.310113  1
  S  S9  1  0.901615  0.423473  0.437734  1
  S  S10  1  0.401615  0.576527  0.562266  1
  S  S11  1  0.227306  0.023544  0.689887  1
  S  S12  1  0.730886  0.977778  0.710572  1
  S  S13  1  0.967588  0.418315  0.816463  1
