# generated using pymatgen
data_YbTa8WN12
_symmetry_space_group_name_H-M   'P 1'
_cell_length_a   5.25428405
_cell_length_b   5.24937430
_cell_length_c   10.55600500
_cell_angle_alpha   90.05771738
_cell_angle_beta   90.00776406
_cell_angle_gamma   120.06047789
_symmetry_Int_Tables_number   1
_chemical_formula_structural   YbTa8WN12
_chemical_formula_sum   'Yb1 Ta8 W1 N12'
_cell_volume   251.99155070
_cell_formula_units_Z   1
loop_
 _symmetry_equiv_pos_site_id
 _symmetry_equiv_pos_as_xyz
  1  'x, y, z'
loop_
 _atom_site_type_symbol
 _atom_site_label
 _atom_site_symmetry_multiplicity
 _atom_site_fract_x
 _atom_site_fract_y
 _atom_site_fract_z
 _atom_site_occupancy
  Yb  Yb0  1  0.666587  0.333240  0.998578  1
  Ta  Ta1  1  0.325131  0.001399  0.746585  1
  Ta  Ta2  1  0.996591  0.322927  0.746555  1
  Ta  Ta3  1  0.326574  0.322990  0.254443  1
  Ta  Ta4  1  0.677719  0.004077  0.254319  1
  Ta  Ta5  1  0.996411  0.674145  0.254163  1
  Ta  Ta6  1  0.332525  0.666227  0.004212  1
  Ta  Ta7  1  0.333528  0.666947  0.495846  1
  Ta  Ta8  1  0.666713  0.333794  0.498532  1
  W  W9  1  0.675831  0.672821  0.745029  1
  N  N10  1  0.662488  0.662905  0.383017  1
  N  N11  1  0.338130  0.000402  0.382076  1
  N  N12  1  0.000567  0.338695  0.382069  1
  N  N13  1  0.342283  0.343411  0.619345  1
  N  N14  1  0.656635  0.998488  0.619499  1
  N  N15  1  0.999817  0.657757  0.619748  1
  N  N16  1  0.334955  0.353857  0.867325  1
  N  N17  1  0.648384  0.978736  0.867591  1
  N  N18  1  0.018582  0.666751  0.867648  1
  N  N19  1  0.647500  0.666282  0.130971  1
  N  N20  1  0.334427  0.981674  0.131286  1
  N  N21  1  0.018623  0.352476  0.131165  1
