# generated using pymatgen
data_La15Ag2Rh5
_symmetry_space_group_name_H-M   'P 1'
_cell_length_a   15.96205569
_cell_length_b   15.96205595
_cell_length_c   15.96205500
_cell_angle_alpha   37.22495858
_cell_angle_beta   37.22495734
_cell_angle_gamma   37.22495612
_symmetry_Int_Tables_number   1
_chemical_formula_structural   La15Ag2Rh5
_chemical_formula_sum   'La30 Ag4 Rh10'
_cell_volume   1334.10825882
_cell_formula_units_Z   2
loop_
 _symmetry_equiv_pos_site_id
 _symmetry_equiv_pos_as_xyz
  1  'x, y, z'
loop_
 _atom_site_type_symbol
 _atom_site_label
 _atom_site_symmetry_multiplicity
 _atom_site_fract_x
 _atom_site_fract_y
 _atom_site_fract_z
 _atom_site_occupancy
  La  La0  1  0.320338  0.941393  0.320338  1
  La  La1  1  0.320338  0.320338  0.941393  1
  La  La2  1  0.941393  0.320338  0.320338  1
  La  La3  1  0.174706  0.775009  0.174706  1
  La  La4  1  0.174706  0.174706  0.775009  1
  La  La5  1  0.775009  0.174706  0.174706  1
  La  La6  1  0.323526  0.706246  0.323526  1
  La  La7  1  0.323526  0.323526  0.706246  1
  La  La8  1  0.706246  0.323526  0.323526  1
  La  La9  1  0.477144  0.850729  0.477144  1
  La  La10  1  0.477144  0.477144  0.850729  1
  La  La11  1  0.850729  0.477144  0.477144  1
  La  La12  1  0.797576  0.419827  0.797576  1
  La  La13  1  0.797576  0.797576  0.419827  1
  La  La14  1  0.419827  0.797576  0.797576  1
  La  La15  1  0.616853  0.994110  0.616853  1
  La  La16  1  0.616853  0.616853  0.994110  1
  La  La17  1  0.994110  0.616853  0.616853  1
  La  La18  1  0.759480  0.135150  0.759480  1
  La  La19  1  0.759480  0.759480  0.135150  1
  La  La20  1  0.135150  0.759480  0.759480  1
  La  La21  1  0.082321  0.705635  0.082321  1
  La  La22  1  0.082321  0.082321  0.705635  1
  La  La23  1  0.705635  0.082321  0.082321  1
  La  La24  1  0.940194  0.559797  0.940194  1
  La  La25  1  0.940194  0.940194  0.559797  1
  La  La26  1  0.559797  0.940194  0.940194  1
  La  La27  1  0.111732  0.111732  0.111732  1
  La  La28  1  0.266024  0.266024  0.266024  1
  La  La29  1  0.521691  0.521691  0.521691  1
  Ag  Ag30  1  0.441097  0.120066  0.441097  1
  Ag  Ag31  1  0.441097  0.441097  0.120066  1
  Ag  Ag32  1  0.120066  0.441097  0.441097  1
  Ag  Ag33  1  0.392847  0.392847  0.392847  1
  Rh  Rh34  1  0.632115  0.196208  0.632115  1
  Rh  Rh35  1  0.632115  0.632115  0.196208  1
  Rh  Rh36  1  0.196208  0.632115  0.632115  1
  Rh  Rh37  1  0.930861  0.372522  0.930861  1
  Rh  Rh38  1  0.930861  0.930861  0.372522  1
  Rh  Rh39  1  0.372522  0.930861  0.930861  1
  Rh  Rh40  1  0.088625  0.518154  0.088625  1
  Rh  Rh41  1  0.088625  0.088625  0.518154  1
  Rh  Rh42  1  0.518154  0.088625  0.088625  1
  Rh  Rh43  1  0.999575  0.999575  0.999575  1
