# generated using pymatgen
data_Dy4Mn15Co2(TcP4)3
_symmetry_space_group_name_H-M   'P 1'
_cell_length_a   3.67698800
_cell_length_b   10.60541970
_cell_length_c   12.15383169
_cell_angle_alpha   90.47405244
_cell_angle_beta   90.00000000
_cell_angle_gamma   90.00000000
_symmetry_Int_Tables_number   1
_chemical_formula_structural   Dy4Mn15Co2(TcP4)3
_chemical_formula_sum   'Dy4 Mn15 Co2 Tc3 P12'
_cell_volume   473.93461034
_cell_formula_units_Z   1
loop_
 _symmetry_equiv_pos_site_id
 _symmetry_equiv_pos_as_xyz
  1  'x, y, z'
loop_
 _atom_site_type_symbol
 _atom_site_label
 _atom_site_symmetry_multiplicity
 _atom_site_fract_x
 _atom_site_fract_y
 _atom_site_fract_z
 _atom_site_occupancy
  Dy  Dy0  1  0.250000  0.587132  0.706088  1
  Dy  Dy1  1  0.250000  0.915020  0.208885  1
  Dy  Dy2  1  0.750000  0.414103  0.293004  1
  Dy  Dy3  1  0.750000  0.083929  0.792555  1
  Mn  Mn4  1  0.750000  0.212287  0.514121  1
  Mn  Mn5  1  0.250000  0.406444  0.494561  1
  Mn  Mn6  1  0.250000  0.088506  0.993784  1
  Mn  Mn7  1  0.750000  0.588896  0.506391  1
  Mn  Mn8  1  0.750000  0.910979  0.006545  1
  Mn  Mn9  1  0.250000  0.211734  0.180775  1
  Mn  Mn10  1  0.250000  0.284474  0.677042  1
  Mn  Mn11  1  0.750000  0.788122  0.818397  1
  Mn  Mn12  1  0.750000  0.714587  0.320939  1
  Mn  Mn13  1  0.250000  0.880426  0.695393  1
  Mn  Mn14  1  0.250000  0.617774  0.195502  1
  Mn  Mn15  1  0.750000  0.120843  0.305876  1
  Mn  Mn16  1  0.750000  0.380775  0.803948  1
  Mn  Mn17  1  0.250000  0.464956  0.933840  1
  Mn  Mn18  1  0.750000  0.534701  0.064917  1
  Co  Co19  1  0.250000  0.038018  0.436423  1
  Co  Co20  1  0.750000  0.965153  0.564936  1
  Tc  Tc21  1  0.250000  0.711114  0.985466  1
  Tc  Tc22  1  0.250000  0.789594  0.484212  1
  Tc  Tc23  1  0.750000  0.288607  0.014719  1
  P  P24  1  0.250000  0.413607  0.115113  1
  P  P25  1  0.250000  0.080321  0.613509  1
  P  P26  1  0.750000  0.586393  0.884208  1
  P  P27  1  0.750000  0.921973  0.387607  1
  P  P28  1  0.250000  0.262692  0.871978  1
  P  P29  1  0.250000  0.233477  0.373018  1
  P  P30  1  0.750000  0.736907  0.127207  1
  P  P31  1  0.750000  0.768036  0.627079  1
  P  P32  1  0.250000  0.592358  0.386204  1
  P  P33  1  0.250000  0.905650  0.885564  1
  P  P34  1  0.750000  0.406664  0.614891  1
  P  P35  1  0.750000  0.093744  0.115299  1
