# generated using pymatgen
data_Lu4(Al8Ni3)3
_symmetry_space_group_name_H-M   'P 1'
_cell_length_a   7.27586772
_cell_length_b   7.30879586
_cell_length_c   12.71408700
_cell_angle_alpha   84.59593256
_cell_angle_beta   79.08503075
_cell_angle_gamma   59.98074363
_symmetry_Int_Tables_number   1
_chemical_formula_structural   Lu4(Al8Ni3)3
_chemical_formula_sum   'Lu4 Al24 Ni9'
_cell_volume   574.82203125
_cell_formula_units_Z   1
loop_
 _symmetry_equiv_pos_site_id
 _symmetry_equiv_pos_as_xyz
  1  'x, y, z'
loop_
 _atom_site_type_symbol
 _atom_site_label
 _atom_site_symmetry_multiplicity
 _atom_site_fract_x
 _atom_site_fract_y
 _atom_site_fract_z
 _atom_site_occupancy
  Lu  Lu0  1  0.394539  0.168721  0.804412  1
  Lu  Lu1  1  0.605461  0.831279  0.195588  1
  Lu  Lu2  1  0.735277  0.497923  0.804475  1
  Lu  Lu3  1  0.264723  0.502077  0.195525  1
  Al  Al4  1  0.680055  0.833539  0.947609  1
  Al  Al5  1  0.319945  0.166461  0.052391  1
  Al  Al6  1  0.145942  0.833116  0.560073  1
  Al  Al7  1  0.854058  0.166884  0.439927  1
  Al  Al8  1  0.480639  0.166529  0.557568  1
  Al  Al9  1  0.519361  0.833471  0.442432  1
  Al  Al10  1  0.215573  0.165675  0.335291  1
  Al  Al11  1  0.784427  0.834325  0.664709  1
  Al  Al12  1  0.439300  0.506222  0.664616  1
  Al  Al13  1  0.560700  0.493778  0.335384  1
  Al  Al14  1  0.111236  0.159634  0.663369  1
  Al  Al15  1  0.888764  0.840366  0.336631  1
  Al  Al16  1  0.354843  0.496159  0.947794  1
  Al  Al17  1  0.645157  0.503841  0.052206  1
  Al  Al18  1  0.013458  0.169856  0.959892  1
  Al  Al19  1  0.986542  0.830144  0.040108  1
  Al  Al20  1  0.186300  0.499696  0.442338  1
  Al  Al21  1  0.813700  0.500304  0.557662  1
  Al  Al22  1  0.727628  0.164147  0.184508  1
  Al  Al23  1  0.272372  0.835853  0.815492  1
  Al  Al24  1  0.062020  0.625193  0.814325  1
  Al  Al25  1  0.937980  0.374807  0.185675  1
  Al  Al26  1  0.850401  0.046967  0.815462  1
  Al  Al27  1  0.149599  0.953033  0.184538  1
  Ni  Ni28  1  0.119471  0.492060  0.638449  1
  Ni  Ni29  1  0.880529  0.507940  0.361551  1
  Ni  Ni30  1  0.658598  0.170430  0.999953  1
  Ni  Ni31  1  0.341402  0.829570  0.000047  1
  Ni  Ni32  1  0.537735  0.167193  0.361955  1
  Ni  Ni33  1  0.462265  0.832807  0.638045  1
  Ni  Ni34  1  0.777626  0.174535  0.638005  1
  Ni  Ni35  1  0.222374  0.825465  0.361995  1
  Ni  Ni36  1  0.000000  0.500000  0.000000  1
