# generated using pymatgen
data_TbYEr4FeBi2
_symmetry_space_group_name_H-M   'P 1'
_cell_length_a   8.28717063
_cell_length_b   8.28976023
_cell_length_c   4.17638300
_cell_angle_alpha   90.00000000
_cell_angle_beta   90.00000000
_cell_angle_gamma   119.96690143
_symmetry_Int_Tables_number   1
_chemical_formula_structural   TbYEr4FeBi2
_chemical_formula_sum   'Tb1 Y1 Er4 Fe1 Bi2'
_cell_volume   248.55582882
_cell_formula_units_Z   1
loop_
 _symmetry_equiv_pos_site_id
 _symmetry_equiv_pos_as_xyz
  1  'x, y, z'
loop_
 _atom_site_type_symbol
 _atom_site_label
 _atom_site_symmetry_multiplicity
 _atom_site_fract_x
 _atom_site_fract_y
 _atom_site_fract_z
 _atom_site_occupancy
  Tb  Tb0  1  0.607669  0.000306  0.000000  1
  Y  Y1  1  0.000296  0.607621  0.000000  1
  Er  Er2  1  0.230351  0.000583  0.500000  1
  Er  Er3  1  0.000557  0.230285  0.500000  1
  Er  Er4  1  0.770711  0.770748  0.500000  1
  Er  Er5  1  0.389841  0.389847  0.000000  1
  Fe  Fe6  1  0.001504  0.001498  0.000000  1
  Bi  Bi7  1  0.333360  0.665598  0.500000  1
  Bi  Bi8  1  0.665712  0.333513  0.500000  1
