# generated using pymatgen
data_Ho2Th3Ni19
_symmetry_space_group_name_H-M   'P 1'
_cell_length_a   4.99613533
_cell_length_b   4.99613526
_cell_length_c   16.62747400
_cell_angle_alpha   81.35931983
_cell_angle_beta   81.35931995
_cell_angle_gamma   59.99999521
_symmetry_Int_Tables_number   1
_chemical_formula_structural   Ho2Th3Ni19
_chemical_formula_sum   'Ho2 Th3 Ni19'
_cell_volume   353.98908192
_cell_formula_units_Z   1
loop_
 _symmetry_equiv_pos_site_id
 _symmetry_equiv_pos_as_xyz
  1  'x, y, z'
loop_
 _atom_site_type_symbol
 _atom_site_label
 _atom_site_symmetry_multiplicity
 _atom_site_fract_x
 _atom_site_fract_y
 _atom_site_fract_z
 _atom_site_occupancy
  Ho  Ho0  1  0.848044  0.848044  0.455868  1
  Ho  Ho1  1  0.151956  0.151956  0.544132  1
  Th  Th2  1  0.000000  0.000000  0.000000  1
  Th  Th3  1  0.920926  0.920926  0.237226  1
  Th  Th4  1  0.079074  0.079074  0.762774  1
  Ni  Ni5  1  0.500000  0.500000  0.500000  1
  Ni  Ni6  1  0.749182  0.749183  0.752451  1
  Ni  Ni7  1  0.250817  0.250817  0.247550  1
  Ni  Ni8  1  0.666673  0.666673  0.999979  1
  Ni  Ni9  1  0.333327  0.333327  0.000021  1
  Ni  Ni10  1  0.584315  0.584315  0.247057  1
  Ni  Ni11  1  0.415685  0.415685  0.752943  1
  Ni  Ni12  1  0.375813  0.375813  0.371696  1
  Ni  Ni13  1  0.876678  0.375813  0.371696  1
  Ni  Ni14  1  0.375813  0.876678  0.371696  1
  Ni  Ni15  1  0.624187  0.624187  0.628304  1
  Ni  Ni16  1  0.123322  0.624187  0.628304  1
  Ni  Ni17  1  0.624187  0.123322  0.628304  1
  Ni  Ni18  1  0.459135  0.459135  0.122409  1
  Ni  Ni19  1  0.959324  0.459135  0.122409  1
  Ni  Ni20  1  0.459135  0.959324  0.122409  1
  Ni  Ni21  1  0.540865  0.540865  0.877591  1
  Ni  Ni22  1  0.040676  0.540865  0.877591  1
  Ni  Ni23  1  0.540865  0.040676  0.877591  1
