# generated using pymatgen
data_Li6Nb5SiRh12
_symmetry_space_group_name_H-M   'P 1'
_cell_length_a   4.33598600
_cell_length_b   6.09428700
_cell_length_c   12.90034401
_cell_angle_alpha   90.00000000
_cell_angle_beta   89.99663408
_cell_angle_gamma   90.00000000
_symmetry_Int_Tables_number   1
_chemical_formula_structural   Li6Nb5SiRh12
_chemical_formula_sum   'Li6 Nb5 Si1 Rh12'
_cell_volume   340.88827596
_cell_formula_units_Z   1
loop_
 _symmetry_equiv_pos_site_id
 _symmetry_equiv_pos_as_xyz
  1  'x, y, z'
loop_
 _atom_site_type_symbol
 _atom_site_label
 _atom_site_symmetry_multiplicity
 _atom_site_fract_x
 _atom_site_fract_y
 _atom_site_fract_z
 _atom_site_occupancy
  Li  Li0  1  0.000000  0.000000  0.000000  1
  Li  Li1  1  0.499767  0.499999  0.166808  1
  Li  Li2  1  0.999808  0.000000  0.328779  1
  Li  Li3  1  0.500000  0.499999  0.500000  1
  Li  Li4  1  0.000192  0.000000  0.671221  1
  Li  Li5  1  0.500233  0.499999  0.833192  1
  Nb  Nb6  1  0.499845  0.000000  0.160099  1
  Nb  Nb7  1  0.999821  0.499999  0.330416  1
  Nb  Nb8  1  0.500000  0.000000  0.500000  1
  Nb  Nb9  1  0.000180  0.499999  0.669583  1
  Nb  Nb10  1  0.500155  0.000000  0.839901  1
  Si  Si11  1  0.000000  0.499999  0.000000  1
  Rh  Rh12  1  0.500000  0.265847  0.000000  1
  Rh  Rh13  1  0.500000  0.734154  0.000000  1
  Rh  Rh14  1  0.999840  0.258729  0.158275  1
  Rh  Rh15  1  0.999840  0.741271  0.158275  1
  Rh  Rh16  1  0.499812  0.248917  0.330833  1
  Rh  Rh17  1  0.499812  0.751082  0.330833  1
  Rh  Rh18  1  0.000000  0.250054  0.500000  1
  Rh  Rh19  1  0.000000  0.749946  0.500000  1
  Rh  Rh20  1  0.500186  0.248917  0.669167  1
  Rh  Rh21  1  0.500186  0.751082  0.669167  1
  Rh  Rh22  1  0.000160  0.258729  0.841725  1
  Rh  Rh23  1  0.000160  0.741271  0.841725  1
