# generated using pymatgen
data_Ho8Lu2CuGePb6
_symmetry_space_group_name_H-M   'P 1'
_cell_length_a   9.16756900
_cell_length_b   9.16756819
_cell_length_c   6.70047400
_cell_angle_alpha   90.00000000
_cell_angle_beta   90.00000000
_cell_angle_gamma   119.99999931
_symmetry_Int_Tables_number   1
_chemical_formula_structural   Ho8Lu2CuGePb6
_chemical_formula_sum   'Ho8 Lu2 Cu1 Ge1 Pb6'
_cell_volume   487.69072649
_cell_formula_units_Z   1
loop_
 _symmetry_equiv_pos_site_id
 _symmetry_equiv_pos_as_xyz
  1  'x, y, z'
loop_
 _atom_site_type_symbol
 _atom_site_label
 _atom_site_symmetry_multiplicity
 _atom_site_fract_x
 _atom_site_fract_y
 _atom_site_fract_z
 _atom_site_occupancy
  Ho  Ho0  1  0.250001  0.000000  0.743132  1
  Ho  Ho1  1  0.749999  0.000000  0.256868  1
  Ho  Ho2  1  0.000000  0.250001  0.743132  1
  Ho  Ho3  1  0.000000  0.749999  0.256868  1
  Ho  Ho4  1  0.749999  0.749999  0.743132  1
  Ho  Ho5  1  0.250001  0.250001  0.256868  1
  Ho  Ho6  1  0.333333  0.666667  0.500000  1
  Ho  Ho7  1  0.666667  0.333333  0.500000  1
  Lu  Lu8  1  0.666667  0.333333  0.000000  1
  Lu  Lu9  1  0.333333  0.666667  0.000000  1
  Cu  Cu10  1  0.000000  0.000000  0.000000  1
  Ge  Ge11  1  0.000000  0.000000  0.500000  1
  Pb  Pb12  1  0.605611  0.000000  0.750875  1
  Pb  Pb13  1  0.394389  0.000000  0.249125  1
  Pb  Pb14  1  0.000000  0.605611  0.750875  1
  Pb  Pb15  1  0.000000  0.394389  0.249125  1
  Pb  Pb16  1  0.394389  0.394389  0.750875  1
  Pb  Pb17  1  0.605611  0.605611  0.249125  1
