# generated using pymatgen
data_Ca5Sc(Si3Os)8
_symmetry_space_group_name_H-M   'P 1'
_cell_length_a   10.17679622
_cell_length_b   10.17679680
_cell_length_c   8.19004800
_cell_angle_alpha   89.98799112
_cell_angle_beta   89.98798549
_cell_angle_gamma   132.54906803
_symmetry_Int_Tables_number   1
_chemical_formula_structural   Ca5Sc(Si3Os)8
_chemical_formula_sum   'Ca5 Sc1 Si24 Os8'
_cell_volume   624.88248275
_cell_formula_units_Z   1
loop_
 _symmetry_equiv_pos_site_id
 _symmetry_equiv_pos_as_xyz
  1  'x, y, z'
loop_
 _atom_site_type_symbol
 _atom_site_label
 _atom_site_symmetry_multiplicity
 _atom_site_fract_x
 _atom_site_fract_y
 _atom_site_fract_z
 _atom_site_occupancy
  Ca  Ca0  1  0.499537  0.999730  0.249959  1
  Ca  Ca1  1  0.000270  0.500463  0.750041  1
  Ca  Ca2  1  0.500463  0.000270  0.750041  1
  Ca  Ca3  1  0.999730  0.499537  0.249959  1
  Ca  Ca4  1  0.500000  0.500000  0.500000  1
  Sc  Sc5  1  0.000000  0.000000  0.000000  1
  Si  Si6  1  0.388105  0.154625  0.006259  1
  Si  Si7  1  0.653469  0.886873  0.492505  1
  Si  Si8  1  0.113127  0.346531  0.507495  1
  Si  Si9  1  0.845375  0.611895  0.993741  1
  Si  Si10  1  0.611895  0.845375  0.993741  1
  Si  Si11  1  0.346531  0.113127  0.507495  1
  Si  Si12  1  0.886873  0.653469  0.492505  1
  Si  Si13  1  0.154625  0.388105  0.006259  1
  Si  Si14  1  0.609750  0.376203  0.229308  1
  Si  Si15  1  0.876436  0.108938  0.270173  1
  Si  Si16  1  0.891062  0.123564  0.729827  1
  Si  Si17  1  0.623797  0.390250  0.770692  1
  Si  Si18  1  0.390250  0.623797  0.770692  1
  Si  Si19  1  0.123564  0.891062  0.729827  1
  Si  Si20  1  0.706444  0.293556  0.000000  1
  Si  Si21  1  0.794116  0.205884  0.500000  1
  Si  Si22  1  0.293556  0.706444  0.000000  1
  Si  Si23  1  0.205884  0.794116  0.500000  1
  Si  Si24  1  0.166557  0.166557  0.332125  1
  Si  Si25  1  0.666186  0.666186  0.168342  1
  Si  Si26  1  0.333814  0.333814  0.831658  1
  Si  Si27  1  0.833443  0.833443  0.667875  1
  Si  Si28  1  0.376203  0.609750  0.229308  1
  Si  Si29  1  0.108938  0.876436  0.270173  1
  Os  Os30  1  0.630740  0.630740  0.877286  1
  Os  Os31  1  0.125007  0.125007  0.628580  1
  Os  Os32  1  0.874993  0.874993  0.371420  1
  Os  Os33  1  0.369260  0.369260  0.122714  1
  Os  Os34  1  0.331004  0.668996  0.500000  1
  Os  Os35  1  0.167061  0.832939  0.000000  1
  Os  Os36  1  0.668996  0.331004  0.500000  1
  Os  Os37  1  0.832939  0.167061  0.000000  1
