# generated using pymatgen
data_DyY4AlCo5
_symmetry_space_group_name_H-M   'P 1'
_cell_length_a   5.49511327
_cell_length_b   5.49511272
_cell_length_c   20.65499054
_cell_angle_alpha   90.03848511
_cell_angle_beta   89.96151511
_cell_angle_gamma   136.89261978
_symmetry_Int_Tables_number   1
_chemical_formula_structural   DyY4AlCo5
_chemical_formula_sum   'Dy2 Y8 Al2 Co10'
_cell_volume   426.21886228
_cell_formula_units_Z   2
loop_
 _symmetry_equiv_pos_site_id
 _symmetry_equiv_pos_as_xyz
  1  'x, y, z'
loop_
 _atom_site_type_symbol
 _atom_site_label
 _atom_site_symmetry_multiplicity
 _atom_site_fract_x
 _atom_site_fract_y
 _atom_site_fract_z
 _atom_site_occupancy
  Dy  Dy0  1  0.291495  0.708505  0.065945  1
  Dy  Dy1  1  0.997505  0.002495  0.842597  1
  Y  Y2  1  0.288021  0.711979  0.249913  1
  Y  Y3  1  0.711721  0.288279  0.750047  1
  Y  Y4  1  0.708036  0.291964  0.565864  1
  Y  Y5  1  0.001527  0.998473  0.342642  1
  Y  Y6  1  0.998244  0.001756  0.657383  1
  Y  Y7  1  0.707898  0.292102  0.934107  1
  Y  Y8  1  0.001512  0.998488  0.157279  1
  Y  Y9  1  0.291940  0.708060  0.434159  1
  Al  Al10  1  0.999940  0.000060  0.499996  1
  Al  Al11  1  0.999907  0.000093  0.999997  1
  Co  Co12  1  0.297277  0.702723  0.654297  1
  Co  Co13  1  0.581037  0.418963  0.441545  1
  Co  Co14  1  0.412562  0.587438  0.750411  1
  Co  Co15  1  0.419137  0.580863  0.941623  1
  Co  Co16  1  0.588423  0.411577  0.249915  1
  Co  Co17  1  0.418921  0.581079  0.558423  1
  Co  Co18  1  0.702639  0.297361  0.345832  1
  Co  Co19  1  0.703355  0.296645  0.153736  1
  Co  Co20  1  0.581124  0.418876  0.058344  1
  Co  Co21  1  0.297778  0.702222  0.845949  1
