# generated using pymatgen
data_Nd4Si5Tc16P3
_symmetry_space_group_name_H-M   'P 1'
_cell_length_a   4.12690400
_cell_length_b   7.29597188
_cell_length_c   15.40743783
_cell_angle_alpha   89.94399777
_cell_angle_beta   90.00000000
_cell_angle_gamma   90.00000000
_symmetry_Int_Tables_number   1
_chemical_formula_structural   Nd4Si5Tc16P3
_chemical_formula_sum   'Nd4 Si5 Tc16 P3'
_cell_volume   463.91427278
_cell_formula_units_Z   1
loop_
 _symmetry_equiv_pos_site_id
 _symmetry_equiv_pos_as_xyz
  1  'x, y, z'
loop_
 _atom_site_type_symbol
 _atom_site_label
 _atom_site_symmetry_multiplicity
 _atom_site_fract_x
 _atom_site_fract_y
 _atom_site_fract_z
 _atom_site_occupancy
  Nd  Nd0  1  0.000000  0.579364  0.116693  1
  Nd  Nd1  1  0.000000  0.416582  0.883832  1
  Nd  Nd2  1  0.500000  0.079870  0.385369  1
  Nd  Nd3  1  0.500000  0.920097  0.614197  1
  Si  Si4  1  0.500000  0.680182  0.973710  1
  Si  Si5  1  0.000000  0.295493  0.272820  1
  Si  Si6  1  0.000000  0.702759  0.726334  1
  Si  Si7  1  0.500000  0.794688  0.227505  1
  Si  Si8  1  0.500000  0.202132  0.772789  1
  Tc  Tc9  1  0.000000  0.140798  0.052056  1
  Tc  Tc10  1  0.000000  0.862878  0.948871  1
  Tc  Tc11  1  0.500000  0.640201  0.448759  1
  Tc  Tc12  1  0.500000  0.360183  0.551038  1
  Tc  Tc13  1  0.000000  0.732466  0.322108  1
  Tc  Tc14  1  0.000000  0.267452  0.677893  1
  Tc  Tc15  1  0.500000  0.234546  0.177588  1
  Tc  Tc16  1  0.500000  0.771448  0.819501  1
  Tc  Tc17  1  0.000000  0.426505  0.419625  1
  Tc  Tc18  1  0.000000  0.573109  0.579917  1
  Tc  Tc19  1  0.500000  0.930489  0.082189  1
  Tc  Tc20  1  0.500000  0.070060  0.920953  1
  Tc  Tc21  1  0.000000  0.992278  0.206209  1
  Tc  Tc22  1  0.000000  0.005239  0.793664  1
  Tc  Tc23  1  0.500000  0.491246  0.294378  1
  Tc  Tc24  1  0.500000  0.507653  0.706053  1
  P  P25  1  0.000000  0.812600  0.472436  1
  P  P26  1  0.000000  0.187443  0.527581  1
  P  P27  1  0.500000  0.322236  0.025931  1
