# generated using pymatgen
data_Yb2DyIn3Ge2Pt
_symmetry_space_group_name_H-M   'P 1'
_cell_length_a   7.33072300
_cell_length_b   7.31990809
_cell_length_c   4.39164200
_cell_angle_alpha   90.00000000
_cell_angle_beta   90.00000000
_cell_angle_gamma   120.04889072
_symmetry_Int_Tables_number   1
_chemical_formula_structural   Yb2DyIn3Ge2Pt
_chemical_formula_sum   'Yb2 Dy1 In3 Ge2 Pt1'
_cell_volume   203.98387179
_cell_formula_units_Z   1
loop_
 _symmetry_equiv_pos_site_id
 _symmetry_equiv_pos_as_xyz
  1  'x, y, z'
loop_
 _atom_site_type_symbol
 _atom_site_label
 _atom_site_symmetry_multiplicity
 _atom_site_fract_x
 _atom_site_fract_y
 _atom_site_fract_z
 _atom_site_occupancy
  Yb  Yb0  1  0.999109  0.411252  0.000000  1
  Yb  Yb1  1  0.587857  0.588747  0.000000  1
  Dy  Dy2  1  0.410388  0.000000  0.000000  1
  In  In3  1  0.755872  0.000000  0.499999  1
  In  In4  1  0.245636  0.247036  0.499999  1
  In  In5  1  0.998600  0.752964  0.499999  1
  Ge  Ge6  1  0.661810  0.327818  0.499999  1
  Ge  Ge7  1  0.333991  0.672182  0.499999  1
  Pt  Pt8  1  0.006735  0.000000  0.000000  1
