# generated using pymatgen
data_Li2Ce5P12Rh17
_symmetry_space_group_name_H-M   'P 1'
_cell_length_a   12.79839470
_cell_length_b   12.79445536
_cell_length_c   3.93886500
_cell_angle_alpha   90.00000000
_cell_angle_beta   90.00000000
_cell_angle_gamma   119.96548326
_symmetry_Int_Tables_number   1
_chemical_formula_structural   Li2Ce5P12Rh17
_chemical_formula_sum   'Li2 Ce5 P12 Rh17'
_cell_volume   558.76600920
_cell_formula_units_Z   1
loop_
 _symmetry_equiv_pos_site_id
 _symmetry_equiv_pos_as_xyz
  1  'x, y, z'
loop_
 _atom_site_type_symbol
 _atom_site_label
 _atom_site_symmetry_multiplicity
 _atom_site_fract_x
 _atom_site_fract_y
 _atom_site_fract_z
 _atom_site_occupancy
  Li  Li0  1  0.800496  0.178500  0.000000  1
  Li  Li1  1  0.377006  0.197668  0.000000  1
  Ce  Ce2  1  0.998237  0.187387  0.500000  1
  Ce  Ce3  1  0.813391  0.813919  0.500000  1
  Ce  Ce4  1  0.191226  0.004268  0.500000  1
  Ce  Ce5  1  0.665121  0.330764  0.000000  1
  Ce  Ce6  1  0.333741  0.666912  0.000000  1
  P  P7  1  0.480809  0.321508  0.500000  1
  P  P8  1  0.817178  0.998574  0.000000  1
  P  P9  1  0.181411  0.184178  0.000000  1
  P  P10  1  0.004586  0.820657  0.000000  1
  P  P11  1  0.365008  0.000414  0.000000  1
  P  P12  1  0.675457  0.157305  0.500000  1
  P  P13  1  0.840066  0.516358  0.500000  1
  P  P14  1  0.518076  0.827412  0.500000  1
  P  P15  1  0.172912  0.690577  0.500000  1
  P  P16  1  0.309155  0.481654  0.500000  1
  P  P17  1  0.999631  0.363295  0.000000  1
  P  P18  1  0.631681  0.631555  0.000000  1
  Rh  Rh19  1  0.652375  0.514916  0.500000  1
  Rh  Rh20  1  0.859887  0.344156  0.500000  1
  Rh  Rh21  1  0.364362  0.877972  0.500000  1
  Rh  Rh22  1  0.511687  0.633424  0.500000  1
  Rh  Rh23  1  0.122435  0.489127  0.500000  1
  Rh  Rh24  1  0.822880  0.630281  0.000000  1
  Rh  Rh25  1  0.616807  0.813745  0.000000  1
  Rh  Rh26  1  0.180995  0.799037  0.000000  1
  Rh  Rh27  1  0.198931  0.386636  0.000000  1
  Rh  Rh28  1  0.001957  0.717305  0.500000  1
  Rh  Rh29  1  0.282475  0.286825  0.500000  1
  Rh  Rh30  1  0.713276  0.995561  0.500000  1
  Rh  Rh31  1  0.980989  0.536230  0.000000  1
  Rh  Rh32  1  0.469799  0.434406  0.000000  1
  Rh  Rh33  1  0.562908  0.030481  0.000000  1
  Rh  Rh34  1  0.001109  0.999093  0.000000  1
  Rh  Rh35  1  0.481939  0.137903  0.500000  1
