# generated using pymatgen
data_BaNdC2ClO6
_symmetry_space_group_name_H-M   'P 1'
_cell_length_a   14.17678439
_cell_length_b   14.17678424
_cell_length_c   14.17678302
_cell_angle_alpha   20.93344587
_cell_angle_beta   20.93344698
_cell_angle_gamma   20.93344403
_symmetry_Int_Tables_number   1
_chemical_formula_structural   BaNdC2ClO6
_chemical_formula_sum   'Ba2 Nd2 C4 Cl2 O12'
_cell_volume   318.48714108
_cell_formula_units_Z   2
loop_
 _symmetry_equiv_pos_site_id
 _symmetry_equiv_pos_as_xyz
  1  'x, y, z'
loop_
 _atom_site_type_symbol
 _atom_site_label
 _atom_site_symmetry_multiplicity
 _atom_site_fract_x
 _atom_site_fract_y
 _atom_site_fract_z
 _atom_site_occupancy
  Ba  Ba0  1  0.000000  0.000000  0.000000  1
  Ba  Ba1  1  0.500000  0.500000  0.500000  1
  Nd  Nd2  1  0.251856  0.251856  0.251856  1
  Nd  Nd3  1  0.748144  0.748144  0.748144  1
  C  C4  1  0.099562  0.099562  0.099562  1
  C  C5  1  0.900438  0.900438  0.900438  1
  C  C6  1  0.371543  0.371543  0.371543  1
  C  C7  1  0.628457  0.628457  0.628457  1
  Cl  Cl8  1  0.184476  0.184476  0.184476  1
  Cl  Cl9  1  0.815524  0.815524  0.815524  1
  O  O10  1  0.808065  0.244386  0.244386  1
  O  O11  1  0.244386  0.244386  0.808065  1
  O  O12  1  0.244386  0.808065  0.244386  1
  O  O13  1  0.755614  0.191935  0.755614  1
  O  O14  1  0.191935  0.755614  0.755614  1
  O  O15  1  0.755614  0.755614  0.191935  1
  O  O16  1  0.079448  0.516240  0.516240  1
  O  O17  1  0.516240  0.516240  0.079448  1
  O  O18  1  0.516240  0.079448  0.516240  1
  O  O19  1  0.483760  0.920552  0.483760  1
  O  O20  1  0.920552  0.483760  0.483760  1
  O  O21  1  0.483760  0.483760  0.920552  1
