# generated using pymatgen
data_Sc12Tc(RhBr8)2
_symmetry_space_group_name_H-M   'P 1'
_cell_length_a   9.02405956
_cell_length_b   10.97741151
_cell_length_c   11.66907055
_cell_angle_alpha   116.71307859
_cell_angle_beta   101.85962562
_cell_angle_gamma   101.53604078
_symmetry_Int_Tables_number   1
_chemical_formula_structural   Sc12Tc(RhBr8)2
_chemical_formula_sum   'Sc12 Tc1 Rh2 Br16'
_cell_volume   952.34138617
_cell_formula_units_Z   1
loop_
 _symmetry_equiv_pos_site_id
 _symmetry_equiv_pos_as_xyz
  1  'x, y, z'
loop_
 _atom_site_type_symbol
 _atom_site_label
 _atom_site_symmetry_multiplicity
 _atom_site_fract_x
 _atom_site_fract_y
 _atom_site_fract_z
 _atom_site_occupancy
  Sc  Sc0  1  0.081491  0.255607  0.349839  1
  Sc  Sc1  1  0.920859  0.745073  0.651783  1
  Sc  Sc2  1  0.778582  0.535935  0.317576  1
  Sc  Sc3  1  0.222441  0.462676  0.680815  1
  Sc  Sc4  1  0.282114  0.745357  0.650594  1
  Sc  Sc5  1  0.719060  0.253915  0.347737  1
  Sc  Sc6  1  0.140995  0.537467  0.319924  1
  Sc  Sc7  1  0.861521  0.463872  0.681543  1
  Sc  Sc8  1  0.397393  0.348549  0.258620  1
  Sc  Sc9  1  0.598821  0.651357  0.741262  1
  Sc  Sc10  1  0.454360  0.299748  0.521296  1
  Sc  Sc11  1  0.541439  0.700309  0.478697  1
  Tc  Tc12  1  0.337702  0.500207  0.499406  1
  Rh  Rh13  1  0.997676  0.500021  0.500039  1
  Rh  Rh14  1  0.661855  0.499724  0.500573  1
  Br  Br15  1  0.398318  0.745629  0.890388  1
  Br  Br16  1  0.602003  0.254625  0.109983  1
  Br  Br17  1  0.191747  0.975004  0.788475  1
  Br  Br18  1  0.807424  0.024938  0.211507  1
  Br  Br19  1  0.337164  0.087131  0.247433  1
  Br  Br20  1  0.665156  0.913009  0.752656  1
  Br  Br21  1  0.555761  0.435717  0.803289  1
  Br  Br22  1  0.446668  0.564244  0.196870  1
  Br  Br23  1  0.310146  0.831790  0.462280  1
  Br  Br24  1  0.690517  0.170185  0.537543  1
  Br  Br25  1  0.165670  0.167109  0.533598  1
  Br  Br26  1  0.833919  0.831006  0.466652  1
  Br  Br27  1  0.925296  0.579025  0.155785  1
  Br  Br28  1  0.073855  0.420973  0.844189  1
  Br  Br29  1  0.926592  0.743419  0.889910  1
  Br  Br30  1  0.073458  0.256378  0.109739  1
