# generated using pymatgen
data_YZr2(AlFe2)3
_symmetry_space_group_name_H-M   'P 1'
_cell_length_a   8.57693843
_cell_length_b   8.57693726
_cell_length_c   8.57693900
_cell_angle_alpha   34.58404445
_cell_angle_beta   34.58405576
_cell_angle_gamma   34.58404626
_symmetry_Int_Tables_number   1
_chemical_formula_structural   YZr2(AlFe2)3
_chemical_formula_sum   'Y1 Zr2 Al3 Fe6'
_cell_volume   181.38039310
_cell_formula_units_Z   1
loop_
 _symmetry_equiv_pos_site_id
 _symmetry_equiv_pos_as_xyz
  1  'x, y, z'
loop_
 _atom_site_type_symbol
 _atom_site_label
 _atom_site_symmetry_multiplicity
 _atom_site_fract_x
 _atom_site_fract_y
 _atom_site_fract_z
 _atom_site_occupancy
  Y  Y0  1  0.000000  0.000000  0.000000  1
  Zr  Zr1  1  0.140683  0.140683  0.140683  1
  Zr  Zr2  1  0.859317  0.859317  0.859317  1
  Al  Al3  1  0.500000  0.500000  0.500000  1
  Al  Al4  1  0.334595  0.334595  0.334595  1
  Al  Al5  1  0.665405  0.665405  0.665405  1
  Fe  Fe6  1  0.074742  0.589378  0.589378  1
  Fe  Fe7  1  0.589378  0.589378  0.074742  1
  Fe  Fe8  1  0.589378  0.074742  0.589378  1
  Fe  Fe9  1  0.410622  0.925258  0.410622  1
  Fe  Fe10  1  0.925258  0.410622  0.410622  1
  Fe  Fe11  1  0.410622  0.410622  0.925258  1
