# generated using pymatgen
data_Tm8Lu2InSn5
_symmetry_space_group_name_H-M   'P 1'
_cell_length_a   6.46192900
_cell_length_b   8.83117526
_cell_length_c   8.82929103
_cell_angle_alpha   120.00735545
_cell_angle_beta   90.00034776
_cell_angle_gamma   89.99929753
_symmetry_Int_Tables_number   1
_chemical_formula_structural   Tm8Lu2InSn5
_chemical_formula_sum   'Tm8 Lu2 In1 Sn5'
_cell_volume   436.31983447
_cell_formula_units_Z   1
loop_
 _symmetry_equiv_pos_site_id
 _symmetry_equiv_pos_as_xyz
  1  'x, y, z'
loop_
 _atom_site_type_symbol
 _atom_site_label
 _atom_site_symmetry_multiplicity
 _atom_site_fract_x
 _atom_site_fract_y
 _atom_site_fract_z
 _atom_site_occupancy
  Tm  Tm0  1  0.999047  0.666686  0.332697  1
  Tm  Tm1  1  0.999054  0.333994  0.667304  1
  Tm  Tm2  1  0.749827  0.238788  0.999999  1
  Tm  Tm3  1  0.749861  0.760988  0.762738  1
  Tm  Tm4  1  0.749857  0.998258  0.237263  1
  Tm  Tm5  1  0.250162  0.761941  0.000000  1
  Tm  Tm6  1  0.250159  0.238551  0.238262  1
  Tm  Tm7  1  0.250156  0.000281  0.761738  1
  Lu  Lu8  1  0.500965  0.333909  0.667249  1
  Lu  Lu9  1  0.500972  0.666671  0.332761  1
  In  In10  1  0.749535  0.603849  0.999995  1
  Sn  Sn11  1  0.749474  0.394738  0.394812  1
  Sn  Sn12  1  0.749476  0.999925  0.605187  1
  Sn  Sn13  1  0.250495  0.395472  0.000000  1
  Sn  Sn14  1  0.250479  0.605112  0.604277  1
  Sn  Sn15  1  0.250479  0.000835  0.395719  1
