# generated using pymatgen
data_Yb12Ga8IrPd7
_symmetry_space_group_name_H-M   'P 1'
_cell_length_a   5.70794762
_cell_length_b   7.85974922
_cell_length_c   13.80637563
_cell_angle_alpha   90.05267717
_cell_angle_beta   89.90041791
_cell_angle_gamma   90.10633519
_symmetry_Int_Tables_number   1
_chemical_formula_structural   Yb12Ga8IrPd7
_chemical_formula_sum   'Yb12 Ga8 Ir1 Pd7'
_cell_volume   619.39367651
_cell_formula_units_Z   1
loop_
 _symmetry_equiv_pos_site_id
 _symmetry_equiv_pos_as_xyz
  1  'x, y, z'
loop_
 _atom_site_type_symbol
 _atom_site_label
 _atom_site_symmetry_multiplicity
 _atom_site_fract_x
 _atom_site_fract_y
 _atom_site_fract_z
 _atom_site_occupancy
  Yb  Yb0  1  0.145831  0.598163  0.096504  1
  Yb  Yb1  1  0.145944  0.897350  0.904046  1
  Yb  Yb2  1  0.854442  0.103561  0.402888  1
  Yb  Yb3  1  0.853343  0.396579  0.596499  1
  Yb  Yb4  1  0.853835  0.396847  0.905485  1
  Yb  Yb5  1  0.853231  0.109041  0.095955  1
  Yb  Yb6  1  0.145185  0.896991  0.596164  1
  Yb  Yb7  1  0.144823  0.603369  0.403102  1
  Yb  Yb8  1  0.371818  0.252952  0.248136  1
  Yb  Yb9  1  0.369788  0.252408  0.750368  1
  Yb  Yb10  1  0.626776  0.744168  0.246942  1
  Yb  Yb11  1  0.629843  0.752055  0.749764  1
  Ga  Ga12  1  0.373083  0.253437  0.002942  1
  Ga  Ga13  1  0.641617  0.750934  0.499421  1
  Ga  Ga14  1  0.638482  0.744555  0.003848  1
  Ga  Ga15  1  0.358147  0.249565  0.499853  1
  Ga  Ga16  1  0.866228  0.399452  0.248362  1
  Ga  Ga17  1  0.868020  0.102565  0.750491  1
  Ga  Ga18  1  0.130490  0.899703  0.249718  1
  Ga  Ga19  1  0.128901  0.601878  0.749900  1
  Ir  Ir20  1  0.638694  0.464275  0.094426  1
  Pd  Pd21  1  0.636467  0.028302  0.906698  1
  Pd  Pd22  1  0.364513  0.964293  0.405732  1
  Pd  Pd23  1  0.364071  0.535916  0.593838  1
  Pd  Pd24  1  0.363133  0.536471  0.904205  1
  Pd  Pd25  1  0.362203  0.965000  0.094086  1
  Pd  Pd26  1  0.635062  0.036277  0.593794  1
  Pd  Pd27  1  0.636031  0.463893  0.406835  1
