# generated using pymatgen
data_SrEr2(ZnRh2)3
_symmetry_space_group_name_H-M   'P 1'
_cell_length_a   5.50013900
_cell_length_b   5.50013866
_cell_length_c   16.21806300
_cell_angle_alpha   90.00000000
_cell_angle_beta   90.00000000
_cell_angle_gamma   119.99999600
_symmetry_Int_Tables_number   1
_chemical_formula_structural   SrEr2(ZnRh2)3
_chemical_formula_sum   'Sr2 Er4 Zn6 Rh12'
_cell_volume   424.89041708
_cell_formula_units_Z   2
loop_
 _symmetry_equiv_pos_site_id
 _symmetry_equiv_pos_as_xyz
  1  'x, y, z'
loop_
 _atom_site_type_symbol
 _atom_site_label
 _atom_site_symmetry_multiplicity
 _atom_site_fract_x
 _atom_site_fract_y
 _atom_site_fract_z
 _atom_site_occupancy
  Sr  Sr0  1  0.333333  0.666667  0.750000  1
  Sr  Sr1  1  0.666667  0.333333  0.250000  1
  Er  Er2  1  0.333333  0.666667  0.540236  1
  Er  Er3  1  0.666667  0.333333  0.459764  1
  Er  Er4  1  0.666667  0.333333  0.040236  1
  Er  Er5  1  0.333333  0.666667  0.959764  1
  Zn  Zn6  1  0.000000  0.000000  0.250000  1
  Zn  Zn7  1  0.000000  0.000000  0.750000  1
  Zn  Zn8  1  0.333333  0.666667  0.250000  1
  Zn  Zn9  1  0.666667  0.333333  0.750000  1
  Zn  Zn10  1  0.000000  0.000000  0.000000  1
  Zn  Zn11  1  0.000000  0.000000  0.500000  1
  Rh  Rh12  1  0.169898  0.339796  0.121169  1
  Rh  Rh13  1  0.830102  0.660204  0.878831  1
  Rh  Rh14  1  0.660204  0.830102  0.121169  1
  Rh  Rh15  1  0.830102  0.660204  0.621169  1
  Rh  Rh16  1  0.339796  0.169898  0.878831  1
  Rh  Rh17  1  0.169898  0.339796  0.378831  1
  Rh  Rh18  1  0.169898  0.830102  0.121169  1
  Rh  Rh19  1  0.339796  0.169898  0.621169  1
  Rh  Rh20  1  0.830102  0.169898  0.878831  1
  Rh  Rh21  1  0.660204  0.830102  0.378831  1
  Rh  Rh22  1  0.830102  0.169898  0.621169  1
  Rh  Rh23  1  0.169898  0.830102  0.378831  1
