# generated using pymatgen
data_Tb2MnOs3
_symmetry_space_group_name_H-M   'P 1'
_cell_length_a   5.36239500
_cell_length_b   5.36239586
_cell_length_c   8.66616500
_cell_angle_alpha   90.00000000
_cell_angle_beta   90.00000000
_cell_angle_gamma   120.00000086
_symmetry_Int_Tables_number   1
_chemical_formula_structural   Tb2MnOs3
_chemical_formula_sum   'Tb4 Mn2 Os6'
_cell_volume   215.81183330
_cell_formula_units_Z   2
loop_
 _symmetry_equiv_pos_site_id
 _symmetry_equiv_pos_as_xyz
  1  'x, y, z'
loop_
 _atom_site_type_symbol
 _atom_site_label
 _atom_site_symmetry_multiplicity
 _atom_site_fract_x
 _atom_site_fract_y
 _atom_site_fract_z
 _atom_site_occupancy
  Tb  Tb0  1  0.333333  0.666667  0.432446  1
  Tb  Tb1  1  0.666667  0.333333  0.567554  1
  Tb  Tb2  1  0.666667  0.333333  0.932446  1
  Tb  Tb3  1  0.333333  0.666667  0.067554  1
  Mn  Mn4  1  0.000000  0.000000  0.500000  1
  Mn  Mn5  1  0.000000  0.000000  0.000000  1
  Os  Os6  1  0.830758  0.169242  0.250000  1
  Os  Os7  1  0.830758  0.661517  0.250000  1
  Os  Os8  1  0.338483  0.169242  0.250000  1
  Os  Os9  1  0.169242  0.830758  0.750000  1
  Os  Os10  1  0.169242  0.338483  0.750000  1
  Os  Os11  1  0.661517  0.830758  0.750000  1
