# generated using pymatgen
data_Tb5DyAl24Os7Au
_symmetry_space_group_name_H-M   'P 1'
_cell_length_a   8.86964455
_cell_length_b   8.86964636
_cell_length_c   9.55703414
_cell_angle_alpha   89.81497604
_cell_angle_beta   90.18501727
_cell_angle_gamma   119.98911927
_symmetry_Int_Tables_number   1
_chemical_formula_structural   Tb5DyAl24Os7Au
_chemical_formula_sum   'Tb5 Dy1 Al24 Os7 Au1'
_cell_volume   651.19472890
_cell_formula_units_Z   1
loop_
 _symmetry_equiv_pos_site_id
 _symmetry_equiv_pos_as_xyz
  1  'x, y, z'
loop_
 _atom_site_type_symbol
 _atom_site_label
 _atom_site_symmetry_multiplicity
 _atom_site_fract_x
 _atom_site_fract_y
 _atom_site_fract_z
 _atom_site_occupancy
  Tb  Tb0  1  0.190067  0.385557  0.251112  1
  Tb  Tb1  1  0.809909  0.614336  0.748877  1
  Tb  Tb2  1  0.614443  0.809933  0.251112  1
  Tb  Tb3  1  0.385664  0.190091  0.748877  1
  Tb  Tb4  1  0.193941  0.806059  0.253655  1
  Dy  Dy5  1  0.805857  0.194143  0.746311  1
  Al  Al6  1  0.328695  0.671305  0.020600  1
  Al  Al7  1  0.671380  0.328620  0.979292  1
  Al  Al8  1  0.666404  0.333596  0.517130  1
  Al  Al9  1  0.333660  0.666340  0.482982  1
  Al  Al10  1  0.162540  0.325659  0.575459  1
  Al  Al11  1  0.837360  0.674293  0.424592  1
  Al  Al12  1  0.674341  0.837460  0.575459  1
  Al  Al13  1  0.848490  0.677648  0.079211  1
  Al  Al14  1  0.325707  0.162640  0.424592  1
  Al  Al15  1  0.151374  0.322291  0.920732  1
  Al  Al16  1  0.163099  0.836901  0.575158  1
  Al  Al17  1  0.322352  0.151510  0.079211  1
  Al  Al18  1  0.836897  0.163103  0.424976  1
  Al  Al19  1  0.677709  0.848626  0.920732  1
  Al  Al20  1  0.836859  0.163141  0.075361  1
  Al  Al21  1  0.163132  0.836868  0.924509  1
  Al  Al22  1  0.560865  0.121410  0.249089  1
  Al  Al23  1  0.439337  0.878748  0.750903  1
  Al  Al24  1  0.878590  0.439135  0.249089  1
  Al  Al25  1  0.121252  0.560663  0.750903  1
  Al  Al26  1  0.563672  0.436328  0.255722  1
  Al  Al27  1  0.436315  0.563685  0.744279  1
  Al  Al28  1  0.999394  0.000606  0.250373  1
  Al  Al29  1  0.000498  0.999502  0.749637  1
  Os  Os30  1  0.500110  0.000044  0.999903  1
  Os  Os31  1  0.999956  0.499890  0.999903  1
  Os  Os32  1  0.500151  0.000078  0.500112  1
  Os  Os33  1  0.999922  0.499849  0.500112  1
  Os  Os34  1  0.500036  0.499964  0.500019  1
  Os  Os35  1  0.000008  0.999992  0.999948  1
  Os  Os36  1  0.000003  0.999997  0.500068  1
  Au  Au37  1  0.500014  0.499986  0.000002  1
