# generated using pymatgen
data_Ho8Co3Si12Au
_symmetry_space_group_name_H-M   'P 1'
_cell_length_a   8.03383000
_cell_length_b   8.03383011
_cell_length_c   7.87862900
_cell_angle_alpha   90.00000000
_cell_angle_beta   90.00000000
_cell_angle_gamma   119.99999954
_symmetry_Int_Tables_number   1
_chemical_formula_structural   Ho8Co3Si12Au
_chemical_formula_sum   'Ho8 Co3 Si12 Au1'
_cell_volume   440.37896387
_cell_formula_units_Z   1
loop_
 _symmetry_equiv_pos_site_id
 _symmetry_equiv_pos_as_xyz
  1  'x, y, z'
loop_
 _atom_site_type_symbol
 _atom_site_label
 _atom_site_symmetry_multiplicity
 _atom_site_fract_x
 _atom_site_fract_y
 _atom_site_fract_z
 _atom_site_occupancy
  Ho  Ho0  1  0.000000  0.000000  0.248145  1
  Ho  Ho1  1  0.000000  0.000000  0.754695  1
  Ho  Ho2  1  0.510870  0.489130  0.243283  1
  Ho  Ho3  1  0.510870  0.021739  0.243283  1
  Ho  Ho4  1  0.978261  0.489130  0.243283  1
  Ho  Ho5  1  0.496278  0.503722  0.754149  1
  Ho  Ho6  1  0.496278  0.992556  0.754149  1
  Ho  Ho7  1  0.007444  0.503722  0.754149  1
  Co  Co8  1  0.666667  0.333333  0.537557  1
  Co  Co9  1  0.666667  0.333333  0.965940  1
  Co  Co10  1  0.333333  0.666667  0.028704  1
  Si  Si11  1  0.159918  0.840082  0.502741  1
  Si  Si12  1  0.159918  0.319834  0.502741  1
  Si  Si13  1  0.680166  0.840082  0.502741  1
  Si  Si14  1  0.825762  0.174238  0.500332  1
  Si  Si15  1  0.825762  0.651525  0.500332  1
  Si  Si16  1  0.348475  0.174238  0.500332  1
  Si  Si17  1  0.829415  0.170585  0.996917  1
  Si  Si18  1  0.829415  0.658831  0.996917  1
  Si  Si19  1  0.341169  0.170585  0.996917  1
  Si  Si20  1  0.171985  0.828015  0.002750  1
  Si  Si21  1  0.171985  0.343969  0.002750  1
  Si  Si22  1  0.656031  0.828015  0.002750  1
  Au  Au23  1  0.333333  0.666667  0.464447  1
