# generated using pymatgen
data_La8Ho11TmPb16
_symmetry_space_group_name_H-M   'P 1'
_cell_length_a   8.29198100
_cell_length_b   8.38815836
_cell_length_c   15.82957800
_cell_angle_alpha   90.00000000
_cell_angle_beta   90.00000000
_cell_angle_gamma   89.98316951
_symmetry_Int_Tables_number   1
_chemical_formula_structural   La8Ho11TmPb16
_chemical_formula_sum   'La8 Ho11 Tm1 Pb16'
_cell_volume   1101.01754025
_cell_formula_units_Z   1
loop_
 _symmetry_equiv_pos_site_id
 _symmetry_equiv_pos_as_xyz
  1  'x, y, z'
loop_
 _atom_site_type_symbol
 _atom_site_label
 _atom_site_symmetry_multiplicity
 _atom_site_fract_x
 _atom_site_fract_y
 _atom_site_fract_z
 _atom_site_occupancy
  La  La0  1  0.476314  0.677414  0.597273  1
  La  La1  1  0.976161  0.822368  0.902764  1
  La  La2  1  0.523798  0.322466  0.097232  1
  La  La3  1  0.023788  0.177537  0.402764  1
  La  La4  1  0.523798  0.322466  0.402768  1
  La  La5  1  0.023788  0.177537  0.097236  1
  La  La6  1  0.476314  0.677414  0.902727  1
  La  La7  1  0.976161  0.822368  0.597236  1
  Ho  Ho8  1  0.633740  0.158337  0.622486  1
  Ho  Ho9  1  0.133388  0.341855  0.877502  1
  Ho  Ho10  1  0.366419  0.841753  0.122496  1
  Ho  Ho11  1  0.866409  0.658310  0.377564  1
  Ho  Ho12  1  0.366419  0.841753  0.377504  1
  Ho  Ho13  1  0.866409  0.658310  0.122436  1
  Ho  Ho14  1  0.633740  0.158337  0.877514  1
  Ho  Ho15  1  0.133388  0.341855  0.622498  1
  Ho  Ho16  1  0.299697  0.005419  0.750000  1
  Ho  Ho17  1  0.200281  0.505402  0.250000  1
  Ho  Ho18  1  0.700323  0.994531  0.250000  1
  Tm  Tm19  1  0.799647  0.494231  0.750000  1
  Pb  Pb20  1  0.703875  0.958754  0.456176  1
  Pb  Pb21  1  0.203833  0.541355  0.043819  1
  Pb  Pb22  1  0.296165  0.041311  0.956211  1
  Pb  Pb23  1  0.796062  0.458724  0.544034  1
  Pb  Pb24  1  0.296165  0.041311  0.543789  1
  Pb  Pb25  1  0.796062  0.458724  0.955966  1
  Pb  Pb26  1  0.703875  0.958754  0.043824  1
  Pb  Pb27  1  0.203833  0.541355  0.456181  1
  Pb  Pb28  1  0.438881  0.370362  0.750000  1
  Pb  Pb29  1  0.938084  0.130416  0.750000  1
  Pb  Pb30  1  0.561712  0.629916  0.250000  1
  Pb  Pb31  1  0.061790  0.869930  0.250000  1
  Pb  Pb32  1  0.664543  0.851239  0.750000  1
  Pb  Pb33  1  0.164563  0.648070  0.750000  1
  Pb  Pb34  1  0.335294  0.148083  0.250000  1
  Pb  Pb35  1  0.835286  0.352036  0.250000  1
