# generated using pymatgen
data_Ca20CdGa(Cu4Hg)2
_symmetry_space_group_name_H-M   'P 1'
_cell_length_a   7.86953700
_cell_length_b   7.86953700
_cell_length_c   14.62786100
_cell_angle_alpha   90.00000000
_cell_angle_beta   90.00000000
_cell_angle_gamma   90.00000000
_symmetry_Int_Tables_number   1
_chemical_formula_structural   Ca20CdGa(Cu4Hg)2
_chemical_formula_sum   'Ca20 Cd1 Ga1 Cu8 Hg2'
_cell_volume   905.89776481
_cell_formula_units_Z   1
loop_
 _symmetry_equiv_pos_site_id
 _symmetry_equiv_pos_as_xyz
  1  'x, y, z'
loop_
 _atom_site_type_symbol
 _atom_site_label
 _atom_site_symmetry_multiplicity
 _atom_site_fract_x
 _atom_site_fract_y
 _atom_site_fract_z
 _atom_site_occupancy
  Ca  Ca0  1  0.675113  0.163386  0.106633  1
  Ca  Ca1  1  0.169151  0.669428  0.609529  1
  Ca  Ca2  1  0.324887  0.836614  0.106633  1
  Ca  Ca3  1  0.830849  0.330572  0.609529  1
  Ca  Ca4  1  0.836614  0.675113  0.106633  1
  Ca  Ca5  1  0.330572  0.169151  0.609529  1
  Ca  Ca6  1  0.163386  0.324887  0.106633  1
  Ca  Ca7  1  0.669428  0.830849  0.609529  1
  Ca  Ca8  1  0.836614  0.324887  0.893367  1
  Ca  Ca9  1  0.330572  0.830849  0.390471  1
  Ca  Ca10  1  0.163386  0.675113  0.893367  1
  Ca  Ca11  1  0.669428  0.169151  0.390471  1
  Ca  Ca12  1  0.675113  0.836614  0.893367  1
  Ca  Ca13  1  0.169151  0.330572  0.390471  1
  Ca  Ca14  1  0.324887  0.163386  0.893367  1
  Ca  Ca15  1  0.830849  0.669428  0.390471  1
  Ca  Ca16  1  0.500000  0.500000  0.754852  1
  Ca  Ca17  1  0.000000  0.000000  0.248748  1
  Ca  Ca18  1  0.000000  0.000000  0.751252  1
  Ca  Ca19  1  0.500000  0.500000  0.245148  1
  Cd  Cd20  1  0.500000  0.500000  0.000000  1
  Ga  Ga21  1  0.000000  0.000000  0.000000  1
  Cu  Cu22  1  0.613458  0.114671  0.751061  1
  Cu  Cu23  1  0.114671  0.613458  0.248939  1
  Cu  Cu24  1  0.885329  0.386542  0.248939  1
  Cu  Cu25  1  0.386542  0.885329  0.751061  1
  Cu  Cu26  1  0.885329  0.613458  0.751061  1
  Cu  Cu27  1  0.386542  0.114671  0.248939  1
  Cu  Cu28  1  0.114671  0.386542  0.751061  1
  Cu  Cu29  1  0.613458  0.885329  0.248939  1
  Hg  Hg30  1  0.500000  0.500000  0.500000  1
  Hg  Hg31  1  0.000000  0.000000  0.500000  1
