# generated using pymatgen
data_AlCu5Se6
_symmetry_space_group_name_H-M   'P 1'
_cell_length_a   6.82855718
_cell_length_b   6.82855652
_cell_length_c   12.45898721
_cell_angle_alpha   79.45695929
_cell_angle_beta   100.54304136
_cell_angle_gamma   70.11276435
_symmetry_Int_Tables_number   1
_chemical_formula_structural   AlCu5Se6
_chemical_formula_sum   'Al2 Cu10 Se12'
_cell_volume   517.84599162
_cell_formula_units_Z   2
loop_
 _symmetry_equiv_pos_site_id
 _symmetry_equiv_pos_as_xyz
  1  'x, y, z'
loop_
 _atom_site_type_symbol
 _atom_site_label
 _atom_site_symmetry_multiplicity
 _atom_site_fract_x
 _atom_site_fract_y
 _atom_site_fract_z
 _atom_site_occupancy
  Al  Al0  1  0.417094  0.084277  0.832414  1
  Al  Al1  1  0.084277  0.417094  0.167586  1
  Cu  Cu2  1  0.746838  0.746838  0.500000  1
  Cu  Cu3  1  0.838577  0.160860  0.665159  1
  Cu  Cu4  1  0.502168  0.502168  0.000000  1
  Cu  Cu5  1  0.160860  0.838577  0.334841  1
  Cu  Cu6  1  0.244794  0.244794  0.500000  1
  Cu  Cu7  1  0.918468  0.588454  0.831079  1
  Cu  Cu8  1  0.588454  0.918468  0.168921  1
  Cu  Cu9  1  0.326508  0.672379  0.664403  1
  Cu  Cu10  1  0.001932  0.001932  0.000000  1
  Cu  Cu11  1  0.672379  0.326508  0.335597  1
  Se  Se12  1  0.125446  0.627210  0.998240  1
  Se  Se13  1  0.791125  0.955400  0.336721  1
  Se  Se14  1  0.457891  0.293498  0.663951  1
  Se  Se15  1  0.627210  0.125446  0.001760  1
  Se  Se16  1  0.293498  0.457891  0.336049  1
  Se  Se17  1  0.955400  0.791125  0.663279  1
  Se  Se18  1  0.037766  0.211221  0.831619  1
  Se  Se19  1  0.705820  0.542157  0.168373  1
  Se  Se20  1  0.375182  0.874934  0.499651  1
  Se  Se21  1  0.874934  0.375182  0.500349  1
  Se  Se22  1  0.542157  0.705820  0.831627  1
  Se  Se23  1  0.211221  0.037766  0.168381  1
