# generated using pymatgen
data_La3TmAu5
_symmetry_space_group_name_H-M   'P 1'
_cell_length_a   8.31550333
_cell_length_b   8.31550248
_cell_length_c   8.31550241
_cell_angle_alpha   65.58761051
_cell_angle_beta   65.58761581
_cell_angle_gamma   65.58759548
_symmetry_Int_Tables_number   1
_chemical_formula_structural   La3TmAu5
_chemical_formula_sum   'La6 Tm2 Au10'
_cell_volume   455.93470034
_cell_formula_units_Z   2
loop_
 _symmetry_equiv_pos_site_id
 _symmetry_equiv_pos_as_xyz
  1  'x, y, z'
loop_
 _atom_site_type_symbol
 _atom_site_label
 _atom_site_symmetry_multiplicity
 _atom_site_fract_x
 _atom_site_fract_y
 _atom_site_fract_z
 _atom_site_occupancy
  La  La0  1  0.892909  0.186414  0.620429  1
  La  La1  1  0.620429  0.892909  0.186414  1
  La  La2  1  0.186414  0.620429  0.892909  1
  La  La3  1  0.107091  0.813586  0.379571  1
  La  La4  1  0.379571  0.107091  0.813586  1
  La  La5  1  0.813586  0.379571  0.107091  1
  Tm  Tm6  1  0.656994  0.656994  0.656994  1
  Tm  Tm7  1  0.343006  0.343006  0.343006  1
  Au  Au8  1  0.000000  0.000000  0.000000  1
  Au  Au9  1  0.500000  0.500000  0.500000  1
  Au  Au10  1  0.803304  0.803304  0.803304  1
  Au  Au11  1  0.196696  0.196696  0.196696  1
  Au  Au12  1  0.941361  0.548783  0.321263  1
  Au  Au13  1  0.321263  0.941361  0.548783  1
  Au  Au14  1  0.548783  0.321263  0.941361  1
  Au  Au15  1  0.058639  0.451217  0.678737  1
  Au  Au16  1  0.678737  0.058639  0.451217  1
  Au  Au17  1  0.451217  0.678737  0.058639  1
