# generated using pymatgen
data_Tb4Ni13Rh
_symmetry_space_group_name_H-M   'P 1'
_cell_length_a   4.93117108
_cell_length_b   4.93117074
_cell_length_c   12.58910945
_cell_angle_alpha   78.70558273
_cell_angle_beta   78.70558246
_cell_angle_gamma   59.99998729
_symmetry_Int_Tables_number   1
_chemical_formula_structural   Tb4Ni13Rh
_chemical_formula_sum   'Tb4 Ni13 Rh1'
_cell_volume   258.24148899
_cell_formula_units_Z   1
loop_
 _symmetry_equiv_pos_site_id
 _symmetry_equiv_pos_as_xyz
  1  'x, y, z'
loop_
 _atom_site_type_symbol
 _atom_site_label
 _atom_site_symmetry_multiplicity
 _atom_site_fract_x
 _atom_site_fract_y
 _atom_site_fract_z
 _atom_site_occupancy
  Tb  Tb0  1  0.949813  0.949813  0.150562  1
  Tb  Tb1  1  0.050187  0.050187  0.849438  1
  Tb  Tb2  1  0.853676  0.853676  0.438971  1
  Tb  Tb3  1  0.146324  0.146324  0.561029  1
  Ni  Ni4  1  0.720490  0.720490  0.838529  1
  Ni  Ni5  1  0.279510  0.279510  0.161471  1
  Ni  Ni6  1  0.612925  0.612925  0.161224  1
  Ni  Ni7  1  0.387075  0.387075  0.838776  1
  Ni  Ni8  1  0.000000  0.500000  0.000000  1
  Ni  Ni9  1  0.500000  0.000000  0.000000  1
  Ni  Ni10  1  0.500000  0.500000  0.000000  1
  Ni  Ni11  1  0.391638  0.391638  0.322153  1
  Ni  Ni12  1  0.894571  0.391638  0.322153  1
  Ni  Ni13  1  0.391638  0.894571  0.322153  1
  Ni  Ni14  1  0.608362  0.608362  0.677847  1
  Ni  Ni15  1  0.105429  0.608362  0.677847  1
  Ni  Ni16  1  0.608362  0.105429  0.677847  1
  Rh  Rh17  1  0.500000  0.500000  0.500000  1
