# generated using pymatgen
data_Sc18Re7As2W
_symmetry_space_group_name_H-M   'P 1'
_cell_length_a   8.72107028
_cell_length_b   8.72094906
_cell_length_c   8.61045302
_cell_angle_alpha   90.00089696
_cell_angle_beta   89.99734552
_cell_angle_gamma   119.99261412
_symmetry_Int_Tables_number   1
_chemical_formula_structural   Sc18Re7As2W
_chemical_formula_sum   'Sc18 Re7 As2 W1'
_cell_volume   567.18206098
_cell_formula_units_Z   1
loop_
 _symmetry_equiv_pos_site_id
 _symmetry_equiv_pos_as_xyz
  1  'x, y, z'
loop_
 _atom_site_type_symbol
 _atom_site_label
 _atom_site_symmetry_multiplicity
 _atom_site_fract_x
 _atom_site_fract_y
 _atom_site_fract_z
 _atom_site_occupancy
  Sc  Sc0  1  0.804142  0.608235  0.547746  1
  Sc  Sc1  1  0.803965  0.196037  0.547559  1
  Sc  Sc2  1  0.391766  0.195862  0.547741  1
  Sc  Sc3  1  0.195858  0.391765  0.452254  1
  Sc  Sc4  1  0.196035  0.803963  0.452441  1
  Sc  Sc5  1  0.608234  0.804138  0.452259  1
  Sc  Sc6  1  0.194273  0.388637  0.048596  1
  Sc  Sc7  1  0.194501  0.805489  0.048364  1
  Sc  Sc8  1  0.611364  0.805721  0.048603  1
  Sc  Sc9  1  0.805727  0.611363  0.951404  1
  Sc  Sc10  1  0.805499  0.194511  0.951636  1
  Sc  Sc11  1  0.388636  0.194279  0.951397  1
  Sc  Sc12  1  0.461757  0.923397  0.750049  1
  Sc  Sc13  1  0.461623  0.538372  0.750074  1
  Sc  Sc14  1  0.076598  0.538242  0.750059  1
  Sc  Sc15  1  0.538243  0.076603  0.249951  1
  Sc  Sc16  1  0.538377  0.461628  0.249926  1
  Sc  Sc17  1  0.923402  0.461758  0.249941  1
  Re  Re18  1  0.107493  0.215169  0.750252  1
  Re  Re19  1  0.107664  0.892329  0.750266  1
  Re  Re20  1  0.784835  0.892503  0.750255  1
  Re  Re21  1  0.892507  0.784831  0.249748  1
  Re  Re22  1  0.892336  0.107671  0.249734  1
  Re  Re23  1  0.215165  0.107497  0.249745  1
  Re  Re24  1  0.000000  0.000000  0.000000  1
  As  As25  1  0.666573  0.333430  0.751363  1
  As  As26  1  0.333427  0.666570  0.248637  1
  W  W27  1  0.000000  0.000000  0.500000  1
