# generated using pymatgen
data_Y3Co6IrC2
_symmetry_space_group_name_H-M   'P 1'
_cell_length_a   5.08956600
_cell_length_b   5.08956698
_cell_length_c   14.14663700
_cell_angle_alpha   90.00000000
_cell_angle_beta   90.00000000
_cell_angle_gamma   120.00000665
_symmetry_Int_Tables_number   1
_chemical_formula_structural   Y3Co6IrC2
_chemical_formula_sum   'Y6 Co12 Ir2 C4'
_cell_volume   317.35503770
_cell_formula_units_Z   2
loop_
 _symmetry_equiv_pos_site_id
 _symmetry_equiv_pos_as_xyz
  1  'x, y, z'
loop_
 _atom_site_type_symbol
 _atom_site_label
 _atom_site_symmetry_multiplicity
 _atom_site_fract_x
 _atom_site_fract_y
 _atom_site_fract_z
 _atom_site_occupancy
  Y  Y0  1  0.333333  0.666667  0.967523  1
  Y  Y1  1  0.666667  0.333333  0.032477  1
  Y  Y2  1  0.666667  0.333333  0.467523  1
  Y  Y3  1  0.333333  0.666667  0.532477  1
  Y  Y4  1  0.333333  0.666667  0.750000  1
  Y  Y5  1  0.666667  0.333333  0.250000  1
  Co  Co6  1  0.164122  0.835878  0.342085  1
  Co  Co7  1  0.164122  0.328243  0.342085  1
  Co  Co8  1  0.671757  0.835878  0.342085  1
  Co  Co9  1  0.835878  0.164122  0.657915  1
  Co  Co10  1  0.835878  0.671757  0.657915  1
  Co  Co11  1  0.328243  0.164122  0.657915  1
  Co  Co12  1  0.835878  0.164122  0.842085  1
  Co  Co13  1  0.835878  0.671757  0.842085  1
  Co  Co14  1  0.328243  0.164122  0.842085  1
  Co  Co15  1  0.164122  0.835878  0.157915  1
  Co  Co16  1  0.164122  0.328243  0.157915  1
  Co  Co17  1  0.671757  0.835878  0.157915  1
  Ir  Ir18  1  0.000000  0.000000  0.500000  1
  Ir  Ir19  1  0.000000  0.000000  0.000000  1
  C  C20  1  0.333333  0.666667  0.250000  1
  C  C21  1  0.666667  0.333333  0.750000  1
  C  C22  1  0.000000  0.000000  0.250000  1
  C  C23  1  0.000000  0.000000  0.750000  1
