# generated using pymatgen
data_Tb2DyBiRh3Pb2
_symmetry_space_group_name_H-M   'P 1'
_cell_length_a   7.73289168
_cell_length_b   7.77039206
_cell_length_c   3.89576900
_cell_angle_alpha   90.00000000
_cell_angle_beta   90.00000000
_cell_angle_gamma   120.16054072
_symmetry_Int_Tables_number   1
_chemical_formula_structural   Tb2DyBiRh3Pb2
_chemical_formula_sum   'Tb2 Dy1 Bi1 Rh3 Pb2'
_cell_volume   202.39689581
_cell_formula_units_Z   1
loop_
 _symmetry_equiv_pos_site_id
 _symmetry_equiv_pos_as_xyz
  1  'x, y, z'
loop_
 _atom_site_type_symbol
 _atom_site_label
 _atom_site_symmetry_multiplicity
 _atom_site_fract_x
 _atom_site_fract_y
 _atom_site_fract_z
 _atom_site_occupancy
  Tb  Tb0  1  0.591851  0.995456  0.000000  1
  Tb  Tb1  1  0.408149  0.403605  0.000000  1
  Dy  Dy2  1  0.000000  0.600099  0.000000  1
  Bi  Bi3  1  0.000000  0.264632  0.500000  1
  Rh  Rh4  1  0.668021  0.334817  0.500000  1
  Rh  Rh5  1  0.000000  0.002107  0.000000  1
  Rh  Rh6  1  0.331979  0.666795  0.500000  1
  Pb  Pb7  1  0.265333  0.998911  0.500000  1
  Pb  Pb8  1  0.734667  0.733578  0.500000  1
