# generated using pymatgen
data_Cs3CrSe4
_symmetry_space_group_name_H-M   'P 1'
_cell_length_a   10.25645200
_cell_length_b   10.30660500
_cell_length_c   12.17594400
_cell_angle_alpha   90.00000000
_cell_angle_beta   90.00000000
_cell_angle_gamma   90.00000000
_symmetry_Int_Tables_number   1
_chemical_formula_structural   Cs3CrSe4
_chemical_formula_sum   'Cs12 Cr4 Se16'
_cell_volume   1287.10929298
_cell_formula_units_Z   4
loop_
 _symmetry_equiv_pos_site_id
 _symmetry_equiv_pos_as_xyz
  1  'x, y, z'
loop_
 _atom_site_type_symbol
 _atom_site_label
 _atom_site_symmetry_multiplicity
 _atom_site_fract_x
 _atom_site_fract_y
 _atom_site_fract_z
 _atom_site_occupancy
  Cs  Cs0  1  0.544264  0.208682  0.042909  1
  Cs  Cs1  1  0.044264  0.291318  0.457091  1
  Cs  Cs2  1  0.455736  0.791318  0.542909  1
  Cs  Cs3  1  0.955736  0.708682  0.957091  1
  Cs  Cs4  1  0.455736  0.791318  0.957091  1
  Cs  Cs5  1  0.955736  0.708682  0.542909  1
  Cs  Cs6  1  0.544264  0.208682  0.457091  1
  Cs  Cs7  1  0.044264  0.291318  0.042909  1
  Cs  Cs8  1  0.649659  0.412334  0.750000  1
  Cs  Cs9  1  0.149659  0.087666  0.750000  1
  Cs  Cs10  1  0.350341  0.587666  0.250000  1
  Cs  Cs11  1  0.850341  0.912334  0.250000  1
  Cr  Cr12  1  0.722950  0.982059  0.750000  1
  Cr  Cr13  1  0.222950  0.517941  0.750000  1
  Cr  Cr14  1  0.277050  0.017941  0.250000  1
  Cr  Cr15  1  0.777050  0.482059  0.250000  1
  Se  Se16  1  0.828877  0.046531  0.595662  1
  Se  Se17  1  0.328877  0.453469  0.904338  1
  Se  Se18  1  0.171123  0.953469  0.095662  1
  Se  Se19  1  0.671123  0.546531  0.404338  1
  Se  Se20  1  0.171123  0.953469  0.404338  1
  Se  Se21  1  0.671123  0.546531  0.095662  1
  Se  Se22  1  0.828877  0.046531  0.904338  1
  Se  Se23  1  0.328877  0.453469  0.595662  1
  Se  Se24  1  0.517378  0.065597  0.750000  1
  Se  Se25  1  0.017378  0.434403  0.750000  1
  Se  Se26  1  0.482622  0.934403  0.250000  1
  Se  Se27  1  0.982622  0.565597  0.250000  1
  Se  Se28  1  0.710662  0.761868  0.750000  1
  Se  Se29  1  0.210662  0.738132  0.750000  1
  Se  Se30  1  0.289338  0.238132  0.250000  1
  Se  Se31  1  0.789338  0.261868  0.250000  1
