# generated using pymatgen
data_MgNbOsF12
_symmetry_space_group_name_H-M   'P 1'
_cell_length_a   5.54662035
_cell_length_b   11.24737451
_cell_length_c   5.56238731
_cell_angle_alpha   58.25923457
_cell_angle_beta   57.94441450
_cell_angle_gamma   58.36418388
_symmetry_Int_Tables_number   1
_chemical_formula_structural   MgNbOsF12
_chemical_formula_sum   'Mg1 Nb1 Os1 F12'
_cell_volume   235.18395316
_cell_formula_units_Z   1
loop_
 _symmetry_equiv_pos_site_id
 _symmetry_equiv_pos_as_xyz
  1  'x, y, z'
loop_
 _atom_site_type_symbol
 _atom_site_label
 _atom_site_symmetry_multiplicity
 _atom_site_fract_x
 _atom_site_fract_y
 _atom_site_fract_z
 _atom_site_occupancy
  Mg  Mg0  1  0.495739  0.749291  0.505188  1
  Nb  Nb1  1  0.001835  0.007205  0.988150  1
  Os  Os2  1  0.991644  0.501469  0.006649  1
  F  F3  1  0.352917  0.058313  0.769462  1
  F  F4  1  0.327308  0.580917  0.757334  1
  F  F5  1  0.132797  0.390645  0.329000  1
  F  F6  1  0.166942  0.870915  0.328524  1
  F  F7  1  0.224816  0.345391  0.854268  1
  F  F8  1  0.243655  0.831643  0.840332  1
  F  F9  1  0.866296  0.110233  0.662534  1
  F  F10  1  0.839872  0.625895  0.668338  1
  F  F11  1  0.657169  0.438129  0.234091  1
  F  F12  1  0.684133  0.910018  0.249917  1
  F  F13  1  0.761562  0.159825  0.150579  1
  F  F14  1  0.753316  0.670111  0.155635  1
