# generated using pymatgen
data_TbEuMn2Co10P7
_symmetry_space_group_name_H-M   'P 1'
_cell_length_a   9.08349745
_cell_length_b   9.10122464
_cell_length_c   3.62223300
_cell_angle_alpha   90.00000000
_cell_angle_beta   90.00000000
_cell_angle_gamma   119.99872991
_symmetry_Int_Tables_number   1
_chemical_formula_structural   TbEuMn2Co10P7
_chemical_formula_sum   'Tb1 Eu1 Mn2 Co10 P7'
_cell_volume   259.33761058
_cell_formula_units_Z   1
loop_
 _symmetry_equiv_pos_site_id
 _symmetry_equiv_pos_as_xyz
  1  'x, y, z'
loop_
 _atom_site_type_symbol
 _atom_site_label
 _atom_site_symmetry_multiplicity
 _atom_site_fract_x
 _atom_site_fract_y
 _atom_site_fract_z
 _atom_site_occupancy
  Tb  Tb0  1  0.668592  0.334060  0.000000  1
  Eu  Eu1  1  0.333585  0.667535  0.500000  1
  Mn  Mn2  1  0.778625  0.898843  0.500000  1
  Mn  Mn3  1  0.120181  0.219411  0.500000  1
  Co  Co4  1  0.055674  0.628864  0.000000  1
  Co  Co5  1  0.570834  0.944389  0.000000  1
  Co  Co6  1  0.373495  0.428991  0.000000  1
  Co  Co7  1  0.273019  0.116514  0.000000  1
  Co  Co8  1  0.844384  0.726350  0.000000  1
  Co  Co9  1  0.884003  0.157525  0.000000  1
  Co  Co10  1  0.435223  0.051558  0.500000  1
  Co  Co11  1  0.617798  0.563654  0.500000  1
  Co  Co12  1  0.947440  0.384401  0.500000  1
  Co  Co13  1  0.094207  0.875092  0.500000  1
  P  P14  1  0.296974  0.890079  0.000000  1
  P  P15  1  0.591563  0.701704  0.000000  1
  P  P16  1  0.110262  0.410785  0.000000  1
  P  P17  1  0.406138  0.290691  0.500000  1
  P  P18  1  0.888798  0.599293  0.500000  1
  P  P19  1  0.709944  0.111966  0.500000  1
  P  P20  1  0.999259  0.998295  0.000000  1
