# generated using pymatgen
data_Gd3BCl3
_symmetry_space_group_name_H-M   'P 1'
_cell_length_a   9.61411576
_cell_length_b   9.61411647
_cell_length_c   9.61411600
_cell_angle_alpha   109.47122386
_cell_angle_beta   109.47122536
_cell_angle_gamma   109.47121739
_symmetry_Int_Tables_number   1
_chemical_formula_structural   Gd3BCl3
_chemical_formula_sum   'Gd12 B4 Cl12'
_cell_volume   684.07885724
_cell_formula_units_Z   4
loop_
 _symmetry_equiv_pos_site_id
 _symmetry_equiv_pos_as_xyz
  1  'x, y, z'
loop_
 _atom_site_type_symbol
 _atom_site_label
 _atom_site_symmetry_multiplicity
 _atom_site_fract_x
 _atom_site_fract_y
 _atom_site_fract_z
 _atom_site_occupancy
  Gd  Gd0  1  0.484661  0.750000  0.015339  1
  Gd  Gd1  1  0.750000  0.234661  0.265339  1
  Gd  Gd2  1  0.234661  0.265339  0.750000  1
  Gd  Gd3  1  0.469322  0.484661  0.234661  1
  Gd  Gd4  1  0.265339  0.015339  0.030678  1
  Gd  Gd5  1  0.234661  0.469322  0.484661  1
  Gd  Gd6  1  0.015339  0.030678  0.265339  1
  Gd  Gd7  1  0.015339  0.484661  0.750000  1
  Gd  Gd8  1  0.484661  0.234661  0.469322  1
  Gd  Gd9  1  0.750000  0.015339  0.484661  1
  Gd  Gd10  1  0.030678  0.265339  0.015339  1
  Gd  Gd11  1  0.265339  0.750000  0.234661  1
  B  B12  1  0.250000  0.250000  0.250000  1
  B  B13  1  0.000000  0.250000  0.500000  1
  B  B14  1  0.250000  0.500000  0.000000  1
  B  B15  1  0.500000  0.000000  0.250000  1
  Cl  Cl16  1  0.994813  0.989628  0.744813  1
  Cl  Cl17  1  0.755187  0.744813  0.250000  1
  Cl  Cl18  1  0.989628  0.744813  0.994813  1
  Cl  Cl19  1  0.250000  0.994813  0.505187  1
  Cl  Cl20  1  0.744813  0.994813  0.989628  1
  Cl  Cl21  1  0.505187  0.250000  0.994813  1
  Cl  Cl22  1  0.744813  0.250000  0.755187  1
  Cl  Cl23  1  0.505187  0.755187  0.510372  1
  Cl  Cl24  1  0.755187  0.510372  0.505187  1
  Cl  Cl25  1  0.250000  0.755187  0.744813  1
  Cl  Cl26  1  0.510372  0.505187  0.755187  1
  Cl  Cl27  1  0.994813  0.505187  0.250000  1
