# generated using pymatgen
data_Nd10InSi4Rh
_symmetry_space_group_name_H-M   'P 1'
_cell_length_a   7.77020900
_cell_length_b   9.29546429
_cell_length_c   7.77020900
_cell_angle_alpha   114.70567568
_cell_angle_beta   90.00000000
_cell_angle_gamma   114.70567568
_symmetry_Int_Tables_number   1
_chemical_formula_structural   Nd10InSi4Rh
_chemical_formula_sum   'Nd10 In1 Si4 Rh1'
_cell_volume   452.69057605
_cell_formula_units_Z   1
loop_
 _symmetry_equiv_pos_site_id
 _symmetry_equiv_pos_as_xyz
  1  'x, y, z'
loop_
 _atom_site_type_symbol
 _atom_site_label
 _atom_site_symmetry_multiplicity
 _atom_site_fract_x
 _atom_site_fract_y
 _atom_site_fract_z
 _atom_site_occupancy
  Nd  Nd0  1  0.973268  0.946537  0.973268  1
  Nd  Nd1  1  0.526732  0.053463  0.526732  1
  Nd  Nd2  1  0.516955  0.720434  0.663912  1
  Nd  Nd3  1  0.203480  0.720434  0.056523  1
  Nd  Nd4  1  0.663912  0.720434  0.203480  1
  Nd  Nd5  1  0.056523  0.720434  0.516955  1
  Nd  Nd6  1  0.443477  0.279566  0.296520  1
  Nd  Nd7  1  0.836088  0.279566  0.983045  1
  Nd  Nd8  1  0.296520  0.279566  0.836088  1
  Nd  Nd9  1  0.983045  0.279566  0.443477  1
  In  In10  1  0.750000  0.500000  0.750000  1
  Si  Si11  1  0.884318  0.000000  0.615682  1
  Si  Si12  1  0.115682  0.000000  0.384318  1
  Si  Si13  1  0.615682  0.000000  0.115682  1
  Si  Si14  1  0.384318  0.000000  0.884318  1
  Rh  Rh15  1  0.250000  0.500000  0.250000  1
