# generated using pymatgen
data_Ce6Cr2As13Rh18
_symmetry_space_group_name_H-M   'P 1'
_cell_length_a   13.91599392
_cell_length_b   13.84663399
_cell_length_c   4.00514700
_cell_angle_alpha   90.00000000
_cell_angle_beta   90.00000000
_cell_angle_gamma   119.99754589
_symmetry_Int_Tables_number   1
_chemical_formula_structural   Ce6Cr2As13Rh18
_chemical_formula_sum   'Ce6 Cr2 As13 Rh18'
_cell_volume   668.37204088
_cell_formula_units_Z   1
loop_
 _symmetry_equiv_pos_site_id
 _symmetry_equiv_pos_as_xyz
  1  'x, y, z'
loop_
 _atom_site_type_symbol
 _atom_site_label
 _atom_site_symmetry_multiplicity
 _atom_site_fract_x
 _atom_site_fract_y
 _atom_site_fract_z
 _atom_site_occupancy
  Ce  Ce0  1  0.718022  0.527757  0.000000  1
  Ce  Ce1  1  0.811992  0.283405  0.000000  1
  Ce  Ce2  1  0.470796  0.186012  0.000000  1
  Ce  Ce3  1  0.531583  0.811715  0.500000  1
  Ce  Ce4  1  0.278813  0.470603  0.500000  1
  Ce  Ce5  1  0.189121  0.718680  0.500000  1
  Cr  Cr6  1  0.897149  0.803114  0.000000  1
  Cr  Cr7  1  0.904341  0.101884  0.000000  1
  As  As8  1  0.863168  0.476974  0.500000  1
  As  As9  1  0.615811  0.138372  0.500000  1
  As  As10  1  0.524276  0.386062  0.500000  1
  As  As11  1  0.768353  0.717150  0.500000  1
  As  As12  1  0.947485  0.229555  0.500000  1
  As  As13  1  0.278545  0.048755  0.500000  1
  As  As14  1  0.387923  0.861346  0.000000  1
  As  As15  1  0.475850  0.614366  0.000000  1
  As  As16  1  0.137983  0.524673  0.000000  1
  As  As17  1  0.717881  0.946515  0.000000  1
  As  As18  1  0.229249  0.284310  0.000000  1
  As  As19  1  0.054515  0.772849  0.000000  1
  As  As20  1  0.997293  0.999560  0.000000  1
  Rh  Rh21  1  0.196192  0.095906  0.000000  1
  Rh  Rh22  1  0.667168  0.334414  0.500000  1
  Rh  Rh23  1  0.830778  0.918653  0.500000  1
  Rh  Rh24  1  0.088201  0.172845  0.500000  1
  Rh  Rh25  1  0.077672  0.910281  0.500000  1
  Rh  Rh26  1  0.333177  0.665298  0.000000  1
  Rh  Rh27  1  0.979285  0.562383  0.000000  1
  Rh  Rh28  1  0.583569  0.020579  0.000000  1
  Rh  Rh29  1  0.437378  0.416644  0.000000  1
  Rh  Rh30  1  0.924423  0.678237  0.500000  1
  Rh  Rh31  1  0.753414  0.075019  0.500000  1
  Rh  Rh32  1  0.325421  0.250708  0.500000  1
  Rh  Rh33  1  0.419021  0.982552  0.500000  1
  Rh  Rh34  1  0.562820  0.583006  0.500000  1
  Rh  Rh35  1  0.020117  0.436440  0.500000  1
  Rh  Rh36  1  0.678028  0.750802  0.000000  1
  Rh  Rh37  1  0.073313  0.321248  0.000000  1
  Rh  Rh38  1  0.249874  0.921325  0.000000  1
