# generated using pymatgen
data_K4U7GeSe16
_symmetry_space_group_name_H-M   'P 1'
_cell_length_a   7.06471993
_cell_length_b   8.17697310
_cell_length_c   16.45526600
_cell_angle_alpha   89.92876716
_cell_angle_beta   90.06040424
_cell_angle_gamma   90.05517786
_symmetry_Int_Tables_number   1
_chemical_formula_structural   K4U7GeSe16
_chemical_formula_sum   'K4 U7 Ge1 Se16'
_cell_volume   950.58651188
_cell_formula_units_Z   1
loop_
 _symmetry_equiv_pos_site_id
 _symmetry_equiv_pos_as_xyz
  1  'x, y, z'
loop_
 _atom_site_type_symbol
 _atom_site_label
 _atom_site_symmetry_multiplicity
 _atom_site_fract_x
 _atom_site_fract_y
 _atom_site_fract_z
 _atom_site_occupancy
  K  K0  1  0.343931  0.001858  0.998106  1
  K  K1  1  0.656069  0.498142  0.501894  1
  K  K2  1  0.025086  0.001389  0.501658  1
  K  K3  1  0.974914  0.498611  0.998342  1
  U  U4  1  0.998205  0.999558  0.246824  1
  U  U5  1  0.998098  0.003594  0.753569  1
  U  U6  1  0.001795  0.500442  0.253176  1
  U  U7  1  0.001902  0.496406  0.746431  1
  U  U8  1  0.500000  0.250000  0.250000  1
  U  U9  1  0.500000  0.750000  0.750000  1
  U  U10  1  0.500000  0.750000  0.250000  1
  Ge  Ge11  1  0.500000  0.250000  0.750000  1
  Se  Se12  1  0.834199  0.245984  0.350119  1
  Se  Se13  1  0.838319  0.753080  0.651347  1
  Se  Se14  1  0.165829  0.747895  0.149443  1
  Se  Se15  1  0.164224  0.253851  0.847296  1
  Se  Se16  1  0.165801  0.254016  0.149881  1
  Se  Se17  1  0.161681  0.746920  0.848653  1
  Se  Se18  1  0.834171  0.752105  0.350557  1
  Se  Se19  1  0.835776  0.246149  0.652704  1
  Se  Se20  1  0.664022  0.000813  0.150351  1
  Se  Se21  1  0.663253  0.998045  0.845688  1
  Se  Se22  1  0.335978  0.499187  0.349649  1
  Se  Se23  1  0.336747  0.501955  0.654312  1
  Se  Se24  1  0.330482  0.999181  0.346620  1
  Se  Se25  1  0.330080  0.998382  0.657760  1
  Se  Se26  1  0.669518  0.500819  0.153380  1
  Se  Se27  1  0.669920  0.501618  0.842240  1
