# generated using pymatgen
data_Ce4CuSn2PdRh2
_symmetry_space_group_name_H-M   'P 1'
_cell_length_a   7.67548136
_cell_length_b   7.67548130
_cell_length_c   3.79401300
_cell_angle_alpha   90.00000000
_cell_angle_beta   90.00000000
_cell_angle_gamma   90.37047578
_symmetry_Int_Tables_number   1
_chemical_formula_structural   Ce4CuSn2PdRh2
_chemical_formula_sum   'Ce4 Cu1 Sn2 Pd1 Rh2'
_cell_volume   223.51206712
_cell_formula_units_Z   1
loop_
 _symmetry_equiv_pos_site_id
 _symmetry_equiv_pos_as_xyz
  1  'x, y, z'
loop_
 _atom_site_type_symbol
 _atom_site_label
 _atom_site_symmetry_multiplicity
 _atom_site_fract_x
 _atom_site_fract_y
 _atom_site_fract_z
 _atom_site_occupancy
  Ce  Ce0  1  0.680838  0.181694  0.500000  1
  Ce  Ce1  1  0.318306  0.819162  0.500000  1
  Ce  Ce2  1  0.169664  0.330336  0.500000  1
  Ce  Ce3  1  0.830913  0.669087  0.500000  1
  Cu  Cu4  1  0.623868  0.876132  0.000000  1
  Sn  Sn5  1  0.999151  0.999741  0.000000  1
  Sn  Sn6  1  0.500259  0.500849  0.000000  1
  Pd  Pd7  1  0.377837  0.122163  0.000000  1
  Rh  Rh8  1  0.134062  0.634898  0.000000  1
  Rh  Rh9  1  0.865102  0.365938  0.000000  1
