# generated using pymatgen
data_TbYMo3P7Rh9
_symmetry_space_group_name_H-M   'P 1'
_cell_length_a   3.94123725
_cell_length_b   9.54005465
_cell_length_c   9.53503402
_cell_angle_alpha   119.98708314
_cell_angle_beta   90.04281788
_cell_angle_gamma   89.94310602
_symmetry_Int_Tables_number   1
_chemical_formula_structural   TbYMo3P7Rh9
_chemical_formula_sum   'Tb1 Y1 Mo3 P7 Rh9'
_cell_volume   310.52216102
_cell_formula_units_Z   1
loop_
 _symmetry_equiv_pos_site_id
 _symmetry_equiv_pos_as_xyz
  1  'x, y, z'
loop_
 _atom_site_type_symbol
 _atom_site_label
 _atom_site_symmetry_multiplicity
 _atom_site_fract_x
 _atom_site_fract_y
 _atom_site_fract_z
 _atom_site_occupancy
  Tb  Tb0  1  0.261854  0.666667  0.333298  1
  Y  Y1  1  0.761947  0.333318  0.666662  1
  Mo  Mo2  1  0.762129  0.091459  0.870932  1
  Mo  Mo3  1  0.761832  0.129052  0.220581  1
  Mo  Mo4  1  0.761902  0.779426  0.908556  1
  P  P5  1  0.261945  0.999871  0.999939  1
  P  P6  1  0.761882  0.882116  0.594305  1
  P  P7  1  0.761866  0.405757  0.287819  1
  P  P8  1  0.761797  0.712217  0.117866  1
  P  P9  1  0.262013  0.117782  0.412097  1
  P  P10  1  0.261945  0.587930  0.705795  1
  P  P11  1  0.261883  0.294294  0.882233  1
  Rh  Rh12  1  0.261905  0.884702  0.159973  1
  Rh  Rh13  1  0.261711  0.840017  0.724698  1
  Rh  Rh14  1  0.261636  0.275483  0.115366  1
  Rh  Rh15  1  0.762199  0.612356  0.558591  1
  Rh  Rh16  1  0.762134  0.441273  0.053709  1
  Rh  Rh17  1  0.761906  0.946259  0.387669  1
  Rh  Rh18  1  0.261758  0.370594  0.438865  1
  Rh  Rh19  1  0.261921  0.561144  0.931624  1
  Rh  Rh20  1  0.261836  0.068283  0.629426  1
