# generated using pymatgen
data_ScPa3(HgPt2)2
_symmetry_space_group_name_H-M   'P 1'
_cell_length_a   7.81430850
_cell_length_b   7.81430850
_cell_length_c   3.57341100
_cell_angle_alpha   90.00000000
_cell_angle_beta   90.00000000
_cell_angle_gamma   90.43575147
_symmetry_Int_Tables_number   1
_chemical_formula_structural   ScPa3(HgPt2)2
_chemical_formula_sum   'Sc1 Pa3 Hg2 Pt4'
_cell_volume   218.19837657
_cell_formula_units_Z   1
loop_
 _symmetry_equiv_pos_site_id
 _symmetry_equiv_pos_as_xyz
  1  'x, y, z'
loop_
 _atom_site_type_symbol
 _atom_site_label
 _atom_site_symmetry_multiplicity
 _atom_site_fract_x
 _atom_site_fract_y
 _atom_site_fract_z
 _atom_site_occupancy
  Sc  Sc0  1  0.326952  0.173048  0.500000  1
  Pa  Pa1  1  0.830904  0.326109  0.500000  1
  Pa  Pa2  1  0.173891  0.669096  0.500000  1
  Pa  Pa3  1  0.665749  0.834251  0.500000  1
  Hg  Hg4  1  0.009247  0.003513  0.000000  1
  Hg  Hg5  1  0.496487  0.490753  0.000000  1
  Pt  Pt6  1  0.631531  0.128756  0.000000  1
  Pt  Pt7  1  0.126562  0.373438  0.000000  1
  Pt  Pt8  1  0.867434  0.632566  0.000000  1
  Pt  Pt9  1  0.371244  0.868469  0.000000  1
