# generated using pymatgen
data_Tm6Ti4Al12IrRh6
_symmetry_space_group_name_H-M   'P 1'
_cell_length_a   8.95467026
_cell_length_b   8.95466948
_cell_length_c   8.95467000
_cell_angle_alpha   59.99999807
_cell_angle_beta   60.00000095
_cell_angle_gamma   60.00000202
_symmetry_Int_Tables_number   1
_chemical_formula_structural   Tm6Ti4Al12IrRh6
_chemical_formula_sum   'Tm6 Ti4 Al12 Ir1 Rh6'
_cell_volume   507.73108129
_cell_formula_units_Z   1
loop_
 _symmetry_equiv_pos_site_id
 _symmetry_equiv_pos_as_xyz
  1  'x, y, z'
loop_
 _atom_site_type_symbol
 _atom_site_label
 _atom_site_symmetry_multiplicity
 _atom_site_fract_x
 _atom_site_fract_y
 _atom_site_fract_z
 _atom_site_occupancy
  Tm  Tm0  1  0.702880  0.297120  0.297120  1
  Tm  Tm1  1  0.702880  0.297120  0.702880  1
  Tm  Tm2  1  0.702880  0.702880  0.297120  1
  Tm  Tm3  1  0.297120  0.702880  0.702880  1
  Tm  Tm4  1  0.297120  0.702880  0.297120  1
  Tm  Tm5  1  0.297120  0.297120  0.702880  1
  Ti  Ti6  1  0.642576  0.119141  0.119141  1
  Ti  Ti7  1  0.119141  0.642576  0.119141  1
  Ti  Ti8  1  0.119141  0.119141  0.642576  1
  Ti  Ti9  1  0.119141  0.119141  0.119141  1
  Al  Al10  1  0.357915  0.880695  0.880695  1
  Al  Al11  1  0.880695  0.357915  0.880695  1
  Al  Al12  1  0.880695  0.880695  0.357915  1
  Al  Al13  1  0.880695  0.880695  0.880695  1
  Al  Al14  1  0.009178  0.330275  0.330275  1
  Al  Al15  1  0.330275  0.009178  0.330275  1
  Al  Al16  1  0.330275  0.330275  0.009178  1
  Al  Al17  1  0.330275  0.330275  0.330275  1
  Al  Al18  1  0.986962  0.671013  0.671013  1
  Al  Al19  1  0.671013  0.986962  0.671013  1
  Al  Al20  1  0.671013  0.671013  0.986962  1
  Al  Al21  1  0.671013  0.671013  0.671013  1
  Ir  Ir22  1  0.000000  0.000000  0.000000  1
  Rh  Rh23  1  0.498983  0.001017  0.001017  1
  Rh  Rh24  1  0.498983  0.001017  0.498983  1
  Rh  Rh25  1  0.498983  0.498983  0.001017  1
  Rh  Rh26  1  0.001017  0.498983  0.498983  1
  Rh  Rh27  1  0.001017  0.498983  0.001017  1
  Rh  Rh28  1  0.001017  0.001017  0.498983  1
