# generated using pymatgen
data_Er8Tm4Co4CuSn
_symmetry_space_group_name_H-M   'P 1'
_cell_length_a   8.19834043
_cell_length_b   8.19806195
_cell_length_c   8.19834195
_cell_angle_alpha   111.17091158
_cell_angle_beta   110.39574570
_cell_angle_gamma   106.88001278
_symmetry_Int_Tables_number   1
_chemical_formula_structural   Er8Tm4Co4CuSn
_chemical_formula_sum   'Er8 Tm4 Co4 Cu1 Sn1'
_cell_volume   423.49674878
_cell_formula_units_Z   1
loop_
 _symmetry_equiv_pos_site_id
 _symmetry_equiv_pos_as_xyz
  1  'x, y, z'
loop_
 _atom_site_type_symbol
 _atom_site_label
 _atom_site_symmetry_multiplicity
 _atom_site_fract_x
 _atom_site_fract_y
 _atom_site_fract_z
 _atom_site_occupancy
  Er  Er0  1  0.419161  0.217599  0.201562  1
  Er  Er1  1  0.580839  0.782401  0.798438  1
  Er  Er2  1  0.016038  0.217599  0.798439  1
  Er  Er3  1  0.983962  0.782401  0.201561  1
  Er  Er4  1  0.185123  0.288312  0.473436  1
  Er  Er5  1  0.814877  0.711688  0.526564  1
  Er  Er6  1  0.185125  0.711688  0.896812  1
  Er  Er7  1  0.814875  0.288312  0.103188  1
  Tm  Tm8  1  0.314582  0.618441  0.303859  1
  Tm  Tm9  1  0.685418  0.381560  0.696141  1
  Tm  Tm10  1  0.314579  0.010709  0.696130  1
  Tm  Tm11  1  0.685421  0.989291  0.303870  1
  Co  Co12  1  0.113594  0.613593  0.499999  1
  Co  Co13  1  0.886407  0.386408  0.500001  1
  Co  Co14  1  0.376996  0.000000  0.376996  1
  Co  Co15  1  0.623004  0.000000  0.623004  1
  Cu  Cu16  1  0.000000  0.000000  0.000000  1
  Sn  Sn17  1  0.500000  0.500000  0.000000  1
