# generated using pymatgen
data_Dy3Y6Ho(CoBi2)2
_symmetry_space_group_name_H-M   'P 1'
_cell_length_a   8.01968328
_cell_length_b   8.84803424
_cell_length_c   12.42855047
_cell_angle_alpha   90.01989480
_cell_angle_beta   89.97560382
_cell_angle_gamma   89.98217043
_symmetry_Int_Tables_number   1
_chemical_formula_structural   Dy3Y6Ho(CoBi2)2
_chemical_formula_sum   'Dy6 Y12 Ho2 Co4 Bi8'
_cell_volume   881.91028056
_cell_formula_units_Z   2
loop_
 _symmetry_equiv_pos_site_id
 _symmetry_equiv_pos_as_xyz
  1  'x, y, z'
loop_
 _atom_site_type_symbol
 _atom_site_label
 _atom_site_symmetry_multiplicity
 _atom_site_fract_x
 _atom_site_fract_y
 _atom_site_fract_z
 _atom_site_occupancy
  Dy  Dy0  1  0.675430  0.537405  0.563032  1
  Dy  Dy1  1  0.324570  0.462595  0.436968  1
  Dy  Dy2  1  0.175347  0.462604  0.937007  1
  Dy  Dy3  1  0.324586  0.037405  0.436956  1
  Dy  Dy4  1  0.824653  0.537396  0.062993  1
  Dy  Dy5  1  0.675414  0.962595  0.563044  1
  Y  Y6  1  0.346828  0.750042  0.700336  1
  Y  Y7  1  0.653172  0.249958  0.299664  1
  Y  Y8  1  0.847062  0.249889  0.799876  1
  Y  Y9  1  0.152938  0.750111  0.200124  1
  Y  Y10  1  0.883455  0.750224  0.809922  1
  Y  Y11  1  0.116545  0.249776  0.190078  1
  Y  Y12  1  0.383318  0.250000  0.690360  1
  Y  Y13  1  0.616682  0.750000  0.309640  1
  Y  Y14  1  0.050395  0.750007  0.498082  1
  Y  Y15  1  0.949605  0.249993  0.501918  1
  Y  Y16  1  0.550522  0.249819  0.001937  1
  Y  Y17  1  0.449478  0.750181  0.998063  1
  Ho  Ho18  1  0.825545  0.962556  0.062882  1
  Ho  Ho19  1  0.174455  0.037444  0.937118  1
  Co  Co20  1  0.064365  0.750385  0.991809  1
  Co  Co21  1  0.935635  0.249615  0.008191  1
  Co  Co22  1  0.564537  0.250007  0.508303  1
  Co  Co23  1  0.435463  0.749993  0.491697  1
  Bi  Bi24  1  0.572007  0.509319  0.826446  1
  Bi  Bi25  1  0.427993  0.490681  0.173554  1
  Bi  Bi26  1  0.072005  0.490694  0.673574  1
  Bi  Bi27  1  0.428287  0.009286  0.173480  1
  Bi  Bi28  1  0.927995  0.509306  0.326426  1
  Bi  Bi29  1  0.571713  0.990714  0.826520  1
  Bi  Bi30  1  0.927926  0.990694  0.326351  1
  Bi  Bi31  1  0.072074  0.009306  0.673649  1
