# generated using pymatgen
data_TbY3Fe2(Co2B)6
_symmetry_space_group_name_H-M   'P 1'
_cell_length_a   5.06545200
_cell_length_b   5.06623870
_cell_length_c   12.61310300
_cell_angle_alpha   89.99989386
_cell_angle_beta   90.00009281
_cell_angle_gamma   119.99454660
_symmetry_Int_Tables_number   1
_chemical_formula_structural   TbY3Fe2(Co2B)6
_chemical_formula_sum   'Tb1 Y3 Fe2 Co12 B6'
_cell_volume   280.33691472
_cell_formula_units_Z   1
loop_
 _symmetry_equiv_pos_site_id
 _symmetry_equiv_pos_as_xyz
  1  'x, y, z'
loop_
 _atom_site_type_symbol
 _atom_site_label
 _atom_site_symmetry_multiplicity
 _atom_site_fract_x
 _atom_site_fract_y
 _atom_site_fract_z
 _atom_site_occupancy
  Tb  Tb0  1  0.999997  0.999999  0.739497  1
  Y  Y1  1  0.999988  0.000001  0.000041  1
  Y  Y2  1  0.999993  0.000001  0.499878  1
  Y  Y3  1  0.999987  0.000001  0.260601  1
  Fe  Fe4  1  0.333342  0.666691  0.000110  1
  Fe  Fe5  1  0.666620  0.333302  0.000104  1
  Co  Co6  1  0.499947  0.999922  0.155679  1
  Co  Co7  1  0.499949  0.500040  0.155686  1
  Co  Co8  1  0.000066  0.500040  0.155657  1
  Co  Co9  1  0.499958  0.999922  0.844458  1
  Co  Co10  1  0.499959  0.500041  0.844419  1
  Co  Co11  1  0.000074  0.500039  0.844430  1
  Co  Co12  1  0.499991  0.000000  0.384888  1
  Co  Co13  1  0.499991  0.500001  0.384865  1
  Co  Co14  1  0.999992  0.500000  0.384859  1
  Co  Co15  1  0.499996  0.000001  0.614995  1
  Co  Co16  1  0.499996  0.500000  0.615002  1
  Co  Co17  1  0.999995  0.500000  0.615006  1
  B  B18  1  0.333299  0.666642  0.499778  1
  B  B19  1  0.666686  0.333359  0.499778  1
  B  B20  1  0.333371  0.666659  0.268622  1
  B  B21  1  0.666607  0.333340  0.268625  1
  B  B22  1  0.666694  0.333378  0.731507  1
  B  B23  1  0.333298  0.666623  0.731510  1
