# generated using pymatgen
data_TiBe8Re3
_symmetry_space_group_name_H-M   'P 1'
_cell_length_a   4.39208100
_cell_length_b   4.39208149
_cell_length_c   7.22724000
_cell_angle_alpha   90.00000000
_cell_angle_beta   90.00000000
_cell_angle_gamma   120.00000383
_symmetry_Int_Tables_number   1
_chemical_formula_structural   TiBe8Re3
_chemical_formula_sum   'Ti1 Be8 Re3'
_cell_volume   120.73795679
_cell_formula_units_Z   1
loop_
 _symmetry_equiv_pos_site_id
 _symmetry_equiv_pos_as_xyz
  1  'x, y, z'
loop_
 _atom_site_type_symbol
 _atom_site_label
 _atom_site_symmetry_multiplicity
 _atom_site_fract_x
 _atom_site_fract_y
 _atom_site_fract_z
 _atom_site_occupancy
  Ti  Ti0  1  0.333333  0.666667  0.064785  1
  Be  Be1  1  0.000000  0.000000  0.998931  1
  Be  Be2  1  0.000000  0.000000  0.499952  1
  Be  Be3  1  0.830049  0.660097  0.252118  1
  Be  Be4  1  0.168603  0.831397  0.748522  1
  Be  Be5  1  0.662794  0.831397  0.748522  1
  Be  Be6  1  0.339903  0.169951  0.252118  1
  Be  Be7  1  0.830049  0.169951  0.252118  1
  Be  Be8  1  0.168603  0.337206  0.748522  1
  Re  Re9  1  0.666667  0.333333  0.563075  1
  Re  Re10  1  0.666667  0.333333  0.932258  1
  Re  Re11  1  0.333333  0.666667  0.439079  1
