# generated using pymatgen
data_AcAg2
_symmetry_space_group_name_H-M   'P 1'
_cell_length_a   6.28177370
_cell_length_b   6.28177345
_cell_length_c   6.28177375
_cell_angle_alpha   134.25038952
_cell_angle_beta   102.98562121
_cell_angle_gamma   94.44477194
_symmetry_Int_Tables_number   1
_chemical_formula_structural   AcAg2
_chemical_formula_sum   'Ac2 Ag4'
_cell_volume   162.97805337
_cell_formula_units_Z   2
loop_
 _symmetry_equiv_pos_site_id
 _symmetry_equiv_pos_as_xyz
  1  'x, y, z'
loop_
 _atom_site_type_symbol
 _atom_site_label
 _atom_site_symmetry_multiplicity
 _atom_site_fract_x
 _atom_site_fract_y
 _atom_site_fract_z
 _atom_site_occupancy
  Ac  Ac0  1  0.717673  0.967673  0.750000  1
  Ac  Ac1  1  0.282327  0.032327  0.250000  1
  Ag  Ag2  1  0.704145  0.664666  0.039479  1
  Ag  Ag3  1  0.295855  0.335334  0.960521  1
  Ag  Ag4  1  0.874812  0.335334  0.539479  1
  Ag  Ag5  1  0.125188  0.664666  0.460521  1
