# generated using pymatgen
data_Tb3Pr2YIrI10
_symmetry_space_group_name_H-M   'P 1'
_cell_length_a   7.84204278
_cell_length_b   9.88592770
_cell_length_c   9.92112710
_cell_angle_alpha   106.91257826
_cell_angle_beta   96.35099468
_cell_angle_gamma   105.07519685
_symmetry_Int_Tables_number   1
_chemical_formula_structural   Tb3Pr2YIrI10
_chemical_formula_sum   'Tb3 Pr2 Y1 Ir1 I10'
_cell_volume   695.95807821
_cell_formula_units_Z   1
loop_
 _symmetry_equiv_pos_site_id
 _symmetry_equiv_pos_as_xyz
  1  'x, y, z'
loop_
 _atom_site_type_symbol
 _atom_site_label
 _atom_site_symmetry_multiplicity
 _atom_site_fract_x
 _atom_site_fract_y
 _atom_site_fract_z
 _atom_site_occupancy
  Tb  Tb0  1  0.969979  0.286503  0.086284  1
  Tb  Tb1  1  0.029820  0.713441  0.913728  1
  Tb  Tb2  1  0.348391  0.125394  0.165147  1
  Pr  Pr3  1  0.117176  0.043839  0.761006  1
  Pr  Pr4  1  0.882633  0.956191  0.238955  1
  Y  Y5  1  0.651475  0.874454  0.834771  1
  Ir  Ir6  1  0.000047  0.000049  0.000053  1
  I  I7  1  0.348184  0.447489  0.270122  1
  I  I8  1  0.651797  0.552745  0.729933  1
  I  I9  1  0.267497  0.090008  0.457248  1
  I  I10  1  0.732449  0.909964  0.542886  1
  I  I11  1  0.083640  0.378507  0.825238  1
  I  I12  1  0.916343  0.621504  0.174754  1
  I  I13  1  0.448112  0.817210  0.087738  1
  I  I14  1  0.552009  0.182627  0.912066  1
  I  I15  1  0.775207  0.261431  0.342256  1
  I  I16  1  0.225241  0.738643  0.657813  1
