# generated using pymatgen
data_Ce2Pa2Tc7Os
_symmetry_space_group_name_H-M   'P 1'
_cell_length_a   5.19806500
_cell_length_b   5.19806582
_cell_length_c   9.51650800
_cell_angle_alpha   90.00000000
_cell_angle_beta   90.00000000
_cell_angle_gamma   120.00000114
_symmetry_Int_Tables_number   1
_chemical_formula_structural   Ce2Pa2Tc7Os
_chemical_formula_sum   'Ce2 Pa2 Tc7 Os1'
_cell_volume   222.68538973
_cell_formula_units_Z   1
loop_
 _symmetry_equiv_pos_site_id
 _symmetry_equiv_pos_as_xyz
  1  'x, y, z'
loop_
 _atom_site_type_symbol
 _atom_site_label
 _atom_site_symmetry_multiplicity
 _atom_site_fract_x
 _atom_site_fract_y
 _atom_site_fract_z
 _atom_site_occupancy
  Ce  Ce0  1  0.666667  0.333333  0.939449  1
  Ce  Ce1  1  0.333333  0.666667  0.060551  1
  Pa  Pa2  1  0.333333  0.666667  0.435748  1
  Pa  Pa3  1  0.666667  0.333333  0.564252  1
  Tc  Tc4  1  0.000000  0.000000  0.500000  1
  Tc  Tc5  1  0.830432  0.169568  0.251505  1
  Tc  Tc6  1  0.830432  0.660864  0.251505  1
  Tc  Tc7  1  0.339136  0.169568  0.251505  1
  Tc  Tc8  1  0.169568  0.830432  0.748495  1
  Tc  Tc9  1  0.169568  0.339136  0.748495  1
  Tc  Tc10  1  0.660864  0.830432  0.748495  1
  Os  Os11  1  0.000000  0.000000  0.000000  1
