# generated using pymatgen
data_Tb7DyTi3Si16Mo9
_symmetry_space_group_name_H-M   'P 1'
_cell_length_a   6.92972463
_cell_length_b   6.92986553
_cell_length_c   12.84679128
_cell_angle_alpha   90.00687952
_cell_angle_beta   90.00044698
_cell_angle_gamma   89.79829471
_symmetry_Int_Tables_number   1
_chemical_formula_structural   Tb7DyTi3Si16Mo9
_chemical_formula_sum   'Tb7 Dy1 Ti3 Si16 Mo9'
_cell_volume   616.92555218
_cell_formula_units_Z   1
loop_
 _symmetry_equiv_pos_site_id
 _symmetry_equiv_pos_as_xyz
  1  'x, y, z'
loop_
 _atom_site_type_symbol
 _atom_site_label
 _atom_site_symmetry_multiplicity
 _atom_site_fract_x
 _atom_site_fract_y
 _atom_site_fract_z
 _atom_site_occupancy
  Tb  Tb0  1  0.997525  0.660330  0.031549  1
  Tb  Tb1  1  0.000977  0.340538  0.531351  1
  Tb  Tb2  1  0.660327  0.997524  0.968456  1
  Tb  Tb3  1  0.160976  0.503695  0.780925  1
  Tb  Tb4  1  0.838433  0.499994  0.282687  1
  Tb  Tb5  1  0.503664  0.160951  0.219110  1
  Tb  Tb6  1  0.499960  0.838464  0.717276  1
  Dy  Dy7  1  0.340784  0.000675  0.468654  1
  Ti  Ti8  1  0.829085  0.169033  0.748499  1
  Ti  Ti9  1  0.169061  0.829125  0.251540  1
  Ti  Ti10  1  0.330597  0.330600  0.000003  1
  Si  Si11  1  0.036804  0.713495  0.438437  1
  Si  Si12  1  0.958342  0.288794  0.936165  1
  Si  Si13  1  0.713022  0.036595  0.561497  1
  Si  Si14  1  0.209923  0.459781  0.186381  1
  Si  Si15  1  0.788096  0.542442  0.685037  1
  Si  Si16  1  0.459787  0.209913  0.813620  1
  Si  Si17  1  0.542263  0.788281  0.315090  1
  Si  Si18  1  0.288799  0.958334  0.063830  1
  Si  Si19  1  0.799987  0.871469  0.184260  1
  Si  Si20  1  0.303547  0.625750  0.565070  1
  Si  Si21  1  0.700323  0.371860  0.065677  1
  Si  Si22  1  0.625280  0.303364  0.434868  1
  Si  Si23  1  0.371859  0.700328  0.934322  1
  Si  Si24  1  0.127828  0.202321  0.315276  1
  Si  Si25  1  0.202548  0.127593  0.684762  1
  Si  Si26  1  0.871465  0.799998  0.815738  1
  Mo  Mo27  1  0.333751  0.504990  0.374963  1
  Mo  Mo28  1  0.843967  0.997729  0.373207  1
  Mo  Mo29  1  0.007052  0.159425  0.125504  1
  Mo  Mo30  1  0.997807  0.843997  0.626735  1
  Mo  Mo31  1  0.504878  0.333590  0.624981  1
  Mo  Mo32  1  0.159440  0.007014  0.874511  1
  Mo  Mo33  1  0.668767  0.668899  0.499986  1
  Mo  Mo34  1  0.493616  0.659484  0.124914  1
  Mo  Mo35  1  0.659462  0.493627  0.875119  1
