# generated using pymatgen
data_K4Mn9GeO20
_symmetry_space_group_name_H-M   'P 1'
_cell_length_a   7.90196797
_cell_length_b   5.16529842
_cell_length_c   12.98721500
_cell_angle_alpha   86.73828040
_cell_angle_beta   83.46505847
_cell_angle_gamma   69.60016950
_symmetry_Int_Tables_number   1
_chemical_formula_structural   K4Mn9GeO20
_chemical_formula_sum   'K4 Mn9 Ge1 O20'
_cell_volume   493.52841002
_cell_formula_units_Z   1
loop_
 _symmetry_equiv_pos_site_id
 _symmetry_equiv_pos_as_xyz
  1  'x, y, z'
loop_
 _atom_site_type_symbol
 _atom_site_label
 _atom_site_symmetry_multiplicity
 _atom_site_fract_x
 _atom_site_fract_y
 _atom_site_fract_z
 _atom_site_occupancy
  K  K0  1  0.054597  0.714597  0.501779  1
  K  K1  1  0.548650  0.474194  0.497730  1
  K  K2  1  0.554050  0.215633  0.001129  1
  K  K3  1  0.049905  0.981637  0.997009  1
  Mn  Mn4  1  0.049456  0.349991  0.749667  1
  Mn  Mn5  1  0.348050  0.448658  0.253167  1
  Mn  Mn6  1  0.255262  0.749541  0.746402  1
  Mn  Mn7  1  0.451175  0.153418  0.745005  1
  Mn  Mn8  1  0.549194  0.847185  0.249506  1
  Mn  Mn9  1  0.754930  0.247210  0.246404  1
  Mn  Mn10  1  0.646180  0.550026  0.754564  1
  Mn  Mn11  1  0.951147  0.651976  0.244144  1
  Mn  Mn12  1  0.848403  0.949708  0.754160  1
  Ge  Ge13  1  0.144750  0.049092  0.255257  1
  O  O14  1  0.055903  0.013269  0.673798  1
  O  O15  1  0.135452  0.376275  0.326188  1
  O  O16  1  0.171676  0.723252  0.174629  1
  O  O17  1  0.041969  0.687143  0.826355  1
  O  O18  1  0.237750  0.081548  0.820463  1
  O  O19  1  0.355918  0.119051  0.177789  1
  O  O20  1  0.280213  0.437049  0.665983  1
  O  O21  1  0.313095  0.770289  0.335292  1
  O  O22  1  0.541266  0.184746  0.325782  1
  O  O23  1  0.433295  0.516385  0.831985  1
  O  O24  1  0.556215  0.511267  0.173445  1
  O  O25  1  0.469442  0.788461  0.668208  1
  O  O26  1  0.669542  0.223690  0.676316  1
  O  O27  1  0.736499  0.578757  0.320553  1
  O  O28  1  0.780920  0.933646  0.165907  1
  O  O29  1  0.635583  0.878181  0.826603  1
  O  O30  1  0.970231  0.286983  0.168294  1
  O  O31  1  0.816384  0.266544  0.836036  1
  O  O32  1  0.858489  0.620539  0.678016  1
  O  O33  1  0.933610  0.012090  0.332154  1
