# generated using pymatgen
data_CaAc9(Si2Sn)2
_symmetry_space_group_name_H-M   'P 1'
_cell_length_a   9.77521390
_cell_length_b   9.77521335
_cell_length_c   9.77521509
_cell_angle_alpha   129.78978671
_cell_angle_beta   129.78977639
_cell_angle_gamma   73.74306227
_symmetry_Int_Tables_number   1
_chemical_formula_structural   CaAc9(Si2Sn)2
_chemical_formula_sum   'Ca1 Ac9 Si4 Sn2'
_cell_volume   538.05293342
_cell_formula_units_Z   1
loop_
 _symmetry_equiv_pos_site_id
 _symmetry_equiv_pos_as_xyz
  1  'x, y, z'
loop_
 _atom_site_type_symbol
 _atom_site_label
 _atom_site_symmetry_multiplicity
 _atom_site_fract_x
 _atom_site_fract_y
 _atom_site_fract_z
 _atom_site_occupancy
  Ca  Ca0  1  0.000000  0.000000  0.000000  1
  Ac  Ac1  1  0.816767  0.313313  0.851954  1
  Ac  Ac2  1  0.183233  0.686687  0.148046  1
  Ac  Ac3  1  0.461358  0.964813  0.148046  1
  Ac  Ac4  1  0.313313  0.461358  0.496545  1
  Ac  Ac5  1  0.035187  0.183233  0.496545  1
  Ac  Ac6  1  0.538642  0.035187  0.851954  1
  Ac  Ac7  1  0.686687  0.538642  0.503455  1
  Ac  Ac8  1  0.964813  0.816767  0.503455  1
  Ac  Ac9  1  0.500000  0.500000  0.000000  1
  Si  Si10  1  0.113118  0.614062  0.727181  1
  Si  Si11  1  0.886882  0.385938  0.272819  1
  Si  Si12  1  0.614062  0.886882  0.500944  1
  Si  Si13  1  0.385938  0.113118  0.499056  1
  Sn  Sn14  1  0.251552  0.251552  0.000000  1
  Sn  Sn15  1  0.748448  0.748448  0.000000  1
