# generated using pymatgen
data_Er3Tm5Sc12Si15Ag
_symmetry_space_group_name_H-M   'P 1'
_cell_length_a   7.09672142
_cell_length_b   7.34137364
_cell_length_c   14.01513560
_cell_angle_alpha   89.87974726
_cell_angle_beta   89.54636851
_cell_angle_gamma   90.15907750
_symmetry_Int_Tables_number   1
_chemical_formula_structural   Er3Tm5Sc12Si15Ag
_chemical_formula_sum   'Er3 Tm5 Sc12 Si15 Ag1'
_cell_volume   730.15678809
_cell_formula_units_Z   1
loop_
 _symmetry_equiv_pos_site_id
 _symmetry_equiv_pos_as_xyz
  1  'x, y, z'
loop_
 _atom_site_type_symbol
 _atom_site_label
 _atom_site_symmetry_multiplicity
 _atom_site_fract_x
 _atom_site_fract_y
 _atom_site_fract_z
 _atom_site_occupancy
  Er  Er0  1  0.012056  0.175815  0.097491  1
  Er  Er1  1  0.988062  0.825444  0.904253  1
  Er  Er2  1  0.487340  0.677554  0.904110  1
  Tm  Tm3  1  0.989503  0.830340  0.597560  1
  Tm  Tm4  1  0.511919  0.322746  0.096454  1
  Tm  Tm5  1  0.008155  0.172000  0.398844  1
  Tm  Tm6  1  0.511063  0.321918  0.400437  1
  Tm  Tm7  1  0.494428  0.678969  0.599673  1
  Sc  Sc8  1  0.163770  0.502594  0.752993  1
  Sc  Sc9  1  0.837120  0.497840  0.251024  1
  Sc  Sc10  1  0.337021  0.000817  0.248970  1
  Sc  Sc11  1  0.665596  0.995508  0.751142  1
  Sc  Sc12  1  0.342452  0.173496  0.626777  1
  Sc  Sc13  1  0.663836  0.823321  0.373578  1
  Sc  Sc14  1  0.166489  0.675114  0.371734  1
  Sc  Sc15  1  0.669366  0.824376  0.124830  1
  Sc  Sc16  1  0.827029  0.325631  0.625374  1
  Sc  Sc17  1  0.328997  0.175273  0.876253  1
  Sc  Sc18  1  0.830788  0.322807  0.875980  1
  Sc  Sc19  1  0.168988  0.676149  0.125257  1
  Si  Si20  1  0.036412  0.119264  0.750032  1
  Si  Si21  1  0.964930  0.885185  0.248536  1
  Si  Si22  1  0.466657  0.612707  0.248024  1
  Si  Si23  1  0.534376  0.387947  0.752344  1
  Si  Si24  1  0.285751  0.872057  0.750899  1
  Si  Si25  1  0.712217  0.129527  0.248439  1
  Si  Si26  1  0.214269  0.368486  0.248353  1
  Si  Si27  1  0.788613  0.629819  0.752481  1
  Si  Si28  1  0.832993  0.536859  0.459425  1
  Si  Si29  1  0.335017  0.962160  0.460985  1
  Si  Si30  1  0.842214  0.534753  0.039217  1
  Si  Si31  1  0.661862  0.035742  0.537662  1
  Si  Si32  1  0.156764  0.464889  0.962043  1
  Si  Si33  1  0.658470  0.034784  0.960823  1
  Si  Si34  1  0.341617  0.965095  0.039979  1
  Ag  Ag35  1  0.163856  0.463012  0.538023  1
