# generated using pymatgen
data_TmZr3(Ni4As3)2
_symmetry_space_group_name_H-M   'P 1'
_cell_length_a   12.70167200
_cell_length_b   12.70167183
_cell_length_c   3.86828700
_cell_angle_alpha   90.00000000
_cell_angle_beta   90.00000000
_cell_angle_gamma   119.99999524
_symmetry_Int_Tables_number   1
_chemical_formula_structural   TmZr3(Ni4As3)2
_chemical_formula_sum   'Tm2 Zr6 Ni16 As12'
_cell_volume   540.46941456
_cell_formula_units_Z   2
loop_
 _symmetry_equiv_pos_site_id
 _symmetry_equiv_pos_as_xyz
  1  'x, y, z'
loop_
 _atom_site_type_symbol
 _atom_site_label
 _atom_site_symmetry_multiplicity
 _atom_site_fract_x
 _atom_site_fract_y
 _atom_site_fract_z
 _atom_site_occupancy
  Tm  Tm0  1  0.666667  0.333333  0.000000  1
  Tm  Tm1  1  0.333333  0.666667  0.000000  1
  Zr  Zr2  1  0.000000  0.177050  0.500000  1
  Zr  Zr3  1  0.822950  0.822950  0.500000  1
  Zr  Zr4  1  0.177050  0.000000  0.500000  1
  Zr  Zr5  1  0.000000  0.557100  0.000000  1
  Zr  Zr6  1  0.442900  0.442900  0.000000  1
  Zr  Zr7  1  0.557100  0.000000  0.000000  1
  Ni  Ni8  1  0.000000  0.727438  0.500000  1
  Ni  Ni9  1  0.272562  0.272562  0.500000  1
  Ni  Ni10  1  0.727438  0.000000  0.500000  1
  Ni  Ni11  1  0.808453  0.178860  0.000000  1
  Ni  Ni12  1  0.821140  0.629593  0.000000  1
  Ni  Ni13  1  0.370407  0.191547  0.000000  1
  Ni  Ni14  1  0.178860  0.808453  0.000000  1
  Ni  Ni15  1  0.629593  0.821140  0.000000  1
  Ni  Ni16  1  0.191547  0.370407  0.000000  1
  Ni  Ni17  1  0.878678  0.356828  0.500000  1
  Ni  Ni18  1  0.643172  0.521849  0.500000  1
  Ni  Ni19  1  0.478151  0.121322  0.500000  1
  Ni  Ni20  1  0.356828  0.878678  0.500000  1
  Ni  Ni21  1  0.521849  0.643172  0.500000  1
  Ni  Ni22  1  0.121322  0.478151  0.500000  1
  Ni  Ni23  1  0.000000  0.000000  0.000000  1
  As  As24  1  0.000000  0.824485  0.000000  1
  As  As25  1  0.175515  0.175515  0.000000  1
  As  As26  1  0.824485  0.000000  0.000000  1
  As  As27  1  0.689863  0.171040  0.500000  1
  As  As28  1  0.828960  0.518823  0.500000  1
  As  As29  1  0.481177  0.310137  0.500000  1
  As  As30  1  0.171040  0.689863  0.500000  1
  As  As31  1  0.518823  0.828960  0.500000  1
  As  As32  1  0.310137  0.481177  0.500000  1
  As  As33  1  0.000000  0.349004  0.000000  1
  As  As34  1  0.650996  0.650996  0.000000  1
  As  As35  1  0.349004  0.000000  0.000000  1
