# generated using pymatgen
data_Pr5Ho3Si12(IrRh)2
_symmetry_space_group_name_H-M   'P 1'
_cell_length_a   8.25095000
_cell_length_b   8.25095853
_cell_length_c   8.24677200
_cell_angle_alpha   90.00012037
_cell_angle_beta   89.99988887
_cell_angle_gamma   119.99999573
_symmetry_Int_Tables_number   1
_chemical_formula_structural   Pr5Ho3Si12(IrRh)2
_chemical_formula_sum   'Pr5 Ho3 Si12 Ir2 Rh2'
_cell_volume   486.20900463
_cell_formula_units_Z   1
loop_
 _symmetry_equiv_pos_site_id
 _symmetry_equiv_pos_as_xyz
  1  'x, y, z'
loop_
 _atom_site_type_symbol
 _atom_site_label
 _atom_site_symmetry_multiplicity
 _atom_site_fract_x
 _atom_site_fract_y
 _atom_site_fract_z
 _atom_site_occupancy
  Pr  Pr0  1  0.000000  0.000001  0.248993  1
  Pr  Pr1  1  0.000000  0.999999  0.750821  1
  Pr  Pr2  1  0.505045  0.494956  0.250205  1
  Pr  Pr3  1  0.505043  0.010091  0.250205  1
  Pr  Pr4  1  0.989912  0.494957  0.250206  1
  Ho  Ho5  1  0.492189  0.507811  0.749781  1
  Ho  Ho6  1  0.492191  0.984381  0.749783  1
  Ho  Ho7  1  0.015617  0.507810  0.749782  1
  Si  Si8  1  0.167095  0.832905  0.507806  1
  Si  Si9  1  0.167097  0.334190  0.507810  1
  Si  Si10  1  0.665809  0.832903  0.507810  1
  Si  Si11  1  0.831370  0.168630  0.505930  1
  Si  Si12  1  0.831369  0.662740  0.505923  1
  Si  Si13  1  0.337260  0.168631  0.505924  1
  Si  Si14  1  0.831404  0.168597  0.994882  1
  Si  Si15  1  0.831403  0.662808  0.994888  1
  Si  Si16  1  0.337192  0.168598  0.994888  1
  Si  Si17  1  0.166979  0.833021  0.991962  1
  Si  Si18  1  0.166981  0.333959  0.991960  1
  Si  Si19  1  0.666040  0.833018  0.991960  1
  Ir  Ir20  1  0.333333  0.666667  0.493656  1
  Ir  Ir21  1  0.666667  0.333334  0.545065  1
  Rh  Rh22  1  0.666667  0.333334  0.950760  1
  Rh  Rh23  1  0.333332  0.666666  0.009001  1
