# generated using pymatgen
data_TmGe2(AsRh3)2
_symmetry_space_group_name_H-M   'P 1'
_cell_length_a   7.29848500
_cell_length_b   7.24592787
_cell_length_c   3.81034800
_cell_angle_alpha   90.00000000
_cell_angle_beta   90.00000000
_cell_angle_gamma   120.24021609
_symmetry_Int_Tables_number   1
_chemical_formula_structural   TmGe2(AsRh3)2
_chemical_formula_sum   'Tm1 Ge2 As2 Rh6'
_cell_volume   174.08672649
_cell_formula_units_Z   1
loop_
 _symmetry_equiv_pos_site_id
 _symmetry_equiv_pos_as_xyz
  1  'x, y, z'
loop_
 _atom_site_type_symbol
 _atom_site_label
 _atom_site_symmetry_multiplicity
 _atom_site_fract_x
 _atom_site_fract_y
 _atom_site_fract_z
 _atom_site_occupancy
  Tm  Tm0  1  0.998441  0.996881  0.000000  1
  Ge  Ge1  1  0.807628  0.615255  0.500000  1
  Ge  Ge2  1  0.333153  0.666308  0.000000  1
  As  As3  1  0.383136  0.192793  0.500000  1
  As  As4  1  0.809657  0.192793  0.500000  1
  Rh  Rh5  1  0.534990  0.069981  0.000000  1
  Rh  Rh6  1  0.606197  0.803752  0.500000  1
  Rh  Rh7  1  0.196547  0.393094  0.500000  1
  Rh  Rh8  1  0.535423  0.466030  0.000000  1
  Rh  Rh9  1  0.197554  0.803752  0.500000  1
  Rh  Rh10  1  0.930606  0.466030  0.000000  1
