# generated using pymatgen
data_Tm4Sc4Ga3Ru
_symmetry_space_group_name_H-M   'P 1'
_cell_length_a   9.56791800
_cell_length_b   9.56791846
_cell_length_c   6.87849900
_cell_angle_alpha   90.00000000
_cell_angle_beta   90.00000000
_cell_angle_gamma   120.00000533
_symmetry_Int_Tables_number   1
_chemical_formula_structural   Tm4Sc4Ga3Ru
_chemical_formula_sum   'Tm8 Sc8 Ga6 Ru2'
_cell_volume   545.32975745
_cell_formula_units_Z   2
loop_
 _symmetry_equiv_pos_site_id
 _symmetry_equiv_pos_as_xyz
  1  'x, y, z'
loop_
 _atom_site_type_symbol
 _atom_site_label
 _atom_site_symmetry_multiplicity
 _atom_site_fract_x
 _atom_site_fract_y
 _atom_site_fract_z
 _atom_site_occupancy
  Tm  Tm0  1  0.468789  0.531211  0.291096  1
  Tm  Tm1  1  0.937575  0.468789  0.791096  1
  Tm  Tm2  1  0.531211  0.062425  0.791096  1
  Tm  Tm3  1  0.468789  0.937575  0.291096  1
  Tm  Tm4  1  0.062425  0.531211  0.291096  1
  Tm  Tm5  1  0.531211  0.468789  0.791096  1
  Tm  Tm6  1  0.000000  0.000000  0.268539  1
  Tm  Tm7  1  0.000000  0.000000  0.768539  1
  Sc  Sc8  1  0.172188  0.827812  0.989645  1
  Sc  Sc9  1  0.344375  0.172188  0.489645  1
  Sc  Sc10  1  0.827812  0.655625  0.489645  1
  Sc  Sc11  1  0.172188  0.344375  0.989645  1
  Sc  Sc12  1  0.655625  0.827812  0.989645  1
  Sc  Sc13  1  0.827812  0.172188  0.489645  1
  Sc  Sc14  1  0.333333  0.666667  0.660808  1
  Sc  Sc15  1  0.666667  0.333333  0.160808  1
  Ga  Ga16  1  0.164051  0.835949  0.549348  1
  Ga  Ga17  1  0.328102  0.164051  0.049348  1
  Ga  Ga18  1  0.835949  0.671898  0.049348  1
  Ga  Ga19  1  0.164051  0.328102  0.549348  1
  Ga  Ga20  1  0.671898  0.835949  0.549348  1
  Ga  Ga21  1  0.835949  0.164051  0.049348  1
  Ru  Ru22  1  0.333333  0.666667  0.042387  1
  Ru  Ru23  1  0.666667  0.333333  0.542387  1
