# generated using pymatgen
data_Hf2Ti7Nb5P8
_symmetry_space_group_name_H-M   'P 1'
_cell_length_a   7.66048872
_cell_length_b   7.66048916
_cell_length_c   13.82199216
_cell_angle_alpha   76.07852037
_cell_angle_beta   76.07851987
_cell_angle_gamma   26.02372539
_symmetry_Int_Tables_number   1
_chemical_formula_structural   Hf2Ti7Nb5P8
_chemical_formula_sum   'Hf2 Ti7 Nb5 P8'
_cell_volume   344.85184541
_cell_formula_units_Z   1
loop_
 _symmetry_equiv_pos_site_id
 _symmetry_equiv_pos_as_xyz
  1  'x, y, z'
loop_
 _atom_site_type_symbol
 _atom_site_label
 _atom_site_symmetry_multiplicity
 _atom_site_fract_x
 _atom_site_fract_y
 _atom_site_fract_z
 _atom_site_occupancy
  Hf  Hf0  1  0.658284  0.658284  0.030900  1
  Hf  Hf1  1  0.342088  0.342088  0.967519  1
  Ti  Ti2  1  0.996986  0.996986  0.659699  1
  Ti  Ti3  1  0.003281  0.003281  0.340008  1
  Ti  Ti4  1  0.823672  0.823672  0.542010  1
  Ti  Ti5  1  0.175419  0.175419  0.459990  1
  Ti  Ti6  1  0.205722  0.205722  0.209286  1
  Ti  Ti7  1  0.793911  0.793911  0.789888  1
  Ti  Ti8  1  0.198639  0.198639  0.687146  1
  Nb  Nb9  1  0.801210  0.801210  0.314485  1
  Nb  Nb10  1  0.427366  0.427366  0.176372  1
  Nb  Nb11  1  0.573420  0.573420  0.821424  1
  Nb  Nb12  1  0.500222  0.500222  0.500693  1
  Nb  Nb13  1  0.000637  0.000637  0.999011  1
  P  P14  1  0.060644  0.060644  0.157921  1
  P  P15  1  0.939702  0.939702  0.840768  1
  P  P16  1  0.368804  0.368804  0.659758  1
  P  P17  1  0.628452  0.628452  0.340614  1
  P  P18  1  0.374536  0.374536  0.399270  1
  P  P19  1  0.627000  0.627000  0.606036  1
  P  P20  1  0.180557  0.180557  0.882037  1
  P  P21  1  0.819449  0.819449  0.115164  1
