# generated using pymatgen
data_Pa6Co6BiSb7
_symmetry_space_group_name_H-M   'P 1'
_cell_length_a   8.12555232
_cell_length_b   8.12875216
_cell_length_c   8.12875308
_cell_angle_alpha   109.47919745
_cell_angle_beta   109.46325293
_cell_angle_gamma   109.46323773
_symmetry_Int_Tables_number   1
_chemical_formula_structural   Pa6Co6BiSb7
_chemical_formula_sum   'Pa6 Co6 Bi1 Sb7'
_cell_volume   413.35342081
_cell_formula_units_Z   1
loop_
 _symmetry_equiv_pos_site_id
 _symmetry_equiv_pos_as_xyz
  1  'x, y, z'
loop_
 _atom_site_type_symbol
 _atom_site_label
 _atom_site_symmetry_multiplicity
 _atom_site_fract_x
 _atom_site_fract_y
 _atom_site_fract_z
 _atom_site_occupancy
  Pa  Pa0  1  0.877029  0.246280  0.127454  1
  Pa  Pa1  1  0.624414  0.752094  0.377748  1
  Pa  Pa2  1  0.246667  0.122252  0.874346  1
  Pa  Pa3  1  0.749575  0.372546  0.618826  1
  Pa  Pa4  1  0.130749  0.881174  0.253720  1
  Pa  Pa5  1  0.372320  0.625654  0.747906  1
  Co  Co6  1  0.367019  0.240494  0.613813  1
  Co  Co7  1  0.125094  0.750125  0.873828  1
  Co  Co8  1  0.251266  0.626172  0.376297  1
  Co  Co9  1  0.753206  0.886187  0.126681  1
  Co  Co10  1  0.626525  0.373319  0.259506  1
  Co  Co11  1  0.874969  0.123703  0.749875  1
  Bi  Bi12  1  0.668285  0.500000  0.000000  1
  Sb  Sb13  1  0.500616  0.001260  0.665551  1
  Sb  Sb14  1  0.999356  0.664290  0.498740  1
  Sb  Sb15  1  0.835065  0.834449  0.835710  1
  Sb  Sb16  1  0.498278  0.997902  0.162186  1
  Sb  Sb17  1  0.163097  0.500000  0.000000  1
  Sb  Sb18  1  0.000377  0.164284  0.502098  1
  Sb  Sb19  1  0.336093  0.337814  0.335716  1
