# generated using pymatgen
data_Pr2Er3S7
_symmetry_space_group_name_H-M   'P 1'
_cell_length_a   6.55802408
_cell_length_b   6.55802557
_cell_length_c   11.74398500
_cell_angle_alpha   75.76059663
_cell_angle_beta   75.76059333
_cell_angle_gamma   34.23570930
_symmetry_Int_Tables_number   1
_chemical_formula_structural   Pr2Er3S7
_chemical_formula_sum   'Pr2 Er3 S7'
_cell_volume   274.58543513
_cell_formula_units_Z   1
loop_
 _symmetry_equiv_pos_site_id
 _symmetry_equiv_pos_as_xyz
  1  'x, y, z'
loop_
 _atom_site_type_symbol
 _atom_site_label
 _atom_site_symmetry_multiplicity
 _atom_site_fract_x
 _atom_site_fract_y
 _atom_site_fract_z
 _atom_site_occupancy
  Pr  Pr0  1  0.302548  0.302548  0.803933  1
  Pr  Pr1  1  0.697452  0.697452  0.196067  1
  Er  Er2  1  0.112474  0.112474  0.574722  1
  Er  Er3  1  0.887526  0.887526  0.425278  1
  Er  Er4  1  0.000000  0.000000  0.000000  1
  S  S5  1  0.262787  0.262787  0.359266  1
  S  S6  1  0.737213  0.737213  0.640734  1
  S  S7  1  0.972835  0.972835  0.783477  1
  S  S8  1  0.027165  0.027165  0.216523  1
  S  S9  1  0.655886  0.655886  0.950786  1
  S  S10  1  0.500000  0.500000  0.500000  1
  S  S11  1  0.344114  0.344114  0.049214  1
