# generated using pymatgen
data_Yb4CeIr2
_symmetry_space_group_name_H-M   'P 1'
_cell_length_a   6.58047597
_cell_length_b   7.37101462
_cell_length_c   8.52820004
_cell_angle_alpha   97.53006852
_cell_angle_beta   112.69385184
_cell_angle_gamma   89.99999596
_symmetry_Int_Tables_number   1
_chemical_formula_structural   Yb4CeIr2
_chemical_formula_sum   'Yb8 Ce2 Ir4'
_cell_volume   377.76325530
_cell_formula_units_Z   2
loop_
 _symmetry_equiv_pos_site_id
 _symmetry_equiv_pos_as_xyz
  1  'x, y, z'
loop_
 _atom_site_type_symbol
 _atom_site_label
 _atom_site_symmetry_multiplicity
 _atom_site_fract_x
 _atom_site_fract_y
 _atom_site_fract_z
 _atom_site_occupancy
  Yb  Yb0  1  0.974564  0.920928  0.174217  1
  Yb  Yb1  1  0.800347  0.579072  0.825783  1
  Yb  Yb2  1  0.025436  0.079072  0.825783  1
  Yb  Yb3  1  0.199653  0.420928  0.174217  1
  Yb  Yb4  1  0.641675  0.819297  0.439418  1
  Yb  Yb5  1  0.202257  0.680703  0.560582  1
  Yb  Yb6  1  0.358325  0.180703  0.560582  1
  Yb  Yb7  1  0.797743  0.319297  0.439418  1
  Ce  Ce8  1  0.432098  0.750000  0.000000  1
  Ce  Ce9  1  0.567902  0.250000  0.000000  1
  Ir  Ir10  1  0.801097  0.571378  0.203077  1
  Ir  Ir11  1  0.598022  0.928622  0.796923  1
  Ir  Ir12  1  0.198903  0.428622  0.796923  1
  Ir  Ir13  1  0.401978  0.071378  0.203077  1
