# generated using pymatgen
data_TbNd(Y9Sn8)2
_symmetry_space_group_name_H-M   'P 1'
_cell_length_a   8.07743575
_cell_length_b   8.20541925
_cell_length_c   15.53995088
_cell_angle_alpha   90.01505182
_cell_angle_beta   90.17849153
_cell_angle_gamma   90.11350879
_symmetry_Int_Tables_number   1
_chemical_formula_structural   TbNd(Y9Sn8)2
_chemical_formula_sum   'Tb1 Nd1 Y18 Sn16'
_cell_volume   1029.96141259
_cell_formula_units_Z   1
loop_
 _symmetry_equiv_pos_site_id
 _symmetry_equiv_pos_as_xyz
  1  'x, y, z'
loop_
 _atom_site_type_symbol
 _atom_site_label
 _atom_site_symmetry_multiplicity
 _atom_site_fract_x
 _atom_site_fract_y
 _atom_site_fract_z
 _atom_site_occupancy
  Tb  Tb0  1  0.020178  0.178838  0.903292  1
  Nd  Nd1  1  0.517863  0.320302  0.596356  1
  Y  Y2  1  0.367473  0.836353  0.878675  1
  Y  Y3  1  0.866690  0.663685  0.622344  1
  Y  Y4  1  0.633873  0.162837  0.377392  1
  Y  Y5  1  0.132467  0.336841  0.122155  1
  Y  Y6  1  0.632581  0.163125  0.122141  1
  Y  Y7  1  0.133764  0.336709  0.377334  1
  Y  Y8  1  0.366738  0.836875  0.622102  1
  Y  Y9  1  0.867594  0.663423  0.878323  1
  Y  Y10  1  0.521349  0.321046  0.902097  1
  Y  Y11  1  0.020600  0.178062  0.597541  1
  Y  Y12  1  0.480191  0.679751  0.402090  1
  Y  Y13  1  0.979231  0.821300  0.097765  1
  Y  Y14  1  0.479270  0.678775  0.097687  1
  Y  Y15  1  0.979923  0.820870  0.402264  1
  Y  Y16  1  0.198658  0.502793  0.750782  1
  Y  Y17  1  0.699038  0.997425  0.750431  1
  Y  Y18  1  0.801395  0.497774  0.249726  1
  Y  Y19  1  0.301176  0.002261  0.249746  1
  Sn  Sn20  1  0.292899  0.035737  0.042084  1
  Sn  Sn21  1  0.796155  0.465702  0.456809  1
  Sn  Sn22  1  0.708035  0.962097  0.541156  1
  Sn  Sn23  1  0.207667  0.535112  0.958384  1
  Sn  Sn24  1  0.707151  0.964065  0.958521  1
  Sn  Sn25  1  0.202946  0.539056  0.540766  1
  Sn  Sn26  1  0.293085  0.035776  0.457973  1
  Sn  Sn27  1  0.792665  0.464264  0.041840  1
  Sn  Sn28  1  0.565276  0.619971  0.750375  1
  Sn  Sn29  1  0.065035  0.881193  0.750289  1
  Sn  Sn30  1  0.435165  0.381177  0.249804  1
  Sn  Sn31  1  0.935096  0.118499  0.249880  1
  Sn  Sn32  1  0.327287  0.145012  0.751568  1
  Sn  Sn33  1  0.830848  0.353383  0.750525  1
  Sn  Sn34  1  0.670254  0.853088  0.249838  1
  Sn  Sn35  1  0.170379  0.646824  0.249946  1
