# generated using pymatgen
data_Tb5DyAl24Ir5Ru3
_symmetry_space_group_name_H-M   'P 1'
_cell_length_a   8.83981333
_cell_length_b   8.79703592
_cell_length_c   9.54743801
_cell_angle_alpha   89.99999864
_cell_angle_beta   90.10168698
_cell_angle_gamma   119.84005428
_symmetry_Int_Tables_number   1
_chemical_formula_structural   Tb5DyAl24Ir5Ru3
_chemical_formula_sum   'Tb5 Dy1 Al24 Ir5 Ru3'
_cell_volume   644.01166941
_cell_formula_units_Z   1
loop_
 _symmetry_equiv_pos_site_id
 _symmetry_equiv_pos_as_xyz
  1  'x, y, z'
loop_
 _atom_site_type_symbol
 _atom_site_label
 _atom_site_symmetry_multiplicity
 _atom_site_fract_x
 _atom_site_fract_y
 _atom_site_fract_z
 _atom_site_occupancy
  Tb  Tb0  1  0.190942  0.806271  0.249728  1
  Tb  Tb1  1  0.190942  0.384671  0.249728  1
  Tb  Tb2  1  0.615296  0.807647  0.249954  1
  Tb  Tb3  1  0.808933  0.193681  0.750281  1
  Tb  Tb4  1  0.808933  0.615252  0.750281  1
  Dy  Dy5  1  0.385495  0.192748  0.750044  1
  Al  Al6  1  0.561825  0.436720  0.250288  1
  Al  Al7  1  0.561825  0.125105  0.250288  1
  Al  Al8  1  0.875559  0.437779  0.248722  1
  Al  Al9  1  0.438033  0.562958  0.749722  1
  Al  Al10  1  0.438033  0.875076  0.749722  1
  Al  Al11  1  0.124421  0.562211  0.751250  1
  Al  Al12  1  0.325746  0.162873  0.423861  1
  Al  Al13  1  0.835431  0.162592  0.423496  1
  Al  Al14  1  0.835431  0.672838  0.423496  1
  Al  Al15  1  0.674209  0.837104  0.576453  1
  Al  Al16  1  0.164636  0.837658  0.576735  1
  Al  Al17  1  0.164636  0.326980  0.576735  1
  Al  Al18  1  0.673305  0.836653  0.924436  1
  Al  Al19  1  0.162562  0.835540  0.923305  1
  Al  Al20  1  0.162562  0.327022  0.923305  1
  Al  Al21  1  0.326642  0.163321  0.075242  1
  Al  Al22  1  0.837504  0.164710  0.076465  1
  Al  Al23  1  0.837504  0.672794  0.076465  1
  Al  Al24  1  0.667284  0.333641  0.528062  1
  Al  Al25  1  0.332532  0.666267  0.472252  1
  Al  Al26  1  0.330472  0.665236  0.026977  1
  Al  Al27  1  0.669317  0.334658  0.972732  1
  Al  Al28  1  0.998057  0.999028  0.250056  1
  Al  Al29  1  0.002582  0.001292  0.749950  1
  Ir  Ir30  1  0.499905  0.499814  0.500141  1
  Ir  Ir31  1  0.499905  0.000090  0.500141  1
  Ir  Ir32  1  0.999912  0.499956  0.500037  1
  Ir  Ir33  1  0.499899  0.499807  0.999858  1
  Ir  Ir34  1  0.499899  0.000092  0.999858  1
  Ru  Ru35  1  0.999968  0.999984  0.500025  1
  Ru  Ru36  1  0.999961  0.999980  0.999985  1
  Ru  Ru37  1  0.999902  0.499951  0.999927  1
