# generated using pymatgen
data_TbY4Mg2P12Ru17
_symmetry_space_group_name_H-M   'P 1'
_cell_length_a   12.76055618
_cell_length_b   12.59462725
_cell_length_c   3.97787800
_cell_angle_alpha   90.00000000
_cell_angle_beta   90.00000000
_cell_angle_gamma   120.44582026
_symmetry_Int_Tables_number   1
_chemical_formula_structural   TbY4Mg2P12Ru17
_chemical_formula_sum   'Tb1 Y4 Mg2 P12 Ru17'
_cell_volume   551.14822792
_cell_formula_units_Z   1
loop_
 _symmetry_equiv_pos_site_id
 _symmetry_equiv_pos_as_xyz
  1  'x, y, z'
loop_
 _atom_site_type_symbol
 _atom_site_label
 _atom_site_symmetry_multiplicity
 _atom_site_fract_x
 _atom_site_fract_y
 _atom_site_fract_z
 _atom_site_occupancy
  Tb  Tb0  1  0.998511  0.180254  0.500000  1
  Y  Y1  1  0.817854  0.819477  0.500000  1
  Y  Y2  1  0.182096  0.000024  0.500000  1
  Y  Y3  1  0.664186  0.326088  0.000000  1
  Y  Y4  1  0.337937  0.673963  0.000000  1
  Mg  Mg5  1  0.000029  0.561958  0.000000  1
  Mg  Mg6  1  0.438100  0.437960  0.000000  1
  P  P7  1  0.999889  0.812867  0.000000  1
  P  P8  1  0.187167  0.187273  0.000000  1
  P  P9  1  0.817157  0.999943  0.000000  1
  P  P10  1  0.690828  0.169103  0.500000  1
  P  P11  1  0.817277  0.515747  0.500000  1
  P  P12  1  0.478558  0.300206  0.500000  1
  P  P13  1  0.178222  0.699802  0.500000  1
  P  P14  1  0.521610  0.830872  0.500000  1
  P  P15  1  0.301492  0.484306  0.500000  1
  P  P16  1  0.001110  0.362789  0.000000  1
  P  P17  1  0.638300  0.637154  0.000000  1
  P  P18  1  0.377003  0.000001  0.000000  1
  Ru  Ru19  1  0.556949  0.999906  0.000000  1
  Ru  Ru20  1  0.999334  0.716578  0.500000  1
  Ru  Ru21  1  0.282952  0.283560  0.500000  1
  Ru  Ru22  1  0.716485  0.999924  0.500000  1
  Ru  Ru23  1  0.807462  0.183628  0.000000  1
  Ru  Ru24  1  0.814487  0.617739  0.000000  1
  Ru  Ru25  1  0.377350  0.191058  0.000000  1
  Ru  Ru26  1  0.186224  0.808927  0.000000  1
  Ru  Ru27  1  0.623905  0.816291  0.000000  1
  Ru  Ru28  1  0.196915  0.382463  0.000000  1
  Ru  Ru29  1  0.872028  0.364292  0.500000  1
  Ru  Ru30  1  0.630747  0.511705  0.500000  1
  Ru  Ru31  1  0.491307  0.123576  0.500000  1
  Ru  Ru32  1  0.367662  0.876444  0.500000  1
  Ru  Ru33  1  0.507669  0.635705  0.500000  1
  Ru  Ru34  1  0.119079  0.488401  0.500000  1
  Ru  Ru35  1  0.002122  0.000016  0.000000  1
