# generated using pymatgen
data_LaH7Os
_symmetry_space_group_name_H-M   'P 1'
_cell_length_a   4.83528206
_cell_length_b   4.77298904
_cell_length_c   8.18012900
_cell_angle_alpha   90.00000000
_cell_angle_beta   90.00000000
_cell_angle_gamma   61.88110514
_symmetry_Int_Tables_number   1
_chemical_formula_structural   LaH7Os
_chemical_formula_sum   'La2 H14 Os2'
_cell_volume   166.50487318
_cell_formula_units_Z   2
loop_
 _symmetry_equiv_pos_site_id
 _symmetry_equiv_pos_as_xyz
  1  'x, y, z'
loop_
 _atom_site_type_symbol
 _atom_site_label
 _atom_site_symmetry_multiplicity
 _atom_site_fract_x
 _atom_site_fract_y
 _atom_site_fract_z
 _atom_site_occupancy
  La  La0  1  0.000000  0.000000  0.000000  1
  La  La1  1  0.000000  0.000000  0.500000  1
  H  H2  1  0.781921  0.906979  0.250000  1
  H  H3  1  0.218079  0.093021  0.750000  1
  H  H4  1  0.694295  0.685409  0.451404  1
  H  H5  1  0.305705  0.314591  0.951404  1
  H  H6  1  0.305705  0.314591  0.548596  1
  H  H7  1  0.694295  0.685409  0.048596  1
  H  H8  1  0.492161  0.453335  0.356759  1
  H  H9  1  0.507839  0.546665  0.856759  1
  H  H10  1  0.507839  0.546665  0.643241  1
  H  H11  1  0.492161  0.453335  0.143241  1
  H  H12  1  0.296783  0.970334  0.250000  1
  H  H13  1  0.703217  0.029666  0.750000  1
  H  H14  1  0.019064  0.336016  0.250000  1
  H  H15  1  0.980936  0.663984  0.750000  1
  Os  Os16  1  0.647359  0.637262  0.250000  1
  Os  Os17  1  0.352641  0.362738  0.750000  1
