# generated using pymatgen
data_Sm4OsWC4
_symmetry_space_group_name_H-M   'P 1'
_cell_length_a   5.26665400
_cell_length_b   6.68817000
_cell_length_c   10.10633600
_cell_angle_alpha   90.00000000
_cell_angle_beta   90.00000000
_cell_angle_gamma   90.00000000
_symmetry_Int_Tables_number   1
_chemical_formula_structural   Sm4OsWC4
_chemical_formula_sum   'Sm8 Os2 W2 C8'
_cell_volume   355.98838158
_cell_formula_units_Z   2
loop_
 _symmetry_equiv_pos_site_id
 _symmetry_equiv_pos_as_xyz
  1  'x, y, z'
loop_
 _atom_site_type_symbol
 _atom_site_label
 _atom_site_symmetry_multiplicity
 _atom_site_fract_x
 _atom_site_fract_y
 _atom_site_fract_z
 _atom_site_occupancy
  Sm  Sm0  1  0.750000  0.817769  0.053038  1
  Sm  Sm1  1  0.250000  0.682231  0.553038  1
  Sm  Sm2  1  0.750000  0.314798  0.445203  1
  Sm  Sm3  1  0.250000  0.185202  0.945203  1
  Sm  Sm4  1  0.750000  0.467477  0.781313  1
  Sm  Sm5  1  0.250000  0.032523  0.281313  1
  Sm  Sm6  1  0.750000  0.971033  0.712967  1
  Sm  Sm7  1  0.250000  0.528967  0.212967  1
  Os  Os8  1  0.750000  0.274053  0.138709  1
  Os  Os9  1  0.250000  0.225947  0.638709  1
  W  W10  1  0.750000  0.774591  0.361708  1
  W  W11  1  0.250000  0.725409  0.861708  1
  C  C12  1  0.750000  0.182652  0.960017  1
  C  C13  1  0.250000  0.818646  0.046561  1
  C  C14  1  0.750000  0.681354  0.546561  1
  C  C15  1  0.250000  0.317348  0.460017  1
  C  C16  1  0.750000  0.042630  0.259037  1
  C  C17  1  0.250000  0.457370  0.759037  1
  C  C18  1  0.750000  0.536272  0.241448  1
  C  C19  1  0.250000  0.963728  0.741448  1
