# generated using pymatgen
data_Y8SiBBr12
_symmetry_space_group_name_H-M   'P 1'
_cell_length_a   4.01714700
_cell_length_b   13.11756279
_cell_length_c   13.87854422
_cell_angle_alpha   90.11797841
_cell_angle_beta   90.00000000
_cell_angle_gamma   90.00000000
_symmetry_Int_Tables_number   1
_chemical_formula_structural   Y8SiBBr12
_chemical_formula_sum   'Y8 Si1 B1 Br12'
_cell_volume   731.33080748
_cell_formula_units_Z   1
loop_
 _symmetry_equiv_pos_site_id
 _symmetry_equiv_pos_as_xyz
  1  'x, y, z'
loop_
 _atom_site_type_symbol
 _atom_site_label
 _atom_site_symmetry_multiplicity
 _atom_site_fract_x
 _atom_site_fract_y
 _atom_site_fract_z
 _atom_site_occupancy
  Y  Y0  1  0.500000  0.110891  0.350617  1
  Y  Y1  1  0.500000  0.889109  0.649383  1
  Y  Y2  1  0.500000  0.620172  0.161909  1
  Y  Y3  1  0.500000  0.379828  0.838091  1
  Y  Y4  1  0.000000  0.108105  0.571752  1
  Y  Y5  1  0.000000  0.891895  0.428248  1
  Y  Y6  1  0.000000  0.620498  0.919923  1
  Y  Y7  1  0.000000  0.379502  0.080077  1
  Si  Si8  1  0.500000  0.500000  0.000000  1
  B  B9  1  0.500000  0.000000  0.500000  1
  Br  Br10  1  0.500000  0.242086  0.165777  1
  Br  Br11  1  0.500000  0.757914  0.834223  1
  Br  Br12  1  0.500000  0.749970  0.339146  1
  Br  Br13  1  0.500000  0.250030  0.660854  1
  Br  Br14  1  0.000000  0.255164  0.413758  1
  Br  Br15  1  0.000000  0.744836  0.586242  1
  Br  Br16  1  0.000000  0.758832  0.088537  1
  Br  Br17  1  0.000000  0.241168  0.911463  1
  Br  Br18  1  0.000000  0.999554  0.243861  1
  Br  Br19  1  0.000000  0.000446  0.756139  1
  Br  Br20  1  0.000000  0.500787  0.260865  1
  Br  Br21  1  0.000000  0.499213  0.739135  1
