# generated using pymatgen
data_Tb2DyAl12(OsRh)2
_symmetry_space_group_name_H-M   'P 1'
_cell_length_a   8.78783574
_cell_length_b   8.83288943
_cell_length_c   9.57801100
_cell_angle_alpha   90.00000000
_cell_angle_beta   90.00000000
_cell_angle_gamma   119.51840959
_symmetry_Int_Tables_number   1
_chemical_formula_structural   Tb2DyAl12(OsRh)2
_chemical_formula_sum   'Tb4 Dy2 Al24 Os4 Rh4'
_cell_volume   646.96063012
_cell_formula_units_Z   2
loop_
 _symmetry_equiv_pos_site_id
 _symmetry_equiv_pos_as_xyz
  1  'x, y, z'
loop_
 _atom_site_type_symbol
 _atom_site_label
 _atom_site_symmetry_multiplicity
 _atom_site_fract_x
 _atom_site_fract_y
 _atom_site_fract_z
 _atom_site_occupancy
  Tb  Tb0  1  0.190492  0.381992  0.250000  1
  Tb  Tb1  1  0.809508  0.618008  0.750000  1
  Tb  Tb2  1  0.614477  0.813150  0.250000  1
  Tb  Tb3  1  0.385523  0.186850  0.750000  1
  Dy  Dy4  1  0.198704  0.812542  0.250000  1
  Dy  Dy5  1  0.801296  0.187458  0.750000  1
  Al  Al6  1  0.333301  0.667610  0.024110  1
  Al  Al7  1  0.666699  0.332390  0.975890  1
  Al  Al8  1  0.666699  0.332390  0.524110  1
  Al  Al9  1  0.333301  0.667610  0.475890  1
  Al  Al10  1  0.162694  0.325540  0.577545  1
  Al  Al11  1  0.837306  0.674460  0.422455  1
  Al  Al12  1  0.672348  0.836954  0.576490  1
  Al  Al13  1  0.837306  0.674460  0.077545  1
  Al  Al14  1  0.327652  0.163046  0.423510  1
  Al  Al15  1  0.162694  0.325540  0.922455  1
  Al  Al16  1  0.164534  0.836645  0.576376  1
  Al  Al17  1  0.327652  0.163046  0.076490  1
  Al  Al18  1  0.835466  0.163355  0.423624  1
  Al  Al19  1  0.672348  0.836954  0.923510  1
  Al  Al20  1  0.835466  0.163355  0.076376  1
  Al  Al21  1  0.164534  0.836645  0.923624  1
  Al  Al22  1  0.562926  0.127058  0.250000  1
  Al  Al23  1  0.437074  0.872942  0.750000  1
  Al  Al24  1  0.878086  0.440293  0.250000  1
  Al  Al25  1  0.121914  0.559707  0.750000  1
  Al  Al26  1  0.562018  0.439462  0.250000  1
  Al  Al27  1  0.437982  0.560538  0.750000  1
  Al  Al28  1  0.001080  0.002088  0.250000  1
  Al  Al29  1  0.998920  0.997912  0.750000  1
  Os  Os30  1  0.500000  0.000000  0.000000  1
  Os  Os31  1  0.500000  0.000000  0.500000  1
  Os  Os32  1  0.000000  0.000000  0.000000  1
  Os  Os33  1  0.000000  0.000000  0.500000  1
  Rh  Rh34  1  0.000000  0.500000  0.000000  1
  Rh  Rh35  1  0.500000  0.500000  0.000000  1
  Rh  Rh36  1  0.000000  0.500000  0.500000  1
  Rh  Rh37  1  0.500000  0.500000  0.500000  1
