# generated using pymatgen
data_Tb2Pr2Sm2RuBr10
_symmetry_space_group_name_H-M   'P 1'
_cell_length_a   7.55176583
_cell_length_b   9.56837468
_cell_length_c   9.39667840
_cell_angle_alpha   108.23759968
_cell_angle_beta   95.18298516
_cell_angle_gamma   106.16240577
_symmetry_Int_Tables_number   1
_chemical_formula_structural   Tb2Pr2Sm2RuBr10
_chemical_formula_sum   'Tb2 Pr2 Sm2 Ru1 Br10'
_cell_volume   607.55892086
_cell_formula_units_Z   1
loop_
 _symmetry_equiv_pos_site_id
 _symmetry_equiv_pos_as_xyz
  1  'x, y, z'
loop_
 _atom_site_type_symbol
 _atom_site_label
 _atom_site_symmetry_multiplicity
 _atom_site_fract_x
 _atom_site_fract_y
 _atom_site_fract_z
 _atom_site_occupancy
  Tb  Tb0  1  0.363743  0.136618  0.179667  1
  Tb  Tb1  1  0.636257  0.863382  0.820333  1
  Pr  Pr2  1  0.124275  0.045803  0.760967  1
  Pr  Pr3  1  0.875725  0.954197  0.239033  1
  Sm  Sm4  1  0.975509  0.304857  0.100005  1
  Sm  Sm5  1  0.024491  0.695143  0.899995  1
  Ru  Ru6  1  0.000000  0.000000  0.000000  1
  Br  Br7  1  0.549991  0.172498  0.920067  1
  Br  Br8  1  0.450009  0.827502  0.079933  1
  Br  Br9  1  0.357514  0.446979  0.270546  1
  Br  Br10  1  0.642486  0.553021  0.729454  1
  Br  Br11  1  0.258831  0.086437  0.449348  1
  Br  Br12  1  0.741169  0.913563  0.550652  1
  Br  Br13  1  0.779224  0.257784  0.345898  1
  Br  Br14  1  0.220776  0.742216  0.654102  1
  Br  Br15  1  0.088407  0.371374  0.831709  1
  Br  Br16  1  0.911593  0.628626  0.168291  1
