# generated using pymatgen
data_Dy8Sc12Si15Ag
_symmetry_space_group_name_H-M   'P 1'
_cell_length_a   7.13917072
_cell_length_b   7.38017039
_cell_length_c   14.08325281
_cell_angle_alpha   89.89869986
_cell_angle_beta   89.62288736
_cell_angle_gamma   90.18288311
_symmetry_Int_Tables_number   1
_chemical_formula_structural   Dy8Sc12Si15Ag
_chemical_formula_sum   'Dy8 Sc12 Si15 Ag1'
_cell_volume   742.00155840
_cell_formula_units_Z   1
loop_
 _symmetry_equiv_pos_site_id
 _symmetry_equiv_pos_as_xyz
  1  'x, y, z'
loop_
 _atom_site_type_symbol
 _atom_site_label
 _atom_site_symmetry_multiplicity
 _atom_site_fract_x
 _atom_site_fract_y
 _atom_site_fract_z
 _atom_site_occupancy
  Dy  Dy0  1  0.012497  0.175201  0.097836  1
  Dy  Dy1  1  0.987274  0.825864  0.903691  1
  Dy  Dy2  1  0.487068  0.676383  0.903469  1
  Dy  Dy3  1  0.988120  0.830716  0.597724  1
  Dy  Dy4  1  0.512289  0.324106  0.096893  1
  Dy  Dy5  1  0.009322  0.171775  0.399033  1
  Dy  Dy6  1  0.512592  0.323362  0.400052  1
  Dy  Dy7  1  0.493393  0.677843  0.599810  1
  Sc  Sc8  1  0.162893  0.501474  0.752973  1
  Sc  Sc9  1  0.838065  0.498588  0.250881  1
  Sc  Sc10  1  0.338037  0.000347  0.248916  1
  Sc  Sc11  1  0.664468  0.996238  0.751241  1
  Sc  Sc12  1  0.340782  0.172990  0.626661  1
  Sc  Sc13  1  0.665875  0.823371  0.374039  1
  Sc  Sc14  1  0.167643  0.675321  0.372186  1
  Sc  Sc15  1  0.670269  0.824402  0.124686  1
  Sc  Sc16  1  0.825898  0.325180  0.625233  1
  Sc  Sc17  1  0.328622  0.175114  0.876131  1
  Sc  Sc18  1  0.829952  0.322642  0.875986  1
  Sc  Sc19  1  0.169349  0.676517  0.125052  1
  Si  Si20  1  0.035626  0.120921  0.750059  1
  Si  Si21  1  0.965695  0.882987  0.248967  1
  Si  Si22  1  0.466680  0.616356  0.248403  1
  Si  Si23  1  0.534300  0.385009  0.751924  1
  Si  Si24  1  0.284743  0.873889  0.750789  1
  Si  Si25  1  0.713022  0.127184  0.248611  1
  Si  Si26  1  0.214626  0.371603  0.248776  1
  Si  Si27  1  0.787846  0.627079  0.752172  1
  Si  Si28  1  0.835251  0.537834  0.459156  1
  Si  Si29  1  0.338820  0.962408  0.460682  1
  Si  Si30  1  0.843653  0.535412  0.039104  1
  Si  Si31  1  0.658526  0.036041  0.537978  1
  Si  Si32  1  0.155320  0.464491  0.961693  1
  Si  Si33  1  0.656853  0.035081  0.960635  1
  Si  Si34  1  0.342923  0.964554  0.039819  1
  Ag  Ag35  1  0.161711  0.461718  0.538738  1
