# generated using pymatgen
data_Ho4Er(In2Ni)2
_symmetry_space_group_name_H-M   'P 1'
_cell_length_a   3.57217400
_cell_length_b   7.96970600
_cell_length_c   17.86867500
_cell_angle_alpha   90.00000000
_cell_angle_beta   90.00000000
_cell_angle_gamma   90.00000000
_symmetry_Int_Tables_number   1
_chemical_formula_structural   Ho4Er(In2Ni)2
_chemical_formula_sum   'Ho8 Er2 In8 Ni4'
_cell_volume   508.70646348
_cell_formula_units_Z   2
loop_
 _symmetry_equiv_pos_site_id
 _symmetry_equiv_pos_as_xyz
  1  'x, y, z'
loop_
 _atom_site_type_symbol
 _atom_site_label
 _atom_site_symmetry_multiplicity
 _atom_site_fract_x
 _atom_site_fract_y
 _atom_site_fract_z
 _atom_site_occupancy
  Ho  Ho0  1  0.500000  0.117145  0.087579  1
  Ho  Ho1  1  0.500000  0.754687  0.721334  1
  Ho  Ho2  1  0.500000  0.254687  0.778666  1
  Ho  Ho3  1  0.500000  0.499942  0.999898  1
  Ho  Ho4  1  0.500000  0.745432  0.221349  1
  Ho  Ho5  1  0.500000  0.245432  0.278651  1
  Ho  Ho6  1  0.500000  0.999942  0.500102  1
  Ho  Ho7  1  0.500000  0.617145  0.412421  1
  Er  Er8  1  0.500000  0.383161  0.588185  1
  Er  Er9  1  0.500000  0.883161  0.911815  1
  In  In10  1  0.000000  0.794123  0.068762  1
  In  In11  1  0.000000  0.926199  0.347696  1
  In  In12  1  0.000000  0.074912  0.652170  1
  In  In13  1  0.000000  0.574912  0.847830  1
  In  In14  1  0.000000  0.704821  0.569206  1
  In  In15  1  0.000000  0.204821  0.930794  1
  In  In16  1  0.000000  0.294123  0.431238  1
  In  In17  1  0.000000  0.426199  0.152304  1
  Ni  Ni18  1  0.000000  0.974653  0.804610  1
  Ni  Ni19  1  0.000000  0.524925  0.304332  1
  Ni  Ni20  1  0.000000  0.474653  0.695390  1
  Ni  Ni21  1  0.000000  0.024925  0.195668  1
