# generated using pymatgen
data_Tm7(CuTe)2
_symmetry_space_group_name_H-M   'P 1'
_cell_length_a   9.14144673
_cell_length_b   9.14144723
_cell_length_c   9.14144736
_cell_angle_alpha   154.77134007
_cell_angle_beta   118.10047385
_cell_angle_gamma   67.93655266
_symmetry_Int_Tables_number   1
_chemical_formula_structural   Tm7(CuTe)2
_chemical_formula_sum   'Tm7 Cu2 Te2'
_cell_volume   284.62531949
_cell_formula_units_Z   1
loop_
 _symmetry_equiv_pos_site_id
 _symmetry_equiv_pos_as_xyz
  1  'x, y, z'
loop_
 _atom_site_type_symbol
 _atom_site_label
 _atom_site_symmetry_multiplicity
 _atom_site_fract_x
 _atom_site_fract_y
 _atom_site_fract_z
 _atom_site_occupancy
  Tm  Tm0  1  0.123140  0.857539  0.265600  1
  Tm  Tm1  1  0.408060  0.142461  0.265600  1
  Tm  Tm2  1  0.504895  0.500000  0.004895  1
  Tm  Tm3  1  0.044637  0.630559  0.414078  1
  Tm  Tm4  1  0.783518  0.369441  0.414078  1
  Tm  Tm5  1  0.435545  0.813565  0.621981  1
  Tm  Tm6  1  0.808416  0.186435  0.621981  1
  Cu  Cu7  1  0.661270  0.734696  0.926573  1
  Cu  Cu8  1  0.191876  0.265304  0.926573  1
  Te  Te9  1  0.766565  0.000000  0.766565  1
  Te  Te10  1  0.162937  0.500000  0.662937  1
