# generated using pymatgen
data_Rb8Sn4BiSb3
_symmetry_space_group_name_H-M   'P 1'
_cell_length_a   6.68495700
_cell_length_b   7.12509732
_cell_length_c   13.96914494
_cell_angle_alpha   90.03423494
_cell_angle_beta   90.00000000
_cell_angle_gamma   90.00000000
_symmetry_Int_Tables_number   1
_chemical_formula_structural   Rb8Sn4BiSb3
_chemical_formula_sum   'Rb8 Sn4 Bi1 Sb3'
_cell_volume   665.36379377
_cell_formula_units_Z   1
loop_
 _symmetry_equiv_pos_site_id
 _symmetry_equiv_pos_as_xyz
  1  'x, y, z'
loop_
 _atom_site_type_symbol
 _atom_site_label
 _atom_site_symmetry_multiplicity
 _atom_site_fract_x
 _atom_site_fract_y
 _atom_site_fract_z
 _atom_site_occupancy
  Rb  Rb0  1  0.750000  0.388323  0.666273  1
  Rb  Rb1  1  0.250000  0.612982  0.335175  1
  Rb  Rb2  1  0.750000  0.611347  0.161866  1
  Rb  Rb3  1  0.250000  0.162694  0.511826  1
  Rb  Rb4  1  0.250000  0.834852  0.010736  1
  Rb  Rb5  1  0.750000  0.837085  0.490862  1
  Rb  Rb6  1  0.750000  0.164550  0.989175  1
  Rb  Rb7  1  0.250000  0.388762  0.836411  1
  Sn  Sn8  1  0.497674  0.100976  0.247992  1
  Sn  Sn9  1  0.002326  0.100976  0.247992  1
  Sn  Sn10  1  0.001007  0.896722  0.749981  1
  Sn  Sn11  1  0.498993  0.896722  0.749981  1
  Bi  Bi12  1  0.750000  0.333108  0.388902  1
  Sb  Sb13  1  0.250000  0.327466  0.113016  1
  Sb  Sb14  1  0.250000  0.670512  0.614025  1
  Sb  Sb15  1  0.750000  0.672922  0.885787  1
