# generated using pymatgen
data_Tm2Be2GaRh5
_symmetry_space_group_name_H-M   'P 1'
_cell_length_a   9.59528400
_cell_length_b   9.59528400
_cell_length_c   3.20927600
_cell_angle_alpha   90.00000000
_cell_angle_beta   90.00000000
_cell_angle_gamma   90.00000000
_symmetry_Int_Tables_number   1
_chemical_formula_structural   Tm2Be2GaRh5
_chemical_formula_sum   'Tm4 Be4 Ga2 Rh10'
_cell_volume   295.47635658
_cell_formula_units_Z   2
loop_
 _symmetry_equiv_pos_site_id
 _symmetry_equiv_pos_as_xyz
  1  'x, y, z'
loop_
 _atom_site_type_symbol
 _atom_site_label
 _atom_site_symmetry_multiplicity
 _atom_site_fract_x
 _atom_site_fract_y
 _atom_site_fract_z
 _atom_site_occupancy
  Tm  Tm0  1  0.824240  0.324240  0.000000  1
  Tm  Tm1  1  0.324240  0.175760  0.000000  1
  Tm  Tm2  1  0.675760  0.824240  0.000000  1
  Tm  Tm3  1  0.175760  0.675760  0.000000  1
  Be  Be4  1  0.622703  0.122703  0.000000  1
  Be  Be5  1  0.122703  0.377297  0.000000  1
  Be  Be6  1  0.877297  0.622703  0.000000  1
  Be  Be7  1  0.377297  0.877297  0.000000  1
  Ga  Ga8  1  0.000000  0.000000  0.000000  1
  Ga  Ga9  1  0.500000  0.500000  0.000000  1
  Rh  Rh10  1  0.067826  0.210880  0.500000  1
  Rh  Rh11  1  0.210880  0.932174  0.500000  1
  Rh  Rh12  1  0.789120  0.067826  0.500000  1
  Rh  Rh13  1  0.932174  0.789120  0.500000  1
  Rh  Rh14  1  0.432174  0.710880  0.500000  1
  Rh  Rh15  1  0.567826  0.289120  0.500000  1
  Rh  Rh16  1  0.710880  0.567826  0.500000  1
  Rh  Rh17  1  0.289120  0.432174  0.500000  1
  Rh  Rh18  1  0.500000  0.000000  0.500000  1
  Rh  Rh19  1  0.000000  0.500000  0.500000  1
