# generated using pymatgen
data_La8Sc12Si15Sn
_symmetry_space_group_name_H-M   'P 1'
_cell_length_a   7.35225034
_cell_length_b   7.63860419
_cell_length_c   14.40689114
_cell_angle_alpha   89.88754656
_cell_angle_beta   89.63098797
_cell_angle_gamma   90.11711693
_symmetry_Int_Tables_number   1
_chemical_formula_structural   La8Sc12Si15Sn
_chemical_formula_sum   'La8 Sc12 Si15 Sn1'
_cell_volume   809.08435849
_cell_formula_units_Z   1
loop_
 _symmetry_equiv_pos_site_id
 _symmetry_equiv_pos_as_xyz
  1  'x, y, z'
loop_
 _atom_site_type_symbol
 _atom_site_label
 _atom_site_symmetry_multiplicity
 _atom_site_fract_x
 _atom_site_fract_y
 _atom_site_fract_z
 _atom_site_occupancy
  La  La0  1  0.006536  0.164549  0.398347  1
  La  La1  1  0.512888  0.325825  0.397699  1
  La  La2  1  0.490088  0.670125  0.903312  1
  La  La3  1  0.501156  0.679484  0.601385  1
  La  La4  1  0.989359  0.835964  0.599206  1
  La  La5  1  0.987924  0.829120  0.903081  1
  La  La6  1  0.510278  0.329073  0.097551  1
  La  La7  1  0.011672  0.171740  0.097601  1
  Sc  Sc8  1  0.342234  0.163735  0.630926  1
  Sc  Sc9  1  0.664213  0.824665  0.372467  1
  Sc  Sc10  1  0.660513  0.006105  0.752736  1
  Sc  Sc11  1  0.167463  0.680655  0.369568  1
  Sc  Sc12  1  0.830805  0.324868  0.875833  1
  Sc  Sc13  1  0.820064  0.324640  0.627198  1
  Sc  Sc14  1  0.839818  0.505247  0.248525  1
  Sc  Sc15  1  0.340605  0.994233  0.249053  1
  Sc  Sc16  1  0.328248  0.174406  0.875212  1
  Sc  Sc17  1  0.168760  0.675071  0.124771  1
  Sc  Sc18  1  0.669776  0.824316  0.124098  1
  Sc  Sc19  1  0.160465  0.496236  0.755633  1
  Si  Si20  1  0.290905  0.882024  0.752382  1
  Si  Si21  1  0.464950  0.628469  0.248155  1
  Si  Si22  1  0.033122  0.131678  0.751360  1
  Si  Si23  1  0.533153  0.371746  0.752502  1
  Si  Si24  1  0.963648  0.871638  0.247110  1
  Si  Si25  1  0.707761  0.111871  0.247394  1
  Si  Si26  1  0.849679  0.536070  0.040441  1
  Si  Si27  1  0.350061  0.963171  0.039751  1
  Si  Si28  1  0.150047  0.463840  0.960547  1
  Si  Si29  1  0.652333  0.040495  0.538226  1
  Si  Si30  1  0.347686  0.961873  0.459682  1
  Si  Si31  1  0.839539  0.542224  0.457023  1
  Si  Si32  1  0.795487  0.614730  0.751611  1
  Si  Si33  1  0.207226  0.386377  0.248997  1
  Si  Si34  1  0.648435  0.037079  0.960590  1
  Sn  Sn35  1  0.163103  0.456656  0.540025  1
