# generated using pymatgen
data_Sr2Pr6Te(OsO8)3
_symmetry_space_group_name_H-M   'P 1'
_cell_length_a   5.50081397
_cell_length_b   9.49392217
_cell_length_c   10.41303886
_cell_angle_alpha   89.79475451
_cell_angle_beta   89.74048076
_cell_angle_gamma   89.85551349
_symmetry_Int_Tables_number   1
_chemical_formula_structural   Sr2Pr6Te(OsO8)3
_chemical_formula_sum   'Sr2 Pr6 Te1 Os3 O24'
_cell_volume   543.80288759
_cell_formula_units_Z   1
loop_
 _symmetry_equiv_pos_site_id
 _symmetry_equiv_pos_as_xyz
  1  'x, y, z'
loop_
 _atom_site_type_symbol
 _atom_site_label
 _atom_site_symmetry_multiplicity
 _atom_site_fract_x
 _atom_site_fract_y
 _atom_site_fract_z
 _atom_site_occupancy
  Sr  Sr0  1  0.024378  0.222097  0.136491  1
  Sr  Sr1  1  0.476043  0.775533  0.640388  1
  Pr  Pr2  1  0.962918  0.716059  0.369766  1
  Pr  Pr3  1  0.530557  0.289015  0.866586  1
  Pr  Pr4  1  0.025988  0.096720  0.539733  1
  Pr  Pr5  1  0.477468  0.902306  0.040038  1
  Pr  Pr6  1  0.975075  0.606152  0.959399  1
  Pr  Pr7  1  0.527133  0.393980  0.460056  1
  Te  Te8  1  0.039688  0.491534  0.642834  1
  Os  Os9  1  0.543608  0.001254  0.354975  1
  Os  Os10  1  0.957257  0.000223  0.855817  1
  Os  Os11  1  0.458564  0.505807  0.143852  1
  O  O12  1  0.425270  0.146954  0.474861  1
  O  O13  1  0.075595  0.853833  0.977460  1
  O  O14  1  0.568691  0.657676  0.027869  1
  O  O15  1  0.927455  0.341216  0.527767  1
  O  O16  1  0.715469  0.402928  0.061438  1
  O  O17  1  0.777847  0.599972  0.560175  1
  O  O18  1  0.284680  0.890662  0.426048  1
  O  O19  1  0.214258  0.108507  0.927725  1
  O  O20  1  0.254352  0.420160  0.006578  1
  O  O21  1  0.242050  0.576965  0.504530  1
  O  O22  1  0.754988  0.908421  0.486908  1
  O  O23  1  0.743619  0.093188  0.986839  1
  O  O24  1  0.198169  0.632863  0.178872  1
  O  O25  1  0.310719  0.362061  0.677118  1
  O  O26  1  0.799215  0.129902  0.332044  1
  O  O27  1  0.706840  0.869948  0.834092  1
  O  O28  1  0.346674  0.055689  0.217776  1
  O  O29  1  0.158573  0.948466  0.719391  1
  O  O30  1  0.666891  0.557325  0.282349  1
  O  O31  1  0.833364  0.441374  0.787796  1
  O  O32  1  0.337282  0.366600  0.253707  1
  O  O33  1  0.159520  0.635915  0.754785  1
  O  O34  1  0.684068  0.865993  0.241647  1
  O  O35  1  0.815732  0.132701  0.742289  1
