# generated using pymatgen
data_HoEr4(RhO6)2
_symmetry_space_group_name_H-M   'P 1'
_cell_length_a   6.80431132
_cell_length_b   6.80431278
_cell_length_c   7.22754001
_cell_angle_alpha   74.50072173
_cell_angle_beta   74.50072385
_cell_angle_gamma   51.26823505
_symmetry_Int_Tables_number   1
_chemical_formula_structural   HoEr4(RhO6)2
_chemical_formula_sum   'Ho1 Er4 Rh2 O12'
_cell_volume   249.30595435
_cell_formula_units_Z   1
loop_
 _symmetry_equiv_pos_site_id
 _symmetry_equiv_pos_as_xyz
  1  'x, y, z'
loop_
 _atom_site_type_symbol
 _atom_site_label
 _atom_site_symmetry_multiplicity
 _atom_site_fract_x
 _atom_site_fract_y
 _atom_site_fract_z
 _atom_site_occupancy
  Ho  Ho0  1  0.000000  0.000000  0.500000  1
  Er  Er1  1  0.301687  0.301687  0.360566  1
  Er  Er2  1  0.698313  0.698313  0.639434  1
  Er  Er3  1  0.309270  0.309270  0.828559  1
  Er  Er4  1  0.690730  0.690730  0.171441  1
  Rh  Rh5  1  0.752825  0.247175  0.000000  1
  Rh  Rh6  1  0.247175  0.752825  0.000000  1
  O  O7  1  0.901863  0.432982  0.914685  1
  O  O8  1  0.432982  0.901863  0.914685  1
  O  O9  1  0.098137  0.567018  0.085315  1
  O  O10  1  0.567018  0.098137  0.085315  1
  O  O11  1  0.097092  0.597087  0.573691  1
  O  O12  1  0.597087  0.097092  0.573691  1
  O  O13  1  0.902908  0.402913  0.426309  1
  O  O14  1  0.402913  0.902908  0.426309  1
  O  O15  1  0.000127  0.000127  0.815445  1
  O  O16  1  0.999873  0.999873  0.184555  1
  O  O17  1  0.500272  0.500272  0.806902  1
  O  O18  1  0.499728  0.499728  0.193098  1
