# generated using pymatgen
data_Be2Nb10(GaGe)3
_symmetry_space_group_name_H-M   'P 1'
_cell_length_a   7.85582600
_cell_length_b   7.85582473
_cell_length_c   5.39564800
_cell_angle_alpha   90.00000000
_cell_angle_beta   90.00000000
_cell_angle_gamma   119.99999691
_symmetry_Int_Tables_number   1
_chemical_formula_structural   Be2Nb10(GaGe)3
_chemical_formula_sum   'Be2 Nb10 Ga3 Ge3'
_cell_volume   288.37519158
_cell_formula_units_Z   1
loop_
 _symmetry_equiv_pos_site_id
 _symmetry_equiv_pos_as_xyz
  1  'x, y, z'
loop_
 _atom_site_type_symbol
 _atom_site_label
 _atom_site_symmetry_multiplicity
 _atom_site_fract_x
 _atom_site_fract_y
 _atom_site_fract_z
 _atom_site_occupancy
  Be  Be0  1  0.000000  0.000000  0.494862  1
  Be  Be1  1  0.000000  0.000000  0.005138  1
  Nb  Nb2  1  0.666667  0.333333  0.498568  1
  Nb  Nb3  1  0.333333  0.666667  0.498568  1
  Nb  Nb4  1  0.333333  0.666667  0.001432  1
  Nb  Nb5  1  0.666667  0.333333  0.001432  1
  Nb  Nb6  1  0.738804  0.738804  0.250000  1
  Nb  Nb7  1  0.261196  0.000000  0.250000  1
  Nb  Nb8  1  0.000000  0.261196  0.250000  1
  Nb  Nb9  1  0.257444  0.257444  0.750000  1
  Nb  Nb10  1  0.742556  0.000000  0.750000  1
  Nb  Nb11  1  0.000000  0.742556  0.750000  1
  Ga  Ga12  1  0.388172  0.388172  0.250000  1
  Ga  Ga13  1  0.611828  0.000000  0.250000  1
  Ga  Ga14  1  0.000000  0.611828  0.250000  1
  Ge  Ge15  1  0.607875  0.607875  0.750000  1
  Ge  Ge16  1  0.392125  0.000000  0.750000  1
  Ge  Ge17  1  0.000000  0.392125  0.750000  1
