# generated using pymatgen
data_Ce7Th3(GaSn3)2
_symmetry_space_group_name_H-M   'P 1'
_cell_length_a   6.32001900
_cell_length_b   9.65563712
_cell_length_c   9.65102500
_cell_angle_alpha   119.96986609
_cell_angle_beta   90.00090658
_cell_angle_gamma   89.99955899
_symmetry_Int_Tables_number   1
_chemical_formula_structural   Ce7Th3(GaSn3)2
_chemical_formula_sum   'Ce7 Th3 Ga2 Sn6'
_cell_volume   510.19380968
_cell_formula_units_Z   1
loop_
 _symmetry_equiv_pos_site_id
 _symmetry_equiv_pos_as_xyz
  1  'x, y, z'
loop_
 _atom_site_type_symbol
 _atom_site_label
 _atom_site_symmetry_multiplicity
 _atom_site_fract_x
 _atom_site_fract_y
 _atom_site_fract_z
 _atom_site_occupancy
  Ce  Ce0  1  0.250099  0.727424  0.999114  1
  Ce  Ce1  1  0.249775  0.273014  0.273193  1
  Ce  Ce2  1  0.250067  0.000041  0.728209  1
  Ce  Ce3  1  0.498176  0.332851  0.666254  1
  Ce  Ce4  1  0.498467  0.666322  0.332831  1
  Ce  Ce5  1  0.001204  0.666454  0.332994  1
  Ce  Ce6  1  0.001982  0.332890  0.666206  1
  Th  Th7  1  0.749976  0.258850  0.999852  1
  Th  Th8  1  0.750040  0.741705  0.741628  1
  Th  Th9  1  0.750024  0.999786  0.259011  1
  Ga  Ga10  1  0.472916  0.000567  0.000773  1
  Ga  Ga11  1  0.027107  0.000619  0.000790  1
  Sn  Sn12  1  0.750273  0.613343  0.999348  1
  Sn  Sn13  1  0.749834  0.386251  0.386535  1
  Sn  Sn14  1  0.750088  0.999899  0.613705  1
  Sn  Sn15  1  0.249982  0.376713  0.999454  1
  Sn  Sn16  1  0.250015  0.623729  0.623392  1
  Sn  Sn17  1  0.249977  0.999539  0.376711  1
