# generated using pymatgen
data_Y15Lu5Tl16
_symmetry_space_group_name_H-M   'P 1'
_cell_length_a   7.91343631
_cell_length_b   8.22285460
_cell_length_c   15.85371152
_cell_angle_alpha   89.94918897
_cell_angle_beta   89.82309203
_cell_angle_gamma   90.01642074
_symmetry_Int_Tables_number   1
_chemical_formula_structural   Y15Lu5Tl16
_chemical_formula_sum   'Y15 Lu5 Tl16'
_cell_volume   1031.61206838
_cell_formula_units_Z   1
loop_
 _symmetry_equiv_pos_site_id
 _symmetry_equiv_pos_as_xyz
  1  'x, y, z'
loop_
 _atom_site_type_symbol
 _atom_site_label
 _atom_site_symmetry_multiplicity
 _atom_site_fract_x
 _atom_site_fract_y
 _atom_site_fract_z
 _atom_site_occupancy
  Y  Y0  1  0.156772  0.665339  0.875446  1
  Y  Y1  1  0.842853  0.334124  0.377042  1
  Y  Y2  1  0.343266  0.164895  0.124168  1
  Y  Y3  1  0.342964  0.164947  0.376479  1
  Y  Y4  1  0.843408  0.334536  0.124140  1
  Y  Y5  1  0.157000  0.665326  0.623225  1
  Y  Y6  1  0.656860  0.834458  0.875634  1
  Y  Y7  1  0.005010  0.818290  0.403700  1
  Y  Y8  1  0.503906  0.681610  0.095825  1
  Y  Y9  1  0.495529  0.317542  0.595853  1
  Y  Y10  1  0.996351  0.181914  0.903457  1
  Y  Y11  1  0.997134  0.181065  0.595215  1
  Y  Y12  1  0.495814  0.318234  0.903443  1
  Y  Y13  1  0.503068  0.682995  0.405778  1
  Y  Y14  1  0.003971  0.817736  0.096026  1
  Lu  Lu15  1  0.677149  0.997126  0.250369  1
  Lu  Lu16  1  0.176707  0.502403  0.250159  1
  Lu  Lu17  1  0.822735  0.498170  0.749371  1
  Lu  Lu18  1  0.323074  0.001999  0.749327  1
  Lu  Lu19  1  0.656480  0.835843  0.625490  1
  Tl  Tl20  1  0.809987  0.645069  0.250195  1
  Tl  Tl21  1  0.310257  0.854543  0.250160  1
  Tl  Tl22  1  0.689721  0.145018  0.749131  1
  Tl  Tl23  1  0.190228  0.355142  0.749713  1
  Tl  Tl24  1  0.538921  0.386285  0.250452  1
  Tl  Tl25  1  0.038835  0.113599  0.250183  1
  Tl  Tl26  1  0.960177  0.885797  0.748682  1
  Tl  Tl27  1  0.461462  0.615360  0.748880  1
  Tl  Tl28  1  0.812298  0.536267  0.541393  1
  Tl  Tl29  1  0.315278  0.967644  0.958782  1
  Tl  Tl30  1  0.685795  0.030772  0.461105  1
  Tl  Tl31  1  0.184412  0.467456  0.040794  1
  Tl  Tl32  1  0.183235  0.467064  0.458730  1
  Tl  Tl33  1  0.684721  0.032436  0.040893  1
  Tl  Tl34  1  0.319237  0.966744  0.541995  1
  Tl  Tl35  1  0.815387  0.532252  0.958767  1
