# generated using pymatgen
data_Pr4Nd6Si5Pt
_symmetry_space_group_name_H-M   'P 1'
_cell_length_a   7.71571579
_cell_length_b   7.71571556
_cell_length_c   9.09902668
_cell_angle_alpha   115.08647836
_cell_angle_beta   115.08648037
_cell_angle_gamma   90.00000775
_symmetry_Int_Tables_number   1
_chemical_formula_structural   Pr4Nd6Si5Pt
_chemical_formula_sum   'Pr4 Nd6 Si5 Pt1'
_cell_volume   433.50838671
_cell_formula_units_Z   1
loop_
 _symmetry_equiv_pos_site_id
 _symmetry_equiv_pos_as_xyz
  1  'x, y, z'
loop_
 _atom_site_type_symbol
 _atom_site_label
 _atom_site_symmetry_multiplicity
 _atom_site_fract_x
 _atom_site_fract_y
 _atom_site_fract_z
 _atom_site_occupancy
  Pr  Pr0  1  0.023336  0.167569  0.713096  1
  Pr  Pr1  1  0.689760  0.545525  0.713096  1
  Pr  Pr2  1  0.167569  0.689760  0.713096  1
  Pr  Pr3  1  0.545525  0.023336  0.713096  1
  Nd  Nd4  1  0.473104  0.473104  0.946207  1
  Nd  Nd5  1  0.027472  0.027472  0.054946  1
  Nd  Nd6  1  0.953409  0.809265  0.285646  1
  Nd  Nd7  1  0.332238  0.476381  0.285646  1
  Nd  Nd8  1  0.809265  0.332238  0.285646  1
  Nd  Nd9  1  0.476381  0.953409  0.285646  1
  Si  Si10  1  0.249431  0.249431  0.498862  1
  Si  Si11  1  0.615872  0.885744  0.001675  1
  Si  Si12  1  0.385803  0.115930  0.001675  1
  Si  Si13  1  0.885744  0.385803  0.001675  1
  Si  Si14  1  0.115930  0.615872  0.001675  1
  Pt  Pt15  1  0.749161  0.749161  0.498322  1
