# generated using pymatgen
data_TbDyCo6(GeB)2
_symmetry_space_group_name_H-M   'P 1'
_cell_length_a   5.17894100
_cell_length_b   5.17934911
_cell_length_c   6.55323700
_cell_angle_alpha   90.00000000
_cell_angle_beta   90.00000000
_cell_angle_gamma   119.99738710
_symmetry_Int_Tables_number   1
_chemical_formula_structural   TbDyCo6(GeB)2
_chemical_formula_sum   'Tb1 Dy1 Co6 Ge2 B2'
_cell_volume   152.23485198
_cell_formula_units_Z   1
loop_
 _symmetry_equiv_pos_site_id
 _symmetry_equiv_pos_as_xyz
  1  'x, y, z'
loop_
 _atom_site_type_symbol
 _atom_site_label
 _atom_site_symmetry_multiplicity
 _atom_site_fract_x
 _atom_site_fract_y
 _atom_site_fract_z
 _atom_site_occupancy
  Tb  Tb0  1  0.000006  0.000000  0.000000  1
  Dy  Dy1  1  0.000153  0.000000  0.500000  1
  Co  Co2  1  0.499997  0.000000  0.291002  1
  Co  Co3  1  0.499982  0.500018  0.291007  1
  Co  Co4  1  0.999964  0.499982  0.291007  1
  Co  Co5  1  0.499997  0.000000  0.708998  1
  Co  Co6  1  0.499982  0.500018  0.708993  1
  Co  Co7  1  0.999964  0.499982  0.708993  1
  Ge  Ge8  1  0.333189  0.666446  0.000000  1
  Ge  Ge9  1  0.666742  0.333554  0.000000  1
  B  B10  1  0.333178  0.666531  0.500000  1
  B  B11  1  0.666646  0.333469  0.500000  1
