# generated using pymatgen
data_SrAl9FeIr
_symmetry_space_group_name_H-M   'P 1'
_cell_length_a   8.10284500
_cell_length_b   8.10284559
_cell_length_c   3.90833100
_cell_angle_alpha   90.00000000
_cell_angle_beta   90.00000000
_cell_angle_gamma   120.00000169
_symmetry_Int_Tables_number   1
_chemical_formula_structural   SrAl9FeIr
_chemical_formula_sum   'Sr1 Al9 Fe1 Ir1'
_cell_volume   222.22711884
_cell_formula_units_Z   1
loop_
 _symmetry_equiv_pos_site_id
 _symmetry_equiv_pos_as_xyz
  1  'x, y, z'
loop_
 _atom_site_type_symbol
 _atom_site_label
 _atom_site_symmetry_multiplicity
 _atom_site_fract_x
 _atom_site_fract_y
 _atom_site_fract_z
 _atom_site_occupancy
  Sr  Sr0  1  0.000000  0.000000  0.000000  1
  Al  Al1  1  0.495206  0.990413  0.000000  1
  Al  Al2  1  0.495206  0.504794  0.000000  1
  Al  Al3  1  0.009587  0.504794  0.000000  1
  Al  Al4  1  0.215675  0.431349  0.500000  1
  Al  Al5  1  0.791849  0.208151  0.500000  1
  Al  Al6  1  0.416300  0.208151  0.500000  1
  Al  Al7  1  0.568651  0.784325  0.500000  1
  Al  Al8  1  0.215675  0.784325  0.500000  1
  Al  Al9  1  0.791849  0.583700  0.500000  1
  Fe  Fe10  1  0.333333  0.666667  0.000000  1
  Ir  Ir11  1  0.666667  0.333333  0.000000  1
