# generated using pymatgen
data_Y2CoRe4SiC2
_symmetry_space_group_name_H-M   'P 1'
_cell_length_a   5.78592922
_cell_length_b   5.78593072
_cell_length_c   7.37625600
_cell_angle_alpha   90.00000000
_cell_angle_beta   90.00000000
_cell_angle_gamma   141.01432575
_symmetry_Int_Tables_number   1
_chemical_formula_structural   Y2CoRe4SiC2
_chemical_formula_sum   'Y2 Co1 Re4 Si1 C2'
_cell_volume   155.35312790
_cell_formula_units_Z   1
loop_
 _symmetry_equiv_pos_site_id
 _symmetry_equiv_pos_as_xyz
  1  'x, y, z'
loop_
 _atom_site_type_symbol
 _atom_site_label
 _atom_site_symmetry_multiplicity
 _atom_site_fract_x
 _atom_site_fract_y
 _atom_site_fract_z
 _atom_site_occupancy
  Y  Y0  1  0.539256  0.460744  0.250000  1
  Y  Y1  1  0.464912  0.535088  0.750000  1
  Co  Co2  1  0.739572  0.260428  0.750000  1
  Re  Re3  1  0.824002  0.175998  0.055125  1
  Re  Re4  1  0.173098  0.826902  0.935895  1
  Re  Re5  1  0.173098  0.826902  0.564105  1
  Re  Re6  1  0.824002  0.175998  0.444875  1
  Si  Si7  1  0.262292  0.737708  0.250000  1
  C  C8  1  0.999884  0.000116  0.001705  1
  C  C9  1  0.999884  0.000116  0.498295  1
