# generated using pymatgen
data_Sc4CdNi
_symmetry_space_group_name_H-M   'P 1'
_cell_length_a   8.95285900
_cell_length_b   8.95285999
_cell_length_c   8.95285900
_cell_angle_alpha   120.00000004
_cell_angle_beta   90.00000000
_cell_angle_gamma   120.00000004
_symmetry_Int_Tables_number   1
_chemical_formula_structural   Sc4CdNi
_chemical_formula_sum   'Sc16 Cd4 Ni4'
_cell_volume   507.42315797
_cell_formula_units_Z   4
loop_
 _symmetry_equiv_pos_site_id
 _symmetry_equiv_pos_as_xyz
  1  'x, y, z'
loop_
 _atom_site_type_symbol
 _atom_site_label
 _atom_site_symmetry_multiplicity
 _atom_site_fract_x
 _atom_site_fract_y
 _atom_site_fract_z
 _atom_site_occupancy
  Sc  Sc0  1  0.187859  0.000000  0.187859  1
  Sc  Sc1  1  0.812140  0.000000  0.187859  1
  Sc  Sc2  1  0.187859  0.375719  0.187859  1
  Sc  Sc3  1  0.651179  0.302359  0.348820  1
  Sc  Sc4  1  0.046461  0.697640  0.348820  1
  Sc  Sc5  1  0.651179  0.697640  0.348820  1
  Sc  Sc6  1  0.063139  0.126278  0.563140  1
  Sc  Sc7  1  0.063139  0.500001  0.563140  1
  Sc  Sc8  1  0.436861  0.500001  0.563140  1
  Sc  Sc9  1  0.187859  0.000000  0.812140  1
  Sc  Sc10  1  0.812140  0.000000  0.812140  1
  Sc  Sc11  1  0.812140  0.624280  0.812140  1
  Sc  Sc12  1  0.063139  0.500001  0.936862  1
  Sc  Sc13  1  0.436861  0.500001  0.936862  1
  Sc  Sc14  1  0.436861  0.873723  0.936862  1
  Sc  Sc15  1  0.651179  0.302359  0.953539  1
  Cd  Cd16  1  0.416685  0.833372  0.250057  1
  Cd  Cd17  1  0.416685  0.166628  0.583314  1
  Cd  Cd18  1  0.749942  0.166628  0.583314  1
  Cd  Cd19  1  0.416685  0.833372  0.583314  1
  Ni  Ni20  1  0.427832  0.285221  0.142611  1
  Ni  Ni21  1  0.857388  0.285221  0.142611  1
  Ni  Ni22  1  0.857388  0.714778  0.142611  1
  Ni  Ni23  1  0.857388  0.714778  0.572167  1
