# generated using pymatgen
data_Lu8CrTc3C8
_symmetry_space_group_name_H-M   'P 1'
_cell_length_a   4.95092100
_cell_length_b   6.44610974
_cell_length_c   9.64260136
_cell_angle_alpha   90.27032240
_cell_angle_beta   90.00000000
_cell_angle_gamma   90.00000000
_symmetry_Int_Tables_number   1
_chemical_formula_structural   Lu8CrTc3C8
_chemical_formula_sum   'Lu8 Cr1 Tc3 C8'
_cell_volume   307.73229135
_cell_formula_units_Z   1
loop_
 _symmetry_equiv_pos_site_id
 _symmetry_equiv_pos_as_xyz
  1  'x, y, z'
loop_
 _atom_site_type_symbol
 _atom_site_label
 _atom_site_symmetry_multiplicity
 _atom_site_fract_x
 _atom_site_fract_y
 _atom_site_fract_z
 _atom_site_occupancy
  Lu  Lu0  1  0.250000  0.826437  0.941618  1
  Lu  Lu1  1  0.250000  0.323157  0.557250  1
  Lu  Lu2  1  0.750000  0.176881  0.061235  1
  Lu  Lu3  1  0.750000  0.670960  0.440828  1
  Lu  Lu4  1  0.250000  0.465028  0.218727  1
  Lu  Lu5  1  0.250000  0.963073  0.280877  1
  Lu  Lu6  1  0.750000  0.537331  0.782463  1
  Lu  Lu7  1  0.750000  0.037221  0.716976  1
  Cr  Cr8  1  0.750000  0.218358  0.366000  1
  Tc  Tc9  1  0.250000  0.286488  0.870514  1
  Tc  Tc10  1  0.250000  0.784867  0.630540  1
  Tc  Tc11  1  0.750000  0.717253  0.132730  1
  C  C12  1  0.250000  0.054222  0.740441  1
  C  C13  1  0.250000  0.553100  0.759210  1
  C  C14  1  0.750000  0.954384  0.264533  1
  C  C15  1  0.750000  0.442556  0.243379  1
  C  C16  1  0.250000  0.672658  0.444888  1
  C  C17  1  0.250000  0.173885  0.056045  1
  C  C18  1  0.750000  0.316420  0.544808  1
  C  C19  1  0.750000  0.825721  0.946937  1
