# generated using pymatgen
data_TmScFe2Co10P7
_symmetry_space_group_name_H-M   'P 1'
_cell_length_a   8.93590904
_cell_length_b   8.93809516
_cell_length_c   3.57243100
_cell_angle_alpha   90.00000000
_cell_angle_beta   90.00000000
_cell_angle_gamma   120.06566367
_symmetry_Int_Tables_number   1
_chemical_formula_structural   TmScFe2Co10P7
_chemical_formula_sum   'Tm1 Sc1 Fe2 Co10 P7'
_cell_volume   246.93943714
_cell_formula_units_Z   1
loop_
 _symmetry_equiv_pos_site_id
 _symmetry_equiv_pos_as_xyz
  1  'x, y, z'
loop_
 _atom_site_type_symbol
 _atom_site_label
 _atom_site_symmetry_multiplicity
 _atom_site_fract_x
 _atom_site_fract_y
 _atom_site_fract_z
 _atom_site_occupancy
  Tm  Tm0  1  0.333289  0.666265  0.000000  1
  Sc  Sc1  1  0.000284  0.999456  0.500000  1
  Fe  Fe2  1  0.447864  0.238895  0.500000  1
  Fe  Fe3  1  0.792289  0.553962  0.500000  1
  Co  Co4  1  0.729638  0.963395  0.000000  1
  Co  Co5  1  0.233137  0.269760  0.000000  1
  Co  Co6  1  0.037115  0.766624  0.000000  1
  Co  Co7  1  0.941787  0.449175  0.000000  1
  Co  Co8  1  0.509686  0.058801  0.000000  1
  Co  Co9  1  0.549459  0.492847  0.000000  1
  Co  Co10  1  0.101136  0.381653  0.500000  1
  Co  Co11  1  0.280927  0.898423  0.500000  1
  Co  Co12  1  0.617939  0.720313  0.500000  1
  Co  Co13  1  0.759264  0.207361  0.500000  1
  P  P14  1  0.964251  0.215918  0.000000  1
  P  P15  1  0.252461  0.036156  0.000000  1
  P  P16  1  0.784401  0.747746  0.000000  1
  P  P17  1  0.069799  0.622577  0.500000  1
  P  P18  1  0.551469  0.928774  0.500000  1
  P  P19  1  0.377017  0.446873  0.500000  1
  P  P20  1  0.666790  0.335015  0.000000  1
