# generated using pymatgen
data_Nd2Ga9PdRuPt
_symmetry_space_group_name_H-M   'P 1'
_cell_length_a   7.71808832
_cell_length_b   7.71808768
_cell_length_c   9.65394401
_cell_angle_alpha   90.00253463
_cell_angle_beta   90.00253420
_cell_angle_gamma   119.69570831
_symmetry_Int_Tables_number   1
_chemical_formula_structural   Nd2Ga9PdRuPt
_chemical_formula_sum   'Nd4 Ga18 Pd2 Ru2 Pt2'
_cell_volume   499.54930725
_cell_formula_units_Z   2
loop_
 _symmetry_equiv_pos_site_id
 _symmetry_equiv_pos_as_xyz
  1  'x, y, z'
loop_
 _atom_site_type_symbol
 _atom_site_label
 _atom_site_symmetry_multiplicity
 _atom_site_fract_x
 _atom_site_fract_y
 _atom_site_fract_z
 _atom_site_occupancy
  Nd  Nd0  1  0.997681  0.666704  0.250077  1
  Nd  Nd1  1  0.002319  0.333296  0.749923  1
  Nd  Nd2  1  0.666704  0.997681  0.250077  1
  Nd  Nd3  1  0.333296  0.002319  0.749923  1
  Ga  Ga4  1  0.122070  0.122070  0.249976  1
  Ga  Ga5  1  0.877930  0.877930  0.750024  1
  Ga  Ga6  1  0.001727  0.328890  0.079140  1
  Ga  Ga7  1  0.998273  0.671110  0.920860  1
  Ga  Ga8  1  0.998498  0.671253  0.579059  1
  Ga  Ga9  1  0.328747  0.001502  0.420941  1
  Ga  Ga10  1  0.001502  0.328747  0.420941  1
  Ga  Ga11  1  0.671253  0.998498  0.579059  1
  Ga  Ga12  1  0.671110  0.998273  0.920860  1
  Ga  Ga13  1  0.328890  0.001727  0.079140  1
  Ga  Ga14  1  0.326706  0.326706  0.562089  1
  Ga  Ga15  1  0.673294  0.673294  0.437911  1
  Ga  Ga16  1  0.673001  0.673001  0.062035  1
  Ga  Ga17  1  0.326999  0.326999  0.937965  1
  Ga  Ga18  1  0.343194  0.542928  0.249773  1
  Ga  Ga19  1  0.656806  0.457072  0.750227  1
  Ga  Ga20  1  0.542928  0.343194  0.249773  1
  Ga  Ga21  1  0.457072  0.656806  0.750227  1
  Pd  Pd22  1  0.670913  0.329087  0.000000  1
  Pd  Pd23  1  0.329087  0.670913  0.000000  1
  Ru  Ru24  1  0.000000  0.000000  0.000000  1
  Ru  Ru25  1  0.000000  0.000000  0.500000  1
  Pt  Pt26  1  0.328910  0.671090  0.500000  1
  Pt  Pt27  1  0.671090  0.328910  0.500000  1
