# generated using pymatgen
data_Sr5MnSi9(Pb3O11)3
_symmetry_space_group_name_H-M   'P 1'
_cell_length_a   10.07958000
_cell_length_b   10.07957834
_cell_length_c   10.57134100
_cell_angle_alpha   90.00000000
_cell_angle_beta   90.00000000
_cell_angle_gamma   119.99999320
_symmetry_Int_Tables_number   1
_chemical_formula_structural   Sr5MnSi9(Pb3O11)3
_chemical_formula_sum   'Sr5 Mn1 Si9 Pb9 O33'
_cell_volume   930.13405243
_cell_formula_units_Z   1
loop_
 _symmetry_equiv_pos_site_id
 _symmetry_equiv_pos_as_xyz
  1  'x, y, z'
loop_
 _atom_site_type_symbol
 _atom_site_label
 _atom_site_symmetry_multiplicity
 _atom_site_fract_x
 _atom_site_fract_y
 _atom_site_fract_z
 _atom_site_occupancy
  Sr  Sr0  1  0.000000  0.000000  0.164628  1
  Sr  Sr1  1  0.333333  0.666667  0.179240  1
  Sr  Sr2  1  0.000000  0.000000  0.835372  1
  Sr  Sr3  1  0.333333  0.666667  0.820760  1
  Sr  Sr4  1  0.000000  0.000000  0.500000  1
  Mn  Mn5  1  0.333333  0.666667  0.500000  1
  Si  Si6  1  0.268355  0.950868  0.355486  1
  Si  Si7  1  0.049132  0.317487  0.355486  1
  Si  Si8  1  0.644614  0.932377  0.000000  1
  Si  Si9  1  0.682513  0.731645  0.644514  1
  Si  Si10  1  0.287764  0.355386  0.000000  1
  Si  Si11  1  0.268355  0.950868  0.644514  1
  Si  Si12  1  0.067623  0.712236  0.000000  1
  Si  Si13  1  0.049132  0.317487  0.644514  1
  Si  Si14  1  0.682513  0.731645  0.355486  1
  Pb  Pb15  1  0.933124  0.600548  0.680994  1
  Pb  Pb16  1  0.399452  0.332576  0.319006  1
  Pb  Pb17  1  0.652637  0.588945  0.000000  1
  Pb  Pb18  1  0.936308  0.347363  0.000000  1
  Pb  Pb19  1  0.667424  0.066876  0.680994  1
  Pb  Pb20  1  0.411055  0.063692  0.000000  1
  Pb  Pb21  1  0.933124  0.600548  0.319006  1
  Pb  Pb22  1  0.399452  0.332576  0.680994  1
  Pb  Pb23  1  0.667424  0.066876  0.319006  1
  O  O24  1  0.179640  0.172027  0.000000  1
  O  O25  1  0.291487  0.035070  0.500000  1
  O  O26  1  0.964930  0.256416  0.500000  1
  O  O27  1  0.407556  0.423383  0.122402  1
  O  O28  1  0.135532  0.215161  0.332091  1
  O  O29  1  0.352001  0.090467  0.748634  1
  O  O30  1  0.167802  0.499339  0.643449  1
  O  O31  1  0.015827  0.592444  0.122402  1
  O  O32  1  0.331537  0.832198  0.356551  1
  O  O33  1  0.167802  0.499339  0.356551  1
  O  O34  1  0.784839  0.920371  0.332091  1
  O  O35  1  0.331537  0.832198  0.643449  1
  O  O36  1  0.909533  0.261534  0.748634  1
  O  O37  1  0.352001  0.090467  0.251366  1
  O  O38  1  0.992387  0.820360  0.000000  1
  O  O39  1  0.738466  0.647999  0.748634  1
  O  O40  1  0.738466  0.647999  0.251366  1
  O  O41  1  0.743584  0.708513  0.500000  1
  O  O42  1  0.549900  0.742206  0.000000  1
  O  O43  1  0.135532  0.215161  0.667909  1
  O  O44  1  0.576617  0.984173  0.877598  1
  O  O45  1  0.079629  0.864468  0.332091  1
  O  O46  1  0.909533  0.261534  0.251366  1
  O  O47  1  0.500661  0.668463  0.643449  1
  O  O48  1  0.079629  0.864468  0.667909  1
  O  O49  1  0.576617  0.984173  0.122402  1
  O  O50  1  0.257794  0.807692  0.000000  1
  O  O51  1  0.192308  0.450100  0.000000  1
  O  O52  1  0.500661  0.668463  0.356551  1
  O  O53  1  0.784839  0.920371  0.667909  1
  O  O54  1  0.827973  0.007613  0.000000  1
  O  O55  1  0.015827  0.592444  0.877598  1
  O  O56  1  0.407556  0.423383  0.877598  1
