# generated using pymatgen
data_NdBeOs2C
_symmetry_space_group_name_H-M   'P 1'
_cell_length_a   5.64310477
_cell_length_b   5.64310410
_cell_length_c   7.15003200
_cell_angle_alpha   90.00000000
_cell_angle_beta   90.00000000
_cell_angle_gamma   139.02459387
_symmetry_Int_Tables_number   1
_chemical_formula_structural   NdBeOs2C
_chemical_formula_sum   'Nd2 Be2 Os4 C2'
_cell_volume   149.30437527
_cell_formula_units_Z   2
loop_
 _symmetry_equiv_pos_site_id
 _symmetry_equiv_pos_as_xyz
  1  'x, y, z'
loop_
 _atom_site_type_symbol
 _atom_site_label
 _atom_site_symmetry_multiplicity
 _atom_site_fract_x
 _atom_site_fract_y
 _atom_site_fract_z
 _atom_site_occupancy
  Nd  Nd0  1  0.544004  0.455996  0.250000  1
  Nd  Nd1  1  0.455996  0.544004  0.750000  1
  Be  Be2  1  0.269279  0.730721  0.250000  1
  Be  Be3  1  0.730721  0.269279  0.750000  1
  Os  Os4  1  0.822323  0.177677  0.059041  1
  Os  Os5  1  0.177677  0.822323  0.940959  1
  Os  Os6  1  0.177677  0.822323  0.559041  1
  Os  Os7  1  0.822323  0.177677  0.440959  1
  C  C8  1  0.000000  0.000000  0.000000  1
  C  C9  1  0.000000  0.000000  0.500000  1
