# generated using pymatgen
data_TmLu2Ga2Co9B4
_symmetry_space_group_name_H-M   'P 1'
_cell_length_a   5.09786200
_cell_length_b   5.09821398
_cell_length_c   9.52124600
_cell_angle_alpha   89.99955648
_cell_angle_beta   90.00087586
_cell_angle_gamma   119.99770324
_symmetry_Int_Tables_number   1
_chemical_formula_structural   TmLu2Ga2Co9B4
_chemical_formula_sum   'Tm1 Lu2 Ga2 Co9 B4'
_cell_volume   214.30909528
_cell_formula_units_Z   1
loop_
 _symmetry_equiv_pos_site_id
 _symmetry_equiv_pos_as_xyz
  1  'x, y, z'
loop_
 _atom_site_type_symbol
 _atom_site_label
 _atom_site_symmetry_multiplicity
 _atom_site_fract_x
 _atom_site_fract_y
 _atom_site_fract_z
 _atom_site_occupancy
  Tm  Tm0  1  0.999993  0.000000  0.999958  1
  Lu  Lu1  1  0.999991  0.000000  0.339521  1
  Lu  Lu2  1  0.999984  0.000000  0.660423  1
  Ga  Ga3  1  0.333387  0.666787  0.000023  1
  Ga  Ga4  1  0.666599  0.333213  0.000023  1
  Co  Co5  1  0.499992  0.000000  0.499978  1
  Co  Co6  1  0.499995  0.499996  0.500003  1
  Co  Co7  1  0.999999  0.500004  0.500003  1
  Co  Co8  1  0.499998  0.000000  0.207060  1
  Co  Co9  1  0.499989  0.500000  0.207065  1
  Co  Co10  1  0.999988  0.500000  0.207065  1
  Co  Co11  1  0.499998  0.000000  0.792971  1
  Co  Co12  1  0.499999  0.500002  0.792970  1
  Co  Co13  1  0.999997  0.499998  0.792970  1
  B  B14  1  0.333321  0.666661  0.349030  1
  B  B15  1  0.666660  0.333339  0.349030  1
  B  B16  1  0.666645  0.333280  0.650956  1
  B  B17  1  0.333364  0.666720  0.650956  1
