# generated using pymatgen
data_Nd2VO5
_symmetry_space_group_name_H-M   'P 1'
_cell_length_a   10.79567700
_cell_length_b   11.51636900
_cell_length_c   3.88339800
_cell_angle_alpha   90.00000000
_cell_angle_beta   90.00000000
_cell_angle_gamma   90.00000000
_symmetry_Int_Tables_number   1
_chemical_formula_structural   Nd2VO5
_chemical_formula_sum   'Nd8 V4 O20'
_cell_volume   482.81122290
_cell_formula_units_Z   4
loop_
 _symmetry_equiv_pos_site_id
 _symmetry_equiv_pos_as_xyz
  1  'x, y, z'
loop_
 _atom_site_type_symbol
 _atom_site_label
 _atom_site_symmetry_multiplicity
 _atom_site_fract_x
 _atom_site_fract_y
 _atom_site_fract_z
 _atom_site_occupancy
  Nd  Nd0  1  0.137998  0.055229  0.250000  1
  Nd  Nd1  1  0.637998  0.444771  0.250000  1
  Nd  Nd2  1  0.110242  0.722959  0.250000  1
  Nd  Nd3  1  0.610242  0.777042  0.250000  1
  Nd  Nd4  1  0.389758  0.222959  0.749999  1
  Nd  Nd5  1  0.889758  0.277042  0.749999  1
  Nd  Nd6  1  0.362002  0.555229  0.749999  1
  Nd  Nd7  1  0.862003  0.944771  0.749999  1
  V  V8  1  0.679485  0.122513  0.250000  1
  V  V9  1  0.179484  0.377488  0.250000  1
  V  V10  1  0.820516  0.622513  0.749999  1
  V  V11  1  0.320516  0.877488  0.749999  1
  O  O12  1  0.522826  0.158996  0.250000  1
  O  O13  1  0.266937  0.231356  0.250000  1
  O  O14  1  0.766937  0.268644  0.250000  1
  O  O15  1  0.022826  0.341004  0.250000  1
  O  O16  1  0.225528  0.536106  0.250000  1
  O  O17  1  0.492075  0.604019  0.250000  1
  O  O18  1  0.765598  0.620150  0.250000  1
  O  O19  1  0.265597  0.879849  0.250000  1
  O  O20  1  0.992075  0.895982  0.250000  1
  O  O21  1  0.725528  0.963894  0.250000  1
  O  O22  1  0.274472  0.036106  0.749999  1
  O  O23  1  0.007925  0.104018  0.749999  1
  O  O24  1  0.734403  0.120150  0.749999  1
  O  O25  1  0.234403  0.379849  0.749999  1
  O  O26  1  0.507925  0.395982  0.749999  1
  O  O27  1  0.774472  0.463894  0.749999  1
  O  O28  1  0.977174  0.658996  0.749999  1
  O  O29  1  0.233064  0.731356  0.749999  1
  O  O30  1  0.733064  0.768644  0.749999  1
  O  O31  1  0.477174  0.841004  0.749999  1
