# generated using pymatgen
data_CeSm7Sc12Si15Hg
_symmetry_space_group_name_H-M   'P 1'
_cell_length_a   7.21665145
_cell_length_b   7.46110491
_cell_length_c   14.21372764
_cell_angle_alpha   89.96562556
_cell_angle_beta   89.67918611
_cell_angle_gamma   90.16718214
_symmetry_Int_Tables_number   1
_chemical_formula_structural   CeSm7Sc12Si15Hg
_chemical_formula_sum   'Ce1 Sm7 Sc12 Si15 Hg1'
_cell_volume   765.31130182
_cell_formula_units_Z   1
loop_
 _symmetry_equiv_pos_site_id
 _symmetry_equiv_pos_as_xyz
  1  'x, y, z'
loop_
 _atom_site_type_symbol
 _atom_site_label
 _atom_site_symmetry_multiplicity
 _atom_site_fract_x
 _atom_site_fract_y
 _atom_site_fract_z
 _atom_site_occupancy
  Ce  Ce0  1  0.014158  0.172914  0.097910  1
  Sm  Sm1  1  0.987954  0.827815  0.903824  1
  Sm  Sm2  1  0.488012  0.675439  0.903038  1
  Sm  Sm3  1  0.988673  0.832446  0.598678  1
  Sm  Sm4  1  0.510414  0.326122  0.095973  1
  Sm  Sm5  1  0.007041  0.170393  0.397442  1
  Sm  Sm6  1  0.512029  0.324672  0.399067  1
  Sm  Sm7  1  0.495643  0.680898  0.601169  1
  Sc  Sc8  1  0.162413  0.500080  0.755024  1
  Sc  Sc9  1  0.837470  0.499214  0.249032  1
  Sc  Sc10  1  0.337124  0.998944  0.248194  1
  Sc  Sc11  1  0.664926  0.998891  0.752656  1
  Sc  Sc12  1  0.342392  0.168504  0.629232  1
  Sc  Sc13  1  0.664413  0.823926  0.373310  1
  Sc  Sc14  1  0.167289  0.677155  0.371086  1
  Sc  Sc15  1  0.670218  0.824193  0.123881  1
  Sc  Sc16  1  0.823972  0.325208  0.626197  1
  Sc  Sc17  1  0.329069  0.174159  0.876152  1
  Sc  Sc18  1  0.830298  0.323251  0.876734  1
  Sc  Sc19  1  0.169015  0.676404  0.124707  1
  Si  Si20  1  0.036119  0.125185  0.750920  1
  Si  Si21  1  0.963422  0.879140  0.247877  1
  Si  Si22  1  0.465486  0.620364  0.248097  1
  Si  Si23  1  0.535001  0.381501  0.752341  1
  Si  Si24  1  0.285249  0.877320  0.751898  1
  Si  Si25  1  0.710841  0.122562  0.247289  1
  Si  Si26  1  0.211915  0.376132  0.248030  1
  Si  Si27  1  0.790312  0.622538  0.752478  1
  Si  Si28  1  0.835813  0.540294  0.458308  1
  Si  Si29  1  0.342445  0.961655  0.459545  1
  Si  Si30  1  0.847430  0.534087  0.040102  1
  Si  Si31  1  0.655911  0.038373  0.537453  1
  Si  Si32  1  0.153569  0.464183  0.962037  1
  Si  Si33  1  0.654102  0.035678  0.960128  1
  Si  Si34  1  0.343812  0.964226  0.040276  1
  Hg  Hg35  1  0.166050  0.456134  0.539916  1
