# generated using pymatgen
data_Ba2LuSnO6
_symmetry_space_group_name_H-M   'P 1'
_cell_length_a   6.04919668
_cell_length_b   6.04694656
_cell_length_c   6.04258342
_cell_angle_alpha   60.04848416
_cell_angle_beta   60.01153006
_cell_angle_gamma   59.93996786
_symmetry_Int_Tables_number   1
_chemical_formula_structural   Ba2LuSnO6
_chemical_formula_sum   'Ba2 Lu1 Sn1 O6'
_cell_volume   156.29339626
_cell_formula_units_Z   1
loop_
 _symmetry_equiv_pos_site_id
 _symmetry_equiv_pos_as_xyz
  1  'x, y, z'
loop_
 _atom_site_type_symbol
 _atom_site_label
 _atom_site_symmetry_multiplicity
 _atom_site_fract_x
 _atom_site_fract_y
 _atom_site_fract_z
 _atom_site_occupancy
  Ba  Ba0  1  0.249999  0.249999  0.249999  1
  Ba  Ba1  1  0.750000  0.750000  0.750000  1
  Lu  Lu2  1  0.500000  0.500000  0.500000  1
  Sn  Sn3  1  0.000000  0.000000  0.000000  1
  O  O4  1  0.756072  0.243927  0.243927  1
  O  O5  1  0.243929  0.756070  0.243929  1
  O  O6  1  0.756090  0.756090  0.243910  1
  O  O7  1  0.756071  0.243929  0.756070  1
  O  O8  1  0.243927  0.756073  0.756072  1
  O  O9  1  0.243909  0.243909  0.756091  1
