# generated using pymatgen
data_YbDyPa2(ReB6)2
_symmetry_space_group_name_H-M   'P 1'
_cell_length_a   3.71089300
_cell_length_b   9.19271725
_cell_length_c   11.47968062
_cell_angle_alpha   90.12277017
_cell_angle_beta   90.00000000
_cell_angle_gamma   90.00000000
_symmetry_Int_Tables_number   1
_chemical_formula_structural   YbDyPa2(ReB6)2
_chemical_formula_sum   'Yb2 Dy2 Pa4 Re4 B24'
_cell_volume   391.60762823
_cell_formula_units_Z   2
loop_
 _symmetry_equiv_pos_site_id
 _symmetry_equiv_pos_as_xyz
  1  'x, y, z'
loop_
 _atom_site_type_symbol
 _atom_site_label
 _atom_site_symmetry_multiplicity
 _atom_site_fract_x
 _atom_site_fract_y
 _atom_site_fract_z
 _atom_site_occupancy
  Yb  Yb0  1  0.000000  0.948713  0.380698  1
  Yb  Yb1  1  0.000000  0.051287  0.619302  1
  Dy  Dy2  1  0.000000  0.446190  0.125024  1
  Dy  Dy3  1  0.000000  0.553810  0.874976  1
  Pa  Pa4  1  0.000000  0.323523  0.412803  1
  Pa  Pa5  1  0.000000  0.676477  0.587197  1
  Pa  Pa6  1  0.000000  0.824993  0.088773  1
  Pa  Pa7  1  0.000000  0.175007  0.911227  1
  Re  Re8  1  0.000000  0.640039  0.322032  1
  Re  Re9  1  0.000000  0.359961  0.677968  1
  Re  Re10  1  0.000000  0.138812  0.177777  1
  Re  Re11  1  0.000000  0.861188  0.822223  1
  B  B12  1  0.500000  0.552941  0.432703  1
  B  B13  1  0.500000  0.447059  0.567297  1
  B  B14  1  0.500000  0.052697  0.067624  1
  B  B15  1  0.500000  0.947303  0.932376  1
  B  B16  1  0.500000  0.747384  0.421557  1
  B  B17  1  0.500000  0.252616  0.578443  1
  B  B18  1  0.500000  0.246901  0.079050  1
  B  B19  1  0.500000  0.753099  0.920950  1
  B  B20  1  0.500000  0.795045  0.268095  1
  B  B21  1  0.500000  0.204955  0.731905  1
  B  B22  1  0.500000  0.293604  0.232638  1
  B  B23  1  0.500000  0.706396  0.767362  1
  B  B24  1  0.500000  0.635786  0.186818  1
  B  B25  1  0.500000  0.364214  0.813182  1
  B  B26  1  0.500000  0.135314  0.314253  1
  B  B27  1  0.500000  0.864686  0.685747  1
  B  B28  1  0.500000  0.983937  0.215036  1
  B  B29  1  0.500000  0.016063  0.784964  1
  B  B30  1  0.500000  0.484288  0.286634  1
  B  B31  1  0.500000  0.515712  0.713366  1
  B  B32  1  0.500000  0.618484  0.033017  1
  B  B33  1  0.500000  0.381516  0.966983  1
  B  B34  1  0.500000  0.124903  0.465159  1
  B  B35  1  0.500000  0.875097  0.534841  1
