# generated using pymatgen
data_CeDy3(ReB6)2
_symmetry_space_group_name_H-M   'P 1'
_cell_length_a   3.71025500
_cell_length_b   9.20132840
_cell_length_c   11.58383983
_cell_angle_alpha   90.12430394
_cell_angle_beta   90.00000000
_cell_angle_gamma   90.00000000
_symmetry_Int_Tables_number   1
_chemical_formula_structural   CeDy3(ReB6)2
_chemical_formula_sum   'Ce2 Dy6 Re4 B24'
_cell_volume   395.46295947
_cell_formula_units_Z   2
loop_
 _symmetry_equiv_pos_site_id
 _symmetry_equiv_pos_as_xyz
  1  'x, y, z'
loop_
 _atom_site_type_symbol
 _atom_site_label
 _atom_site_symmetry_multiplicity
 _atom_site_fract_x
 _atom_site_fract_y
 _atom_site_fract_z
 _atom_site_occupancy
  Ce  Ce0  1  0.000000  0.322523  0.413688  1
  Ce  Ce1  1  0.000000  0.677477  0.586312  1
  Dy  Dy2  1  0.000000  0.824459  0.085608  1
  Dy  Dy3  1  0.000000  0.175541  0.914392  1
  Dy  Dy4  1  0.000000  0.943629  0.370347  1
  Dy  Dy5  1  0.000000  0.056371  0.629653  1
  Dy  Dy6  1  0.000000  0.443179  0.128725  1
  Dy  Dy7  1  0.000000  0.556821  0.871275  1
  Re  Re8  1  0.000000  0.637934  0.321897  1
  Re  Re9  1  0.000000  0.362066  0.678103  1
  Re  Re10  1  0.000000  0.139332  0.179591  1
  Re  Re11  1  0.000000  0.860668  0.820409  1
  B  B12  1  0.500000  0.554343  0.431654  1
  B  B13  1  0.500000  0.445657  0.568346  1
  B  B14  1  0.500000  0.053587  0.066804  1
  B  B15  1  0.500000  0.946413  0.933196  1
  B  B16  1  0.500000  0.749177  0.417619  1
  B  B17  1  0.500000  0.250823  0.582381  1
  B  B18  1  0.500000  0.248467  0.080777  1
  B  B19  1  0.500000  0.751533  0.919223  1
  B  B20  1  0.500000  0.792036  0.265306  1
  B  B21  1  0.500000  0.207964  0.734694  1
  B  B22  1  0.500000  0.291268  0.233422  1
  B  B23  1  0.500000  0.708732  0.766578  1
  B  B24  1  0.500000  0.631593  0.185443  1
  B  B25  1  0.500000  0.368407  0.814557  1
  B  B26  1  0.500000  0.131351  0.313236  1
  B  B27  1  0.500000  0.868649  0.686764  1
  B  B28  1  0.500000  0.983173  0.211459  1
  B  B29  1  0.500000  0.016827  0.788541  1
  B  B30  1  0.500000  0.484079  0.287008  1
  B  B31  1  0.500000  0.515921  0.712992  1
  B  B32  1  0.500000  0.602254  0.028611  1
  B  B33  1  0.500000  0.397746  0.971389  1
  B  B34  1  0.500000  0.103273  0.471182  1
  B  B35  1  0.500000  0.896727  0.528818  1
