# generated using pymatgen
data_HfSc11(Si3Os)4
_symmetry_space_group_name_H-M   'P 1'
_cell_length_a   4.02116100
_cell_length_b   10.29496080
_cell_length_c   11.64367122
_cell_angle_alpha   90.17043321
_cell_angle_beta   90.00000000
_cell_angle_gamma   90.00000000
_symmetry_Int_Tables_number   1
_chemical_formula_structural   HfSc11(Si3Os)4
_chemical_formula_sum   'Hf1 Sc11 Si12 Os4'
_cell_volume   482.01901587
_cell_formula_units_Z   1
loop_
 _symmetry_equiv_pos_site_id
 _symmetry_equiv_pos_as_xyz
  1  'x, y, z'
loop_
 _atom_site_type_symbol
 _atom_site_label
 _atom_site_symmetry_multiplicity
 _atom_site_fract_x
 _atom_site_fract_y
 _atom_site_fract_z
 _atom_site_occupancy
  Hf  Hf0  1  0.250000  0.876660  0.018197  1
  Sc  Sc1  1  0.250000  0.623004  0.518573  1
  Sc  Sc2  1  0.750000  0.125025  0.982104  1
  Sc  Sc3  1  0.750000  0.376943  0.481567  1
  Sc  Sc4  1  0.250000  0.921485  0.605249  1
  Sc  Sc5  1  0.250000  0.579356  0.105250  1
  Sc  Sc6  1  0.750000  0.078279  0.393428  1
  Sc  Sc7  1  0.750000  0.421718  0.895027  1
  Sc  Sc8  1  0.250000  0.658657  0.798116  1
  Sc  Sc9  1  0.250000  0.839879  0.299119  1
  Sc  Sc10  1  0.750000  0.340788  0.202231  1
  Sc  Sc11  1  0.750000  0.158830  0.701946  1
  Si  Si12  1  0.250000  0.016168  0.822617  1
  Si  Si13  1  0.250000  0.484919  0.321948  1
  Si  Si14  1  0.750000  0.983346  0.175793  1
  Si  Si15  1  0.750000  0.515499  0.677989  1
  Si  Si16  1  0.250000  0.252566  0.841859  1
  Si  Si17  1  0.250000  0.247144  0.341284  1
  Si  Si18  1  0.750000  0.748657  0.157901  1
  Si  Si19  1  0.750000  0.752822  0.658755  1
  Si  Si20  1  0.250000  0.194244  0.545941  1
  Si  Si21  1  0.250000  0.306641  0.046531  1
  Si  Si22  1  0.750000  0.805004  0.454409  1
  Si  Si23  1  0.750000  0.694111  0.954439  1
  Os  Os24  1  0.250000  0.391267  0.676006  1
  Os  Os25  1  0.250000  0.106937  0.173600  1
  Os  Os26  1  0.750000  0.609117  0.323267  1
  Os  Os27  1  0.750000  0.890937  0.826860  1
