# generated using pymatgen
data_Ta12Tc11B12Os
_symmetry_space_group_name_H-M   'P 1'
_cell_length_a   3.17218200
_cell_length_b   9.05701624
_cell_length_c   15.70919405
_cell_angle_alpha   89.88628524
_cell_angle_beta   90.00000000
_cell_angle_gamma   90.00000000
_symmetry_Int_Tables_number   1
_chemical_formula_structural   Ta12Tc11B12Os
_chemical_formula_sum   'Ta12 Tc11 B12 Os1'
_cell_volume   451.33217180
_cell_formula_units_Z   1
loop_
 _symmetry_equiv_pos_site_id
 _symmetry_equiv_pos_as_xyz
  1  'x, y, z'
loop_
 _atom_site_type_symbol
 _atom_site_label
 _atom_site_symmetry_multiplicity
 _atom_site_fract_x
 _atom_site_fract_y
 _atom_site_fract_z
 _atom_site_occupancy
  Ta  Ta0  1  0.000000  0.805878  0.493783  1
  Ta  Ta1  1  0.000000  0.194474  0.506585  1
  Ta  Ta2  1  0.000000  0.305610  0.006567  1
  Ta  Ta3  1  0.000000  0.694215  0.993337  1
  Ta  Ta4  1  0.000000  0.517034  0.595389  1
  Ta  Ta5  1  0.000000  0.483706  0.404391  1
  Ta  Ta6  1  0.000000  0.017029  0.904161  1
  Ta  Ta7  1  0.000000  0.983249  0.094969  1
  Ta  Ta8  1  0.000000  0.678188  0.207273  1
  Ta  Ta9  1  0.000000  0.320088  0.792536  1
  Ta  Ta10  1  0.000000  0.182332  0.293087  1
  Ta  Ta11  1  0.000000  0.819981  0.707595  1
  Tc  Tc12  1  0.500000  0.718059  0.358117  1
  Tc  Tc13  1  0.500000  0.282850  0.641920  1
  Tc  Tc14  1  0.500000  0.216131  0.142075  1
  Tc  Tc15  1  0.500000  0.782512  0.858162  1
  Tc  Tc16  1  0.500000  0.518854  0.095387  1
  Tc  Tc17  1  0.500000  0.481313  0.905869  1
  Tc  Tc18  1  0.500000  0.019010  0.404256  1
  Tc  Tc19  1  0.500000  0.981148  0.594186  1
  Tc  Tc20  1  0.500000  0.567294  0.732455  1
  Tc  Tc21  1  0.500000  0.432171  0.267584  1
  Tc  Tc22  1  0.500000  0.068171  0.767393  1
  B  B23  1  0.500000  0.604542  0.493859  1
  B  B24  1  0.500000  0.395645  0.506065  1
  B  B25  1  0.500000  0.104506  0.005571  1
  B  B26  1  0.500000  0.895695  0.994076  1
  B  B27  1  0.000000  0.609032  0.832457  1
  B  B28  1  0.000000  0.390150  0.167155  1
  B  B29  1  0.000000  0.108900  0.666982  1
  B  B30  1  0.000000  0.890401  0.334045  1
  B  B31  1  0.500000  0.717646  0.603021  1
  B  B32  1  0.500000  0.283289  0.397293  1
  B  B33  1  0.500000  0.217221  0.897622  1
  B  B34  1  0.500000  0.781919  0.102495  1
  Os  Os35  1  0.500000  0.931756  0.232282  1
