# generated using pymatgen
data_Cd2GaRh3O8
_symmetry_space_group_name_H-M   'P 1'
_cell_length_a   6.23998517
_cell_length_b   6.23998648
_cell_length_c   6.23998659
_cell_angle_alpha   60.91426017
_cell_angle_beta   60.91425005
_cell_angle_gamma   60.91426389
_symmetry_Int_Tables_number   1
_chemical_formula_structural   Cd2GaRh3O8
_chemical_formula_sum   'Cd2 Ga1 Rh3 O8'
_cell_volume   175.34514875
_cell_formula_units_Z   1
loop_
 _symmetry_equiv_pos_site_id
 _symmetry_equiv_pos_as_xyz
  1  'x, y, z'
loop_
 _atom_site_type_symbol
 _atom_site_label
 _atom_site_symmetry_multiplicity
 _atom_site_fract_x
 _atom_site_fract_y
 _atom_site_fract_z
 _atom_site_occupancy
  Cd  Cd0  1  0.747559  0.747559  0.747559  1
  Cd  Cd1  1  0.502441  0.502441  0.502441  1
  Ga  Ga2  1  0.125000  0.125000  0.125000  1
  Rh  Rh3  1  0.625000  0.125000  0.125000  1
  Rh  Rh4  1  0.125000  0.125000  0.625000  1
  Rh  Rh5  1  0.125000  0.625000  0.125000  1
  O  O6  1  0.896973  0.320468  0.896973  1
  O  O7  1  0.353027  0.353027  0.929532  1
  O  O8  1  0.356075  0.356075  0.356075  1
  O  O9  1  0.929532  0.353027  0.353027  1
  O  O10  1  0.893925  0.893925  0.893925  1
  O  O11  1  0.320468  0.896973  0.896973  1
  O  O12  1  0.353027  0.929532  0.353027  1
  O  O13  1  0.896973  0.896973  0.320468  1
