# generated using pymatgen
data_VGa9SnPb3O20
_symmetry_space_group_name_H-M   'P 1'
_cell_length_a   9.93862732
_cell_length_b   9.93862734
_cell_length_c   5.29114887
_cell_angle_alpha   74.75496376
_cell_angle_beta   74.75495640
_cell_angle_gamma   74.19286683
_symmetry_Int_Tables_number   1
_chemical_formula_structural   VGa9SnPb3O20
_chemical_formula_sum   'V1 Ga9 Sn1 Pb3 O20'
_cell_volume   474.76431560
_cell_formula_units_Z   1
loop_
 _symmetry_equiv_pos_site_id
 _symmetry_equiv_pos_as_xyz
  1  'x, y, z'
loop_
 _atom_site_type_symbol
 _atom_site_label
 _atom_site_symmetry_multiplicity
 _atom_site_fract_x
 _atom_site_fract_y
 _atom_site_fract_z
 _atom_site_occupancy
  V  V0  1  0.636161  0.363839  0.500000  1
  Ga  Ga1  1  0.360519  0.639481  0.500000  1
  Ga  Ga2  1  0.279119  0.007062  0.373285  1
  Ga  Ga3  1  0.992938  0.720881  0.626715  1
  Ga  Ga4  1  0.721284  0.990857  0.627777  1
  Ga  Ga5  1  0.009143  0.278716  0.372223  1
  Ga  Ga6  1  0.581263  0.141439  0.110014  1
  Ga  Ga7  1  0.858561  0.418737  0.889986  1
  Ga  Ga8  1  0.418134  0.856422  0.889816  1
  Ga  Ga9  1  0.143578  0.581866  0.110184  1
  Sn  Sn10  1  0.499074  0.500926  0.000000  1
  Pb  Pb11  1  0.999941  0.000059  0.000000  1
  Pb  Pb12  1  0.725052  0.725609  0.207916  1
  Pb  Pb13  1  0.274391  0.274948  0.792084  1
  O  O14  1  0.566815  0.569471  0.271716  1
  O  O15  1  0.430529  0.433185  0.728284  1
  O  O16  1  0.098894  0.098150  0.301160  1
  O  O17  1  0.901850  0.901106  0.698840  1
  O  O18  1  0.397339  0.121522  0.132294  1
  O  O19  1  0.878478  0.602661  0.867706  1
  O  O20  1  0.601904  0.876886  0.868091  1
  O  O21  1  0.123114  0.398096  0.131909  1
  O  O22  1  0.335701  0.831013  0.261634  1
  O  O23  1  0.168987  0.664299  0.738366  1
  O  O24  1  0.663261  0.166163  0.739342  1
  O  O25  1  0.833837  0.336739  0.260658  1
  O  O26  1  0.994916  0.279080  0.728823  1
  O  O27  1  0.720920  0.005084  0.271177  1
  O  O28  1  0.006006  0.720525  0.270535  1
  O  O29  1  0.279475  0.993994  0.729465  1
  O  O30  1  0.697512  0.450929  0.748553  1
  O  O31  1  0.549071  0.302488  0.251447  1
  O  O32  1  0.302979  0.550744  0.258625  1
  O  O33  1  0.449256  0.697021  0.741375  1
