# generated using pymatgen
data_Tm12ZnIn2Co2Si
_symmetry_space_group_name_H-M   'P 1'
_cell_length_a   8.36884314
_cell_length_b   8.36884232
_cell_length_c   8.36884379
_cell_angle_alpha   112.81276638
_cell_angle_beta   111.18699551
_cell_angle_gamma   104.52876940
_symmetry_Int_Tables_number   1
_chemical_formula_structural   Tm12ZnIn2Co2Si
_chemical_formula_sum   'Tm12 Zn1 In2 Co2 Si1'
_cell_volume   448.61701324
_cell_formula_units_Z   1
loop_
 _symmetry_equiv_pos_site_id
 _symmetry_equiv_pos_as_xyz
  1  'x, y, z'
loop_
 _atom_site_type_symbol
 _atom_site_label
 _atom_site_symmetry_multiplicity
 _atom_site_fract_x
 _atom_site_fract_y
 _atom_site_fract_z
 _atom_site_occupancy
  Tm  Tm0  1  0.444691  0.243154  0.201537  1
  Tm  Tm1  1  0.555441  0.756872  0.798569  1
  Tm  Tm2  1  0.041697  0.243128  0.798569  1
  Tm  Tm3  1  0.958383  0.756846  0.201537  1
  Tm  Tm4  1  0.184696  0.290305  0.475001  1
  Tm  Tm5  1  0.813114  0.710381  0.523494  1
  Tm  Tm6  1  0.184696  0.709695  0.894390  1
  Tm  Tm7  1  0.813114  0.289619  0.102733  1
  Tm  Tm8  1  0.304688  0.612921  0.309641  1
  Tm  Tm9  1  0.696720  0.387079  0.691767  1
  Tm  Tm10  1  0.304688  0.995047  0.691767  1
  Tm  Tm11  1  0.696720  0.004953  0.309641  1
  Zn  Zn12  1  0.356504  0.000000  0.356504  1
  In  In13  1  0.500459  0.500000  0.000459  1
  In  In14  1  0.001000  0.000000  0.001000  1
  Co  Co15  1  0.108646  0.609388  0.499258  1
  Co  Co16  1  0.889870  0.390612  0.499258  1
  Si  Si17  1  0.644873  0.000000  0.644873  1
