# generated using pymatgen
data_YLu3Pt4F28
_symmetry_space_group_name_H-M   'P 1'
_cell_length_a   5.48742467
_cell_length_b   8.78128573
_cell_length_c   11.88609852
_cell_angle_alpha   62.61150408
_cell_angle_beta   89.91862079
_cell_angle_gamma   89.99595629
_symmetry_Int_Tables_number   1
_chemical_formula_structural   YLu3Pt4F28
_chemical_formula_sum   'Y1 Lu3 Pt4 F28'
_cell_volume   508.54961512
_cell_formula_units_Z   1
loop_
 _symmetry_equiv_pos_site_id
 _symmetry_equiv_pos_as_xyz
  1  'x, y, z'
loop_
 _atom_site_type_symbol
 _atom_site_label
 _atom_site_symmetry_multiplicity
 _atom_site_fract_x
 _atom_site_fract_y
 _atom_site_fract_z
 _atom_site_occupancy
  Y  Y0  1  0.261007  0.816481  0.264109  1
  Lu  Lu1  1  0.738681  0.183624  0.736474  1
  Lu  Lu2  1  0.762522  0.187181  0.236032  1
  Lu  Lu3  1  0.238851  0.816585  0.763776  1
  Pt  Pt4  1  0.758209  0.726542  0.040925  1
  Pt  Pt5  1  0.239284  0.274382  0.955418  1
  Pt  Pt6  1  0.259913  0.269870  0.458219  1
  Pt  Pt7  1  0.740456  0.726962  0.545518  1
  F  F8  1  0.935793  0.702597  0.416184  1
  F  F9  1  0.060178  0.295606  0.585752  1
  F  F10  1  0.438916  0.297734  0.083957  1
  F  F11  1  0.561086  0.702803  0.912010  1
  F  F12  1  0.462143  0.723728  0.134295  1
  F  F13  1  0.533085  0.274143  0.860377  1
  F  F14  1  0.965568  0.273753  0.362509  1
  F  F15  1  0.035787  0.726678  0.639360  1
  F  F16  1  0.946353  0.743171  0.175755  1
  F  F17  1  0.044495  0.255309  0.822772  1
  F  F18  1  0.455367  0.252922  0.324615  1
  F  F19  1  0.547625  0.745536  0.678682  1
  F  F20  1  0.772939  0.475029  0.141802  1
  F  F21  1  0.225620  0.525938  0.856105  1
  F  F22  1  0.275561  0.520786  0.358256  1
  F  F23  1  0.727769  0.474726  0.644427  1
  F  F24  1  0.937234  0.279477  0.044447  1
  F  F25  1  0.063787  0.722386  0.953847  1
  F  F26  1  0.438083  0.719394  0.459423  1
  F  F27  1  0.562327  0.276312  0.546276  1
  F  F28  1  0.742185  0.978461  0.449539  1
  F  F29  1  0.256968  0.018535  0.553113  1
  F  F30  1  0.242695  0.023159  0.049207  1
  F  F31  1  0.755237  0.978272  0.947062  1
  F  F32  1  0.591929  0.974724  0.231643  1
  F  F33  1  0.419439  0.028100  0.766996  1
  F  F34  1  0.083049  0.036605  0.268000  1
  F  F35  1  0.919858  0.972488  0.733120  1
