# generated using pymatgen
data_Li2Nd6Ir13Rh3
_symmetry_space_group_name_H-M   'P 1'
_cell_length_a   5.37148600
_cell_length_b   5.37148435
_cell_length_c   17.44891600
_cell_angle_alpha   90.00000000
_cell_angle_beta   90.00000000
_cell_angle_gamma   119.99999787
_symmetry_Int_Tables_number   1
_chemical_formula_structural   Li2Nd6Ir13Rh3
_chemical_formula_sum   'Li2 Nd6 Ir13 Rh3'
_cell_volume   436.00137165
_cell_formula_units_Z   1
loop_
 _symmetry_equiv_pos_site_id
 _symmetry_equiv_pos_as_xyz
  1  'x, y, z'
loop_
 _atom_site_type_symbol
 _atom_site_label
 _atom_site_symmetry_multiplicity
 _atom_site_fract_x
 _atom_site_fract_y
 _atom_site_fract_z
 _atom_site_occupancy
  Li  Li0  1  0.000000  0.000000  0.249905  1
  Li  Li1  1  0.000000  0.000000  0.750095  1
  Nd  Nd2  1  0.333333  0.666667  0.538442  1
  Nd  Nd3  1  0.666667  0.333333  0.038204  1
  Nd  Nd4  1  0.666667  0.333333  0.461558  1
  Nd  Nd5  1  0.333333  0.666667  0.961796  1
  Nd  Nd6  1  0.333333  0.666667  0.750185  1
  Nd  Nd7  1  0.666667  0.333333  0.249815  1
  Ir  Ir8  1  0.166644  0.333288  0.127108  1
  Ir  Ir9  1  0.833665  0.667331  0.627558  1
  Ir  Ir10  1  0.666712  0.833356  0.127108  1
  Ir  Ir11  1  0.166644  0.833356  0.127108  1
  Ir  Ir12  1  0.833665  0.166335  0.627558  1
  Ir  Ir13  1  0.332669  0.166335  0.627558  1
  Ir  Ir14  1  0.833356  0.666712  0.872892  1
  Ir  Ir15  1  0.833356  0.166644  0.872892  1
  Ir  Ir16  1  0.333288  0.166644  0.872892  1
  Ir  Ir17  1  0.667331  0.833665  0.372442  1
  Ir  Ir18  1  0.166335  0.833665  0.372442  1
  Ir  Ir19  1  0.166335  0.332669  0.372442  1
  Ir  Ir20  1  0.000000  0.000000  0.000000  1
  Rh  Rh21  1  0.333333  0.666667  0.250056  1
  Rh  Rh22  1  0.666667  0.333333  0.749944  1
  Rh  Rh23  1  0.000000  0.000000  0.500000  1
