# generated using pymatgen
data_Tb3Dy2Ir2Rh
_symmetry_space_group_name_H-M   'P 1'
_cell_length_a   10.91495400
_cell_length_b   10.91586200
_cell_length_c   6.40910900
_cell_angle_alpha   90.00000000
_cell_angle_beta   90.00000000
_cell_angle_gamma   90.00000000
_symmetry_Int_Tables_number   1
_chemical_formula_structural   Tb3Dy2Ir2Rh
_chemical_formula_sum   'Tb12 Dy8 Ir8 Rh4'
_cell_volume   763.62054435
_cell_formula_units_Z   4
loop_
 _symmetry_equiv_pos_site_id
 _symmetry_equiv_pos_as_xyz
  1  'x, y, z'
loop_
 _atom_site_type_symbol
 _atom_site_label
 _atom_site_symmetry_multiplicity
 _atom_site_fract_x
 _atom_site_fract_y
 _atom_site_fract_z
 _atom_site_occupancy
  Tb  Tb0  1  0.290273  0.089237  0.379552  1
  Tb  Tb1  1  0.290273  0.910763  0.879552  1
  Tb  Tb2  1  0.709727  0.089237  0.879552  1
  Tb  Tb3  1  0.709727  0.910763  0.379552  1
  Tb  Tb4  1  0.589199  0.790395  0.879790  1
  Tb  Tb5  1  0.589199  0.209605  0.379790  1
  Tb  Tb6  1  0.410801  0.790395  0.379790  1
  Tb  Tb7  1  0.410801  0.209605  0.879790  1
  Tb  Tb8  1  0.209401  0.410898  0.620321  1
  Tb  Tb9  1  0.209401  0.589102  0.120321  1
  Tb  Tb10  1  0.790599  0.410898  0.120321  1
  Tb  Tb11  1  0.790599  0.589102  0.620321  1
  Dy  Dy12  1  0.910984  0.709473  0.120012  1
  Dy  Dy13  1  0.910984  0.290527  0.620012  1
  Dy  Dy14  1  0.089016  0.709473  0.620012  1
  Dy  Dy15  1  0.089016  0.290527  0.120012  1
  Dy  Dy16  1  0.000000  0.000000  0.500171  1
  Dy  Dy17  1  0.000000  0.000000  0.000171  1
  Dy  Dy18  1  0.500000  0.500000  0.000048  1
  Dy  Dy19  1  0.500000  0.500000  0.500048  1
  Ir  Ir20  1  0.846682  0.153807  0.250339  1
  Ir  Ir21  1  0.846682  0.846193  0.750339  1
  Ir  Ir22  1  0.153318  0.153807  0.750339  1
  Ir  Ir23  1  0.153318  0.846193  0.250339  1
  Ir  Ir24  1  0.653826  0.346335  0.749887  1
  Ir  Ir25  1  0.653826  0.653665  0.249887  1
  Ir  Ir26  1  0.346174  0.346335  0.249887  1
  Ir  Ir27  1  0.346174  0.653665  0.749887  1
  Rh  Rh28  1  0.500000  0.000000  0.124222  1
  Rh  Rh29  1  0.500000  0.000000  0.624222  1
  Rh  Rh30  1  0.000000  0.500000  0.875756  1
  Rh  Rh31  1  0.000000  0.500000  0.375756  1
