# generated using pymatgen
data_HfZr3P4IrRh3
_symmetry_space_group_name_H-M   'P 1'
_cell_length_a   3.82131800
_cell_length_b   6.53858707
_cell_length_c   7.45237186
_cell_angle_alpha   90.15850933
_cell_angle_beta   90.00000000
_cell_angle_gamma   90.00000000
_symmetry_Int_Tables_number   1
_chemical_formula_structural   HfZr3P4IrRh3
_chemical_formula_sum   'Hf1 Zr3 P4 Ir1 Rh3'
_cell_volume   186.20440335
_cell_formula_units_Z   1
loop_
 _symmetry_equiv_pos_site_id
 _symmetry_equiv_pos_as_xyz
  1  'x, y, z'
loop_
 _atom_site_type_symbol
 _atom_site_label
 _atom_site_symmetry_multiplicity
 _atom_site_fract_x
 _atom_site_fract_y
 _atom_site_fract_z
 _atom_site_occupancy
  Hf  Hf0  1  0.750000  0.973006  0.180154  1
  Zr  Zr1  1  0.250000  0.025894  0.820594  1
  Zr  Zr2  1  0.250000  0.528104  0.678893  1
  Zr  Zr3  1  0.750000  0.472834  0.321535  1
  P  P4  1  0.250000  0.762603  0.375884  1
  P  P5  1  0.250000  0.258263  0.122449  1
  P  P6  1  0.750000  0.239776  0.623730  1
  P  P7  1  0.750000  0.739725  0.878040  1
  Ir  Ir8  1  0.250000  0.144201  0.435503  1
  Rh  Rh9  1  0.250000  0.646197  0.063621  1
  Rh  Rh10  1  0.750000  0.856192  0.560724  1
  Rh  Rh11  1  0.750000  0.353202  0.938872  1
