# generated using pymatgen
data_PrNdCBr
_symmetry_space_group_name_H-M   'P 1'
_cell_length_a   3.83298600
_cell_length_b   3.83298492
_cell_length_c   14.99151800
_cell_angle_alpha   90.00000000
_cell_angle_beta   90.00000000
_cell_angle_gamma   120.00000933
_symmetry_Int_Tables_number   1
_chemical_formula_structural   PrNdCBr
_chemical_formula_sum   'Pr2 Nd2 C2 Br2'
_cell_volume   190.74385029
_cell_formula_units_Z   2
loop_
 _symmetry_equiv_pos_site_id
 _symmetry_equiv_pos_as_xyz
  1  'x, y, z'
loop_
 _atom_site_type_symbol
 _atom_site_label
 _atom_site_symmetry_multiplicity
 _atom_site_fract_x
 _atom_site_fract_y
 _atom_site_fract_z
 _atom_site_occupancy
  Pr  Pr0  1  0.666667  0.333333  0.908022  1
  Pr  Pr1  1  0.333333  0.666667  0.408022  1
  Nd  Nd2  1  0.333333  0.666667  0.091590  1
  Nd  Nd3  1  0.666667  0.333333  0.591590  1
  C  C4  1  0.000000  0.000000  0.001269  1
  C  C5  1  0.000000  0.000000  0.501269  1
  Br  Br6  1  0.666667  0.333333  0.249119  1
  Br  Br7  1  0.333333  0.666667  0.749119  1
