# generated using pymatgen
data_Pa2TaReC4
_symmetry_space_group_name_H-M   'P 1'
_cell_length_a   3.34650500
_cell_length_b   5.75974800
_cell_length_c   11.07124500
_cell_angle_alpha   90.00000000
_cell_angle_beta   90.00000000
_cell_angle_gamma   90.00000000
_symmetry_Int_Tables_number   1
_chemical_formula_structural   Pa2TaReC4
_chemical_formula_sum   'Pa4 Ta2 Re2 C8'
_cell_volume   213.39852948
_cell_formula_units_Z   2
loop_
 _symmetry_equiv_pos_site_id
 _symmetry_equiv_pos_as_xyz
  1  'x, y, z'
loop_
 _atom_site_type_symbol
 _atom_site_label
 _atom_site_symmetry_multiplicity
 _atom_site_fract_x
 _atom_site_fract_y
 _atom_site_fract_z
 _atom_site_occupancy
  Pa  Pa0  1  0.250000  0.081981  0.856180  1
  Pa  Pa1  1  0.250000  0.581981  0.643820  1
  Pa  Pa2  1  0.750000  0.918989  0.139605  1
  Pa  Pa3  1  0.750000  0.418989  0.360395  1
  Ta  Ta4  1  0.250000  0.418468  0.098239  1
  Ta  Ta5  1  0.250000  0.918468  0.401761  1
  Re  Re6  1  0.750000  0.581085  0.895453  1
  Re  Re7  1  0.750000  0.081085  0.604547  1
  C  C8  1  0.250000  0.163908  0.245082  1
  C  C9  1  0.250000  0.663908  0.254918  1
  C  C10  1  0.750000  0.839617  0.751024  1
  C  C11  1  0.750000  0.339617  0.748976  1
  C  C12  1  0.250000  0.741699  0.986181  1
  C  C13  1  0.250000  0.241699  0.513819  1
  C  C14  1  0.750000  0.254253  0.004480  1
  C  C15  1  0.750000  0.754253  0.495520  1
