# generated using pymatgen
data_Sm2FeIr3
_symmetry_space_group_name_H-M   'P 1'
_cell_length_a   5.51984475
_cell_length_b   5.22768727
_cell_length_c   5.51984500
_cell_angle_alpha   58.13340913
_cell_angle_beta   60.00000452
_cell_angle_gamma   58.13340751
_symmetry_Int_Tables_number   1
_chemical_formula_structural   Sm2FeIr3
_chemical_formula_sum   'Sm2 Fe1 Ir3'
_cell_volume   109.34552151
_cell_formula_units_Z   1
loop_
 _symmetry_equiv_pos_site_id
 _symmetry_equiv_pos_as_xyz
  1  'x, y, z'
loop_
 _atom_site_type_symbol
 _atom_site_label
 _atom_site_symmetry_multiplicity
 _atom_site_fract_x
 _atom_site_fract_y
 _atom_site_fract_z
 _atom_site_occupancy
  Sm  Sm0  1  0.874110  0.877670  0.874110  1
  Sm  Sm1  1  0.125890  0.122330  0.125890  1
  Fe  Fe2  1  0.500000  0.000000  0.500000  1
  Ir  Ir3  1  0.500000  0.500000  0.500000  1
  Ir  Ir4  1  0.500000  0.500000  0.000000  1
  Ir  Ir5  1  0.000000  0.500000  0.500000  1
