# generated using pymatgen
data_Na10TaAlP6
_symmetry_space_group_name_H-M   'P 1'
_cell_length_a   7.35354400
_cell_length_b   8.12413018
_cell_length_c   15.45677394
_cell_angle_alpha   59.11479660
_cell_angle_beta   90.00000000
_cell_angle_gamma   90.00000000
_symmetry_Int_Tables_number   1
_chemical_formula_structural   Na10TaAlP6
_chemical_formula_sum   'Na20 Ta2 Al2 P12'
_cell_volume   792.46423093
_cell_formula_units_Z   2
loop_
 _symmetry_equiv_pos_site_id
 _symmetry_equiv_pos_as_xyz
  1  'x, y, z'
loop_
 _atom_site_type_symbol
 _atom_site_label
 _atom_site_symmetry_multiplicity
 _atom_site_fract_x
 _atom_site_fract_y
 _atom_site_fract_z
 _atom_site_occupancy
  Na  Na0  1  0.738441  0.941349  0.245798  1
  Na  Na1  1  0.261559  0.941349  0.745798  1
  Na  Na2  1  0.772890  0.055277  0.760930  1
  Na  Na3  1  0.227110  0.055277  0.260930  1
  Na  Na4  1  0.265950  0.245662  0.418716  1
  Na  Na5  1  0.734050  0.245662  0.918716  1
  Na  Na6  1  0.217269  0.751586  0.579382  1
  Na  Na7  1  0.782731  0.751586  0.079382  1
  Na  Na8  1  0.087545  0.345313  0.583033  1
  Na  Na9  1  0.912455  0.345313  0.083033  1
  Na  Na10  1  0.405072  0.656659  0.418594  1
  Na  Na11  1  0.594928  0.656659  0.918594  1
  Na  Na12  1  0.596502  0.335715  0.243031  1
  Na  Na13  1  0.403498  0.335715  0.743031  1
  Na  Na14  1  0.908738  0.663230  0.760186  1
  Na  Na15  1  0.091262  0.663230  0.260186  1
  Na  Na16  1  0.771496  0.424130  0.407486  1
  Na  Na17  1  0.228504  0.424130  0.907486  1
  Na  Na18  1  0.742039  0.577991  0.589689  1
  Na  Na19  1  0.257961  0.577991  0.089689  1
  Ta  Ta20  1  0.616095  0.989810  0.578430  1
  Ta  Ta21  1  0.383905  0.989810  0.078430  1
  Al  Al22  1  0.888847  0.012426  0.415946  1
  Al  Al23  1  0.111153  0.012426  0.915946  1
  P  P24  1  0.979931  0.312789  0.274164  1
  P  P25  1  0.020069  0.312789  0.774164  1
  P  P26  1  0.520066  0.694229  0.724167  1
  P  P27  1  0.479934  0.694229  0.224167  1
  P  P28  1  0.943660  0.018972  0.571765  1
  P  P29  1  0.056340  0.018972  0.071765  1
  P  P30  1  0.547903  0.980007  0.428706  1
  P  P31  1  0.452097  0.980007  0.928706  1
  P  P32  1  0.002766  0.729848  0.421370  1
  P  P33  1  0.997234  0.729848  0.921370  1
  P  P34  1  0.491661  0.265006  0.578606  1
  P  P35  1  0.508339  0.265006  0.078606  1
