# generated using pymatgen
data_DyAg(Te3O8)2
_symmetry_space_group_name_H-M   'P 1'
_cell_length_a   6.95283738
_cell_length_b   6.95283798
_cell_length_c   10.29121871
_cell_angle_alpha   66.02310937
_cell_angle_beta   66.02310884
_cell_angle_gamma   48.96950004
_symmetry_Int_Tables_number   1
_chemical_formula_structural   DyAg(Te3O8)2
_chemical_formula_sum   'Dy1 Ag1 Te6 O16'
_cell_volume   335.80114597
_cell_formula_units_Z   1
loop_
 _symmetry_equiv_pos_site_id
 _symmetry_equiv_pos_as_xyz
  1  'x, y, z'
loop_
 _atom_site_type_symbol
 _atom_site_label
 _atom_site_symmetry_multiplicity
 _atom_site_fract_x
 _atom_site_fract_y
 _atom_site_fract_z
 _atom_site_occupancy
  Dy  Dy0  1  0.569279  0.430721  0.250000  1
  Ag  Ag1  1  0.435986  0.564014  0.750000  1
  Te  Te2  1  0.697046  0.873183  0.856803  1
  Te  Te3  1  0.878009  0.687727  0.357929  1
  Te  Te4  1  0.995866  0.991985  0.503253  1
  Te  Te5  1  0.008015  0.004134  0.996747  1
  Te  Te6  1  0.126817  0.302954  0.643197  1
  Te  Te7  1  0.312273  0.121991  0.142071  1
  O  O8  1  0.980261  0.816576  0.913456  1
  O  O9  1  0.792317  0.993355  0.403104  1
  O  O10  1  0.348925  0.881698  0.876711  1
  O  O11  1  0.796855  0.570838  0.579588  1
  O  O12  1  0.868358  0.315576  0.838817  1
  O  O13  1  0.849442  0.335960  0.377020  1
  O  O14  1  0.578718  0.774097  0.100626  1
  O  O15  1  0.297112  0.847181  0.343579  1
  O  O16  1  0.684424  0.131642  0.661183  1
  O  O17  1  0.429162  0.203145  0.920412  1
  O  O18  1  0.118302  0.651075  0.623289  1
  O  O19  1  0.152819  0.702888  0.156421  1
  O  O20  1  0.225903  0.421282  0.399374  1
  O  O21  1  0.664040  0.150558  0.122980  1
  O  O22  1  0.183424  0.019739  0.586544  1
  O  O23  1  0.006645  0.207683  0.096896  1
