# generated using pymatgen
data_Ca6Zn17Pt6Se
_symmetry_space_group_name_H-M   'P 1'
_cell_length_a   9.04975412
_cell_length_b   9.04975385
_cell_length_c   9.04975500
_cell_angle_alpha   59.99999945
_cell_angle_beta   60.00000044
_cell_angle_gamma   59.99999931
_symmetry_Int_Tables_number   1
_chemical_formula_structural   Ca6Zn17Pt6Se
_chemical_formula_sum   'Ca6 Zn17 Pt6 Se1'
_cell_volume   524.07732275
_cell_formula_units_Z   1
loop_
 _symmetry_equiv_pos_site_id
 _symmetry_equiv_pos_as_xyz
  1  'x, y, z'
loop_
 _atom_site_type_symbol
 _atom_site_label
 _atom_site_symmetry_multiplicity
 _atom_site_fract_x
 _atom_site_fract_y
 _atom_site_fract_z
 _atom_site_occupancy
  Ca  Ca0  1  0.721298  0.278702  0.278702  1
  Ca  Ca1  1  0.278702  0.721298  0.721298  1
  Ca  Ca2  1  0.278702  0.721298  0.278702  1
  Ca  Ca3  1  0.721298  0.278702  0.721298  1
  Ca  Ca4  1  0.278702  0.278702  0.721298  1
  Ca  Ca5  1  0.721298  0.721298  0.278702  1
  Zn  Zn6  1  0.124921  0.124921  0.124921  1
  Zn  Zn7  1  0.875079  0.875079  0.875079  1
  Zn  Zn8  1  0.124921  0.124921  0.625237  1
  Zn  Zn9  1  0.124921  0.625237  0.124921  1
  Zn  Zn10  1  0.875079  0.875079  0.374763  1
  Zn  Zn11  1  0.875079  0.374763  0.875079  1
  Zn  Zn12  1  0.625237  0.124921  0.124921  1
  Zn  Zn13  1  0.374763  0.875079  0.875079  1
  Zn  Zn14  1  0.329871  0.329871  0.329871  1
  Zn  Zn15  1  0.670129  0.670129  0.670129  1
  Zn  Zn16  1  0.329871  0.329871  0.010389  1
  Zn  Zn17  1  0.329871  0.010389  0.329871  1
  Zn  Zn18  1  0.670129  0.670129  0.989611  1
  Zn  Zn19  1  0.670129  0.989611  0.670129  1
  Zn  Zn20  1  0.010389  0.329871  0.329871  1
  Zn  Zn21  1  0.989611  0.670129  0.670129  1
  Zn  Zn22  1  0.000000  0.000000  0.000000  1
  Pt  Pt23  1  0.500000  0.000000  0.000000  1
  Pt  Pt24  1  0.000000  0.500000  0.500000  1
  Pt  Pt25  1  0.000000  0.500000  0.000000  1
  Pt  Pt26  1  0.500000  0.000000  0.500000  1
  Pt  Pt27  1  0.000000  0.000000  0.500000  1
  Pt  Pt28  1  0.500000  0.500000  0.000000  1
  Se  Se29  1  0.500000  0.500000  0.500000  1
