# generated using pymatgen
data_Pr5Zn2Ru2Rh
_symmetry_space_group_name_H-M   'P 1'
_cell_length_a   8.57202948
_cell_length_b   8.57202922
_cell_length_c   8.57202900
_cell_angle_alpha   109.64456776
_cell_angle_beta   109.33220743
_cell_angle_gamma   109.43704106
_symmetry_Int_Tables_number   1
_chemical_formula_structural   Pr5Zn2Ru2Rh
_chemical_formula_sum   'Pr10 Zn4 Ru4 Rh2'
_cell_volume   484.87043543
_cell_formula_units_Z   2
loop_
 _symmetry_equiv_pos_site_id
 _symmetry_equiv_pos_as_xyz
  1  'x, y, z'
loop_
 _atom_site_type_symbol
 _atom_site_label
 _atom_site_symmetry_multiplicity
 _atom_site_fract_x
 _atom_site_fract_y
 _atom_site_fract_z
 _atom_site_occupancy
  Pr  Pr0  1  0.250000  0.685739  0.435739  1
  Pr  Pr1  1  0.750000  0.814261  0.064261  1
  Pr  Pr2  1  0.434354  0.250000  0.684354  1
  Pr  Pr3  1  0.686920  0.436920  0.250000  1
  Pr  Pr4  1  0.065646  0.750000  0.815646  1
  Pr  Pr5  1  0.813080  0.063080  0.750000  1
  Pr  Pr6  1  0.221771  0.223694  0.224035  1
  Pr  Pr7  1  0.499659  0.997735  0.275965  1
  Pr  Pr8  1  0.278229  0.502265  0.001924  1
  Pr  Pr9  1  0.000341  0.276306  0.498076  1
  Zn  Zn10  1  0.589649  0.591882  0.590694  1
  Zn  Zn11  1  0.501188  0.998955  0.909306  1
  Zn  Zn12  1  0.910351  0.501045  0.002232  1
  Zn  Zn13  1  0.998812  0.908118  0.497768  1
  Ru  Ru14  1  0.875822  0.250000  0.125823  1
  Ru  Ru15  1  0.129827  0.879826  0.250000  1
  Ru  Ru16  1  0.624177  0.750000  0.374177  1
  Ru  Ru17  1  0.370173  0.620173  0.750000  1
  Rh  Rh18  1  0.250000  0.126499  0.876499  1
  Rh  Rh19  1  0.750000  0.373501  0.623501  1
