# generated using pymatgen
data_Eu2(SnPd3)3
_symmetry_space_group_name_H-M   'P 1'
_cell_length_a   8.09963200
_cell_length_b   8.09963090
_cell_length_c   9.46320600
_cell_angle_alpha   90.00000000
_cell_angle_beta   90.00000000
_cell_angle_gamma   120.01468384
_symmetry_Int_Tables_number   1
_chemical_formula_structural   Eu2(SnPd3)3
_chemical_formula_sum   'Eu4 Sn6 Pd18'
_cell_volume   537.57017182
_cell_formula_units_Z   2
loop_
 _symmetry_equiv_pos_site_id
 _symmetry_equiv_pos_as_xyz
  1  'x, y, z'
loop_
 _atom_site_type_symbol
 _atom_site_label
 _atom_site_symmetry_multiplicity
 _atom_site_fract_x
 _atom_site_fract_y
 _atom_site_fract_z
 _atom_site_occupancy
  Eu  Eu0  1  0.328662  0.015616  0.750000  1
  Eu  Eu1  1  0.671338  0.984384  0.250000  1
  Eu  Eu2  1  0.015616  0.328662  0.750000  1
  Eu  Eu3  1  0.984384  0.671338  0.250000  1
  Sn  Sn4  1  0.000000  0.000000  0.500000  1
  Sn  Sn5  1  0.678329  0.321671  0.000000  1
  Sn  Sn6  1  0.321671  0.678329  0.500000  1
  Sn  Sn7  1  0.321671  0.678329  0.000000  1
  Sn  Sn8  1  0.000000  0.000000  0.000000  1
  Sn  Sn9  1  0.678329  0.321671  0.500000  1
  Pd  Pd10  1  0.334372  0.334372  0.964453  1
  Pd  Pd11  1  0.451304  0.645599  0.750000  1
  Pd  Pd12  1  0.548696  0.354401  0.250000  1
  Pd  Pd13  1  0.645599  0.451304  0.750000  1
  Pd  Pd14  1  0.005844  0.339876  0.084436  1
  Pd  Pd15  1  0.994156  0.660124  0.584436  1
  Pd  Pd16  1  0.339876  0.005844  0.415564  1
  Pd  Pd17  1  0.660124  0.994156  0.915564  1
  Pd  Pd18  1  0.994156  0.660124  0.915564  1
  Pd  Pd19  1  0.005844  0.339876  0.415564  1
  Pd  Pd20  1  0.660124  0.994156  0.584436  1
  Pd  Pd21  1  0.856260  0.856260  0.750000  1
  Pd  Pd22  1  0.334372  0.334372  0.535547  1
  Pd  Pd23  1  0.665628  0.665628  0.035547  1
  Pd  Pd24  1  0.339876  0.005844  0.084436  1
  Pd  Pd25  1  0.665628  0.665628  0.464453  1
  Pd  Pd26  1  0.143740  0.143740  0.250000  1
  Pd  Pd27  1  0.354401  0.548696  0.250000  1
