# generated using pymatgen
data_Cs3Rb4NbIn3As5
_symmetry_space_group_name_H-M   'P 1'
_cell_length_a   8.77532302
_cell_length_b   9.67788135
_cell_length_c   15.00380519
_cell_angle_alpha   85.04198633
_cell_angle_beta   83.25498940
_cell_angle_gamma   86.53880620
_symmetry_Int_Tables_number   1
_chemical_formula_structural   Cs3Rb4NbIn3As5
_chemical_formula_sum   'Cs6 Rb8 Nb2 In6 As10'
_cell_volume   1259.04188911
_cell_formula_units_Z   2
loop_
 _symmetry_equiv_pos_site_id
 _symmetry_equiv_pos_as_xyz
  1  'x, y, z'
loop_
 _atom_site_type_symbol
 _atom_site_label
 _atom_site_symmetry_multiplicity
 _atom_site_fract_x
 _atom_site_fract_y
 _atom_site_fract_z
 _atom_site_occupancy
  Cs  Cs0  1  0.687552  0.655697  0.394521  1
  Cs  Cs1  1  0.312448  0.344303  0.605479  1
  Cs  Cs2  1  0.755641  0.986231  0.532513  1
  Cs  Cs3  1  0.244359  0.013769  0.467487  1
  Cs  Cs4  1  0.823325  0.365481  0.649262  1
  Cs  Cs5  1  0.176675  0.634519  0.350738  1
  Rb  Rb6  1  0.822429  0.808852  0.128235  1
  Rb  Rb7  1  0.177571  0.191148  0.871765  1
  Rb  Rb8  1  0.275981  0.252784  0.242907  1
  Rb  Rb9  1  0.724019  0.747216  0.757093  1
  Rb  Rb10  1  0.742025  0.498783  0.973689  1
  Rb  Rb11  1  0.257975  0.501217  0.026311  1
  Rb  Rb12  1  0.678473  0.081801  0.888495  1
  Rb  Rb13  1  0.321527  0.918199  0.111505  1
  Nb  Nb14  1  0.651408  0.391462  0.217399  1
  Nb  Nb15  1  0.348592  0.608538  0.782601  1
  In  In16  1  0.907203  0.274364  0.365445  1
  In  In17  1  0.092797  0.725636  0.634555  1
  In  In18  1  0.952351  0.182203  0.123208  1
  In  In19  1  0.047649  0.817797  0.876792  1
  In  In20  1  0.640881  0.043862  0.289649  1
  In  In21  1  0.359119  0.956138  0.710351  1
  As  As22  1  0.493097  0.597990  0.179624  1
  As  As23  1  0.506903  0.402010  0.820376  1
  As  As24  1  0.930169  0.449527  0.200923  1
  As  As25  1  0.069831  0.550473  0.799077  1
  As  As26  1  0.580371  0.294784  0.379536  1
  As  As27  1  0.419629  0.705216  0.620464  1
  As  As28  1  0.629294  0.193310  0.117673  1
  As  As29  1  0.370706  0.806690  0.882327  1
  As  As30  1  0.975477  0.000596  0.291052  1
  As  As31  1  0.024523  0.999404  0.708948  1
