# generated using pymatgen
data_Yb3GaO4F
_symmetry_space_group_name_H-M   'P 1'
_cell_length_a   7.04159607
_cell_length_b   7.04159563
_cell_length_c   7.04159596
_cell_angle_alpha   127.40149877
_cell_angle_beta   127.40149695
_cell_angle_gamma   77.59660302
_symmetry_Int_Tables_number   1
_chemical_formula_structural   Yb3GaO4F
_chemical_formula_sum   'Yb6 Ga2 O8 F2'
_cell_volume   213.66506551
_cell_formula_units_Z   2
loop_
 _symmetry_equiv_pos_site_id
 _symmetry_equiv_pos_as_xyz
  1  'x, y, z'
loop_
 _atom_site_type_symbol
 _atom_site_label
 _atom_site_symmetry_multiplicity
 _atom_site_fract_x
 _atom_site_fract_y
 _atom_site_fract_z
 _atom_site_occupancy
  Yb  Yb0  1  0.837903  0.337903  0.175805  1
  Yb  Yb1  1  0.337903  0.162097  0.500000  1
  Yb  Yb2  1  0.662097  0.837903  0.500000  1
  Yb  Yb3  1  0.162097  0.662097  0.824195  1
  Yb  Yb4  1  0.250000  0.250000  0.000000  1
  Yb  Yb5  1  0.750000  0.750000  0.000000  1
  Ga  Ga6  1  0.750000  0.250000  0.500000  1
  Ga  Ga7  1  0.250000  0.750000  0.500000  1
  O  O8  1  0.481793  0.981793  0.184357  1
  O  O9  1  0.202564  0.702564  0.184357  1
  O  O10  1  0.518207  0.018207  0.815643  1
  O  O11  1  0.018207  0.202564  0.500000  1
  O  O12  1  0.702564  0.518207  0.500000  1
  O  O13  1  0.981793  0.797436  0.500000  1
  O  O14  1  0.297436  0.481793  0.500000  1
  O  O15  1  0.797436  0.297436  0.815643  1
  F  F16  1  0.500000  0.500000  0.000000  1
  F  F17  1  0.000000  0.000000  0.000000  1
