# generated using pymatgen
data_Tm10Ag3Pd
_symmetry_space_group_name_H-M   'P 1'
_cell_length_a   9.43471100
_cell_length_b   9.43471127
_cell_length_c   9.49111700
_cell_angle_alpha   90.00000000
_cell_angle_beta   90.00000000
_cell_angle_gamma   119.99999556
_symmetry_Int_Tables_number   1
_chemical_formula_structural   Tm10Ag3Pd
_chemical_formula_sum   'Tm20 Ag6 Pd2'
_cell_volume   731.65306067
_cell_formula_units_Z   2
loop_
 _symmetry_equiv_pos_site_id
 _symmetry_equiv_pos_as_xyz
  1  'x, y, z'
loop_
 _atom_site_type_symbol
 _atom_site_label
 _atom_site_symmetry_multiplicity
 _atom_site_fract_x
 _atom_site_fract_y
 _atom_site_fract_z
 _atom_site_occupancy
  Tm  Tm0  1  0.000000  0.000000  0.500000  1
  Tm  Tm1  1  0.000000  0.000000  0.000000  1
  Tm  Tm2  1  0.207279  0.792721  0.445883  1
  Tm  Tm3  1  0.207279  0.414557  0.445883  1
  Tm  Tm4  1  0.585443  0.792721  0.445883  1
  Tm  Tm5  1  0.792721  0.207279  0.554117  1
  Tm  Tm6  1  0.792721  0.585443  0.554117  1
  Tm  Tm7  1  0.414557  0.207279  0.554117  1
  Tm  Tm8  1  0.792721  0.207279  0.945883  1
  Tm  Tm9  1  0.792721  0.585443  0.945883  1
  Tm  Tm10  1  0.414557  0.207279  0.945883  1
  Tm  Tm11  1  0.207279  0.792721  0.054117  1
  Tm  Tm12  1  0.207279  0.414557  0.054117  1
  Tm  Tm13  1  0.585443  0.792721  0.054117  1
  Tm  Tm14  1  0.543270  0.456730  0.250000  1
  Tm  Tm15  1  0.543270  0.086540  0.250000  1
  Tm  Tm16  1  0.913460  0.456730  0.250000  1
  Tm  Tm17  1  0.456730  0.543270  0.750000  1
  Tm  Tm18  1  0.456730  0.913460  0.750000  1
  Tm  Tm19  1  0.086540  0.543270  0.750000  1
  Ag  Ag20  1  0.883228  0.116772  0.250000  1
  Ag  Ag21  1  0.883228  0.766459  0.250000  1
  Ag  Ag22  1  0.233541  0.116772  0.250000  1
  Ag  Ag23  1  0.116772  0.883228  0.750000  1
  Ag  Ag24  1  0.116772  0.233541  0.750000  1
  Ag  Ag25  1  0.766459  0.883228  0.750000  1
  Pd  Pd26  1  0.333333  0.666667  0.250000  1
  Pd  Pd27  1  0.666667  0.333333  0.750000  1
