# generated using pymatgen
data_Y3Er17Cd6TcRu
_symmetry_space_group_name_H-M   'P 1'
_cell_length_a   9.51576100
_cell_length_b   9.51576146
_cell_length_c   9.84852300
_cell_angle_alpha   90.00000000
_cell_angle_beta   90.00000000
_cell_angle_gamma   120.00000189
_symmetry_Int_Tables_number   1
_chemical_formula_structural   Y3Er17Cd6TcRu
_chemical_formula_sum   'Y3 Er17 Cd6 Tc1 Ru1'
_cell_volume   772.30491555
_cell_formula_units_Z   1
loop_
 _symmetry_equiv_pos_site_id
 _symmetry_equiv_pos_as_xyz
  1  'x, y, z'
loop_
 _atom_site_type_symbol
 _atom_site_label
 _atom_site_symmetry_multiplicity
 _atom_site_fract_x
 _atom_site_fract_y
 _atom_site_fract_z
 _atom_site_occupancy
  Y  Y0  1  0.539726  0.460274  0.250000  1
  Y  Y1  1  0.539726  0.079451  0.250000  1
  Y  Y2  1  0.920549  0.460274  0.250000  1
  Er  Er3  1  0.000000  0.000000  0.500144  1
  Er  Er4  1  0.000000  0.000000  0.999856  1
  Er  Er5  1  0.209956  0.790044  0.442001  1
  Er  Er6  1  0.209956  0.419911  0.442001  1
  Er  Er7  1  0.580089  0.790044  0.442001  1
  Er  Er8  1  0.789935  0.210065  0.559253  1
  Er  Er9  1  0.789935  0.579868  0.559253  1
  Er  Er10  1  0.420132  0.210065  0.559253  1
  Er  Er11  1  0.789935  0.210065  0.940747  1
  Er  Er12  1  0.789935  0.579868  0.940747  1
  Er  Er13  1  0.420132  0.210065  0.940747  1
  Er  Er14  1  0.209956  0.790044  0.057999  1
  Er  Er15  1  0.209956  0.419911  0.057999  1
  Er  Er16  1  0.580089  0.790044  0.057999  1
  Er  Er17  1  0.458920  0.541080  0.750000  1
  Er  Er18  1  0.458920  0.917842  0.750000  1
  Er  Er19  1  0.082158  0.541080  0.750000  1
  Cd  Cd20  1  0.885868  0.114132  0.250000  1
  Cd  Cd21  1  0.885868  0.771738  0.250000  1
  Cd  Cd22  1  0.228262  0.114132  0.250000  1
  Cd  Cd23  1  0.114390  0.885610  0.750000  1
  Cd  Cd24  1  0.114390  0.228779  0.750000  1
  Cd  Cd25  1  0.771221  0.885610  0.750000  1
  Tc  Tc26  1  0.333333  0.666667  0.250000  1
  Ru  Ru27  1  0.666667  0.333333  0.750000  1
