# generated using pymatgen
data_LiDy12InNi4
_symmetry_space_group_name_H-M   'P 1'
_cell_length_a   8.35836750
_cell_length_b   8.35939193
_cell_length_c   8.35836845
_cell_angle_alpha   112.06775943
_cell_angle_beta   110.25413253
_cell_angle_gamma   106.14280284
_symmetry_Int_Tables_number   1
_chemical_formula_structural   LiDy12InNi4
_chemical_formula_sum   'Li1 Dy12 In1 Ni4'
_cell_volume   448.34749095
_cell_formula_units_Z   1
loop_
 _symmetry_equiv_pos_site_id
 _symmetry_equiv_pos_as_xyz
  1  'x, y, z'
loop_
 _atom_site_type_symbol
 _atom_site_label
 _atom_site_symmetry_multiplicity
 _atom_site_fract_x
 _atom_site_fract_y
 _atom_site_fract_z
 _atom_site_occupancy
  Li  Li0  1  0.000000  0.000000  0.000000  1
  Dy  Dy1  1  0.423227  0.225194  0.198032  1
  Dy  Dy2  1  0.576773  0.774806  0.801968  1
  Dy  Dy3  1  0.027161  0.225194  0.801966  1
  Dy  Dy4  1  0.972839  0.774806  0.198034  1
  Dy  Dy5  1  0.184893  0.295603  0.480428  1
  Dy  Dy6  1  0.815107  0.704397  0.519572  1
  Dy  Dy7  1  0.184826  0.704397  0.889290  1
  Dy  Dy8  1  0.815174  0.295603  0.110710  1
  Dy  Dy9  1  0.319895  0.625101  0.305207  1
  Dy  Dy10  1  0.680105  0.374899  0.694793  1
  Dy  Dy11  1  0.319827  0.014622  0.694794  1
  Dy  Dy12  1  0.680173  0.985378  0.305206  1
  In  In13  1  0.500000  0.500000  0.000000  1
  Ni  Ni14  1  0.356206  0.000000  0.356206  1
  Ni  Ni15  1  0.643794  0.000000  0.643794  1
  Ni  Ni16  1  0.123787  0.623792  0.500005  1
  Ni  Ni17  1  0.876213  0.376208  0.499995  1
