# generated using pymatgen
data_Li4ErP12Ir19
_symmetry_space_group_name_H-M   'P 1'
_cell_length_a   12.58419302
_cell_length_b   12.58285518
_cell_length_c   3.91889200
_cell_angle_alpha   90.00000000
_cell_angle_beta   90.00000000
_cell_angle_gamma   119.99648725
_symmetry_Int_Tables_number   1
_chemical_formula_structural   Li4ErP12Ir19
_chemical_formula_sum   'Li4 Er1 P12 Ir19'
_cell_volume   537.42005316
_cell_formula_units_Z   1
loop_
 _symmetry_equiv_pos_site_id
 _symmetry_equiv_pos_as_xyz
  1  'x, y, z'
loop_
 _atom_site_type_symbol
 _atom_site_label
 _atom_site_symmetry_multiplicity
 _atom_site_fract_x
 _atom_site_fract_y
 _atom_site_fract_z
 _atom_site_occupancy
  Li  Li0  1  0.667709  0.334417  0.000000  1
  Li  Li1  1  0.332291  0.666709  0.000000  1
  Li  Li2  1  0.821560  0.820463  0.500000  1
  Li  Li3  1  0.178440  0.998903  0.500000  1
  Er  Er4  1  0.000000  0.175771  0.500000  1
  P  P5  1  0.687304  0.176752  0.500000  1
  P  P6  1  0.822973  0.512439  0.500000  1
  P  P7  1  0.489385  0.312471  0.500000  1
  P  P8  1  0.177027  0.689466  0.500000  1
  P  P9  1  0.510615  0.823087  0.500000  1
  P  P10  1  0.312696  0.489448  0.500000  1
  P  P11  1  0.641709  0.642128  0.000000  1
  P  P12  1  0.358291  0.000418  0.000000  1
  P  P13  1  0.000000  0.359913  0.000000  1
  P  P14  1  0.182647  0.175865  0.000000  1
  P  P15  1  0.817353  0.993217  0.000000  1
  P  P16  1  0.000000  0.820174  0.000000  1
  Ir  Ir17  1  0.806924  0.180052  0.000000  1
  Ir  Ir18  1  0.817432  0.623070  0.000000  1
  Ir  Ir19  1  0.378744  0.196074  0.000000  1
  Ir  Ir20  1  0.182568  0.805638  0.000000  1
  Ir  Ir21  1  0.621256  0.817329  0.000000  1
  Ir  Ir22  1  0.193076  0.373128  0.000000  1
  Ir  Ir23  1  0.456780  0.460202  0.000000  1
  Ir  Ir24  1  0.543220  0.003422  0.000000  1
  Ir  Ir25  1  0.000000  0.542082  0.000000  1
  Ir  Ir26  1  0.290504  0.291429  0.500000  1
  Ir  Ir27  1  0.709496  0.000925  0.500000  1
  Ir  Ir28  1  0.000000  0.709565  0.500000  1
  Ir  Ir29  1  0.868265  0.360248  0.500000  1
  Ir  Ir30  1  0.638713  0.509816  0.500000  1
  Ir  Ir31  1  0.491130  0.131283  0.500000  1
  Ir  Ir32  1  0.361287  0.871102  0.500000  1
  Ir  Ir33  1  0.508870  0.640152  0.500000  1
  Ir  Ir34  1  0.131735  0.491982  0.500000  1
  Ir  Ir35  1  0.000000  0.000861  0.000000  1
