# generated using pymatgen
data_CsNa7(FeO3)2
_symmetry_space_group_name_H-M   'P 1'
_cell_length_a   5.98807172
_cell_length_b   5.98807208
_cell_length_c   11.04686627
_cell_angle_alpha   89.65981857
_cell_angle_beta   89.65982043
_cell_angle_gamma   43.48160353
_symmetry_Int_Tables_number   1
_chemical_formula_structural   CsNa7(FeO3)2
_chemical_formula_sum   'Cs1 Na7 Fe2 O6'
_cell_volume   272.56460058
_cell_formula_units_Z   1
loop_
 _symmetry_equiv_pos_site_id
 _symmetry_equiv_pos_as_xyz
  1  'x, y, z'
loop_
 _atom_site_type_symbol
 _atom_site_label
 _atom_site_symmetry_multiplicity
 _atom_site_fract_x
 _atom_site_fract_y
 _atom_site_fract_z
 _atom_site_occupancy
  Cs  Cs0  1  0.000000  0.000000  0.500000  1
  Na  Na1  1  0.852351  0.852351  0.222705  1
  Na  Na2  1  0.725518  0.725518  0.602607  1
  Na  Na3  1  0.238997  0.238997  0.092044  1
  Na  Na4  1  0.274482  0.274482  0.397393  1
  Na  Na5  1  0.147649  0.147649  0.777295  1
  Na  Na6  1  0.761003  0.761003  0.907956  1
  Na  Na7  1  0.500000  0.500000  0.000000  1
  Fe  Fe8  1  0.586545  0.586545  0.252221  1
  Fe  Fe9  1  0.413455  0.413455  0.747779  1
  O  O10  1  0.584535  0.584535  0.768068  1
  O  O11  1  0.676839  0.676839  0.102069  1
  O  O12  1  0.323161  0.323161  0.897931  1
  O  O13  1  0.687796  0.687796  0.391316  1
  O  O14  1  0.415465  0.415465  0.231932  1
  O  O15  1  0.312204  0.312204  0.608684  1
