# generated using pymatgen
data_Dy4MnTc3B16
_symmetry_space_group_name_H-M   'P 1'
_cell_length_a   5.95672555
_cell_length_b   11.52333501
_cell_length_c   3.56222600
_cell_angle_alpha   90.00000000
_cell_angle_beta   90.00000000
_cell_angle_gamma   89.91730360
_symmetry_Int_Tables_number   1
_chemical_formula_structural   Dy4MnTc3B16
_chemical_formula_sum   'Dy4 Mn1 Tc3 B16'
_cell_volume   244.51572570
_cell_formula_units_Z   1
loop_
 _symmetry_equiv_pos_site_id
 _symmetry_equiv_pos_as_xyz
  1  'x, y, z'
loop_
 _atom_site_type_symbol
 _atom_site_label
 _atom_site_symmetry_multiplicity
 _atom_site_fract_x
 _atom_site_fract_y
 _atom_site_fract_z
 _atom_site_occupancy
  Dy  Dy0  1  0.627085  0.351995  0.000000  1
  Dy  Dy1  1  0.374474  0.648347  0.000000  1
  Dy  Dy2  1  0.127072  0.151511  0.000000  1
  Dy  Dy3  1  0.872922  0.846996  0.000000  1
  Mn  Mn4  1  0.868172  0.586071  0.000000  1
  Tc  Tc5  1  0.632448  0.086891  0.000000  1
  Tc  Tc6  1  0.367424  0.912257  0.000000  1
  Tc  Tc7  1  0.129776  0.415646  0.000000  1
  B  B8  1  0.785970  0.185892  0.500000  1
  B  B9  1  0.213161  0.813592  0.500000  1
  B  B10  1  0.285826  0.316077  0.500000  1
  B  B11  1  0.717354  0.682375  0.500000  1
  B  B12  1  0.864474  0.031206  0.500000  1
  B  B13  1  0.135402  0.968076  0.500000  1
  B  B14  1  0.364166  0.469408  0.500000  1
  B  B15  1  0.638528  0.532887  0.500000  1
  B  B16  1  0.885732  0.454760  0.500000  1
  B  B17  1  0.111376  0.548039  0.500000  1
  B  B18  1  0.386506  0.046963  0.500000  1
  B  B19  1  0.613727  0.952126  0.500000  1
  B  B20  1  0.975455  0.308957  0.500000  1
  B  B21  1  0.021717  0.690716  0.500000  1
  B  B22  1  0.476031  0.192830  0.500000  1
  B  B23  1  0.525202  0.806381  0.500000  1
