# generated using pymatgen
data_Ba8Si3Ge
_symmetry_space_group_name_H-M   'P 1'
_cell_length_a   5.42470700
_cell_length_b   8.53569501
_cell_length_c   10.19622801
_cell_angle_alpha   90.00470496
_cell_angle_beta   90.00000000
_cell_angle_gamma   90.00000000
_symmetry_Int_Tables_number   1
_chemical_formula_structural   Ba8Si3Ge
_chemical_formula_sum   'Ba8 Si3 Ge1'
_cell_volume   472.12251490
_cell_formula_units_Z   1
loop_
 _symmetry_equiv_pos_site_id
 _symmetry_equiv_pos_as_xyz
  1  'x, y, z'
loop_
 _atom_site_type_symbol
 _atom_site_label
 _atom_site_symmetry_multiplicity
 _atom_site_fract_x
 _atom_site_fract_y
 _atom_site_fract_z
 _atom_site_occupancy
  Ba  Ba0  1  0.750000  0.478814  0.669866  1
  Ba  Ba1  1  0.250000  0.520353  0.329935  1
  Ba  Ba2  1  0.750000  0.979594  0.830538  1
  Ba  Ba3  1  0.250000  0.020651  0.169704  1
  Ba  Ba4  1  0.250000  0.144944  0.582995  1
  Ba  Ba5  1  0.750000  0.855803  0.416508  1
  Ba  Ba6  1  0.250000  0.644307  0.917365  1
  Ba  Ba7  1  0.750000  0.355555  0.082995  1
  Si  Si8  1  0.750000  0.250791  0.398527  1
  Si  Si9  1  0.250000  0.249243  0.898509  1
  Si  Si10  1  0.750000  0.750788  0.101464  1
  Ge  Ge11  1  0.250000  0.749156  0.601595  1
