# generated using pymatgen
data_La2Y3P12Pd3Ru16
_symmetry_space_group_name_H-M   'P 1'
_cell_length_a   12.68747600
_cell_length_b   12.67876692
_cell_length_c   4.00041700
_cell_angle_alpha   90.00000000
_cell_angle_beta   90.00000000
_cell_angle_gamma   120.02272515
_symmetry_Int_Tables_number   1
_chemical_formula_structural   La2Y3P12Pd3Ru16
_chemical_formula_sum   'La2 Y3 P12 Pd3 Ru16'
_cell_volume   557.17118944
_cell_formula_units_Z   1
loop_
 _symmetry_equiv_pos_site_id
 _symmetry_equiv_pos_as_xyz
  1  'x, y, z'
loop_
 _atom_site_type_symbol
 _atom_site_label
 _atom_site_symmetry_multiplicity
 _atom_site_fract_x
 _atom_site_fract_y
 _atom_site_fract_z
 _atom_site_occupancy
  La  La0  1  0.001097  0.181378  0.500000  1
  La  La1  1  0.819719  0.818622  0.500000  1
  Y  Y2  1  0.182413  0.000000  0.500000  1
  Y  Y3  1  0.666049  0.333398  0.000000  1
  Y  Y4  1  0.332650  0.666602  0.000000  1
  P  P5  1  0.003117  0.812278  0.000000  1
  P  P6  1  0.190839  0.187722  0.000000  1
  P  P7  1  0.808902  0.000000  0.000000  1
  P  P8  1  0.699173  0.180953  0.500000  1
  P  P9  1  0.819880  0.520012  0.500000  1
  P  P10  1  0.480788  0.299912  0.500000  1
  P  P11  1  0.180876  0.700088  0.500000  1
  P  P12  1  0.518220  0.819047  0.500000  1
  P  P13  1  0.299868  0.479988  0.500000  1
  P  P14  1  0.000078  0.370225  0.000000  1
  P  P15  1  0.629853  0.629775  0.000000  1
  P  P16  1  0.367465  0.000000  0.000000  1
  Pd  Pd17  1  0.000472  0.554169  0.000000  1
  Pd  Pd18  1  0.446303  0.445831  0.000000  1
  Pd  Pd19  1  0.552181  0.000000  0.000000  1
  Ru  Ru20  1  0.001872  0.711184  0.500000  1
  Ru  Ru21  1  0.290688  0.288816  0.500000  1
  Ru  Ru22  1  0.708398  0.000000  0.500000  1
  Ru  Ru23  1  0.803969  0.186832  0.000000  1
  Ru  Ru24  1  0.814226  0.618017  0.000000  1
  Ru  Ru25  1  0.379999  0.192783  0.000000  1
  Ru  Ru26  1  0.187216  0.807217  0.000000  1
  Ru  Ru27  1  0.617139  0.813168  0.000000  1
  Ru  Ru28  1  0.196209  0.381983  0.000000  1
  Ru  Ru29  1  0.875720  0.370574  0.500000  1
  Ru  Ru30  1  0.630039  0.506009  0.500000  1
  Ru  Ru31  1  0.493310  0.123999  0.500000  1
  Ru  Ru32  1  0.369311  0.876001  0.500000  1
  Ru  Ru33  1  0.505145  0.629426  0.500000  1
  Ru  Ru34  1  0.124030  0.493991  0.500000  1
  Ru  Ru35  1  0.002785  0.000000  0.000000  1
