# generated using pymatgen
data_DyTm3Al16(GeIr3)2
_symmetry_space_group_name_H-M   'P 1'
_cell_length_a   7.54682579
_cell_length_b   7.54624537
_cell_length_c   9.41175100
_cell_angle_alpha   90.00000000
_cell_angle_beta   90.00000000
_cell_angle_gamma   119.70054085
_symmetry_Int_Tables_number   1
_chemical_formula_structural   DyTm3Al16(GeIr3)2
_chemical_formula_sum   'Dy1 Tm3 Al16 Ge2 Ir6'
_cell_volume   465.58493544
_cell_formula_units_Z   1
loop_
 _symmetry_equiv_pos_site_id
 _symmetry_equiv_pos_as_xyz
  1  'x, y, z'
loop_
 _atom_site_type_symbol
 _atom_site_label
 _atom_site_symmetry_multiplicity
 _atom_site_fract_x
 _atom_site_fract_y
 _atom_site_fract_z
 _atom_site_occupancy
  Dy  Dy0  1  0.324090  0.004465  0.250000  1
  Tm  Tm1  1  0.995479  0.676016  0.750000  1
  Tm  Tm2  1  0.004414  0.323986  0.250000  1
  Tm  Tm3  1  0.676168  0.995594  0.750000  1
  Al  Al4  1  0.000070  0.337366  0.574400  1
  Al  Al5  1  0.999413  0.662090  0.426031  1
  Al  Al6  1  0.999413  0.662090  0.073969  1
  Al  Al7  1  0.337406  0.000076  0.925099  1
  Al  Al8  1  0.000070  0.337366  0.925600  1
  Al  Al9  1  0.663091  0.999867  0.074015  1
  Al  Al10  1  0.663091  0.999867  0.425985  1
  Al  Al11  1  0.337406  0.000076  0.574901  1
  Al  Al12  1  0.335203  0.335705  0.059283  1
  Al  Al13  1  0.664789  0.664813  0.940125  1
  Al  Al14  1  0.664789  0.664813  0.559875  1
  Al  Al15  1  0.335203  0.335705  0.440717  1
  Al  Al16  1  0.336092  0.553752  0.750000  1
  Al  Al17  1  0.664438  0.446917  0.250000  1
  Al  Al18  1  0.553804  0.336215  0.750000  1
  Al  Al19  1  0.446427  0.663547  0.250000  1
  Ge  Ge20  1  0.134033  0.134134  0.750000  1
  Ge  Ge21  1  0.865522  0.865775  0.250000  1
  Ir  Ir22  1  0.671377  0.328858  0.500189  1
  Ir  Ir23  1  0.328723  0.671107  0.500161  1
  Ir  Ir24  1  0.328723  0.671107  0.999839  1
  Ir  Ir25  1  0.671377  0.328858  0.999811  1
  Ir  Ir26  1  0.999696  0.999919  0.500244  1
  Ir  Ir27  1  0.999696  0.999919  0.999756  1
