# generated using pymatgen
data_Fe3Ir8PdO24
_symmetry_space_group_name_H-M   'P 1'
_cell_length_a   4.57529931
_cell_length_b   9.15184062
_cell_length_c   9.44704500
_cell_angle_alpha   90.00000000
_cell_angle_beta   90.00000000
_cell_angle_gamma   89.91333524
_symmetry_Int_Tables_number   1
_chemical_formula_structural   Fe3Ir8PdO24
_chemical_formula_sum   'Fe3 Ir8 Pd1 O24'
_cell_volume   395.57008946
_cell_formula_units_Z   1
loop_
 _symmetry_equiv_pos_site_id
 _symmetry_equiv_pos_as_xyz
  1  'x, y, z'
loop_
 _atom_site_type_symbol
 _atom_site_label
 _atom_site_symmetry_multiplicity
 _atom_site_fract_x
 _atom_site_fract_y
 _atom_site_fract_z
 _atom_site_occupancy
  Fe  Fe0  1  0.498328  0.751125  0.500000  1
  Fe  Fe1  1  0.000000  0.000000  0.000000  1
  Fe  Fe2  1  0.501672  0.248875  0.500000  1
  Ir  Ir3  1  0.000000  0.000000  0.331744  1
  Ir  Ir4  1  0.000000  0.500000  0.333700  1
  Ir  Ir5  1  0.500071  0.249939  0.831582  1
  Ir  Ir6  1  0.499929  0.750061  0.831582  1
  Ir  Ir7  1  0.500071  0.249939  0.168418  1
  Ir  Ir8  1  0.499929  0.750061  0.168418  1
  Ir  Ir9  1  0.000000  0.000000  0.668256  1
  Ir  Ir10  1  0.000000  0.500000  0.666300  1
  Pd  Pd11  1  0.000000  0.500000  0.000000  1
  O  O12  1  0.309715  0.154621  0.000000  1
  O  O13  1  0.314592  0.657573  0.000000  1
  O  O14  1  0.188848  0.405072  0.500000  1
  O  O15  1  0.189465  0.905922  0.500000  1
  O  O16  1  0.810535  0.094078  0.500000  1
  O  O17  1  0.811152  0.594928  0.500000  1
  O  O18  1  0.685408  0.342427  0.000000  1
  O  O19  1  0.690285  0.845379  0.000000  1
  O  O20  1  0.304336  0.151781  0.332779  1
  O  O21  1  0.304009  0.652259  0.334135  1
  O  O22  1  0.197675  0.401172  0.829635  1
  O  O23  1  0.196664  0.901512  0.832307  1
  O  O24  1  0.803336  0.098488  0.832307  1
  O  O25  1  0.802325  0.598828  0.829635  1
  O  O26  1  0.803336  0.098488  0.167693  1
  O  O27  1  0.802325  0.598828  0.170365  1
  O  O28  1  0.197675  0.401172  0.170365  1
  O  O29  1  0.196664  0.901512  0.167693  1
  O  O30  1  0.695991  0.347741  0.334135  1
  O  O31  1  0.695664  0.848219  0.332779  1
  O  O32  1  0.304336  0.151781  0.667221  1
  O  O33  1  0.304009  0.652259  0.665865  1
  O  O34  1  0.695991  0.347741  0.665865  1
  O  O35  1  0.695664  0.848219  0.667221  1
