# generated using pymatgen
data_Rb2Sn2Ge2O7
_symmetry_space_group_name_H-M   'P 1'
_cell_length_a   5.83746200
_cell_length_b   5.83746253
_cell_length_c   8.35230300
_cell_angle_alpha   90.00000000
_cell_angle_beta   90.00000000
_cell_angle_gamma   120.00000680
_symmetry_Int_Tables_number   1
_chemical_formula_structural   Rb2Sn2Ge2O7
_chemical_formula_sum   'Rb2 Sn2 Ge2 O7'
_cell_volume   246.48189002
_cell_formula_units_Z   1
loop_
 _symmetry_equiv_pos_site_id
 _symmetry_equiv_pos_as_xyz
  1  'x, y, z'
loop_
 _atom_site_type_symbol
 _atom_site_label
 _atom_site_symmetry_multiplicity
 _atom_site_fract_x
 _atom_site_fract_y
 _atom_site_fract_z
 _atom_site_occupancy
  Rb  Rb0  1  0.333333  0.666667  0.405878  1
  Rb  Rb1  1  0.666668  0.333334  0.594122  1
  Sn  Sn2  1  0.666668  0.333334  0.129003  1
  Sn  Sn3  1  0.333333  0.666667  0.870997  1
  Ge  Ge4  1  0.000000  0.000000  0.213257  1
  Ge  Ge5  1  0.000000  0.000000  0.786743  1
  O  O6  1  0.000000  0.000000  0.000000  1
  O  O7  1  0.331337  0.160596  0.282556  1
  O  O8  1  0.839403  0.170740  0.282556  1
  O  O9  1  0.829259  0.668661  0.282556  1
  O  O10  1  0.170740  0.331338  0.717444  1
  O  O11  1  0.160597  0.829260  0.717444  1
  O  O12  1  0.668661  0.839403  0.717444  1
