# generated using pymatgen
data_Cs3MoRuO8
_symmetry_space_group_name_H-M   'P 1'
_cell_length_a   6.56411454
_cell_length_b   6.57961699
_cell_length_c   8.76561112
_cell_angle_alpha   89.38567098
_cell_angle_beta   111.68261036
_cell_angle_gamma   60.30053384
_symmetry_Int_Tables_number   1
_chemical_formula_structural   Cs3MoRuO8
_chemical_formula_sum   'Cs3 Mo1 Ru1 O8'
_cell_volume   296.64537738
_cell_formula_units_Z   1
loop_
 _symmetry_equiv_pos_site_id
 _symmetry_equiv_pos_as_xyz
  1  'x, y, z'
loop_
 _atom_site_type_symbol
 _atom_site_label
 _atom_site_symmetry_multiplicity
 _atom_site_fract_x
 _atom_site_fract_y
 _atom_site_fract_z
 _atom_site_occupancy
  Cs  Cs0  1  0.013418  0.993999  0.020371  1
  Cs  Cs1  1  0.588126  0.206135  0.382331  1
  Cs  Cs2  1  0.396729  0.801571  0.595105  1
  Mo  Mo3  1  0.813995  0.592866  0.221273  1
  Ru  Ru4  1  0.185571  0.406940  0.778123  1
  O  O5  1  0.429826  0.281067  0.706629  1
  O  O6  1  0.989777  0.288160  0.701151  1
  O  O7  1  0.988461  0.722587  0.707067  1
  O  O8  1  0.566771  0.714986  0.298269  1
  O  O9  1  0.014968  0.715891  0.297982  1
  O  O10  1  0.013639  0.268831  0.298315  1
  O  O11  1  0.335545  0.336209  0.999070  1
  O  O12  1  0.663173  0.670758  0.994312  1
