# generated using pymatgen
data_Tm2ZrBe2Ir5
_symmetry_space_group_name_H-M   'P 1'
_cell_length_a   9.75345400
_cell_length_b   9.75345400
_cell_length_c   3.26065500
_cell_angle_alpha   90.00000000
_cell_angle_beta   90.00000000
_cell_angle_gamma   90.00000000
_symmetry_Int_Tables_number   1
_chemical_formula_structural   Tm2ZrBe2Ir5
_chemical_formula_sum   'Tm4 Zr2 Be4 Ir10'
_cell_volume   310.18566973
_cell_formula_units_Z   2
loop_
 _symmetry_equiv_pos_site_id
 _symmetry_equiv_pos_as_xyz
  1  'x, y, z'
loop_
 _atom_site_type_symbol
 _atom_site_label
 _atom_site_symmetry_multiplicity
 _atom_site_fract_x
 _atom_site_fract_y
 _atom_site_fract_z
 _atom_site_occupancy
  Tm  Tm0  1  0.176349  0.676349  0.000000  1
  Tm  Tm1  1  0.323651  0.176349  0.000000  1
  Tm  Tm2  1  0.823651  0.323651  0.000000  1
  Tm  Tm3  1  0.676349  0.823651  0.000000  1
  Zr  Zr4  1  0.500000  0.500000  0.000000  1
  Zr  Zr5  1  0.000000  0.000000  0.000000  1
  Be  Be6  1  0.380204  0.880204  0.000000  1
  Be  Be7  1  0.119796  0.380204  0.000000  1
  Be  Be8  1  0.880204  0.619796  0.000000  1
  Be  Be9  1  0.619796  0.119796  0.000000  1
  Ir  Ir10  1  0.218221  0.930925  0.500000  1
  Ir  Ir11  1  0.930925  0.781779  0.500000  1
  Ir  Ir12  1  0.430925  0.718221  0.500000  1
  Ir  Ir13  1  0.569075  0.281779  0.500000  1
  Ir  Ir14  1  0.718221  0.569075  0.500000  1
  Ir  Ir15  1  0.281779  0.430925  0.500000  1
  Ir  Ir16  1  0.069075  0.218221  0.500000  1
  Ir  Ir17  1  0.000000  0.500000  0.500000  1
  Ir  Ir18  1  0.500000  0.000000  0.500000  1
  Ir  Ir19  1  0.781779  0.069075  0.500000  1
