# generated using pymatgen
data_Er2Ta3Si7Pt9
_symmetry_space_group_name_H-M   'P 1'
_cell_length_a   9.88407200
_cell_length_b   9.88407298
_cell_length_c   4.01080700
_cell_angle_alpha   90.00000000
_cell_angle_beta   90.00000000
_cell_angle_gamma   120.00000341
_symmetry_Int_Tables_number   1
_chemical_formula_structural   Er2Ta3Si7Pt9
_chemical_formula_sum   'Er2 Ta3 Si7 Pt9'
_cell_volume   339.33935090
_cell_formula_units_Z   1
loop_
 _symmetry_equiv_pos_site_id
 _symmetry_equiv_pos_as_xyz
  1  'x, y, z'
loop_
 _atom_site_type_symbol
 _atom_site_label
 _atom_site_symmetry_multiplicity
 _atom_site_fract_x
 _atom_site_fract_y
 _atom_site_fract_z
 _atom_site_occupancy
  Er  Er0  1  0.000000  0.000000  0.000000  1
  Er  Er1  1  0.333333  0.666667  0.500000  1
  Ta  Ta2  1  0.881968  0.455240  0.500000  1
  Ta  Ta3  1  0.573273  0.118032  0.500000  1
  Ta  Ta4  1  0.544760  0.426727  0.500000  1
  Si  Si5  1  0.255613  0.211188  0.500000  1
  Si  Si6  1  0.788812  0.044427  0.500000  1
  Si  Si7  1  0.955573  0.744387  0.500000  1
  Si  Si8  1  0.553911  0.636774  0.000000  1
  Si  Si9  1  0.363226  0.917136  0.000000  1
  Si  Si10  1  0.082864  0.446089  0.000000  1
  Si  Si11  1  0.666667  0.333333  0.000000  1
  Pt  Pt12  1  0.224276  0.943316  0.500000  1
  Pt  Pt13  1  0.056684  0.280961  0.500000  1
  Pt  Pt14  1  0.719039  0.775724  0.500000  1
  Pt  Pt15  1  0.306998  0.410057  0.000000  1
  Pt  Pt16  1  0.589943  0.896941  0.000000  1
  Pt  Pt17  1  0.103059  0.693002  0.000000  1
  Pt  Pt18  1  0.387879  0.174955  0.000000  1
  Pt  Pt19  1  0.825045  0.212925  0.000000  1
  Pt  Pt20  1  0.787075  0.612121  0.000000  1
