# generated using pymatgen
data_Li2Dy8Sc10Si15Rh
_symmetry_space_group_name_H-M   'P 1'
_cell_length_a   7.00559079
_cell_length_b   7.44129257
_cell_length_c   13.99452800
_cell_angle_alpha   90.00000000
_cell_angle_beta   90.00000000
_cell_angle_gamma   90.12882029
_symmetry_Int_Tables_number   1
_chemical_formula_structural   Li2Dy8Sc10Si15Rh
_chemical_formula_sum   'Li2 Dy8 Sc10 Si15 Rh1'
_cell_volume   729.54200674
_cell_formula_units_Z   1
loop_
 _symmetry_equiv_pos_site_id
 _symmetry_equiv_pos_as_xyz
  1  'x, y, z'
loop_
 _atom_site_type_symbol
 _atom_site_label
 _atom_site_symmetry_multiplicity
 _atom_site_fract_x
 _atom_site_fract_y
 _atom_site_fract_z
 _atom_site_occupancy
  Li  Li0  1  0.159927  0.506375  0.750000  1
  Li  Li1  1  0.839947  0.495709  0.250000  1
  Dy  Dy2  1  0.008927  0.183111  0.097432  1
  Dy  Dy3  1  0.994069  0.819568  0.903135  1
  Dy  Dy4  1  0.485807  0.675674  0.902900  1
  Dy  Dy5  1  0.994069  0.819568  0.596865  1
  Dy  Dy6  1  0.514497  0.324990  0.096801  1
  Dy  Dy7  1  0.008927  0.183111  0.402568  1
  Dy  Dy8  1  0.514497  0.324990  0.403199  1
  Dy  Dy9  1  0.485807  0.675674  0.597100  1
  Sc  Sc10  1  0.340470  0.003914  0.250000  1
  Sc  Sc11  1  0.668774  0.998450  0.750000  1
  Sc  Sc12  1  0.316155  0.175406  0.628042  1
  Sc  Sc13  1  0.673042  0.820036  0.374991  1
  Sc  Sc14  1  0.165607  0.677039  0.373482  1
  Sc  Sc15  1  0.673042  0.820036  0.125009  1
  Sc  Sc16  1  0.837927  0.325979  0.629021  1
  Sc  Sc17  1  0.316155  0.175406  0.871958  1
  Sc  Sc18  1  0.837927  0.325979  0.870979  1
  Sc  Sc19  1  0.165607  0.677039  0.126518  1
  Si  Si20  1  0.968138  0.895583  0.250000  1
  Si  Si21  1  0.466799  0.612055  0.250000  1
  Si  Si22  1  0.528347  0.389614  0.750000  1
  Si  Si23  1  0.291745  0.874735  0.750000  1
  Si  Si24  1  0.713275  0.118253  0.250000  1
  Si  Si25  1  0.220816  0.374522  0.250000  1
  Si  Si26  1  0.777708  0.623605  0.750000  1
  Si  Si27  1  0.160509  0.463359  0.533569  1
  Si  Si28  1  0.842811  0.538106  0.465565  1
  Si  Si29  1  0.342518  0.967031  0.460294  1
  Si  Si30  1  0.842811  0.538106  0.034435  1
  Si  Si31  1  0.659323  0.034930  0.539422  1
  Si  Si32  1  0.160509  0.463359  0.966431  1
  Si  Si33  1  0.659323  0.034930  0.960578  1
  Si  Si34  1  0.342518  0.967031  0.039706  1
  Rh  Rh35  1  0.021667  0.096726  0.750000  1
