# generated using pymatgen
data_Li8AlCo15O32
_symmetry_space_group_name_H-M   'P 1'
_cell_length_a   8.05648906
_cell_length_b   9.82749993
_cell_length_c   7.86656600
_cell_angle_alpha   66.83674732
_cell_angle_beta   89.46208026
_cell_angle_gamma   114.05515981
_symmetry_Int_Tables_number   1
_chemical_formula_structural   Li8AlCo15O32
_chemical_formula_sum   'Li8 Al1 Co15 O32'
_cell_volume   512.10057828
_cell_formula_units_Z   1
loop_
 _symmetry_equiv_pos_site_id
 _symmetry_equiv_pos_as_xyz
  1  'x, y, z'
loop_
 _atom_site_type_symbol
 _atom_site_label
 _atom_site_symmetry_multiplicity
 _atom_site_fract_x
 _atom_site_fract_y
 _atom_site_fract_z
 _atom_site_occupancy
  Li  Li0  1  0.941046  0.127994  0.812305  1
  Li  Li1  1  0.439414  0.127957  0.310641  1
  Li  Li2  1  0.309865  0.372585  0.439742  1
  Li  Li3  1  0.810934  0.371801  0.938878  1
  Li  Li4  1  0.189875  0.627445  0.060417  1
  Li  Li5  1  0.690698  0.627164  0.559443  1
  Li  Li6  1  0.559751  0.870261  0.690197  1
  Li  Li7  1  0.059006  0.872922  0.187979  1
  Al  Al8  1  0.999607  0.999759  0.499807  1
  Co  Co9  1  0.249240  0.000432  0.749437  1
  Co  Co10  1  0.499475  0.999059  0.000489  1
  Co  Co11  1  0.749773  0.998898  0.250609  1
  Co  Co12  1  0.376213  0.250547  0.874921  1
  Co  Co13  1  0.876299  0.250141  0.375265  1
  Co  Co14  1  0.625134  0.248725  0.624609  1
  Co  Co15  1  0.125043  0.250905  0.125239  1
  Co  Co16  1  0.250341  0.499506  0.750476  1
  Co  Co17  1  0.000509  0.500224  0.500122  1
  Co  Co18  1  0.751346  0.500157  0.249586  1
  Co  Co19  1  0.500632  0.499651  0.000073  1
  Co  Co20  1  0.875071  0.749019  0.874954  1
  Co  Co21  1  0.375159  0.749954  0.375902  1
  Co  Co22  1  0.123175  0.749401  0.623956  1
  Co  Co23  1  0.624339  0.748780  0.125446  1
  O  O24  1  0.990004  0.013398  0.251288  1
  O  O25  1  0.767261  0.013431  0.482721  1
  O  O26  1  0.489851  0.009605  0.756732  1
  O  O27  1  0.271270  0.014796  0.981907  1
  O  O28  1  0.101713  0.234775  0.375785  1
  O  O29  1  0.880387  0.234130  0.145372  1
  O  O30  1  0.602428  0.231702  0.874182  1
  O  O31  1  0.380033  0.232577  0.643086  1
  O  O32  1  0.149131  0.269228  0.873631  1
  O  O33  1  0.368716  0.267548  0.107745  1
  O  O34  1  0.650538  0.265891  0.372707  1
  O  O35  1  0.869646  0.264845  0.604198  1
  O  O36  1  0.481977  0.488043  0.767502  1
  O  O37  1  0.980383  0.484868  0.266390  1
  O  O38  1  0.260821  0.489081  0.994406  1
  O  O39  1  0.756607  0.486049  0.493414  1
  O  O40  1  0.242818  0.512953  0.507371  1
  O  O41  1  0.741257  0.510573  0.005453  1
  O  O42  1  0.021553  0.515375  0.734802  1
  O  O43  1  0.520001  0.511623  0.232501  1
  O  O44  1  0.851534  0.730825  0.126707  1
  O  O45  1  0.349525  0.732625  0.626857  1
  O  O46  1  0.631732  0.731708  0.892572  1
  O  O47  1  0.132021  0.737853  0.393691  1
  O  O48  1  0.120687  0.764929  0.855106  1
  O  O49  1  0.897880  0.765463  0.625313  1
  O  O50  1  0.397603  0.766799  0.126166  1
  O  O51  1  0.618891  0.766086  0.357135  1
  O  O52  1  0.729309  0.985036  0.018376  1
  O  O53  1  0.009257  0.987533  0.747604  1
  O  O54  1  0.230198  0.985456  0.516647  1
  O  O55  1  0.508924  0.988143  0.244891  1
