# generated using pymatgen
data_TlBi3Te10
_symmetry_space_group_name_H-M   'P 1'
_cell_length_a   24.16619200
_cell_length_b   24.16619095
_cell_length_c   3.18549600
_cell_angle_alpha   90.00000000
_cell_angle_beta   90.00000000
_cell_angle_gamma   166.48307835
_symmetry_Int_Tables_number   1
_chemical_formula_structural   TlBi3Te10
_chemical_formula_sum   'Tl1 Bi3 Te10'
_cell_volume   434.82314436
_cell_formula_units_Z   1
loop_
 _symmetry_equiv_pos_site_id
 _symmetry_equiv_pos_as_xyz
  1  'x, y, z'
loop_
 _atom_site_type_symbol
 _atom_site_label
 _atom_site_symmetry_multiplicity
 _atom_site_fract_x
 _atom_site_fract_y
 _atom_site_fract_z
 _atom_site_occupancy
  Tl  Tl0  1  0.107839  0.892161  0.750000  1
  Bi  Bi1  1  0.677230  0.322770  0.250000  1
  Bi  Bi2  1  0.321420  0.678580  0.750000  1
  Bi  Bi3  1  0.887444  0.112556  0.250000  1
  Te  Te4  1  0.612144  0.387856  0.250000  1
  Te  Te5  1  0.387290  0.612710  0.750000  1
  Te  Te6  1  0.823482  0.176518  0.250000  1
  Te  Te7  1  0.179645  0.820355  0.750000  1
  Te  Te8  1  0.963465  0.036535  0.750000  1
  Te  Te9  1  0.037169  0.962831  0.250000  1
  Te  Te10  1  0.534838  0.465162  0.750000  1
  Te  Te11  1  0.466947  0.533053  0.250000  1
  Te  Te12  1  0.747314  0.252686  0.750000  1
  Te  Te13  1  0.253773  0.746227  0.250000  1
