# generated using pymatgen
data_Y3Ho2Er(BO3)6
_symmetry_space_group_name_H-M   'P 1'
_cell_length_a   6.57311964
_cell_length_b   6.58103953
_cell_length_c   9.61808635
_cell_angle_alpha   70.38836887
_cell_angle_beta   70.38314892
_cell_angle_gamma   59.97536183
_symmetry_Int_Tables_number   1
_chemical_formula_structural   Y3Ho2Er(BO3)6
_chemical_formula_sum   'Y3 Ho2 Er1 B6 O18'
_cell_volume   332.07292202
_cell_formula_units_Z   1
loop_
 _symmetry_equiv_pos_site_id
 _symmetry_equiv_pos_as_xyz
  1  'x, y, z'
loop_
 _atom_site_type_symbol
 _atom_site_label
 _atom_site_symmetry_multiplicity
 _atom_site_fract_x
 _atom_site_fract_y
 _atom_site_fract_z
 _atom_site_occupancy
  Y  Y0  1  0.000034  0.499972  0.500012  1
  Y  Y1  1  0.500102  0.999695  0.000045  1
  Y  Y2  1  0.170493  0.657643  0.999417  1
  Ho  Ho3  1  0.342964  0.829076  0.500618  1
  Ho  Ho4  1  0.829375  0.342317  0.000499  1
  Er  Er5  1  0.657149  0.171063  0.499401  1
  B  B6  1  0.918097  0.843089  0.745565  1
  B  B7  1  0.158231  0.081844  0.752709  1
  B  B8  1  0.080651  0.157007  0.254119  1
  B  B9  1  0.841701  0.919211  0.247368  1
  B  B10  1  0.676515  0.323470  0.749527  1
  B  B11  1  0.324803  0.675448  0.250736  1
  O  O12  1  0.966053  0.784568  0.601377  1
  O  O13  1  0.216957  0.033998  0.897065  1
  O  O14  1  0.032335  0.216690  0.398062  1
  O  O15  1  0.782395  0.967507  0.103081  1
  O  O16  1  0.870719  0.684401  0.887186  1
  O  O17  1  0.317286  0.128440  0.611338  1
  O  O18  1  0.127882  0.314280  0.111885  1
  O  O19  1  0.683340  0.872326  0.388923  1
  O  O20  1  0.519738  0.384524  0.891982  1
  O  O21  1  0.613403  0.481685  0.607914  1
  O  O22  1  0.483415  0.613382  0.108743  1
  O  O23  1  0.387589  0.516945  0.392346  1
  O  O24  1  0.916987  0.299487  0.751894  1
  O  O25  1  0.700244  0.083863  0.746660  1
  O  O26  1  0.083423  0.700831  0.248566  1
  O  O27  1  0.299444  0.916050  0.253156  1
  O  O28  1  0.135464  0.865395  0.748880  1
  O  O29  1  0.863208  0.135793  0.250926  1
