# generated using pymatgen
data_Nd3ThCdCo
_symmetry_space_group_name_H-M   'P 1'
_cell_length_a   9.82858450
_cell_length_b   9.82858358
_cell_length_c   9.82858400
_cell_angle_alpha   59.99999858
_cell_angle_beta   60.00000167
_cell_angle_gamma   60.00000385
_symmetry_Int_Tables_number   1
_chemical_formula_structural   Nd3ThCdCo
_chemical_formula_sum   'Nd12 Th4 Cd4 Co4'
_cell_volume   671.36373765
_cell_formula_units_Z   4
loop_
 _symmetry_equiv_pos_site_id
 _symmetry_equiv_pos_as_xyz
  1  'x, y, z'
loop_
 _atom_site_type_symbol
 _atom_site_label
 _atom_site_symmetry_multiplicity
 _atom_site_fract_x
 _atom_site_fract_y
 _atom_site_fract_z
 _atom_site_occupancy
  Nd  Nd0  1  0.809297  0.190703  0.190703  1
  Nd  Nd1  1  0.190703  0.809297  0.809297  1
  Nd  Nd2  1  0.190703  0.809297  0.190703  1
  Nd  Nd3  1  0.809297  0.190703  0.809297  1
  Nd  Nd4  1  0.190703  0.190703  0.809297  1
  Nd  Nd5  1  0.809297  0.809297  0.190703  1
  Nd  Nd6  1  0.938786  0.561214  0.561214  1
  Nd  Nd7  1  0.561214  0.938786  0.938786  1
  Nd  Nd8  1  0.561214  0.938786  0.561214  1
  Nd  Nd9  1  0.938786  0.561214  0.938786  1
  Nd  Nd10  1  0.561214  0.561214  0.938786  1
  Nd  Nd11  1  0.938786  0.938786  0.561214  1
  Th  Th12  1  0.343056  0.343056  0.343056  1
  Th  Th13  1  0.343056  0.343056  0.970832  1
  Th  Th14  1  0.343056  0.970832  0.343056  1
  Th  Th15  1  0.970832  0.343056  0.343056  1
  Cd  Cd16  1  0.579816  0.579816  0.579816  1
  Cd  Cd17  1  0.579816  0.579816  0.260552  1
  Cd  Cd18  1  0.579816  0.260552  0.579816  1
  Cd  Cd19  1  0.260552  0.579816  0.579816  1
  Co  Co20  1  0.147277  0.147277  0.147277  1
  Co  Co21  1  0.147277  0.147277  0.558168  1
  Co  Co22  1  0.147277  0.558168  0.147277  1
  Co  Co23  1  0.558168  0.147277  0.147277  1
