# generated using pymatgen
data_Pa2Co3Ni
_symmetry_space_group_name_H-M   'P 1'
_cell_length_a   5.05084468
_cell_length_b   4.94507773
_cell_length_c   5.05084500
_cell_angle_alpha   59.28992583
_cell_angle_beta   60.00000445
_cell_angle_gamma   59.28992819
_symmetry_Int_Tables_number   1
_chemical_formula_structural   Pa2Co3Ni
_chemical_formula_sum   'Pa2 Co3 Ni1'
_cell_volume   88.23495507
_cell_formula_units_Z   1
loop_
 _symmetry_equiv_pos_site_id
 _symmetry_equiv_pos_as_xyz
  1  'x, y, z'
loop_
 _atom_site_type_symbol
 _atom_site_label
 _atom_site_symmetry_multiplicity
 _atom_site_fract_x
 _atom_site_fract_y
 _atom_site_fract_z
 _atom_site_occupancy
  Pa  Pa0  1  0.748961  0.753118  0.748961  1
  Pa  Pa1  1  0.501039  0.496882  0.501039  1
  Co  Co2  1  0.125000  0.125000  0.625000  1
  Co  Co3  1  0.125000  0.125000  0.125000  1
  Co  Co4  1  0.625000  0.125000  0.125000  1
  Ni  Ni5  1  0.125000  0.625000  0.125000  1
