# generated using pymatgen
data_Sr4ZnAu17
_symmetry_space_group_name_H-M   'P 1'
_cell_length_a   8.88021394
_cell_length_b   9.19969261
_cell_length_c   8.88021487
_cell_angle_alpha   59.00357715
_cell_angle_beta   58.52954314
_cell_angle_gamma   59.00357798
_symmetry_Int_Tables_number   1
_chemical_formula_structural   Sr4ZnAu17
_chemical_formula_sum   'Sr4 Zn1 Au17'
_cell_volume   499.44146565
_cell_formula_units_Z   1
loop_
 _symmetry_equiv_pos_site_id
 _symmetry_equiv_pos_as_xyz
  1  'x, y, z'
loop_
 _atom_site_type_symbol
 _atom_site_label
 _atom_site_symmetry_multiplicity
 _atom_site_fract_x
 _atom_site_fract_y
 _atom_site_fract_z
 _atom_site_occupancy
  Sr  Sr0  1  0.431431  0.374812  0.390683  1
  Sr  Sr1  1  0.890149  0.868011  0.927887  1
  Sr  Sr2  1  0.572113  0.631989  0.609851  1
  Sr  Sr3  1  0.109317  0.125188  0.068569  1
  Zn  Zn4  1  0.071466  0.250000  0.428534  1
  Au  Au5  1  0.440117  0.064717  0.245034  1
  Au  Au6  1  0.254966  0.435283  0.059883  1
  Au  Au7  1  0.928453  0.750000  0.571547  1
  Au  Au8  1  0.547804  0.946695  0.759166  1
  Au  Au9  1  0.740834  0.553305  0.952196  1
  Au  Au10  1  0.982633  0.371715  0.689391  1
  Au  Au11  1  0.747298  0.979296  0.322564  1
  Au  Au12  1  0.318114  0.737358  0.998529  1
  Au  Au13  1  0.198081  0.874536  0.484445  1
  Au  Au14  1  0.503272  0.239565  0.817029  1
  Au  Au15  1  0.829551  0.471365  0.253642  1
  Au  Au16  1  0.015555  0.625464  0.301919  1
  Au  Au17  1  0.246358  0.028635  0.670449  1
  Au  Au18  1  0.682971  0.260435  0.996728  1
  Au  Au19  1  0.810609  0.128285  0.517367  1
  Au  Au20  1  0.501471  0.762642  0.181886  1
  Au  Au21  1  0.177436  0.520704  0.752702  1
