# generated using pymatgen
data_CsK3ZrSe4
_symmetry_space_group_name_H-M   'P 1'
_cell_length_a   8.56221400
_cell_length_b   10.44598700
_cell_length_c   15.90574700
_cell_angle_alpha   90.00000000
_cell_angle_beta   90.00000000
_cell_angle_gamma   90.00000000
_symmetry_Int_Tables_number   1
_chemical_formula_structural   CsK3ZrSe4
_chemical_formula_sum   'Cs4 K12 Zr4 Se16'
_cell_volume   1422.62235669
_cell_formula_units_Z   4
loop_
 _symmetry_equiv_pos_site_id
 _symmetry_equiv_pos_as_xyz
  1  'x, y, z'
loop_
 _atom_site_type_symbol
 _atom_site_label
 _atom_site_symmetry_multiplicity
 _atom_site_fract_x
 _atom_site_fract_y
 _atom_site_fract_z
 _atom_site_occupancy
  Cs  Cs0  1  0.000000  0.000000  0.000000  1
  Cs  Cs1  1  0.500000  0.000000  0.500000  1
  Cs  Cs2  1  0.000000  0.500000  0.000000  1
  Cs  Cs3  1  0.500000  0.500000  0.500000  1
  K  K4  1  0.970958  0.750000  0.432519  1
  K  K5  1  0.470958  0.250000  0.067481  1
  K  K6  1  0.029042  0.250000  0.567481  1
  K  K7  1  0.529042  0.750000  0.932519  1
  K  K8  1  0.833222  0.056163  0.269000  1
  K  K9  1  0.333222  0.943837  0.231000  1
  K  K10  1  0.166778  0.556163  0.731000  1
  K  K11  1  0.666778  0.443837  0.769000  1
  K  K12  1  0.166778  0.943837  0.731000  1
  K  K13  1  0.666778  0.056163  0.769000  1
  K  K14  1  0.833222  0.443837  0.269000  1
  K  K15  1  0.333222  0.556163  0.231000  1
  Zr  Zr16  1  0.772422  0.750000  0.673940  1
  Zr  Zr17  1  0.227578  0.250000  0.326060  1
  Zr  Zr18  1  0.727578  0.750000  0.173940  1
  Zr  Zr19  1  0.272422  0.250000  0.826060  1
  Se  Se20  1  0.974304  0.250000  0.819278  1
  Se  Se21  1  0.525696  0.250000  0.319278  1
  Se  Se22  1  0.474304  0.750000  0.680722  1
  Se  Se23  1  0.025696  0.750000  0.180722  1
  Se  Se24  1  0.631472  0.549767  0.099461  1
  Se  Se25  1  0.131472  0.450233  0.400539  1
  Se  Se26  1  0.368528  0.049767  0.900539  1
  Se  Se27  1  0.868528  0.950233  0.599461  1
  Se  Se28  1  0.368528  0.450233  0.900539  1
  Se  Se29  1  0.868528  0.549767  0.599461  1
  Se  Se30  1  0.631472  0.950233  0.099461  1
  Se  Se31  1  0.131472  0.049767  0.400539  1
  Se  Se32  1  0.618703  0.750000  0.324300  1
  Se  Se33  1  0.118703  0.250000  0.175700  1
  Se  Se34  1  0.381297  0.250000  0.675700  1
  Se  Se35  1  0.881297  0.750000  0.824300  1
