# generated using pymatgen
data_US4I
_symmetry_space_group_name_H-M   'P 1'
_cell_length_a   7.07823749
_cell_length_b   7.94932130
_cell_length_c   7.56847063
_cell_angle_alpha   106.25895968
_cell_angle_beta   117.99027987
_cell_angle_gamma   89.43084390
_symmetry_Int_Tables_number   1
_chemical_formula_structural   US4I
_chemical_formula_sum   'U2 S8 I2'
_cell_volume   357.27830321
_cell_formula_units_Z   2
loop_
 _symmetry_equiv_pos_site_id
 _symmetry_equiv_pos_as_xyz
  1  'x, y, z'
loop_
 _atom_site_type_symbol
 _atom_site_label
 _atom_site_symmetry_multiplicity
 _atom_site_fract_x
 _atom_site_fract_y
 _atom_site_fract_z
 _atom_site_occupancy
  U  U0  1  0.302876  0.000252  0.105599  1
  U  U1  1  0.697047  0.999752  0.894251  1
  S  S2  1  0.526520  0.265934  0.077842  1
  S  S3  1  0.045824  0.267935  0.113712  1
  S  S4  1  0.004058  0.858809  0.182057  1
  S  S5  1  0.730449  0.147113  0.287009  1
  S  S6  1  0.269573  0.852883  0.713000  1
  S  S7  1  0.995925  0.141187  0.817945  1
  S  S8  1  0.954159  0.732064  0.886309  1
  S  S9  1  0.473514  0.734069  0.922194  1
  I  I10  1  0.572848  0.771919  0.416193  1
  I  I11  1  0.427207  0.228080  0.583891  1
