# generated using pymatgen
data_Y2Al9RePd2
_symmetry_space_group_name_H-M   'P 1'
_cell_length_a   7.59964583
_cell_length_b   7.59964468
_cell_length_c   9.55169700
_cell_angle_alpha   90.00000000
_cell_angle_beta   90.00000000
_cell_angle_gamma   118.47745960
_symmetry_Int_Tables_number   1
_chemical_formula_structural   Y2Al9RePd2
_chemical_formula_sum   'Y4 Al18 Re2 Pd4'
_cell_volume   484.90694629
_cell_formula_units_Z   2
loop_
 _symmetry_equiv_pos_site_id
 _symmetry_equiv_pos_as_xyz
  1  'x, y, z'
loop_
 _atom_site_type_symbol
 _atom_site_label
 _atom_site_symmetry_multiplicity
 _atom_site_fract_x
 _atom_site_fract_y
 _atom_site_fract_z
 _atom_site_occupancy
  Y  Y0  1  0.994213  0.680537  0.250000  1
  Y  Y1  1  0.005787  0.319463  0.750000  1
  Y  Y2  1  0.680537  0.994213  0.250000  1
  Y  Y3  1  0.319463  0.005787  0.750000  1
  Al  Al4  1  0.132018  0.132018  0.250000  1
  Al  Al5  1  0.867982  0.867982  0.750000  1
  Al  Al6  1  0.002619  0.334916  0.075990  1
  Al  Al7  1  0.997381  0.665084  0.924010  1
  Al  Al8  1  0.997381  0.665084  0.575990  1
  Al  Al9  1  0.334916  0.002619  0.424010  1
  Al  Al10  1  0.002619  0.334916  0.424010  1
  Al  Al11  1  0.665084  0.997381  0.575990  1
  Al  Al12  1  0.665084  0.997381  0.924010  1
  Al  Al13  1  0.334916  0.002619  0.075990  1
  Al  Al14  1  0.329653  0.329653  0.549124  1
  Al  Al15  1  0.670347  0.670347  0.450876  1
  Al  Al16  1  0.670347  0.670347  0.049124  1
  Al  Al17  1  0.329653  0.329653  0.950876  1
  Al  Al18  1  0.343872  0.551637  0.250000  1
  Al  Al19  1  0.656128  0.448363  0.750000  1
  Al  Al20  1  0.551637  0.343872  0.250000  1
  Al  Al21  1  0.448363  0.656128  0.750000  1
  Re  Re22  1  0.000000  0.000000  0.000000  1
  Re  Re23  1  0.000000  0.000000  0.500000  1
  Pd  Pd24  1  0.671784  0.328216  0.000000  1
  Pd  Pd25  1  0.328216  0.671784  0.000000  1
  Pd  Pd26  1  0.328216  0.671784  0.500000  1
  Pd  Pd27  1  0.671784  0.328216  0.500000  1
