# generated using pymatgen
data_Sc2Al3Mo
_symmetry_space_group_name_H-M   'P 1'
_cell_length_a   5.37996854
_cell_length_b   5.37996893
_cell_length_c   5.35349082
_cell_angle_alpha   59.83624809
_cell_angle_beta   59.83624589
_cell_angle_gamma   59.99999643
_symmetry_Int_Tables_number   1
_chemical_formula_structural   Sc2Al3Mo
_chemical_formula_sum   'Sc2 Al3 Mo1'
_cell_volume   109.29547367
_cell_formula_units_Z   1
loop_
 _symmetry_equiv_pos_site_id
 _symmetry_equiv_pos_as_xyz
  1  'x, y, z'
loop_
 _atom_site_type_symbol
 _atom_site_label
 _atom_site_symmetry_multiplicity
 _atom_site_fract_x
 _atom_site_fract_y
 _atom_site_fract_z
 _atom_site_occupancy
  Sc  Sc0  1  0.253663  0.253663  0.239012  1
  Sc  Sc1  1  0.996337  0.996337  0.010988  1
  Al  Al2  1  0.625000  0.125000  0.625000  1
  Al  Al3  1  0.125000  0.625000  0.625000  1
  Al  Al4  1  0.625000  0.625000  0.625000  1
  Mo  Mo5  1  0.625000  0.625000  0.125000  1
