# generated using pymatgen
data_PrNd3Al14(Ga2Ir3)2
_symmetry_space_group_name_H-M   'P 1'
_cell_length_a   7.60060810
_cell_length_b   7.59817949
_cell_length_c   9.68822800
_cell_angle_alpha   90.00000000
_cell_angle_beta   90.00000000
_cell_angle_gamma   119.44537669
_symmetry_Int_Tables_number   1
_chemical_formula_structural   PrNd3Al14(Ga2Ir3)2
_chemical_formula_sum   'Pr1 Nd3 Al14 Ga4 Ir6'
_cell_volume   487.22886126
_cell_formula_units_Z   1
loop_
 _symmetry_equiv_pos_site_id
 _symmetry_equiv_pos_as_xyz
  1  'x, y, z'
loop_
 _atom_site_type_symbol
 _atom_site_label
 _atom_site_symmetry_multiplicity
 _atom_site_fract_x
 _atom_site_fract_y
 _atom_site_fract_z
 _atom_site_occupancy
  Pr  Pr0  1  0.997641  0.672652  0.250000  1
  Nd  Nd1  1  0.002334  0.327326  0.750000  1
  Nd  Nd2  1  0.668989  0.993184  0.250000  1
  Nd  Nd3  1  0.330968  0.006838  0.750000  1
  Al  Al4  1  0.002569  0.334649  0.071006  1
  Al  Al5  1  0.997396  0.665039  0.928536  1
  Al  Al6  1  0.997396  0.665039  0.571464  1
  Al  Al7  1  0.335836  0.003906  0.428736  1
  Al  Al8  1  0.002569  0.334649  0.428994  1
  Al  Al9  1  0.664479  0.996395  0.571449  1
  Al  Al10  1  0.664479  0.996395  0.928551  1
  Al  Al11  1  0.335836  0.003906  0.071264  1
  Al  Al12  1  0.334585  0.335105  0.549749  1
  Al  Al13  1  0.665161  0.664884  0.450468  1
  Al  Al14  1  0.665161  0.664884  0.049532  1
  Al  Al15  1  0.334585  0.335105  0.950251  1
  Al  Al16  1  0.545976  0.338507  0.250000  1
  Al  Al17  1  0.453597  0.661159  0.750000  1
  Ga  Ga18  1  0.131710  0.132692  0.250000  1
  Ga  Ga19  1  0.868440  0.867763  0.750000  1
  Ga  Ga20  1  0.338146  0.543407  0.250000  1
  Ga  Ga21  1  0.662125  0.456473  0.750000  1
  Ir  Ir22  1  0.670184  0.328644  0.002400  1
  Ir  Ir23  1  0.329783  0.671215  0.997341  1
  Ir  Ir24  1  0.329783  0.671215  0.502659  1
  Ir  Ir25  1  0.670184  0.328644  0.497600  1
  Ir  Ir26  1  0.000043  0.000162  0.999867  1
  Ir  Ir27  1  0.000043  0.000162  0.500133  1
