# generated using pymatgen
data_Tm16Sc4Ir11Os
_symmetry_space_group_name_H-M   'P 1'
_cell_length_a   10.63613400
_cell_length_b   10.63613400
_cell_length_c   6.23460200
_cell_angle_alpha   90.00000000
_cell_angle_beta   90.00000000
_cell_angle_gamma   90.00000000
_symmetry_Int_Tables_number   1
_chemical_formula_structural   Tm16Sc4Ir11Os
_chemical_formula_sum   'Tm16 Sc4 Ir11 Os1'
_cell_volume   705.30398053
_cell_formula_units_Z   1
loop_
 _symmetry_equiv_pos_site_id
 _symmetry_equiv_pos_as_xyz
  1  'x, y, z'
loop_
 _atom_site_type_symbol
 _atom_site_label
 _atom_site_symmetry_multiplicity
 _atom_site_fract_x
 _atom_site_fract_y
 _atom_site_fract_z
 _atom_site_occupancy
  Tm  Tm0  1  0.289589  0.085364  0.374473  1
  Tm  Tm1  1  0.290049  0.914668  0.878055  1
  Tm  Tm2  1  0.709951  0.085332  0.878055  1
  Tm  Tm3  1  0.710411  0.914636  0.374473  1
  Tm  Tm4  1  0.585332  0.790049  0.878055  1
  Tm  Tm5  1  0.585364  0.210411  0.374473  1
  Tm  Tm6  1  0.414636  0.789589  0.374473  1
  Tm  Tm7  1  0.414668  0.209951  0.878055  1
  Tm  Tm8  1  0.211880  0.413790  0.623501  1
  Tm  Tm9  1  0.211821  0.585922  0.123206  1
  Tm  Tm10  1  0.788179  0.414078  0.123206  1
  Tm  Tm11  1  0.788120  0.586210  0.623501  1
  Tm  Tm12  1  0.914078  0.711821  0.123206  1
  Tm  Tm13  1  0.913790  0.288120  0.623501  1
  Tm  Tm14  1  0.086210  0.711880  0.623501  1
  Tm  Tm15  1  0.085922  0.288179  0.123206  1
  Sc  Sc16  1  0.000000  0.000000  0.499739  1
  Sc  Sc17  1  0.000000  0.000000  0.999445  1
  Sc  Sc18  1  0.500000  0.500000  0.999445  1
  Sc  Sc19  1  0.500000  0.500000  0.499739  1
  Ir  Ir20  1  0.851876  0.149189  0.250352  1
  Ir  Ir21  1  0.851888  0.850993  0.749845  1
  Ir  Ir22  1  0.148112  0.149007  0.749845  1
  Ir  Ir23  1  0.148124  0.850811  0.250352  1
  Ir  Ir24  1  0.649007  0.351888  0.749845  1
  Ir  Ir25  1  0.649189  0.648124  0.250352  1
  Ir  Ir26  1  0.350811  0.351876  0.250352  1
  Ir  Ir27  1  0.350993  0.648112  0.749845  1
  Ir  Ir28  1  0.500000  0.000000  0.623498  1
  Ir  Ir29  1  0.000000  0.500000  0.877382  1
  Ir  Ir30  1  0.000000  0.500000  0.377663  1
  Os  Os31  1  0.500000  0.000000  0.125357  1
