# generated using pymatgen
data_K3Rh(IO3)6
_symmetry_space_group_name_H-M   'P 1'
_cell_length_a   7.00503061
_cell_length_b   7.00585626
_cell_length_c   10.62735290
_cell_angle_alpha   88.38777102
_cell_angle_beta   108.57937261
_cell_angle_gamma   106.91528678
_symmetry_Int_Tables_number   1
_chemical_formula_structural   K3Rh(IO3)6
_chemical_formula_sum   'K3 Rh1 I6 O18'
_cell_volume   471.78016626
_cell_formula_units_Z   1
loop_
 _symmetry_equiv_pos_site_id
 _symmetry_equiv_pos_as_xyz
  1  'x, y, z'
loop_
 _atom_site_type_symbol
 _atom_site_label
 _atom_site_symmetry_multiplicity
 _atom_site_fract_x
 _atom_site_fract_y
 _atom_site_fract_z
 _atom_site_occupancy
  K  K0  1  0.000000  0.000000  0.000000  1
  K  K1  1  0.828020  0.024189  0.601837  1
  K  K2  1  0.171980  0.975811  0.398163  1
  Rh  Rh3  1  0.500000  0.500000  0.000000  1
  I  I4  1  0.027526  0.472315  0.188382  1
  I  I5  1  0.972474  0.527685  0.811618  1
  I  I6  1  0.555935  0.957460  0.189701  1
  I  I7  1  0.444065  0.042540  0.810299  1
  I  I8  1  0.406575  0.547933  0.639037  1
  I  I9  1  0.593425  0.452067  0.360963  1
  O  O10  1  0.821763  0.542418  0.044894  1
  O  O11  1  0.178237  0.457582  0.955106  1
  O  O12  1  0.955980  0.552657  0.325029  1
  O  O13  1  0.044020  0.447343  0.674971  1
  O  O14  1  0.919069  0.199035  0.183805  1
  O  O15  1  0.080931  0.800965  0.816195  1
  O  O16  1  0.569923  0.805677  0.049563  1
  O  O17  1  0.430077  0.194323  0.950437  1
  O  O18  1  0.282728  0.846076  0.187030  1
  O  O19  1  0.717272  0.153924  0.812970  1
  O  O20  1  0.698030  0.841882  0.331545  1
  O  O21  1  0.301970  0.158118  0.668455  1
  O  O22  1  0.533621  0.609194  0.823931  1
  O  O23  1  0.466379  0.390806  0.176069  1
  O  O24  1  0.667021  0.570144  0.618203  1
  O  O25  1  0.332979  0.429856  0.381797  1
  O  O26  1  0.407238  0.805955  0.604627  1
  O  O27  1  0.592762  0.194045  0.395373  1
