# generated using pymatgen
data_Cu2GeRh3S8
_symmetry_space_group_name_H-M   'P 1'
_cell_length_a   7.01150439
_cell_length_b   7.02941897
_cell_length_c   7.02471924
_cell_angle_alpha   60.02942441
_cell_angle_beta   59.91263455
_cell_angle_gamma   59.91463584
_symmetry_Int_Tables_number   1
_chemical_formula_structural   Cu2GeRh3S8
_chemical_formula_sum   'Cu2 Ge1 Rh3 S8'
_cell_volume   244.55282165
_cell_formula_units_Z   1
loop_
 _symmetry_equiv_pos_site_id
 _symmetry_equiv_pos_as_xyz
  1  'x, y, z'
loop_
 _atom_site_type_symbol
 _atom_site_label
 _atom_site_symmetry_multiplicity
 _atom_site_fract_x
 _atom_site_fract_y
 _atom_site_fract_z
 _atom_site_occupancy
  Cu  Cu0  1  0.745530  0.751481  0.751456  1
  Cu  Cu1  1  0.504470  0.498519  0.498544  1
  Ge  Ge2  1  0.625000  0.125000  0.125000  1
  Rh  Rh3  1  0.125000  0.125000  0.625000  1
  Rh  Rh4  1  0.125000  0.625000  0.125000  1
  Rh  Rh5  1  0.125000  0.125000  0.125000  1
  S  S6  1  0.890624  0.347441  0.880997  1
  S  S7  1  0.359374  0.368997  0.902536  1
  S  S8  1  0.359403  0.368979  0.369017  1
  S  S9  1  0.903670  0.365417  0.365424  1
  S  S10  1  0.890597  0.881021  0.880983  1
  S  S11  1  0.346330  0.884583  0.884576  1
  S  S12  1  0.359376  0.902559  0.369003  1
  S  S13  1  0.890626  0.881003  0.347464  1
