# generated using pymatgen
data_CePrAl20IrRu3
_symmetry_space_group_name_H-M   'P 1'
_cell_length_a   6.86594969
_cell_length_b   6.86762481
_cell_length_c   9.17079701
_cell_angle_alpha   90.08220610
_cell_angle_beta   90.00302570
_cell_angle_gamma   97.24963012
_symmetry_Int_Tables_number   1
_chemical_formula_structural   CePrAl20IrRu3
_chemical_formula_sum   'Ce1 Pr1 Al20 Ir1 Ru3'
_cell_volume   428.97106105
_cell_formula_units_Z   1
loop_
 _symmetry_equiv_pos_site_id
 _symmetry_equiv_pos_as_xyz
  1  'x, y, z'
loop_
 _atom_site_type_symbol
 _atom_site_label
 _atom_site_symmetry_multiplicity
 _atom_site_fract_x
 _atom_site_fract_y
 _atom_site_fract_z
 _atom_site_occupancy
  Ce  Ce0  1  0.877010  0.124728  0.749743  1
  Pr  Pr1  1  0.124818  0.873710  0.250001  1
  Al  Al2  1  0.409152  0.141440  0.748696  1
  Al  Al3  1  0.140668  0.410199  0.250256  1
  Al  Al4  1  0.590454  0.858580  0.251422  1
  Al  Al5  1  0.859348  0.589965  0.749729  1
  Al  Al6  1  0.518889  0.777557  0.747728  1
  Al  Al7  1  0.777816  0.517990  0.249754  1
  Al  Al8  1  0.481705  0.223203  0.252422  1
  Al  Al9  1  0.221801  0.481530  0.750229  1
  Al  Al10  1  0.839954  0.159448  0.398725  1
  Al  Al11  1  0.159178  0.841375  0.601397  1
  Al  Al12  1  0.841434  0.161148  0.102542  1
  Al  Al13  1  0.157642  0.839905  0.897281  1
  Al  Al14  1  0.622684  0.377600  0.551235  1
  Al  Al15  1  0.377144  0.622399  0.449508  1
  Al  Al16  1  0.623331  0.379546  0.947761  1
  Al  Al17  1  0.376646  0.620333  0.051538  1
  Al  Al18  1  0.775904  0.773368  0.000513  1
  Al  Al19  1  0.774694  0.774119  0.500892  1
  Al  Al20  1  0.223943  0.226469  0.998195  1
  Al  Al21  1  0.225377  0.225860  0.500133  1
  Ir  Ir22  1  0.500753  0.000685  0.999421  1
  Ru  Ru23  1  0.999381  0.499155  0.999193  1
  Ru  Ru24  1  0.500924  0.000642  0.500874  1
  Ru  Ru25  1  0.999351  0.499048  0.500812  1
