# generated using pymatgen
data_TbNdSiPd14
_symmetry_space_group_name_H-M   'P 1'
_cell_length_a   8.96116600
_cell_length_b   8.96116600
_cell_length_c   7.13887900
_cell_angle_alpha   90.00000000
_cell_angle_beta   90.00000000
_cell_angle_gamma   90.00000000
_symmetry_Int_Tables_number   1
_chemical_formula_structural   TbNdSiPd14
_chemical_formula_sum   'Tb2 Nd2 Si2 Pd28'
_cell_volume   573.26980291
_cell_formula_units_Z   2
loop_
 _symmetry_equiv_pos_site_id
 _symmetry_equiv_pos_as_xyz
  1  'x, y, z'
loop_
 _atom_site_type_symbol
 _atom_site_label
 _atom_site_symmetry_multiplicity
 _atom_site_fract_x
 _atom_site_fract_y
 _atom_site_fract_z
 _atom_site_occupancy
  Tb  Tb0  1  0.000000  0.000000  0.500000  1
  Tb  Tb1  1  0.500000  0.500000  0.500000  1
  Nd  Nd2  1  0.500000  0.000000  0.936240  1
  Nd  Nd3  1  0.000000  0.500000  0.063760  1
  Si  Si4  1  0.500000  0.000000  0.448537  1
  Si  Si5  1  0.000000  0.500000  0.551463  1
  Pd  Pd6  1  0.334171  0.834171  0.614658  1
  Pd  Pd7  1  0.334171  0.165829  0.614658  1
  Pd  Pd8  1  0.665829  0.834171  0.614658  1
  Pd  Pd9  1  0.665829  0.165829  0.614658  1
  Pd  Pd10  1  0.165829  0.665829  0.385342  1
  Pd  Pd11  1  0.165829  0.334171  0.385342  1
  Pd  Pd12  1  0.834171  0.665829  0.385342  1
  Pd  Pd13  1  0.834171  0.334171  0.385342  1
  Pd  Pd14  1  0.500000  0.769121  0.258654  1
  Pd  Pd15  1  0.500000  0.230879  0.258654  1
  Pd  Pd16  1  0.269121  0.000000  0.258654  1
  Pd  Pd17  1  0.730879  0.000000  0.258654  1
  Pd  Pd18  1  0.000000  0.730879  0.741346  1
  Pd  Pd19  1  0.000000  0.269121  0.741346  1
  Pd  Pd20  1  0.230879  0.500000  0.741346  1
  Pd  Pd21  1  0.769121  0.500000  0.741346  1
  Pd  Pd22  1  0.500000  0.349683  0.853035  1
  Pd  Pd23  1  0.500000  0.650317  0.853035  1
  Pd  Pd24  1  0.849683  0.000000  0.853035  1
  Pd  Pd25  1  0.150317  0.000000  0.853035  1
  Pd  Pd26  1  0.000000  0.150317  0.146965  1
  Pd  Pd27  1  0.000000  0.849683  0.146965  1
  Pd  Pd28  1  0.650317  0.500000  0.146965  1
  Pd  Pd29  1  0.349683  0.500000  0.146965  1
  Pd  Pd30  1  0.250000  0.750000  0.000000  1
  Pd  Pd31  1  0.250000  0.250000  0.000000  1
  Pd  Pd32  1  0.750000  0.750000  0.000000  1
  Pd  Pd33  1  0.750000  0.250000  0.000000  1
