# generated using pymatgen
data_TbPrB2Pt7Au
_symmetry_space_group_name_H-M   'P 1'
_cell_length_a   5.50342300
_cell_length_b   5.50342314
_cell_length_c   7.76127900
_cell_angle_alpha   90.00000000
_cell_angle_beta   90.00000000
_cell_angle_gamma   120.00000516
_symmetry_Int_Tables_number   1
_chemical_formula_structural   TbPrB2Pt7Au
_chemical_formula_sum   'Tb1 Pr1 B2 Pt7 Au1'
_cell_volume   203.57746629
_cell_formula_units_Z   1
loop_
 _symmetry_equiv_pos_site_id
 _symmetry_equiv_pos_as_xyz
  1  'x, y, z'
loop_
 _atom_site_type_symbol
 _atom_site_label
 _atom_site_symmetry_multiplicity
 _atom_site_fract_x
 _atom_site_fract_y
 _atom_site_fract_z
 _atom_site_occupancy
  Tb  Tb0  1  0.000000  0.000000  0.500000  1
  Pr  Pr1  1  0.000000  0.000000  0.000000  1
  B  B2  1  0.666667  0.333333  0.500000  1
  B  B3  1  0.333333  0.666667  0.500000  1
  Pt  Pt4  1  0.499318  0.500682  0.305274  1
  Pt  Pt5  1  0.499318  0.998635  0.305274  1
  Pt  Pt6  1  0.499318  0.998635  0.694726  1
  Pt  Pt7  1  0.499318  0.500682  0.694726  1
  Pt  Pt8  1  0.001365  0.500682  0.694726  1
  Pt  Pt9  1  0.333333  0.666667  0.000000  1
  Pt  Pt10  1  0.001365  0.500682  0.305274  1
  Au  Au11  1  0.666667  0.333333  0.000000  1
