# generated using pymatgen
data_NdTmSbTe
_symmetry_space_group_name_H-M   'P 1'
_cell_length_a   7.68544004
_cell_length_b   7.68544024
_cell_length_c   7.68543919
_cell_angle_alpha   33.41541293
_cell_angle_beta   33.41540878
_cell_angle_gamma   33.41541367
_symmetry_Int_Tables_number   1
_chemical_formula_structural   NdTmSbTe
_chemical_formula_sum   'Nd1 Tm1 Sb1 Te1'
_cell_volume   122.59886492
_cell_formula_units_Z   1
loop_
 _symmetry_equiv_pos_site_id
 _symmetry_equiv_pos_as_xyz
  1  'x, y, z'
loop_
 _atom_site_type_symbol
 _atom_site_label
 _atom_site_symmetry_multiplicity
 _atom_site_fract_x
 _atom_site_fract_y
 _atom_site_fract_z
 _atom_site_occupancy
  Nd  Nd0  1  0.253784  0.253784  0.253784  1
  Tm  Tm1  1  0.745953  0.745953  0.745953  1
  Sb  Sb2  1  0.005057  0.005057  0.005057  1
  Te  Te3  1  0.495206  0.495206  0.495206  1
