# generated using pymatgen
data_Nb12Zn3Ga8FeN4
_symmetry_space_group_name_H-M   'P 1'
_cell_length_a   8.31773378
_cell_length_b   8.31773324
_cell_length_c   8.31773500
_cell_angle_alpha   59.61051573
_cell_angle_beta   59.61051974
_cell_angle_gamma   59.61051296
_symmetry_Int_Tables_number   1
_chemical_formula_structural   Nb12Zn3Ga8FeN4
_chemical_formula_sum   'Nb12 Zn3 Ga8 Fe1 N4'
_cell_volume   403.30965429
_cell_formula_units_Z   1
loop_
 _symmetry_equiv_pos_site_id
 _symmetry_equiv_pos_as_xyz
  1  'x, y, z'
loop_
 _atom_site_type_symbol
 _atom_site_label
 _atom_site_symmetry_multiplicity
 _atom_site_fract_x
 _atom_site_fract_y
 _atom_site_fract_z
 _atom_site_occupancy
  Nb  Nb0  1  0.811371  0.811371  0.185880  1
  Nb  Nb1  1  0.192521  0.192521  0.809212  1
  Nb  Nb2  1  0.811371  0.185880  0.811371  1
  Nb  Nb3  1  0.192521  0.809212  0.192521  1
  Nb  Nb4  1  0.185880  0.811371  0.811371  1
  Nb  Nb5  1  0.809212  0.192521  0.192521  1
  Nb  Nb6  1  0.438629  0.438629  0.064120  1
  Nb  Nb7  1  0.057479  0.057479  0.440788  1
  Nb  Nb8  1  0.438629  0.064120  0.438629  1
  Nb  Nb9  1  0.057479  0.440788  0.057479  1
  Nb  Nb10  1  0.064120  0.438629  0.438629  1
  Nb  Nb11  1  0.440788  0.057479  0.057479  1
  Zn  Zn12  1  0.125000  0.625000  0.625000  1
  Zn  Zn13  1  0.625000  0.125000  0.625000  1
  Zn  Zn14  1  0.625000  0.625000  0.125000  1
  Ga  Ga15  1  0.761182  0.418592  0.418592  1
  Ga  Ga16  1  0.418592  0.761182  0.418592  1
  Ga  Ga17  1  0.418592  0.418592  0.761182  1
  Ga  Ga18  1  0.412856  0.412856  0.412856  1
  Ga  Ga19  1  0.488818  0.831408  0.831408  1
  Ga  Ga20  1  0.831408  0.488818  0.831408  1
  Ga  Ga21  1  0.831408  0.831408  0.488818  1
  Ga  Ga22  1  0.837144  0.837144  0.837144  1
  Fe  Fe23  1  0.625000  0.625000  0.625000  1
  N  N24  1  0.625000  0.125000  0.125000  1
  N  N25  1  0.125000  0.625000  0.125000  1
  N  N26  1  0.125000  0.125000  0.625000  1
  N  N27  1  0.125000  0.125000  0.125000  1
