# generated using pymatgen
data_Yb3Sn3HgPd2
_symmetry_space_group_name_H-M   'P 1'
_cell_length_a   7.84036300
_cell_length_b   7.84036365
_cell_length_c   3.92445600
_cell_angle_alpha   90.00000000
_cell_angle_beta   90.00000000
_cell_angle_gamma   120.00000146
_symmetry_Int_Tables_number   1
_chemical_formula_structural   Yb3Sn3HgPd2
_chemical_formula_sum   'Yb3 Sn3 Hg1 Pd2'
_cell_volume   208.92117842
_cell_formula_units_Z   1
loop_
 _symmetry_equiv_pos_site_id
 _symmetry_equiv_pos_as_xyz
  1  'x, y, z'
loop_
 _atom_site_type_symbol
 _atom_site_label
 _atom_site_symmetry_multiplicity
 _atom_site_fract_x
 _atom_site_fract_y
 _atom_site_fract_z
 _atom_site_occupancy
  Yb  Yb0  1  0.985326  0.591159  0.000000  1
  Yb  Yb1  1  0.408841  0.394166  0.000000  1
  Yb  Yb2  1  0.605834  0.014674  0.000000  1
  Sn  Sn3  1  0.748869  0.738825  0.500000  1
  Sn  Sn4  1  0.989956  0.251131  0.500000  1
  Sn  Sn5  1  0.261175  0.010044  0.500000  1
  Hg  Hg6  1  0.333333  0.666667  0.500000  1
  Pd  Pd7  1  0.000000  0.000000  0.000000  1
  Pd  Pd8  1  0.666667  0.333333  0.500000  1
