# generated using pymatgen
data_Cs3Rb2CuSb2
_symmetry_space_group_name_H-M   'P 1'
_cell_length_a   6.41505700
_cell_length_b   6.41505647
_cell_length_c   21.46929000
_cell_angle_alpha   90.00000000
_cell_angle_beta   90.00000000
_cell_angle_gamma   119.99999760
_symmetry_Int_Tables_number   1
_chemical_formula_structural   Cs3Rb2CuSb2
_chemical_formula_sum   'Cs6 Rb4 Cu2 Sb4'
_cell_volume   765.15483608
_cell_formula_units_Z   2
loop_
 _symmetry_equiv_pos_site_id
 _symmetry_equiv_pos_as_xyz
  1  'x, y, z'
loop_
 _atom_site_type_symbol
 _atom_site_label
 _atom_site_symmetry_multiplicity
 _atom_site_fract_x
 _atom_site_fract_y
 _atom_site_fract_z
 _atom_site_occupancy
  Cs  Cs0  1  0.333333  0.666667  0.549895  1
  Cs  Cs1  1  0.666667  0.333333  0.049895  1
  Cs  Cs2  1  0.666667  0.333333  0.450105  1
  Cs  Cs3  1  0.333333  0.666667  0.950105  1
  Cs  Cs4  1  0.333333  0.666667  0.750000  1
  Cs  Cs5  1  0.666667  0.333333  0.250000  1
  Rb  Rb6  1  0.000000  0.000000  0.148931  1
  Rb  Rb7  1  0.000000  0.000000  0.648931  1
  Rb  Rb8  1  0.000000  0.000000  0.851069  1
  Rb  Rb9  1  0.000000  0.000000  0.351069  1
  Cu  Cu10  1  0.333333  0.666667  0.250000  1
  Cu  Cu11  1  0.666667  0.333333  0.750000  1
  Sb  Sb12  1  0.333333  0.666667  0.368088  1
  Sb  Sb13  1  0.666667  0.333333  0.868088  1
  Sb  Sb14  1  0.666667  0.333333  0.631912  1
  Sb  Sb15  1  0.333333  0.666667  0.131912  1
