# generated using pymatgen
data_Tb3Tm9Co4BiIr
_symmetry_space_group_name_H-M   'P 1'
_cell_length_a   8.25566074
_cell_length_b   8.25566148
_cell_length_c   8.24703168
_cell_angle_alpha   110.82686670
_cell_angle_beta   111.03099401
_cell_angle_gamma   106.63827642
_symmetry_Int_Tables_number   1
_chemical_formula_structural   Tb3Tm9Co4BiIr
_chemical_formula_sum   'Tb3 Tm9 Co4 Bi1 Ir1'
_cell_volume   431.65185531
_cell_formula_units_Z   1
loop_
 _symmetry_equiv_pos_site_id
 _symmetry_equiv_pos_as_xyz
  1  'x, y, z'
loop_
 _atom_site_type_symbol
 _atom_site_label
 _atom_site_symmetry_multiplicity
 _atom_site_fract_x
 _atom_site_fract_y
 _atom_site_fract_z
 _atom_site_occupancy
  Tb  Tb0  1  0.284921  0.183993  0.468913  1
  Tb  Tb1  1  0.715735  0.816864  0.532600  1
  Tb  Tb2  1  0.284970  0.815359  0.100328  1
  Tm  Tm3  1  0.716682  0.182973  0.899656  1
  Tm  Tm4  1  0.622671  0.312033  0.309551  1
  Tm  Tm5  1  0.378276  0.688978  0.689838  1
  Tm  Tm6  1  0.000861  0.311562  0.689838  1
  Tm  Tm7  1  0.997517  0.686880  0.309551  1
  Tm  Tm8  1  0.211297  0.409229  0.196117  1
  Tm  Tm9  1  0.787047  0.588859  0.803027  1
  Tm  Tm10  1  0.214168  0.015980  0.803027  1
  Tm  Tm11  1  0.786886  0.984820  0.196117  1
  Co  Co12  1  0.998914  0.375629  0.374543  1
  Co  Co13  1  0.999802  0.623736  0.623539  1
  Co  Co14  1  0.389487  0.889947  0.502735  1
  Co  Co15  1  0.612788  0.113248  0.502735  1
  Bi  Bi16  1  0.499870  0.500113  0.999982  1
  Ir  Ir17  1  0.998107  0.999796  0.997902  1
