# generated using pymatgen
data_DyTi4(ReTc)12
_symmetry_space_group_name_H-M   'P 1'
_cell_length_a   8.38545814
_cell_length_b   8.38545723
_cell_length_c   8.38545800
_cell_angle_alpha   109.47121767
_cell_angle_beta   109.47121547
_cell_angle_gamma   109.47122799
_symmetry_Int_Tables_number   1
_chemical_formula_structural   DyTi4(ReTc)12
_chemical_formula_sum   'Dy1 Ti4 Re12 Tc12'
_cell_volume   453.89818314
_cell_formula_units_Z   1
loop_
 _symmetry_equiv_pos_site_id
 _symmetry_equiv_pos_as_xyz
  1  'x, y, z'
loop_
 _atom_site_type_symbol
 _atom_site_label
 _atom_site_symmetry_multiplicity
 _atom_site_fract_x
 _atom_site_fract_y
 _atom_site_fract_z
 _atom_site_occupancy
  Dy  Dy0  1  0.000000  0.000000  0.000000  1
  Ti  Ti1  1  0.627710  0.000000  0.000000  1
  Ti  Ti2  1  0.000000  0.627710  0.000000  1
  Ti  Ti3  1  0.000000  0.000000  0.627710  1
  Ti  Ti4  1  0.372290  0.372290  0.372290  1
  Re  Re5  1  0.378915  0.194993  0.000000  1
  Re  Re6  1  0.183923  0.805007  0.805007  1
  Re  Re7  1  0.378915  0.000000  0.194993  1
  Re  Re8  1  0.194993  0.378915  0.000000  1
  Re  Re9  1  0.000000  0.378915  0.194993  1
  Re  Re10  1  0.805007  0.183923  0.805007  1
  Re  Re11  1  0.805007  0.805007  0.183923  1
  Re  Re12  1  0.000000  0.194993  0.378915  1
  Re  Re13  1  0.194993  0.000000  0.378915  1
  Re  Re14  1  0.621085  0.621085  0.816077  1
  Re  Re15  1  0.816077  0.621085  0.621085  1
  Re  Re16  1  0.621085  0.816077  0.621085  1
  Tc  Tc17  1  0.400820  0.681350  0.000000  1
  Tc  Tc18  1  0.719471  0.318650  0.318650  1
  Tc  Tc19  1  0.400820  0.000000  0.681350  1
  Tc  Tc20  1  0.681350  0.400820  0.000000  1
  Tc  Tc21  1  0.000000  0.400820  0.681350  1
  Tc  Tc22  1  0.318650  0.719471  0.318650  1
  Tc  Tc23  1  0.318650  0.318650  0.719471  1
  Tc  Tc24  1  0.000000  0.681350  0.400820  1
  Tc  Tc25  1  0.681350  0.000000  0.400820  1
  Tc  Tc26  1  0.599180  0.599180  0.280529  1
  Tc  Tc27  1  0.280529  0.599180  0.599180  1
  Tc  Tc28  1  0.599180  0.280529  0.599180  1
