# generated using pymatgen
data_TbDySc2(B6Os)2
_symmetry_space_group_name_H-M   'P 1'
_cell_length_a   3.57511300
_cell_length_b   8.97907500
_cell_length_c   11.36912200
_cell_angle_alpha   90.00025006
_cell_angle_beta   90.00000000
_cell_angle_gamma   90.00000000
_symmetry_Int_Tables_number   1
_chemical_formula_structural   TbDySc2(B6Os)2
_chemical_formula_sum   'Tb2 Dy2 Sc4 B24 Os4'
_cell_volume   364.96254739
_cell_formula_units_Z   2
loop_
 _symmetry_equiv_pos_site_id
 _symmetry_equiv_pos_as_xyz
  1  'x, y, z'
loop_
 _atom_site_type_symbol
 _atom_site_label
 _atom_site_symmetry_multiplicity
 _atom_site_fract_x
 _atom_site_fract_y
 _atom_site_fract_z
 _atom_site_occupancy
  Tb  Tb0  1  0.000000  0.319872  0.414049  1
  Tb  Tb1  1  0.000000  0.680128  0.585951  1
  Dy  Dy2  1  0.000000  0.819823  0.085949  1
  Dy  Dy3  1  0.000000  0.180177  0.914051  1
  Sc  Sc4  1  0.000000  0.945085  0.374392  1
  Sc  Sc5  1  0.000000  0.054915  0.625608  1
  Sc  Sc6  1  0.000000  0.445136  0.125390  1
  Sc  Sc7  1  0.000000  0.554864  0.874610  1
  B  B8  1  0.500000  0.554834  0.432545  1
  B  B9  1  0.500000  0.445166  0.567455  1
  B  B10  1  0.500000  0.054642  0.067046  1
  B  B11  1  0.500000  0.945358  0.932954  1
  B  B12  1  0.500000  0.752890  0.418757  1
  B  B13  1  0.500000  0.247110  0.581243  1
  B  B14  1  0.500000  0.252658  0.080789  1
  B  B15  1  0.500000  0.747342  0.919211  1
  B  B16  1  0.500000  0.793285  0.265564  1
  B  B17  1  0.500000  0.206715  0.734436  1
  B  B18  1  0.500000  0.293095  0.233860  1
  B  B19  1  0.500000  0.706905  0.766140  1
  B  B20  1  0.500000  0.628953  0.182579  1
  B  B21  1  0.500000  0.371047  0.817421  1
  B  B22  1  0.500000  0.128625  0.316995  1
  B  B23  1  0.500000  0.871375  0.683005  1
  B  B24  1  0.500000  0.981501  0.214447  1
  B  B25  1  0.500000  0.018499  0.785553  1
  B  B26  1  0.500000  0.481769  0.285063  1
  B  B27  1  0.500000  0.518231  0.714937  1
  B  B28  1  0.500000  0.600149  0.027170  1
  B  B29  1  0.500000  0.399851  0.972830  1
  B  B30  1  0.500000  0.099729  0.472898  1
  B  B31  1  0.500000  0.900271  0.527102  1
  Os  Os32  1  0.000000  0.639758  0.318544  1
  Os  Os33  1  0.000000  0.360242  0.681456  1
  Os  Os34  1  0.000000  0.139325  0.180928  1
  Os  Os35  1  0.000000  0.860675  0.819072  1
