# generated using pymatgen
data_EuGaSiPt2
_symmetry_space_group_name_H-M   'P 1'
_cell_length_a   4.22894900
_cell_length_b   4.22894900
_cell_length_c   10.44192200
_cell_angle_alpha   90.00000000
_cell_angle_beta   90.00000000
_cell_angle_gamma   90.00000000
_symmetry_Int_Tables_number   1
_chemical_formula_structural   EuGaSiPt2
_chemical_formula_sum   'Eu2 Ga2 Si2 Pt4'
_cell_volume   186.74343376
_cell_formula_units_Z   2
loop_
 _symmetry_equiv_pos_site_id
 _symmetry_equiv_pos_as_xyz
  1  'x, y, z'
loop_
 _atom_site_type_symbol
 _atom_site_label
 _atom_site_symmetry_multiplicity
 _atom_site_fract_x
 _atom_site_fract_y
 _atom_site_fract_z
 _atom_site_occupancy
  Eu  Eu0  1  0.000000  0.500000  0.750556  1
  Eu  Eu1  1  0.500000  0.000000  0.249444  1
  Ga  Ga2  1  0.500000  0.500000  0.500000  1
  Ga  Ga3  1  0.000000  0.000000  0.500000  1
  Si  Si4  1  0.000000  0.500000  0.125341  1
  Si  Si5  1  0.500000  0.000000  0.874659  1
  Pt  Pt6  1  0.500000  0.000000  0.644466  1
  Pt  Pt7  1  0.000000  0.000000  0.000000  1
  Pt  Pt8  1  0.500000  0.500000  0.000000  1
  Pt  Pt9  1  0.000000  0.500000  0.355534  1
