# generated using pymatgen
data_TbSm(SbO3)6
_symmetry_space_group_name_H-M   'P 1'
_cell_length_a   5.54747001
_cell_length_b   5.54746928
_cell_length_c   11.66044500
_cell_angle_alpha   90.00000000
_cell_angle_beta   90.00000000
_cell_angle_gamma   106.62673278
_symmetry_Int_Tables_number   1
_chemical_formula_structural   TbSm(SbO3)6
_chemical_formula_sum   'Tb1 Sm1 Sb6 O18'
_cell_volume   343.83988614
_cell_formula_units_Z   1
loop_
 _symmetry_equiv_pos_site_id
 _symmetry_equiv_pos_as_xyz
  1  'x, y, z'
loop_
 _atom_site_type_symbol
 _atom_site_label
 _atom_site_symmetry_multiplicity
 _atom_site_fract_x
 _atom_site_fract_y
 _atom_site_fract_z
 _atom_site_occupancy
  Tb  Tb0  1  0.752581  0.247419  0.750000  1
  Sm  Sm1  1  0.246700  0.753300  0.250000  1
  Sb  Sb2  1  0.122230  0.877770  0.906494  1
  Sb  Sb3  1  0.877382  0.122618  0.407831  1
  Sb  Sb4  1  0.877382  0.122618  0.092169  1
  Sb  Sb5  1  0.122230  0.877770  0.593506  1
  Sb  Sb6  1  0.500404  0.499596  0.999152  1
  Sb  Sb7  1  0.500404  0.499596  0.500848  1
  O  O8  1  0.953586  0.046414  0.250000  1
  O  O9  1  0.044166  0.955834  0.750000  1
  O  O10  1  0.105882  0.894118  0.074856  1
  O  O11  1  0.892898  0.107102  0.576758  1
  O  O12  1  0.892898  0.107102  0.923242  1
  O  O13  1  0.105882  0.894118  0.425144  1
  O  O14  1  0.338400  0.661600  0.878937  1
  O  O15  1  0.661378  0.338622  0.379357  1
  O  O16  1  0.423522  0.190022  0.604277  1
  O  O17  1  0.578690  0.809280  0.102284  1
  O  O18  1  0.190720  0.421310  0.397716  1
  O  O19  1  0.809978  0.576478  0.895723  1
  O  O20  1  0.578690  0.809280  0.397716  1
  O  O21  1  0.423522  0.190022  0.895723  1
  O  O22  1  0.809978  0.576478  0.604277  1
  O  O23  1  0.190720  0.421310  0.102284  1
  O  O24  1  0.338400  0.661600  0.621063  1
  O  O25  1  0.661378  0.338622  0.120643  1
