# generated using pymatgen
data_Pr4ZrIr3
_symmetry_space_group_name_H-M   'P 1'
_cell_length_a   11.26941800
_cell_length_b   11.26941800
_cell_length_c   6.41231900
_cell_angle_alpha   90.00000000
_cell_angle_beta   90.00000000
_cell_angle_gamma   90.00000000
_symmetry_Int_Tables_number   1
_chemical_formula_structural   Pr4ZrIr3
_chemical_formula_sum   'Pr16 Zr4 Ir12'
_cell_volume   814.36311549
_cell_formula_units_Z   4
loop_
 _symmetry_equiv_pos_site_id
 _symmetry_equiv_pos_as_xyz
  1  'x, y, z'
loop_
 _atom_site_type_symbol
 _atom_site_label
 _atom_site_symmetry_multiplicity
 _atom_site_fract_x
 _atom_site_fract_y
 _atom_site_fract_z
 _atom_site_occupancy
  Pr  Pr0  1  0.287337  0.086796  0.377008  1
  Pr  Pr1  1  0.287337  0.913204  0.877008  1
  Pr  Pr2  1  0.712663  0.086796  0.877008  1
  Pr  Pr3  1  0.712663  0.913204  0.377008  1
  Pr  Pr4  1  0.586796  0.787337  0.877008  1
  Pr  Pr5  1  0.586796  0.212663  0.377008  1
  Pr  Pr6  1  0.413204  0.787337  0.377008  1
  Pr  Pr7  1  0.413204  0.212663  0.877008  1
  Pr  Pr8  1  0.212663  0.413204  0.622992  1
  Pr  Pr9  1  0.212663  0.586796  0.122992  1
  Pr  Pr10  1  0.787337  0.413204  0.122992  1
  Pr  Pr11  1  0.787337  0.586796  0.622992  1
  Pr  Pr12  1  0.913204  0.712663  0.122992  1
  Pr  Pr13  1  0.913204  0.287337  0.622992  1
  Pr  Pr14  1  0.086796  0.712663  0.622992  1
  Pr  Pr15  1  0.086796  0.287337  0.122992  1
  Zr  Zr16  1  0.000000  0.000000  0.500000  1
  Zr  Zr17  1  0.000000  0.000000  0.000000  1
  Zr  Zr18  1  0.500000  0.500000  0.000000  1
  Zr  Zr19  1  0.500000  0.500000  0.500000  1
  Ir  Ir20  1  0.862386  0.137614  0.250000  1
  Ir  Ir21  1  0.862386  0.862386  0.750000  1
  Ir  Ir22  1  0.137614  0.137614  0.750000  1
  Ir  Ir23  1  0.137614  0.862386  0.250000  1
  Ir  Ir24  1  0.637614  0.362386  0.750000  1
  Ir  Ir25  1  0.637614  0.637614  0.250000  1
  Ir  Ir26  1  0.362386  0.362386  0.250000  1
  Ir  Ir27  1  0.362386  0.637614  0.750000  1
  Ir  Ir28  1  0.500000  0.000000  0.117642  1
  Ir  Ir29  1  0.500000  0.000000  0.617642  1
  Ir  Ir30  1  0.000000  0.500000  0.882358  1
  Ir  Ir31  1  0.000000  0.500000  0.382358  1
