# generated using pymatgen
data_Ho4Tm3Lu3In8
_symmetry_space_group_name_H-M   'P 1'
_cell_length_a   9.17122750
_cell_length_b   9.17122546
_cell_length_c   6.61292701
_cell_angle_alpha   90.00235136
_cell_angle_beta   90.00235216
_cell_angle_gamma   119.73048962
_symmetry_Int_Tables_number   1
_chemical_formula_structural   Ho4Tm3Lu3In8
_chemical_formula_sum   'Ho4 Tm3 Lu3 In8'
_cell_volume   483.00568564
_cell_formula_units_Z   1
loop_
 _symmetry_equiv_pos_site_id
 _symmetry_equiv_pos_as_xyz
  1  'x, y, z'
loop_
 _atom_site_type_symbol
 _atom_site_label
 _atom_site_symmetry_multiplicity
 _atom_site_fract_x
 _atom_site_fract_y
 _atom_site_fract_z
 _atom_site_occupancy
  Ho  Ho0  1  0.292004  0.000754  0.750031  1
  Ho  Ho1  1  0.708031  0.999319  0.249968  1
  Ho  Ho2  1  0.000681  0.291969  0.750032  1
  Ho  Ho3  1  0.999246  0.707996  0.249969  1
  Tm  Tm4  1  0.334839  0.665161  0.500000  1
  Tm  Tm5  1  0.710020  0.709990  0.750031  1
  Tm  Tm6  1  0.290010  0.289980  0.249969  1
  Lu  Lu7  1  0.665149  0.334851  0.500000  1
  Lu  Lu8  1  0.665151  0.334849  0.000000  1
  Lu  Lu9  1  0.334844  0.665156  0.000000  1
  In  In10  1  0.999998  0.000002  0.500000  1
  In  In11  1  0.000002  0.999998  0.000000  1
  In  In12  1  0.630007  0.999643  0.750031  1
  In  In13  1  0.370066  0.000480  0.249971  1
  In  In14  1  0.999520  0.629934  0.750029  1
  In  In15  1  0.000357  0.369993  0.249969  1
  In  In16  1  0.373753  0.373676  0.750042  1
  In  In17  1  0.626324  0.626247  0.249958  1
