# generated using pymatgen
data_Dy8Tm12Sn3Pb13
_symmetry_space_group_name_H-M   'P 1'
_cell_length_a   8.11681300
_cell_length_b   8.15788943
_cell_length_c   15.44106200
_cell_angle_alpha   90.00000000
_cell_angle_beta   90.00000000
_cell_angle_gamma   89.81739940
_symmetry_Int_Tables_number   1
_chemical_formula_structural   Dy8Tm12Sn3Pb13
_chemical_formula_sum   'Dy8 Tm12 Sn3 Pb13'
_cell_volume   1022.44114133
_cell_formula_units_Z   1
loop_
 _symmetry_equiv_pos_site_id
 _symmetry_equiv_pos_as_xyz
  1  'x, y, z'
loop_
 _atom_site_type_symbol
 _atom_site_label
 _atom_site_symmetry_multiplicity
 _atom_site_fract_x
 _atom_site_fract_y
 _atom_site_fract_z
 _atom_site_occupancy
  Dy  Dy0  1  0.538289  0.327200  0.898575  1
  Dy  Dy1  1  0.037821  0.172527  0.601491  1
  Dy  Dy2  1  0.462194  0.672544  0.399606  1
  Dy  Dy3  1  0.962155  0.823996  0.099777  1
  Dy  Dy4  1  0.462194  0.672544  0.100394  1
  Dy  Dy5  1  0.962155  0.823996  0.400223  1
  Dy  Dy6  1  0.538289  0.327200  0.601425  1
  Dy  Dy7  1  0.037821  0.172527  0.898509  1
  Tm  Tm8  1  0.379458  0.838772  0.876432  1
  Tm  Tm9  1  0.878774  0.661810  0.623509  1
  Tm  Tm10  1  0.618578  0.161847  0.377460  1
  Tm  Tm11  1  0.123403  0.340763  0.121484  1
  Tm  Tm12  1  0.618578  0.161847  0.122540  1
  Tm  Tm13  1  0.123403  0.340763  0.378516  1
  Tm  Tm14  1  0.379458  0.838772  0.623568  1
  Tm  Tm15  1  0.878774  0.661810  0.876491  1
  Tm  Tm16  1  0.210989  0.508378  0.750000  1
  Tm  Tm17  1  0.711259  0.991963  0.750000  1
  Tm  Tm18  1  0.787954  0.493684  0.250000  1
  Tm  Tm19  1  0.291139  0.007431  0.250000  1
  Sn  Sn20  1  0.574619  0.624947  0.750000  1
  Sn  Sn21  1  0.074428  0.874969  0.750000  1
  Sn  Sn22  1  0.425121  0.375282  0.250000  1
  Pb  Pb23  1  0.282201  0.032048  0.041770  1
  Pb  Pb24  1  0.782759  0.466626  0.458392  1
  Pb  Pb25  1  0.716975  0.967550  0.541959  1
  Pb  Pb26  1  0.217203  0.533433  0.957356  1
  Pb  Pb27  1  0.716975  0.967550  0.958041  1
  Pb  Pb28  1  0.217203  0.533433  0.542644  1
  Pb  Pb29  1  0.282201  0.032048  0.458230  1
  Pb  Pb30  1  0.782759  0.466626  0.041608  1
  Pb  Pb31  1  0.926890  0.125822  0.250000  1
  Pb  Pb32  1  0.348878  0.153051  0.750000  1
  Pb  Pb33  1  0.848117  0.347351  0.750000  1
  Pb  Pb34  1  0.650049  0.846060  0.250000  1
  Pb  Pb35  1  0.150931  0.652825  0.250000  1
