# generated using pymatgen
data_AlV3Cu6(SeO3)12
_symmetry_space_group_name_H-M   'P 1'
_cell_length_a   7.75909796
_cell_length_b   8.37828546
_cell_length_c   12.61229200
_cell_angle_alpha   90.01745212
_cell_angle_beta   96.19539791
_cell_angle_gamma   89.99084880
_symmetry_Int_Tables_number   1
_chemical_formula_structural   AlV3Cu6(SeO3)12
_chemical_formula_sum   'Al1 V3 Cu6 Se12 O36'
_cell_volume   815.11053732
_cell_formula_units_Z   1
loop_
 _symmetry_equiv_pos_site_id
 _symmetry_equiv_pos_as_xyz
  1  'x, y, z'
loop_
 _atom_site_type_symbol
 _atom_site_label
 _atom_site_symmetry_multiplicity
 _atom_site_fract_x
 _atom_site_fract_y
 _atom_site_fract_z
 _atom_site_occupancy
  Al  Al0  1  0.133516  0.505668  0.822367  1
  V  V1  1  0.631721  0.992942  0.822182  1
  V  V2  1  0.870276  0.493799  0.177845  1
  V  V3  1  0.366853  0.006719  0.174773  1
  Cu  Cu4  1  0.499586  0.499531  0.501876  1
  Cu  Cu5  1  0.000640  0.999446  0.500700  1
  Cu  Cu6  1  0.361053  0.131362  0.619145  1
  Cu  Cu7  1  0.135361  0.630461  0.384282  1
  Cu  Cu8  1  0.636907  0.870174  0.380880  1
  Cu  Cu9  1  0.865799  0.376282  0.621910  1
  Se  Se10  1  0.546876  0.403351  0.784504  1
  Se  Se11  1  0.943066  0.901519  0.216200  1
  Se  Se12  1  0.443612  0.598425  0.217241  1
  Se  Se13  1  0.056737  0.104702  0.785054  1
  Se  Se14  1  0.306861  0.191752  0.393058  1
  Se  Se15  1  0.191613  0.689207  0.611766  1
  Se  Se16  1  0.692227  0.809021  0.606373  1
  Se  Se17  1  0.808962  0.308829  0.395514  1
  Se  Se18  1  0.637467  0.201383  0.043080  1
  Se  Se19  1  0.871151  0.695799  0.952832  1
  Se  Se20  1  0.364645  0.792215  0.955436  1
  Se  Se21  1  0.134789  0.304285  0.037415  1
  O  O22  1  0.344019  0.484413  0.750504  1
  O  O23  1  0.140204  0.990339  0.249306  1
  O  O24  1  0.642537  0.511599  0.250751  1
  O  O25  1  0.857915  0.020545  0.748304  1
  O  O26  1  0.645729  0.469711  0.676780  1
  O  O27  1  0.843797  0.967656  0.324179  1
  O  O28  1  0.343946  0.533634  0.325410  1
  O  O29  1  0.156884  0.037098  0.677681  1
  O  O30  1  0.506287  0.200112  0.748447  1
  O  O31  1  0.989558  0.698965  0.254095  1
  O  O32  1  0.489374  0.801393  0.252676  1
  O  O33  1  0.018236  0.309171  0.749223  1
  O  O34  1  0.449306  0.267799  0.501704  1
  O  O35  1  0.046495  0.765481  0.504108  1
  O  O36  1  0.550763  0.730801  0.497943  1
  O  O37  1  0.946107  0.228746  0.506978  1
  O  O38  1  0.457143  0.095899  0.325474  1
  O  O39  1  0.043036  0.595078  0.682011  1
  O  O40  1  0.540910  0.906587  0.672304  1
  O  O41  1  0.961425  0.404902  0.329611  1
  O  O42  1  0.246496  0.042323  0.483386  1
  O  O43  1  0.250924  0.542456  0.519279  1
  O  O44  1  0.751210  0.957667  0.515860  1
  O  O45  1  0.749595  0.457299  0.485818  1
  O  O46  1  0.750128  0.112035  0.946118  1
  O  O47  1  0.756680  0.606010  0.049430  1
  O  O48  1  0.250617  0.882034  0.052516  1
  O  O49  1  0.244800  0.391151  0.938488  1
  O  O50  1  0.591492  0.031185  0.112913  1
  O  O51  1  0.919461  0.529493  0.879827  1
  O  O52  1  0.409641  0.963396  0.886115  1
  O  O53  1  0.093094  0.472059  0.110979  1
  O  O54  1  0.812452  0.270841  0.127844  1
  O  O55  1  0.695457  0.768569  0.870358  1
  O  O56  1  0.194881  0.718209  0.869926  1
  O  O57  1  0.309675  0.228470  0.119219  1
