# generated using pymatgen
data_TmGa2Cu3
_symmetry_space_group_name_H-M   'P 1'
_cell_length_a   5.04820351
_cell_length_b   5.04820317
_cell_length_c   4.12491800
_cell_angle_alpha   90.00000000
_cell_angle_beta   90.00000000
_cell_angle_gamma   118.05887721
_symmetry_Int_Tables_number   1
_chemical_formula_structural   TmGa2Cu3
_chemical_formula_sum   'Tm1 Ga2 Cu3'
_cell_volume   92.76546800
_cell_formula_units_Z   1
loop_
 _symmetry_equiv_pos_site_id
 _symmetry_equiv_pos_as_xyz
  1  'x, y, z'
loop_
 _atom_site_type_symbol
 _atom_site_label
 _atom_site_symmetry_multiplicity
 _atom_site_fract_x
 _atom_site_fract_y
 _atom_site_fract_z
 _atom_site_occupancy
  Tm  Tm0  1  0.500000  0.500000  0.000000  1
  Ga  Ga1  1  0.000000  0.500000  0.500000  1
  Ga  Ga2  1  0.500000  0.000000  0.500000  1
  Cu  Cu3  1  0.162126  0.837874  0.000000  1
  Cu  Cu4  1  0.837874  0.162126  0.000000  1
  Cu  Cu5  1  0.000000  0.000000  0.500000  1
