# generated using pymatgen
data_LiHf2Mg(SbPt)4
_symmetry_space_group_name_H-M   'P 1'
_cell_length_a   6.36206585
_cell_length_b   6.36206603
_cell_length_c   7.79400867
_cell_angle_alpha   65.91205990
_cell_angle_beta   65.91205498
_cell_angle_gamma   89.99999826
_symmetry_Int_Tables_number   1
_chemical_formula_structural   LiHf2Mg(SbPt)4
_chemical_formula_sum   'Li1 Hf2 Mg1 Sb4 Pt4'
_cell_volume   257.61434983
_cell_formula_units_Z   1
loop_
 _symmetry_equiv_pos_site_id
 _symmetry_equiv_pos_as_xyz
  1  'x, y, z'
loop_
 _atom_site_type_symbol
 _atom_site_label
 _atom_site_symmetry_multiplicity
 _atom_site_fract_x
 _atom_site_fract_y
 _atom_site_fract_z
 _atom_site_occupancy
  Li  Li0  1  0.000000  0.000000  0.000000  1
  Hf  Hf1  1  0.499999  0.499999  0.000000  1
  Hf  Hf2  1  0.750000  0.250000  0.500001  1
  Mg  Mg3  1  0.250000  0.750000  0.500001  1
  Sb  Sb4  1  0.495449  0.995450  0.009102  1
  Sb  Sb5  1  0.758421  0.758421  0.483158  1
  Sb  Sb6  1  0.241579  0.241579  0.516842  1
  Sb  Sb7  1  0.004552  0.504552  0.990896  1
  Pt  Pt8  1  0.620031  0.608846  0.252468  1
  Pt  Pt9  1  0.127501  0.138684  0.252469  1
  Pt  Pt10  1  0.391153  0.872500  0.747531  1
  Pt  Pt11  1  0.861314  0.379970  0.747532  1
