# generated using pymatgen
data_LaNd3Ga4PtRh3
_symmetry_space_group_name_H-M   'P 1'
_cell_length_a   4.43853500
_cell_length_b   7.10479303
_cell_length_c   7.90811400
_cell_angle_alpha   89.69067992
_cell_angle_beta   90.00000000
_cell_angle_gamma   90.00000000
_symmetry_Int_Tables_number   1
_chemical_formula_structural   LaNd3Ga4PtRh3
_chemical_formula_sum   'La1 Nd3 Ga4 Pt1 Rh3'
_cell_volume   249.37773304
_cell_formula_units_Z   1
loop_
 _symmetry_equiv_pos_site_id
 _symmetry_equiv_pos_as_xyz
  1  'x, y, z'
loop_
 _atom_site_type_symbol
 _atom_site_label
 _atom_site_symmetry_multiplicity
 _atom_site_fract_x
 _atom_site_fract_y
 _atom_site_fract_z
 _atom_site_occupancy
  La  La0  1  0.750000  0.970637  0.314187  1
  Nd  Nd1  1  0.250000  0.028121  0.689419  1
  Nd  Nd2  1  0.250000  0.530745  0.812079  1
  Nd  Nd3  1  0.750000  0.473493  0.191617  1
  Ga  Ga4  1  0.250000  0.154469  0.070100  1
  Ga  Ga5  1  0.250000  0.649918  0.430754  1
  Ga  Ga6  1  0.750000  0.841285  0.927449  1
  Ga  Ga7  1  0.750000  0.350523  0.569311  1
  Pt  Pt8  1  0.750000  0.223454  0.889704  1
  Rh  Rh9  1  0.250000  0.275090  0.390951  1
  Rh  Rh10  1  0.250000  0.776689  0.107728  1
  Rh  Rh11  1  0.750000  0.725573  0.606700  1
