# generated using pymatgen
data_Dy7Y(SiI6)2
_symmetry_space_group_name_H-M   'P 1'
_cell_length_a   4.20425600
_cell_length_b   14.00118128
_cell_length_c   14.77601630
_cell_angle_alpha   89.97688829
_cell_angle_beta   90.00000000
_cell_angle_gamma   90.00000000
_symmetry_Int_Tables_number   1
_chemical_formula_structural   Dy7Y(SiI6)2
_chemical_formula_sum   'Dy7 Y1 Si2 I12'
_cell_volume   869.78348582
_cell_formula_units_Z   1
loop_
 _symmetry_equiv_pos_site_id
 _symmetry_equiv_pos_as_xyz
  1  'x, y, z'
loop_
 _atom_site_type_symbol
 _atom_site_label
 _atom_site_symmetry_multiplicity
 _atom_site_fract_x
 _atom_site_fract_y
 _atom_site_fract_z
 _atom_site_occupancy
  Dy  Dy0  1  0.500000  0.885896  0.652196  1
  Dy  Dy1  1  0.500000  0.614029  0.152069  1
  Dy  Dy2  1  0.500000  0.385985  0.847910  1
  Dy  Dy3  1  0.000000  0.111217  0.574452  1
  Dy  Dy4  1  0.000000  0.888872  0.425431  1
  Dy  Dy5  1  0.000000  0.611143  0.925505  1
  Dy  Dy6  1  0.000000  0.388888  0.074487  1
  Y  Y7  1  0.500000  0.114092  0.347806  1
  Si  Si8  1  0.500000  0.999802  0.500278  1
  Si  Si9  1  0.500000  0.500005  0.999994  1
  I  I10  1  0.500000  0.245307  0.161518  1
  I  I11  1  0.500000  0.754755  0.838328  1
  I  I12  1  0.500000  0.745254  0.338375  1
  I  I13  1  0.500000  0.254740  0.661660  1
  I  I14  1  0.000000  0.258818  0.414644  1
  I  I15  1  0.000000  0.741554  0.585636  1
  I  I16  1  0.000000  0.758455  0.085576  1
  I  I17  1  0.000000  0.241550  0.914396  1
  I  I18  1  0.000000  0.998928  0.240456  1
  I  I19  1  0.000000  0.000684  0.759300  1
  I  I20  1  0.000000  0.499293  0.259290  1
  I  I21  1  0.000000  0.500732  0.740692  1
