# generated using pymatgen
data_La2PrNdTe6
_symmetry_space_group_name_H-M   'P 1'
_cell_length_a   4.51462500
_cell_length_b   12.05486206
_cell_length_c   12.44907206
_cell_angle_alpha   89.98879517
_cell_angle_beta   90.00000000
_cell_angle_gamma   90.00000000
_symmetry_Int_Tables_number   1
_chemical_formula_structural   La2PrNdTe6
_chemical_formula_sum   'La4 Pr2 Nd2 Te12'
_cell_volume   677.51809670
_cell_formula_units_Z   2
loop_
 _symmetry_equiv_pos_site_id
 _symmetry_equiv_pos_as_xyz
  1  'x, y, z'
loop_
 _atom_site_type_symbol
 _atom_site_label
 _atom_site_symmetry_multiplicity
 _atom_site_fract_x
 _atom_site_fract_y
 _atom_site_fract_z
 _atom_site_occupancy
  La  La0  1  0.250000  0.497383  0.696348  1
  La  La1  1  0.750000  0.502617  0.303652  1
  La  La2  1  0.750000  0.997315  0.803801  1
  La  La3  1  0.250000  0.002685  0.196199  1
  Pr  Pr4  1  0.250000  0.187037  0.515623  1
  Pr  Pr5  1  0.750000  0.812963  0.484377  1
  Nd  Nd6  1  0.750000  0.687046  0.984409  1
  Nd  Nd7  1  0.250000  0.312954  0.015591  1
  Te  Te8  1  0.250000  0.874402  0.957356  1
  Te  Te9  1  0.750000  0.125598  0.042644  1
  Te  Te10  1  0.750000  0.375056  0.542788  1
  Te  Te11  1  0.250000  0.624944  0.457212  1
  Te  Te12  1  0.250000  0.199700  0.773710  1
  Te  Te13  1  0.750000  0.800300  0.226290  1
  Te  Te14  1  0.750000  0.699539  0.727076  1
  Te  Te15  1  0.250000  0.300461  0.272924  1
  Te  Te16  1  0.250000  0.557906  0.117383  1
  Te  Te17  1  0.750000  0.442094  0.882617  1
  Te  Te18  1  0.750000  0.057939  0.381946  1
  Te  Te19  1  0.250000  0.942061  0.618054  1
