# generated using pymatgen
data_Dy4LuPb3
_symmetry_space_group_name_H-M   'P 1'
_cell_length_a   9.03656600
_cell_length_b   9.03656711
_cell_length_c   6.61538100
_cell_angle_alpha   90.00000000
_cell_angle_beta   90.00000000
_cell_angle_gamma   119.99999594
_symmetry_Int_Tables_number   1
_chemical_formula_structural   Dy4LuPb3
_chemical_formula_sum   'Dy8 Lu2 Pb6'
_cell_volume   467.83468190
_cell_formula_units_Z   2
loop_
 _symmetry_equiv_pos_site_id
 _symmetry_equiv_pos_as_xyz
  1  'x, y, z'
loop_
 _atom_site_type_symbol
 _atom_site_label
 _atom_site_symmetry_multiplicity
 _atom_site_fract_x
 _atom_site_fract_y
 _atom_site_fract_z
 _atom_site_occupancy
  Dy  Dy0  1  0.237993  0.237993  0.750582  1
  Dy  Dy1  1  0.237993  0.000000  0.249418  1
  Dy  Dy2  1  0.000000  0.762007  0.750582  1
  Dy  Dy3  1  0.762007  0.762007  0.249418  1
  Dy  Dy4  1  0.000000  0.237993  0.249418  1
  Dy  Dy5  1  0.762007  0.000000  0.750582  1
  Dy  Dy6  1  0.333333  0.666667  0.500000  1
  Dy  Dy7  1  0.666667  0.333333  0.500000  1
  Lu  Lu8  1  0.333333  0.666667  0.000000  1
  Lu  Lu9  1  0.666667  0.333333  0.000000  1
  Pb  Pb10  1  0.000000  0.395516  0.752236  1
  Pb  Pb11  1  0.395516  0.395516  0.247764  1
  Pb  Pb12  1  0.604484  0.000000  0.247764  1
  Pb  Pb13  1  0.604484  0.604484  0.752236  1
  Pb  Pb14  1  0.395516  0.000000  0.752236  1
  Pb  Pb15  1  0.000000  0.604484  0.247764  1
