# generated using pymatgen
data_TbY7Re3RuC8
_symmetry_space_group_name_H-M   'P 1'
_cell_length_a   5.12868700
_cell_length_b   6.58053622
_cell_length_c   9.88226223
_cell_angle_alpha   89.87274332
_cell_angle_beta   90.00000000
_cell_angle_gamma   90.00000000
_symmetry_Int_Tables_number   1
_chemical_formula_structural   TbY7Re3RuC8
_chemical_formula_sum   'Tb1 Y7 Re3 Ru1 C8'
_cell_volume   333.52069091
_cell_formula_units_Z   1
loop_
 _symmetry_equiv_pos_site_id
 _symmetry_equiv_pos_as_xyz
  1  'x, y, z'
loop_
 _atom_site_type_symbol
 _atom_site_label
 _atom_site_symmetry_multiplicity
 _atom_site_fract_x
 _atom_site_fract_y
 _atom_site_fract_z
 _atom_site_occupancy
  Tb  Tb0  1  0.750000  0.530931  0.785836  1
  Y  Y1  1  0.250000  0.968770  0.282797  1
  Y  Y2  1  0.750000  0.680099  0.443869  1
  Y  Y3  1  0.250000  0.824257  0.945225  1
  Y  Y4  1  0.750000  0.180468  0.056719  1
  Y  Y5  1  0.250000  0.319051  0.556694  1
  Y  Y6  1  0.250000  0.467962  0.216289  1
  Y  Y7  1  0.750000  0.033116  0.715898  1
  Re  Re8  1  0.250000  0.778368  0.635348  1
  Re  Re9  1  0.750000  0.222055  0.365996  1
  Re  Re10  1  0.750000  0.722583  0.134316  1
  Ru  Ru11  1  0.250000  0.277728  0.864815  1
  C  C12  1  0.250000  0.677680  0.451278  1
  C  C13  1  0.250000  0.545791  0.756836  1
  C  C14  1  0.750000  0.455518  0.240888  1
  C  C15  1  0.750000  0.820849  0.949556  1
  C  C16  1  0.250000  0.043387  0.740087  1
  C  C17  1  0.250000  0.175574  0.047905  1
  C  C18  1  0.750000  0.320962  0.550166  1
  C  C19  1  0.750000  0.954850  0.259482  1
