# generated using pymatgen
data_Be2Nb6GaSi
_symmetry_space_group_name_H-M   'P 1'
_cell_length_a   6.71261210
_cell_length_b   6.71285709
_cell_length_c   3.43836900
_cell_angle_alpha   90.00000000
_cell_angle_beta   90.00000000
_cell_angle_gamma   90.21752444
_symmetry_Int_Tables_number   1
_chemical_formula_structural   Be2Nb6GaSi
_chemical_formula_sum   'Be2 Nb6 Ga1 Si1'
_cell_volume   154.93456091
_cell_formula_units_Z   1
loop_
 _symmetry_equiv_pos_site_id
 _symmetry_equiv_pos_as_xyz
  1  'x, y, z'
loop_
 _atom_site_type_symbol
 _atom_site_label
 _atom_site_symmetry_multiplicity
 _atom_site_fract_x
 _atom_site_fract_y
 _atom_site_fract_z
 _atom_site_occupancy
  Be  Be0  1  0.618416  0.879764  0.000000  1
  Be  Be1  1  0.121677  0.622112  0.000000  1
  Nb  Nb2  1  0.998309  0.991787  0.000000  1
  Nb  Nb3  1  0.495246  0.506575  0.000000  1
  Nb  Nb4  1  0.672866  0.165819  0.500000  1
  Nb  Nb5  1  0.186463  0.326799  0.500000  1
  Nb  Nb6  1  0.819790  0.691730  0.500000  1
  Nb  Nb7  1  0.321994  0.817038  0.500000  1
  Ga  Ga8  1  0.882646  0.384919  0.000000  1
  Si  Si9  1  0.382593  0.113457  0.000000  1
