# generated using pymatgen
data_Dy13Y7Cd6CoRu
_symmetry_space_group_name_H-M   'P 1'
_cell_length_a   9.61941808
_cell_length_b   9.61792219
_cell_length_c   9.82373940
_cell_angle_alpha   89.99999758
_cell_angle_beta   90.05314607
_cell_angle_gamma   119.99485552
_symmetry_Int_Tables_number   1
_chemical_formula_structural   Dy13Y7Cd6CoRu
_chemical_formula_sum   'Dy13 Y7 Cd6 Co1 Ru1'
_cell_volume   787.15414470
_cell_formula_units_Z   1
loop_
 _symmetry_equiv_pos_site_id
 _symmetry_equiv_pos_as_xyz
  1  'x, y, z'
loop_
 _atom_site_type_symbol
 _atom_site_label
 _atom_site_symmetry_multiplicity
 _atom_site_fract_x
 _atom_site_fract_y
 _atom_site_fract_z
 _atom_site_occupancy
  Dy  Dy0  1  0.999986  0.999993  0.500171  1
  Dy  Dy1  1  0.000088  0.000044  0.999808  1
  Dy  Dy2  1  0.212146  0.787910  0.435898  1
  Dy  Dy3  1  0.212146  0.424237  0.435898  1
  Dy  Dy4  1  0.575480  0.787741  0.435923  1
  Dy  Dy5  1  0.790700  0.209356  0.560312  1
  Dy  Dy6  1  0.790700  0.581345  0.560312  1
  Dy  Dy7  1  0.418644  0.209322  0.560325  1
  Dy  Dy8  1  0.790834  0.209524  0.939655  1
  Dy  Dy9  1  0.790834  0.581310  0.939655  1
  Dy  Dy10  1  0.418740  0.209370  0.939706  1
  Dy  Dy11  1  0.212103  0.787795  0.064171  1
  Dy  Dy12  1  0.212103  0.424309  0.064171  1
  Y  Y13  1  0.576637  0.788319  0.063556  1
  Y  Y14  1  0.541642  0.458236  0.250073  1
  Y  Y15  1  0.541642  0.083405  0.250073  1
  Y  Y16  1  0.916824  0.458412  0.250075  1
  Y  Y17  1  0.458382  0.541580  0.749884  1
  Y  Y18  1  0.458382  0.916803  0.749884  1
  Y  Y19  1  0.083279  0.541640  0.750023  1
  Cd  Cd20  1  0.885263  0.114634  0.249956  1
  Cd  Cd21  1  0.885263  0.770631  0.249956  1
  Cd  Cd22  1  0.229357  0.114679  0.250011  1
  Cd  Cd23  1  0.114590  0.885368  0.750011  1
  Cd  Cd24  1  0.114590  0.229221  0.750011  1
  Cd  Cd25  1  0.770725  0.885363  0.750088  1
  Co  Co26  1  0.332375  0.666188  0.250472  1
  Ru  Ru27  1  0.666543  0.333271  0.749920  1
