# generated using pymatgen
data_Sm2Al6(GaIr)3
_symmetry_space_group_name_H-M   'P 1'
_cell_length_a   7.53306600
_cell_length_b   7.53306678
_cell_length_c   9.59154300
_cell_angle_alpha   90.00000000
_cell_angle_beta   90.00000000
_cell_angle_gamma   119.61293778
_symmetry_Int_Tables_number   1
_chemical_formula_structural   Sm2Al6(GaIr)3
_chemical_formula_sum   'Sm4 Al12 Ga6 Ir6'
_cell_volume   473.19854180
_cell_formula_units_Z   2
loop_
 _symmetry_equiv_pos_site_id
 _symmetry_equiv_pos_as_xyz
  1  'x, y, z'
loop_
 _atom_site_type_symbol
 _atom_site_label
 _atom_site_symmetry_multiplicity
 _atom_site_fract_x
 _atom_site_fract_y
 _atom_site_fract_z
 _atom_site_occupancy
  Sm  Sm0  1  0.996376  0.670044  0.250000  1
  Sm  Sm1  1  0.003624  0.329956  0.750000  1
  Sm  Sm2  1  0.670044  0.996376  0.250000  1
  Sm  Sm3  1  0.329956  0.003624  0.750000  1
  Al  Al4  1  0.002624  0.334807  0.072215  1
  Al  Al5  1  0.997376  0.665193  0.927785  1
  Al  Al6  1  0.997376  0.665193  0.572215  1
  Al  Al7  1  0.334807  0.002624  0.427785  1
  Al  Al8  1  0.002624  0.334807  0.427785  1
  Al  Al9  1  0.665193  0.997376  0.572215  1
  Al  Al10  1  0.665193  0.997376  0.927785  1
  Al  Al11  1  0.334807  0.002624  0.072215  1
  Al  Al12  1  0.334549  0.334549  0.553386  1
  Al  Al13  1  0.665451  0.665451  0.446614  1
  Al  Al14  1  0.665451  0.665451  0.053386  1
  Al  Al15  1  0.334549  0.334549  0.946614  1
  Ga  Ga16  1  0.130101  0.130101  0.250000  1
  Ga  Ga17  1  0.869899  0.869899  0.750000  1
  Ga  Ga18  1  0.339040  0.546413  0.250000  1
  Ga  Ga19  1  0.660960  0.453587  0.750000  1
  Ga  Ga20  1  0.546413  0.339040  0.250000  1
  Ga  Ga21  1  0.453587  0.660960  0.750000  1
  Ir  Ir22  1  0.671235  0.328765  0.000000  1
  Ir  Ir23  1  0.328765  0.671235  0.000000  1
  Ir  Ir24  1  0.328765  0.671235  0.500000  1
  Ir  Ir25  1  0.671235  0.328765  0.500000  1
  Ir  Ir26  1  0.000000  0.000000  0.000000  1
  Ir  Ir27  1  0.000000  0.000000  0.500000  1
