# generated using pymatgen
data_SmAl2(Fe4Re)2
_symmetry_space_group_name_H-M   'P 1'
_cell_length_a   4.76618986
_cell_length_b   6.54848808
_cell_length_c   6.54848795
_cell_angle_alpha   96.54042894
_cell_angle_beta   111.34083953
_cell_angle_gamma   68.65915850
_symmetry_Int_Tables_number   1
_chemical_formula_structural   SmAl2(Fe4Re)2
_chemical_formula_sum   'Sm1 Al2 Fe8 Re2'
_cell_volume   177.27875682
_cell_formula_units_Z   1
loop_
 _symmetry_equiv_pos_site_id
 _symmetry_equiv_pos_as_xyz
  1  'x, y, z'
loop_
 _atom_site_type_symbol
 _atom_site_label
 _atom_site_symmetry_multiplicity
 _atom_site_fract_x
 _atom_site_fract_y
 _atom_site_fract_z
 _atom_site_occupancy
  Sm  Sm0  1  0.000000  0.000000  0.000000  1
  Al  Al1  1  0.715101  0.784899  0.215101  1
  Al  Al2  1  0.284899  0.215101  0.784899  1
  Fe  Fe3  1  0.500000  0.769047  0.769047  1
  Fe  Fe4  1  0.500000  0.230953  0.230953  1
  Fe  Fe5  1  0.500000  0.000000  0.500000  1
  Fe  Fe6  1  0.000000  0.000000  0.500000  1
  Fe  Fe7  1  0.500000  0.500000  0.000000  1
  Fe  Fe8  1  0.000000  0.500000  0.000000  1
  Fe  Fe9  1  0.637749  0.362251  0.637749  1
  Fe  Fe10  1  0.362251  0.637749  0.362251  1
  Re  Re11  1  0.000000  0.358524  0.358524  1
  Re  Re12  1  0.000000  0.641476  0.641476  1
