# generated using pymatgen
data_Th4Mg2IrAu3
_symmetry_space_group_name_H-M   'P 1'
_cell_length_a   8.04583071
_cell_length_b   3.92800200
_cell_length_c   8.04583071
_cell_angle_alpha   90.00000000
_cell_angle_beta   90.21909025
_cell_angle_gamma   90.00000000
_symmetry_Int_Tables_number   1
_chemical_formula_structural   Th4Mg2IrAu3
_chemical_formula_sum   'Th4 Mg2 Ir1 Au3'
_cell_volume   254.27888922
_cell_formula_units_Z   1
loop_
 _symmetry_equiv_pos_site_id
 _symmetry_equiv_pos_as_xyz
  1  'x, y, z'
loop_
 _atom_site_type_symbol
 _atom_site_label
 _atom_site_symmetry_multiplicity
 _atom_site_fract_x
 _atom_site_fract_y
 _atom_site_fract_z
 _atom_site_occupancy
  Th  Th0  1  0.346944  0.500000  0.176334  1
  Th  Th1  1  0.812782  0.500000  0.312782  1
  Th  Th2  1  0.168789  0.500000  0.668790  1
  Th  Th3  1  0.676335  0.500000  0.846944  1
  Mg  Mg4  1  0.001589  0.000000  0.002321  1
  Mg  Mg5  1  0.502321  0.000000  0.501589  1
  Ir  Ir6  1  0.629852  0.000000  0.129851  1
  Au  Au7  1  0.129494  0.000000  0.366289  1
  Au  Au8  1  0.866290  0.000000  0.629495  1
  Au  Au9  1  0.365607  0.000000  0.865608  1
