# generated using pymatgen
data_Ta6Be3Se
_symmetry_space_group_name_H-M   'P 1'
_cell_length_a   6.56454195
_cell_length_b   6.56454168
_cell_length_c   3.43414000
_cell_angle_alpha   90.00000000
_cell_angle_beta   90.00000000
_cell_angle_gamma   89.72440910
_symmetry_Int_Tables_number   1
_chemical_formula_structural   Ta6Be3Se
_chemical_formula_sum   'Ta6 Be3 Se1'
_cell_volume   147.98640186
_cell_formula_units_Z   1
loop_
 _symmetry_equiv_pos_site_id
 _symmetry_equiv_pos_as_xyz
  1  'x, y, z'
loop_
 _atom_site_type_symbol
 _atom_site_label
 _atom_site_symmetry_multiplicity
 _atom_site_fract_x
 _atom_site_fract_y
 _atom_site_fract_z
 _atom_site_occupancy
  Ta  Ta0  1  0.001861  0.992742  0.000000  1
  Ta  Ta1  1  0.492742  0.501861  0.000000  1
  Ta  Ta2  1  0.662297  0.162297  0.500000  1
  Ta  Ta3  1  0.193506  0.321468  0.500000  1
  Ta  Ta4  1  0.821468  0.693506  0.500000  1
  Ta  Ta5  1  0.323013  0.823013  0.500000  1
  Be  Be6  1  0.382442  0.112512  0.000000  1
  Be  Be7  1  0.612512  0.882442  0.000000  1
  Be  Be8  1  0.128064  0.628064  0.000000  1
  Se  Se9  1  0.882095  0.382095  0.000000  1
