# generated using pymatgen
data_HoTmB8RuRh
_symmetry_space_group_name_H-M   'P 1'
_cell_length_a   3.54333100
_cell_length_b   5.93914575
_cell_length_c   11.50350507
_cell_angle_alpha   90.01926356
_cell_angle_beta   90.00000000
_cell_angle_gamma   90.00000000
_symmetry_Int_Tables_number   1
_chemical_formula_structural   HoTmB8RuRh
_chemical_formula_sum   'Ho2 Tm2 B16 Ru2 Rh2'
_cell_volume   242.08387940
_cell_formula_units_Z   2
loop_
 _symmetry_equiv_pos_site_id
 _symmetry_equiv_pos_as_xyz
  1  'x, y, z'
loop_
 _atom_site_type_symbol
 _atom_site_label
 _atom_site_symmetry_multiplicity
 _atom_site_fract_x
 _atom_site_fract_y
 _atom_site_fract_z
 _atom_site_occupancy
  Ho  Ho0  1  0.000000  0.130670  0.849566  1
  Ho  Ho1  1  0.000000  0.869330  0.150434  1
  Tm  Tm2  1  0.000000  0.630303  0.647757  1
  Tm  Tm3  1  0.000000  0.369697  0.352243  1
  B  B4  1  0.500000  0.974401  0.691564  1
  B  B5  1  0.500000  0.025599  0.308436  1
  B  B6  1  0.500000  0.479466  0.805058  1
  B  B7  1  0.500000  0.520534  0.194942  1
  B  B8  1  0.500000  0.788061  0.811100  1
  B  B9  1  0.500000  0.211939  0.188900  1
  B  B10  1  0.500000  0.291286  0.685586  1
  B  B11  1  0.500000  0.708714  0.314414  1
  B  B12  1  0.500000  0.862970  0.971323  1
  B  B13  1  0.500000  0.137030  0.028677  1
  B  B14  1  0.500000  0.364748  0.530125  1
  B  B15  1  0.500000  0.635252  0.469875  1
  B  B16  1  0.500000  0.887335  0.546637  1
  B  B17  1  0.500000  0.112665  0.453363  1
  B  B18  1  0.500000  0.387853  0.951977  1
  B  B19  1  0.500000  0.612147  0.048023  1
  Ru  Ru20  1  0.000000  0.141925  0.592408  1
  Ru  Ru21  1  0.000000  0.858075  0.407592  1
  Rh  Rh22  1  0.000000  0.641920  0.904449  1
  Rh  Rh23  1  0.000000  0.358080  0.095551  1
