# generated using pymatgen
data_CePr(SiRh2)2
_symmetry_space_group_name_H-M   'P 1'
_cell_length_a   9.26713070
_cell_length_b   9.26713053
_cell_length_c   4.10104100
_cell_angle_alpha   90.00000000
_cell_angle_beta   90.00000000
_cell_angle_gamma   154.97116865
_symmetry_Int_Tables_number   1
_chemical_formula_structural   CePr(SiRh2)2
_chemical_formula_sum   'Ce1 Pr1 Si2 Rh4'
_cell_volume   149.00515278
_cell_formula_units_Z   1
loop_
 _symmetry_equiv_pos_site_id
 _symmetry_equiv_pos_as_xyz
  1  'x, y, z'
loop_
 _atom_site_type_symbol
 _atom_site_label
 _atom_site_symmetry_multiplicity
 _atom_site_fract_x
 _atom_site_fract_y
 _atom_site_fract_z
 _atom_site_occupancy
  Ce  Ce0  1  0.901698  0.098302  0.250000  1
  Pr  Pr1  1  0.099998  0.900002  0.750000  1
  Si  Si2  1  0.320759  0.679241  0.750000  1
  Si  Si3  1  0.679085  0.320915  0.250000  1
  Rh  Rh4  1  0.546510  0.453490  0.250000  1
  Rh  Rh5  1  0.451016  0.548984  0.750000  1
  Rh  Rh6  1  0.250472  0.749528  0.250000  1
  Rh  Rh7  1  0.750463  0.249537  0.750000  1
