# generated using pymatgen
data_Nb12Si7Os4PdN4
_symmetry_space_group_name_H-M   'P 1'
_cell_length_a   8.17773569
_cell_length_b   8.17773603
_cell_length_c   8.17773600
_cell_angle_alpha   60.26887848
_cell_angle_beta   60.26887713
_cell_angle_gamma   60.26887201
_symmetry_Int_Tables_number   1
_chemical_formula_structural   Nb12Si7Os4PdN4
_chemical_formula_sum   'Nb12 Si7 Os4 Pd1 N4'
_cell_volume   389.06235256
_cell_formula_units_Z   1
loop_
 _symmetry_equiv_pos_site_id
 _symmetry_equiv_pos_as_xyz
  1  'x, y, z'
loop_
 _atom_site_type_symbol
 _atom_site_label
 _atom_site_symmetry_multiplicity
 _atom_site_fract_x
 _atom_site_fract_y
 _atom_site_fract_z
 _atom_site_occupancy
  Nb  Nb0  1  0.800917  0.800917  0.213038  1
  Nb  Nb1  1  0.185483  0.185483  0.810910  1
  Nb  Nb2  1  0.800917  0.213038  0.800917  1
  Nb  Nb3  1  0.185483  0.810910  0.185483  1
  Nb  Nb4  1  0.213038  0.800917  0.800917  1
  Nb  Nb5  1  0.810910  0.185483  0.185483  1
  Nb  Nb6  1  0.436460  0.436460  0.064752  1
  Nb  Nb7  1  0.057480  0.057480  0.445488  1
  Nb  Nb8  1  0.436460  0.064752  0.436460  1
  Nb  Nb9  1  0.057480  0.445488  0.057480  1
  Nb  Nb10  1  0.064752  0.436460  0.436460  1
  Nb  Nb11  1  0.445488  0.057480  0.057480  1
  Si  Si12  1  0.757738  0.413139  0.413139  1
  Si  Si13  1  0.413139  0.757738  0.413139  1
  Si  Si14  1  0.413139  0.413139  0.757738  1
  Si  Si15  1  0.414011  0.414011  0.414011  1
  Si  Si16  1  0.500439  0.837184  0.837184  1
  Si  Si17  1  0.837184  0.500439  0.837184  1
  Si  Si18  1  0.837184  0.837184  0.500439  1
  Os  Os19  1  0.137065  0.616014  0.616014  1
  Os  Os20  1  0.616014  0.137065  0.616014  1
  Os  Os21  1  0.616014  0.616014  0.137065  1
  Os  Os22  1  0.625748  0.625748  0.625748  1
  Pd  Pd23  1  0.841254  0.841254  0.841254  1
  N  N24  1  0.633834  0.118276  0.118276  1
  N  N25  1  0.118276  0.633834  0.118276  1
  N  N26  1  0.118276  0.118276  0.633834  1
  N  N27  1  0.125817  0.125817  0.125817  1
