# generated using pymatgen
data_Dy2ErLu3GaCo2
_symmetry_space_group_name_H-M   'P 1'
_cell_length_a   8.15227692
_cell_length_b   8.15227669
_cell_length_c   8.15227698
_cell_angle_alpha   106.76002315
_cell_angle_beta   109.37127752
_cell_angle_gamma   112.33046715
_symmetry_Int_Tables_number   1
_chemical_formula_structural   Dy2ErLu3GaCo2
_chemical_formula_sum   'Dy4 Er2 Lu6 Ga2 Co4'
_cell_volume   416.08719999
_cell_formula_units_Z   2
loop_
 _symmetry_equiv_pos_site_id
 _symmetry_equiv_pos_as_xyz
  1  'x, y, z'
loop_
 _atom_site_type_symbol
 _atom_site_label
 _atom_site_symmetry_multiplicity
 _atom_site_fract_x
 _atom_site_fract_y
 _atom_site_fract_z
 _atom_site_occupancy
  Dy  Dy0  1  0.698192  0.260202  0.958752  1
  Dy  Dy1  1  0.301450  0.739440  0.041248  1
  Dy  Dy2  1  0.698192  0.739440  0.437992  1
  Dy  Dy3  1  0.301450  0.260202  0.562008  1
  Er  Er4  1  0.039080  0.219107  0.819972  1
  Er  Er5  1  0.399136  0.219107  0.180028  1
  Lu  Lu6  1  0.812213  0.139477  0.327264  1
  Lu  Lu7  1  0.812213  0.484949  0.672736  1
  Lu  Lu8  1  0.187710  0.859310  0.671601  1
  Lu  Lu9  1  0.187710  0.516109  0.328399  1
  Lu  Lu10  1  0.601018  0.780068  0.820950  1
  Lu  Lu11  1  0.959116  0.780068  0.179050  1
  Ga  Ga12  1  0.501980  0.501980  0.000000  1
  Ga  Ga13  1  0.501046  0.001046  0.500000  1
  Co  Co14  1  0.840430  0.501666  0.338764  1
  Co  Co15  1  0.162902  0.501666  0.661236  1
  Co  Co16  1  0.998081  0.114418  0.116337  1
  Co  Co17  1  0.998081  0.881745  0.883663  1
