# generated using pymatgen
data_Rb8Sc6CoBr20
_symmetry_space_group_name_H-M   'P 1'
_cell_length_a   12.16831979
_cell_length_b   12.16832125
_cell_length_c   12.16832000
_cell_angle_alpha   60.00000340
_cell_angle_beta   59.99999943
_cell_angle_gamma   60.00000045
_symmetry_Int_Tables_number   1
_chemical_formula_structural   Rb8Sc6CoBr20
_chemical_formula_sum   'Rb8 Sc6 Co1 Br20'
_cell_volume   1274.02196812
_cell_formula_units_Z   1
loop_
 _symmetry_equiv_pos_site_id
 _symmetry_equiv_pos_as_xyz
  1  'x, y, z'
loop_
 _atom_site_type_symbol
 _atom_site_label
 _atom_site_symmetry_multiplicity
 _atom_site_fract_x
 _atom_site_fract_y
 _atom_site_fract_z
 _atom_site_occupancy
  Rb  Rb0  1  0.360200  0.360200  0.360200  1
  Rb  Rb1  1  0.639800  0.639800  0.639800  1
  Rb  Rb2  1  0.360200  0.360200  0.919402  1
  Rb  Rb3  1  0.360200  0.919402  0.360200  1
  Rb  Rb4  1  0.639800  0.639800  0.080598  1
  Rb  Rb5  1  0.639800  0.080598  0.639800  1
  Rb  Rb6  1  0.919402  0.360200  0.360200  1
  Rb  Rb7  1  0.080598  0.639800  0.639800  1
  Sc  Sc8  1  0.852279  0.147721  0.147721  1
  Sc  Sc9  1  0.147721  0.852279  0.852279  1
  Sc  Sc10  1  0.147721  0.852279  0.147721  1
  Sc  Sc11  1  0.852279  0.147721  0.852279  1
  Sc  Sc12  1  0.147721  0.147721  0.852279  1
  Sc  Sc13  1  0.852279  0.852279  0.147721  1
  Co  Co14  1  0.000000  0.000000  0.000000  1
  Br  Br15  1  0.316740  0.000000  0.000000  1
  Br  Br16  1  0.683260  0.000000  0.000000  1
  Br  Br17  1  0.000000  0.316740  0.683260  1
  Br  Br18  1  0.000000  0.683260  0.316740  1
  Br  Br19  1  0.000000  0.316740  0.000000  1
  Br  Br20  1  0.683260  0.000000  0.316740  1
  Br  Br21  1  0.000000  0.683260  0.000000  1
  Br  Br22  1  0.316740  0.000000  0.683260  1
  Br  Br23  1  0.000000  0.000000  0.316740  1
  Br  Br24  1  0.000000  0.000000  0.683260  1
  Br  Br25  1  0.683260  0.316740  0.000000  1
  Br  Br26  1  0.316740  0.683260  0.000000  1
  Br  Br27  1  0.689999  0.310001  0.310001  1
  Br  Br28  1  0.310001  0.689999  0.689999  1
  Br  Br29  1  0.310001  0.689999  0.310001  1
  Br  Br30  1  0.689999  0.310001  0.689999  1
  Br  Br31  1  0.310001  0.310001  0.689999  1
  Br  Br32  1  0.689999  0.689999  0.310001  1
  Br  Br33  1  0.250000  0.250000  0.250000  1
  Br  Br34  1  0.750000  0.750000  0.750000  1
