# generated using pymatgen
data_YbPuF7
_symmetry_space_group_name_H-M   'P 1'
_cell_length_a   5.92659500
_cell_length_b   9.21501471
_cell_length_c   12.33982606
_cell_angle_alpha   63.95640268
_cell_angle_beta   90.00000000
_cell_angle_gamma   90.00000000
_symmetry_Int_Tables_number   1
_chemical_formula_structural   YbPuF7
_chemical_formula_sum   'Yb4 Pu4 F28'
_cell_volume   605.49306780
_cell_formula_units_Z   4
loop_
 _symmetry_equiv_pos_site_id
 _symmetry_equiv_pos_as_xyz
  1  'x, y, z'
loop_
 _atom_site_type_symbol
 _atom_site_label
 _atom_site_symmetry_multiplicity
 _atom_site_fract_x
 _atom_site_fract_y
 _atom_site_fract_z
 _atom_site_occupancy
  Yb  Yb0  1  0.260404  0.826103  0.269880  1
  Yb  Yb1  1  0.739596  0.173897  0.730120  1
  Yb  Yb2  1  0.760404  0.173897  0.230120  1
  Yb  Yb3  1  0.239596  0.826103  0.769880  1
  Pu  Pu4  1  0.754619  0.726781  0.048469  1
  Pu  Pu5  1  0.245381  0.273219  0.951531  1
  Pu  Pu6  1  0.254619  0.273219  0.451531  1
  Pu  Pu7  1  0.745381  0.726781  0.548469  1
  F  F8  1  0.980913  0.702883  0.433879  1
  F  F9  1  0.019087  0.297117  0.566121  1
  F  F10  1  0.480913  0.297117  0.066121  1
  F  F11  1  0.519087  0.702883  0.933879  1
  F  F12  1  0.489308  0.737590  0.157105  1
  F  F13  1  0.510692  0.262410  0.842895  1
  F  F14  1  0.989308  0.262410  0.342895  1
  F  F15  1  0.010692  0.737590  0.657105  1
  F  F16  1  0.981115  0.744817  0.169985  1
  F  F17  1  0.018885  0.255183  0.830015  1
  F  F18  1  0.481115  0.255183  0.330015  1
  F  F19  1  0.518885  0.744817  0.669985  1
  F  F20  1  0.755321  0.480767  0.147236  1
  F  F21  1  0.244679  0.519233  0.852764  1
  F  F22  1  0.255321  0.519233  0.352764  1
  F  F23  1  0.744679  0.480767  0.647236  1
  F  F24  1  0.968609  0.295180  0.050294  1
  F  F25  1  0.031391  0.704820  0.949706  1
  F  F26  1  0.468609  0.704820  0.449706  1
  F  F27  1  0.531391  0.295180  0.550294  1
  F  F28  1  0.745256  0.973244  0.454398  1
  F  F29  1  0.254744  0.026756  0.545602  1
  F  F30  1  0.245256  0.026756  0.045602  1
  F  F31  1  0.754744  0.973244  0.954398  1
  F  F32  1  0.538146  0.985503  0.243778  1
  F  F33  1  0.461854  0.014497  0.756222  1
  F  F34  1  0.038146  0.014497  0.256222  1
  F  F35  1  0.961854  0.985503  0.743778  1
