# generated using pymatgen
data_Ac5HgOs2
_symmetry_space_group_name_H-M   'P 1'
_cell_length_a   8.37194421
_cell_length_b   8.37194322
_cell_length_c   9.52459498
_cell_angle_alpha   116.07140032
_cell_angle_beta   116.07140702
_cell_angle_gamma   90.00000284
_symmetry_Int_Tables_number   1
_chemical_formula_structural   Ac5HgOs2
_chemical_formula_sum   'Ac10 Hg2 Os4'
_cell_volume   522.96855074
_cell_formula_units_Z   2
loop_
 _symmetry_equiv_pos_site_id
 _symmetry_equiv_pos_as_xyz
  1  'x, y, z'
loop_
 _atom_site_type_symbol
 _atom_site_label
 _atom_site_symmetry_multiplicity
 _atom_site_fract_x
 _atom_site_fract_y
 _atom_site_fract_z
 _atom_site_occupancy
  Ac  Ac0  1  0.500000  0.500000  0.000000  1
  Ac  Ac1  1  0.000000  0.000000  0.000000  1
  Ac  Ac2  1  0.967957  0.789083  0.257040  1
  Ac  Ac3  1  0.289083  0.467957  0.257040  1
  Ac  Ac4  1  0.789083  0.289083  0.257040  1
  Ac  Ac5  1  0.467957  0.967957  0.257040  1
  Ac  Ac6  1  0.032043  0.210917  0.742960  1
  Ac  Ac7  1  0.710917  0.532043  0.742960  1
  Ac  Ac8  1  0.210917  0.710917  0.742960  1
  Ac  Ac9  1  0.532043  0.032043  0.742960  1
  Hg  Hg10  1  0.750000  0.750000  0.500000  1
  Hg  Hg11  1  0.250000  0.250000  0.500000  1
  Os  Os12  1  0.638413  0.861587  0.000000  1
  Os  Os13  1  0.361587  0.138413  0.000000  1
  Os  Os14  1  0.861587  0.361587  0.000000  1
  Os  Os15  1  0.138413  0.638413  0.000000  1
