# generated using pymatgen
data_Eu3Ag3SnSb2
_symmetry_space_group_name_H-M   'P 1'
_cell_length_a   7.86253400
_cell_length_b   7.86253384
_cell_length_c   4.49564400
_cell_angle_alpha   90.00000000
_cell_angle_beta   90.00000000
_cell_angle_gamma   120.00000066
_symmetry_Int_Tables_number   1
_chemical_formula_structural   Eu3Ag3SnSb2
_chemical_formula_sum   'Eu3 Ag3 Sn1 Sb2'
_cell_volume   240.68421370
_cell_formula_units_Z   1
loop_
 _symmetry_equiv_pos_site_id
 _symmetry_equiv_pos_as_xyz
  1  'x, y, z'
loop_
 _atom_site_type_symbol
 _atom_site_label
 _atom_site_symmetry_multiplicity
 _atom_site_fract_x
 _atom_site_fract_y
 _atom_site_fract_z
 _atom_site_occupancy
  Eu  Eu0  1  0.583032  0.000000  0.500000  1
  Eu  Eu1  1  0.416968  0.416968  0.500000  1
  Eu  Eu2  1  0.000000  0.583032  0.500000  1
  Ag  Ag3  1  0.247621  0.000000  0.000000  1
  Ag  Ag4  1  0.752379  0.752379  0.000000  1
  Ag  Ag5  1  0.000000  0.247621  0.000000  1
  Sn  Sn6  1  0.000000  0.000000  0.500000  1
  Sb  Sb7  1  0.333333  0.666667  0.000000  1
  Sb  Sb8  1  0.666667  0.333333  0.000000  1
