# generated using pymatgen
data_TmCd4Ir3O14
_symmetry_space_group_name_H-M   'P 1'
_cell_length_a   7.45591472
_cell_length_b   7.28554729
_cell_length_c   7.28554800
_cell_angle_alpha   120.00000324
_cell_angle_beta   119.24696751
_cell_angle_gamma   60.75303250
_symmetry_Int_Tables_number   1
_chemical_formula_structural   TmCd4Ir3O14
_chemical_formula_sum   'Tm1 Cd4 Ir3 O14'
_cell_volume   282.98332691
_cell_formula_units_Z   1
loop_
 _symmetry_equiv_pos_site_id
 _symmetry_equiv_pos_as_xyz
  1  'x, y, z'
loop_
 _atom_site_type_symbol
 _atom_site_label
 _atom_site_symmetry_multiplicity
 _atom_site_fract_x
 _atom_site_fract_y
 _atom_site_fract_z
 _atom_site_occupancy
  Tm  Tm0  1  0.000000  0.499999  0.499999  1
  Cd  Cd1  1  0.000000  0.000000  0.000000  1
  Cd  Cd2  1  0.500000  0.000000  0.000000  1
  Cd  Cd3  1  0.000000  0.500000  0.000000  1
  Cd  Cd4  1  0.000000  0.000000  0.500001  1
  Ir  Ir5  1  0.500000  0.500000  0.000000  1
  Ir  Ir6  1  0.500000  0.500000  0.499999  1
  Ir  Ir7  1  0.499999  0.000000  0.499999  1
  O  O8  1  0.859869  0.880045  0.119957  1
  O  O9  1  0.816427  0.409508  0.135445  1
  O  O10  1  0.473213  0.809391  0.190606  1
  O  O11  1  0.473214  0.408002  0.190608  1
  O  O12  1  0.526786  0.190608  0.408000  1
  O  O13  1  0.183572  0.590491  0.409507  1
  O  O14  1  0.183571  0.135446  0.409509  1
  O  O15  1  0.816428  0.409509  0.590492  1
  O  O16  1  0.473214  0.809392  0.591999  1
  O  O17  1  0.816428  0.864553  0.590492  1
  O  O18  1  0.526786  0.190608  0.809392  1
  O  O19  1  0.183572  0.590491  0.864553  1
  O  O20  1  0.526787  0.591999  0.809392  1
  O  O21  1  0.140131  0.119955  0.880044  1
