# generated using pymatgen
data_AcMgGeF
_symmetry_space_group_name_H-M   'P 1'
_cell_length_a   4.32885200
_cell_length_b   4.32885200
_cell_length_c   9.32542900
_cell_angle_alpha   90.00000000
_cell_angle_beta   90.00000000
_cell_angle_gamma   90.00000000
_symmetry_Int_Tables_number   1
_chemical_formula_structural   AcMgGeF
_chemical_formula_sum   'Ac2 Mg2 Ge2 F2'
_cell_volume   174.74883764
_cell_formula_units_Z   2
loop_
 _symmetry_equiv_pos_site_id
 _symmetry_equiv_pos_as_xyz
  1  'x, y, z'
loop_
 _atom_site_type_symbol
 _atom_site_label
 _atom_site_symmetry_multiplicity
 _atom_site_fract_x
 _atom_site_fract_y
 _atom_site_fract_z
 _atom_site_occupancy
  Ac  Ac0  1  0.000000  0.500000  0.171932  1
  Ac  Ac1  1  0.500000  0.000000  0.828069  1
  Mg  Mg2  1  0.000000  0.000000  0.500000  1
  Mg  Mg3  1  0.500000  0.500000  0.500000  1
  Ge  Ge4  1  0.500000  0.000000  0.313193  1
  Ge  Ge5  1  0.000000  0.500000  0.686807  1
  F  F6  1  0.000000  0.000000  0.000000  1
  F  F7  1  0.500000  0.500000  0.000000  1
