# generated using pymatgen
data_NdMg(Pd2Au)2
_symmetry_space_group_name_H-M   'P 1'
_cell_length_a   5.99076700
_cell_length_b   5.98012886
_cell_length_c   7.85909800
_cell_angle_alpha   90.00075690
_cell_angle_beta   89.99978003
_cell_angle_gamma   89.90709274
_symmetry_Int_Tables_number   1
_chemical_formula_structural   NdMg(Pd2Au)2
_chemical_formula_sum   'Nd2 Mg2 Pd8 Au4'
_cell_volume   281.55620612
_cell_formula_units_Z   2
loop_
 _symmetry_equiv_pos_site_id
 _symmetry_equiv_pos_as_xyz
  1  'x, y, z'
loop_
 _atom_site_type_symbol
 _atom_site_label
 _atom_site_symmetry_multiplicity
 _atom_site_fract_x
 _atom_site_fract_y
 _atom_site_fract_z
 _atom_site_occupancy
  Nd  Nd0  1  0.250333  0.249967  0.999992  1
  Nd  Nd1  1  0.749667  0.750034  0.000008  1
  Mg  Mg2  1  0.750694  0.749959  0.499992  1
  Mg  Mg3  1  0.249305  0.250042  0.500008  1
  Pd  Pd4  1  0.000076  0.000031  0.264546  1
  Pd  Pd5  1  0.000082  0.500022  0.264457  1
  Pd  Pd6  1  0.500074  0.000038  0.264939  1
  Pd  Pd7  1  0.500071  0.500026  0.265014  1
  Pd  Pd8  1  0.499927  0.999962  0.735061  1
  Pd  Pd9  1  0.499930  0.499973  0.734986  1
  Pd  Pd10  1  0.999923  0.999969  0.735454  1
  Pd  Pd11  1  0.999917  0.499977  0.735543  1
  Au  Au12  1  0.750173  0.250072  0.999998  1
  Au  Au13  1  0.249826  0.749929  0.000002  1
  Au  Au14  1  0.249437  0.749862  0.499996  1
  Au  Au15  1  0.750562  0.250139  0.500004  1
