# generated using pymatgen
data_HoSc5(CI5)2
_symmetry_space_group_name_H-M   'P 1'
_cell_length_a   7.37117992
_cell_length_b   9.64295467
_cell_length_c   9.39546480
_cell_angle_alpha   106.47768228
_cell_angle_beta   95.86528220
_cell_angle_gamma   104.58381454
_symmetry_Int_Tables_number   1
_chemical_formula_structural   HoSc5(CI5)2
_chemical_formula_sum   'Ho1 Sc5 C2 I10'
_cell_volume   608.82680451
_cell_formula_units_Z   1
loop_
 _symmetry_equiv_pos_site_id
 _symmetry_equiv_pos_as_xyz
  1  'x, y, z'
loop_
 _atom_site_type_symbol
 _atom_site_label
 _atom_site_symmetry_multiplicity
 _atom_site_fract_x
 _atom_site_fract_y
 _atom_site_fract_z
 _atom_site_occupancy
  Ho  Ho0  1  0.104400  0.034741  0.776435  1
  Sc  Sc1  1  0.366473  0.125266  0.168679  1
  Sc  Sc2  1  0.902202  0.967321  0.205570  1
  Sc  Sc3  1  0.027374  0.767518  0.934503  1
  Sc  Sc4  1  0.975108  0.231822  0.069271  1
  Sc  Sc5  1  0.634392  0.873191  0.832538  1
  C  C6  1  0.906822  0.970974  0.957977  1
  C  C7  1  0.096953  0.029082  0.039013  1
  I  I8  1  0.201836  0.738559  0.665146  1
  I  I9  1  0.079695  0.350039  0.831371  1
  I  I10  1  0.457028  0.824193  0.096343  1
  I  I11  1  0.248380  0.083643  0.447217  1
  I  I12  1  0.549929  0.179621  0.908573  1
  I  I13  1  0.800133  0.247004  0.334857  1
  I  I14  1  0.338421  0.427792  0.260313  1
  I  I15  1  0.916394  0.666189  0.178129  1
  I  I16  1  0.663982  0.571163  0.743013  1
  I  I17  1  0.730478  0.911882  0.551051  1
