# generated using pymatgen
data_Tb2Dy3P12Ir9Ru10
_symmetry_space_group_name_H-M   'P 1'
_cell_length_a   12.61582812
_cell_length_b   12.57833363
_cell_length_c   3.96671800
_cell_angle_alpha   90.00000000
_cell_angle_beta   90.00000000
_cell_angle_gamma   119.82251194
_symmetry_Int_Tables_number   1
_chemical_formula_structural   Tb2Dy3P12Ir9Ru10
_chemical_formula_sum   'Tb2 Dy3 P12 Ir9 Ru10'
_cell_volume   546.10328251
_cell_formula_units_Z   1
loop_
 _symmetry_equiv_pos_site_id
 _symmetry_equiv_pos_as_xyz
  1  'x, y, z'
loop_
 _atom_site_type_symbol
 _atom_site_label
 _atom_site_symmetry_multiplicity
 _atom_site_fract_x
 _atom_site_fract_y
 _atom_site_fract_z
 _atom_site_occupancy
  Tb  Tb0  1  0.812600  0.000951  0.500000  1
  Tb  Tb1  1  0.185415  0.187465  0.500000  1
  Dy  Dy2  1  0.667535  0.332481  0.000000  1
  Dy  Dy3  1  0.333335  0.666622  0.000000  1
  Dy  Dy4  1  0.000197  0.813677  0.500000  1
  P  P5  1  0.631436  0.997540  0.000000  1
  P  P6  1  0.365020  0.371103  0.000000  1
  P  P7  1  0.006206  0.635069  0.000000  1
  P  P8  1  0.689643  0.519383  0.500000  1
  P  P9  1  0.829636  0.306583  0.500000  1
  P  P10  1  0.313005  0.830141  0.500000  1
  P  P11  1  0.517155  0.686879  0.500000  1
  P  P12  1  0.181169  0.001495  0.000000  1
  P  P13  1  0.818708  0.818812  0.000000  1
  P  P14  1  0.996440  0.181517  0.000000  1
  P  P15  1  0.480036  0.168040  0.500000  1
  P  P16  1  0.170153  0.483288  0.500000  1
  Ir  Ir17  1  0.623832  0.803911  0.000000  1
  Ir  Ir18  1  0.180728  0.376581  0.000000  1
  Ir  Ir19  1  0.374815  0.184674  0.000000  1
  Ir  Ir20  1  0.195817  0.820933  0.000000  1
  Ir  Ir21  1  0.809914  0.625120  0.000000  1
  Ir  Ir22  1  0.868702  0.505189  0.500000  1
  Ir  Ir23  1  0.493896  0.361454  0.500000  1
  Ir  Ir24  1  0.636470  0.128059  0.500000  1
  Ir  Ir25  1  0.999446  0.000082  0.000000  1
  Ru  Ru26  1  0.127284  0.639895  0.500000  1
  Ru  Ru27  1  0.361591  0.488220  0.500000  1
  Ru  Ru28  1  0.510511  0.870939  0.500000  1
  Ru  Ru29  1  0.714768  0.713154  0.500000  1
  Ru  Ru30  1  0.000824  0.286425  0.500000  1
  Ru  Ru31  1  0.450688  0.001421  0.000000  1
  Ru  Ru32  1  0.551446  0.547280  0.000000  1
  Ru  Ru33  1  0.998877  0.450074  0.000000  1
  Ru  Ru34  1  0.816376  0.193788  0.000000  1
  Ru  Ru35  1  0.286326  0.001756  0.500000  1
