# generated using pymatgen
data_ZrSc3(AlTc3)2
_symmetry_space_group_name_H-M   'P 1'
_cell_length_a   5.22880700
_cell_length_b   5.22881159
_cell_length_c   8.68031000
_cell_angle_alpha   90.00071987
_cell_angle_beta   90.00036084
_cell_angle_gamma   59.99360818
_symmetry_Int_Tables_number   1
_chemical_formula_structural   ZrSc3(AlTc3)2
_chemical_formula_sum   'Zr1 Sc3 Al2 Tc6'
_cell_volume   205.51498661
_cell_formula_units_Z   1
loop_
 _symmetry_equiv_pos_site_id
 _symmetry_equiv_pos_as_xyz
  1  'x, y, z'
loop_
 _atom_site_type_symbol
 _atom_site_label
 _atom_site_symmetry_multiplicity
 _atom_site_fract_x
 _atom_site_fract_y
 _atom_site_fract_z
 _atom_site_occupancy
  Zr  Zr0  1  0.333326  0.333339  0.930937  1
  Sc  Sc1  1  0.333346  0.333344  0.563558  1
  Sc  Sc2  1  0.666678  0.666673  0.433501  1
  Sc  Sc3  1  0.666684  0.666662  0.068719  1
  Al  Al4  1  0.999916  0.999999  0.500628  1
  Al  Al5  1  0.999928  0.999993  0.001173  1
  Tc  Tc6  1  0.829269  0.341447  0.750893  1
  Tc  Tc7  1  0.341432  0.829286  0.750891  1
  Tc  Tc8  1  0.829283  0.829293  0.750895  1
  Tc  Tc9  1  0.170503  0.659077  0.249601  1
  Tc  Tc10  1  0.659115  0.170444  0.249603  1
  Tc  Tc11  1  0.170522  0.170442  0.249604  1
