# generated using pymatgen
data_Tb7Th(ZnIr)2
_symmetry_space_group_name_H-M   'P 1'
_cell_length_a   9.59940415
_cell_length_b   9.59939100
_cell_length_c   9.59610000
_cell_angle_alpha   60.01115731
_cell_angle_beta   60.01118305
_cell_angle_gamma   60.21344486
_symmetry_Int_Tables_number   1
_chemical_formula_structural   Tb7Th(ZnIr)2
_chemical_formula_sum   'Tb14 Th2 Zn4 Ir4'
_cell_volume   626.37863770
_cell_formula_units_Z   2
loop_
 _symmetry_equiv_pos_site_id
 _symmetry_equiv_pos_as_xyz
  1  'x, y, z'
loop_
 _atom_site_type_symbol
 _atom_site_label
 _atom_site_symmetry_multiplicity
 _atom_site_fract_x
 _atom_site_fract_y
 _atom_site_fract_z
 _atom_site_occupancy
  Tb  Tb0  1  0.606285  0.186964  0.603375  1
  Tb  Tb1  1  0.186964  0.606285  0.603374  1
  Tb  Tb2  1  0.059723  0.441582  0.440441  1
  Tb  Tb3  1  0.441583  0.059721  0.058254  1
  Tb  Tb4  1  0.441583  0.059723  0.440440  1
  Tb  Tb5  1  0.059721  0.441582  0.058255  1
  Tb  Tb6  1  0.438500  0.438500  0.061501  1
  Tb  Tb7  1  0.058507  0.058508  0.441493  1
  Tb  Tb8  1  0.187853  0.814658  0.813792  1
  Tb  Tb9  1  0.814658  0.187851  0.183699  1
  Tb  Tb10  1  0.814658  0.187853  0.813792  1
  Tb  Tb11  1  0.187852  0.814657  0.183699  1
  Tb  Tb12  1  0.815483  0.815482  0.184516  1
  Tb  Tb13  1  0.190025  0.190025  0.809975  1
  Th  Th14  1  0.600521  0.600522  0.602780  1
  Th  Th15  1  0.600519  0.600520  0.196181  1
  Zn  Zn16  1  0.830127  0.830127  0.829093  1
  Zn  Zn17  1  0.830130  0.830130  0.510650  1
  Zn  Zn18  1  0.831627  0.504866  0.831754  1
  Zn  Zn19  1  0.504867  0.831626  0.831755  1
  Ir  Ir20  1  0.392229  0.392228  0.396023  1
  Ir  Ir21  1  0.392230  0.392229  0.819520  1
  Ir  Ir22  1  0.393907  0.820453  0.392819  1
  Ir  Ir23  1  0.820453  0.393909  0.392819  1
