# generated using pymatgen
data_K4ScPaSe6
_symmetry_space_group_name_H-M   'P 1'
_cell_length_a   13.49788300
_cell_length_b   6.63720166
_cell_length_c   8.65027300
_cell_angle_alpha   72.90431656
_cell_angle_beta   90.00000000
_cell_angle_gamma   90.00000000
_symmetry_Int_Tables_number   1
_chemical_formula_structural   K4ScPaSe6
_chemical_formula_sum   'K8 Sc2 Pa2 Se12'
_cell_volume   740.72056636
_cell_formula_units_Z   2
loop_
 _symmetry_equiv_pos_site_id
 _symmetry_equiv_pos_as_xyz
  1  'x, y, z'
loop_
 _atom_site_type_symbol
 _atom_site_label
 _atom_site_symmetry_multiplicity
 _atom_site_fract_x
 _atom_site_fract_y
 _atom_site_fract_z
 _atom_site_occupancy
  K  K0  1  0.961098  0.660169  0.670162  1
  K  K1  1  0.461098  0.839831  0.329838  1
  K  K2  1  0.039184  0.341879  0.329261  1
  K  K3  1  0.539184  0.158121  0.670739  1
  K  K4  1  0.871075  0.073990  0.893412  1
  K  K5  1  0.371075  0.426010  0.106588  1
  K  K6  1  0.128860  0.920745  0.105016  1
  K  K7  1  0.628860  0.579255  0.894984  1
  Sc  Sc8  1  0.750430  0.664734  0.290663  1
  Sc  Sc9  1  0.250430  0.835266  0.709337  1
  Pa  Pa10  1  0.249642  0.335567  0.707950  1
  Pa  Pa11  1  0.749642  0.164433  0.292050  1
  Se  Se12  1  0.912677  0.910363  0.283344  1
  Se  Se13  1  0.412677  0.589637  0.716656  1
  Se  Se14  1  0.087105  0.076029  0.715760  1
  Se  Se15  1  0.587105  0.423971  0.284240  1
  Se  Se16  1  0.822117  0.333276  0.524768  1
  Se  Se17  1  0.322117  0.166724  0.475232  1
  Se  Se18  1  0.177994  0.680516  0.475135  1
  Se  Se19  1  0.677994  0.819484  0.524865  1
  Se  Se20  1  0.842154  0.505633  0.065677  1
  Se  Se21  1  0.342154  0.994367  0.934323  1
  Se  Se22  1  0.157664  0.502289  0.934845  1
  Se  Se23  1  0.657664  0.997711  0.065155  1
