# generated using pymatgen
data_Li3HoLu2Si2Ge
_symmetry_space_group_name_H-M   'P 1'
_cell_length_a   6.86291800
_cell_length_b   6.91262688
_cell_length_c   4.20535200
_cell_angle_alpha   90.00000000
_cell_angle_beta   90.00000000
_cell_angle_gamma   119.76241607
_symmetry_Int_Tables_number   1
_chemical_formula_structural   Li3HoLu2Si2Ge
_chemical_formula_sum   'Li3 Ho1 Lu2 Si2 Ge1'
_cell_volume   173.18874466
_cell_formula_units_Z   1
loop_
 _symmetry_equiv_pos_site_id
 _symmetry_equiv_pos_as_xyz
  1  'x, y, z'
loop_
 _atom_site_type_symbol
 _atom_site_label
 _atom_site_symmetry_multiplicity
 _atom_site_fract_x
 _atom_site_fract_y
 _atom_site_fract_z
 _atom_site_occupancy
  Li  Li0  1  0.234203  0.000000  0.500000  1
  Li  Li1  1  0.000542  0.234854  0.500000  1
  Li  Li2  1  0.765688  0.765146  0.500000  1
  Ho  Ho3  1  0.568870  0.000000  0.000000  1
  Lu  Lu4  1  0.999676  0.571068  0.000000  1
  Lu  Lu5  1  0.428608  0.428932  0.000000  1
  Si  Si6  1  0.330883  0.663396  0.500000  1
  Si  Si7  1  0.667487  0.336604  0.500000  1
  Ge  Ge8  1  0.004043  0.000000  0.000000  1
