# generated using pymatgen
data_Sc6Ru3PtRh2
_symmetry_space_group_name_H-M   'P 1'
_cell_length_a   4.60318900
_cell_length_b   6.40647500
_cell_length_c   13.73972000
_cell_angle_alpha   89.99999583
_cell_angle_beta   90.00009566
_cell_angle_gamma   90.00007311
_symmetry_Int_Tables_number   1
_chemical_formula_structural   Sc6Ru3PtRh2
_chemical_formula_sum   'Sc12 Ru6 Pt2 Rh4'
_cell_volume   405.18730026
_cell_formula_units_Z   2
loop_
 _symmetry_equiv_pos_site_id
 _symmetry_equiv_pos_as_xyz
  1  'x, y, z'
loop_
 _atom_site_type_symbol
 _atom_site_label
 _atom_site_symmetry_multiplicity
 _atom_site_fract_x
 _atom_site_fract_y
 _atom_site_fract_z
 _atom_site_occupancy
  Sc  Sc0  1  0.500002  0.248625  0.998037  1
  Sc  Sc1  1  0.500003  0.751375  0.998037  1
  Sc  Sc2  1  0.999983  0.251389  0.168629  1
  Sc  Sc3  1  0.999983  0.748611  0.168629  1
  Sc  Sc4  1  0.499979  0.251660  0.335547  1
  Sc  Sc5  1  0.499979  0.748340  0.335547  1
  Sc  Sc6  1  0.999998  0.249783  0.500444  1
  Sc  Sc7  1  0.999998  0.750217  0.500444  1
  Sc  Sc8  1  0.500021  0.250211  0.666224  1
  Sc  Sc9  1  0.500022  0.749788  0.666224  1
  Sc  Sc10  1  0.000016  0.248340  0.831119  1
  Sc  Sc11  1  0.000017  0.751660  0.831119  1
  Ru  Ru12  1  0.000001  0.000000  0.000490  1
  Ru  Ru13  1  0.499976  0.499999  0.166176  1
  Ru  Ru14  1  0.999988  0.000000  0.333361  1
  Ru  Ru15  1  0.499999  0.500000  0.500280  1
  Ru  Ru16  1  0.000019  0.000000  0.666379  1
  Ru  Ru17  1  0.500008  0.500000  0.833311  1
  Pt  Pt18  1  0.999998  0.500000  0.999856  1
  Pt  Pt19  1  0.499980  0.000000  0.166812  1
  Rh  Rh20  1  0.999980  0.500000  0.333414  1
  Rh  Rh21  1  0.500001  0.000000  0.499908  1
  Rh  Rh22  1  0.000024  0.500000  0.666765  1
  Rh  Rh23  1  0.500021  0.000000  0.833250  1
