# generated using pymatgen
data_La4Ho5ErIr4
_symmetry_space_group_name_H-M   'P 1'
_cell_length_a   6.56451014
_cell_length_b   7.23246474
_cell_length_c   8.82887855
_cell_angle_alpha   96.94787274
_cell_angle_beta   111.73066463
_cell_angle_gamma   90.05226473
_symmetry_Int_Tables_number   1
_chemical_formula_structural   La4Ho5ErIr4
_chemical_formula_sum   'La4 Ho5 Er1 Ir4'
_cell_volume   386.05070825
_cell_formula_units_Z   1
loop_
 _symmetry_equiv_pos_site_id
 _symmetry_equiv_pos_as_xyz
  1  'x, y, z'
loop_
 _atom_site_type_symbol
 _atom_site_label
 _atom_site_symmetry_multiplicity
 _atom_site_fract_x
 _atom_site_fract_y
 _atom_site_fract_z
 _atom_site_occupancy
  La  La0  1  0.975482  0.918485  0.194357  1
  La  La1  1  0.781006  0.581264  0.805636  1
  La  La2  1  0.024286  0.081477  0.805594  1
  La  La3  1  0.219021  0.418668  0.194351  1
  Ho  Ho4  1  0.208220  0.682999  0.566003  1
  Ho  Ho5  1  0.358700  0.183269  0.566703  1
  Ho  Ho6  1  0.791778  0.317046  0.433933  1
  Ho  Ho7  1  0.429773  0.750439  0.000172  1
  Ho  Ho8  1  0.570311  0.249612  0.999992  1
  Er  Er9  1  0.641240  0.816682  0.433008  1
  Ir  Ir10  1  0.815493  0.576089  0.226685  1
  Ir  Ir11  1  0.589227  0.924283  0.773613  1
  Ir  Ir12  1  0.184465  0.424180  0.773617  1
  Ir  Ir13  1  0.410997  0.075507  0.226335  1
