# generated using pymatgen
data_DyMgTcB6
_symmetry_space_group_name_H-M   'P 1'
_cell_length_a   3.57615800
_cell_length_b   8.90185900
_cell_length_c   11.27207400
_cell_angle_alpha   90.00000000
_cell_angle_beta   90.00000000
_cell_angle_gamma   90.00000000
_symmetry_Int_Tables_number   1
_chemical_formula_structural   DyMgTcB6
_chemical_formula_sum   'Dy4 Mg4 Tc4 B24'
_cell_volume   358.84032437
_cell_formula_units_Z   4
loop_
 _symmetry_equiv_pos_site_id
 _symmetry_equiv_pos_as_xyz
  1  'x, y, z'
loop_
 _atom_site_type_symbol
 _atom_site_label
 _atom_site_symmetry_multiplicity
 _atom_site_fract_x
 _atom_site_fract_y
 _atom_site_fract_z
 _atom_site_occupancy
  Dy  Dy0  1  0.000000  0.323573  0.414125  1
  Dy  Dy1  1  0.000000  0.676427  0.585875  1
  Dy  Dy2  1  0.000000  0.823573  0.085875  1
  Dy  Dy3  1  0.000000  0.176427  0.914125  1
  Mg  Mg4  1  0.000000  0.944078  0.371738  1
  Mg  Mg5  1  0.000000  0.055922  0.628262  1
  Mg  Mg6  1  0.000000  0.444078  0.128262  1
  Mg  Mg7  1  0.000000  0.555922  0.871738  1
  Tc  Tc8  1  0.000000  0.642374  0.317550  1
  Tc  Tc9  1  0.000000  0.357626  0.682450  1
  Tc  Tc10  1  0.000000  0.142374  0.182450  1
  Tc  Tc11  1  0.000000  0.857626  0.817550  1
  B  B12  1  0.500000  0.554576  0.432765  1
  B  B13  1  0.500000  0.445424  0.567235  1
  B  B14  1  0.500000  0.054576  0.067235  1
  B  B15  1  0.500000  0.945424  0.932765  1
  B  B16  1  0.500000  0.755662  0.418267  1
  B  B17  1  0.500000  0.244338  0.581733  1
  B  B18  1  0.500000  0.255662  0.081733  1
  B  B19  1  0.500000  0.744338  0.918267  1
  B  B20  1  0.500000  0.795042  0.262690  1
  B  B21  1  0.500000  0.204958  0.737309  1
  B  B22  1  0.500000  0.295042  0.237310  1
  B  B23  1  0.500000  0.704958  0.762691  1
  B  B24  1  0.500000  0.627827  0.181427  1
  B  B25  1  0.500000  0.372173  0.818573  1
  B  B26  1  0.500000  0.127827  0.318573  1
  B  B27  1  0.500000  0.872173  0.681427  1
  B  B28  1  0.500000  0.979954  0.212604  1
  B  B29  1  0.500000  0.020046  0.787396  1
  B  B30  1  0.500000  0.479954  0.287396  1
  B  B31  1  0.500000  0.520046  0.712604  1
  B  B32  1  0.500000  0.592486  0.025163  1
  B  B33  1  0.500000  0.407514  0.974837  1
  B  B34  1  0.500000  0.092486  0.474837  1
  B  B35  1  0.500000  0.907514  0.525163  1
