# generated using pymatgen
data_Pr16Mg3AgIr4
_symmetry_space_group_name_H-M   'P 1'
_cell_length_a   10.04909497
_cell_length_b   10.04909480
_cell_length_c   10.04909553
_cell_angle_alpha   60.33516218
_cell_angle_beta   60.33516151
_cell_angle_gamma   60.33516274
_symmetry_Int_Tables_number   1
_chemical_formula_structural   Pr16Mg3AgIr4
_chemical_formula_sum   'Pr16 Mg3 Ag1 Ir4'
_cell_volume   723.01380536
_cell_formula_units_Z   1
loop_
 _symmetry_equiv_pos_site_id
 _symmetry_equiv_pos_as_xyz
  1  'x, y, z'
loop_
 _atom_site_type_symbol
 _atom_site_label
 _atom_site_symmetry_multiplicity
 _atom_site_fract_x
 _atom_site_fract_y
 _atom_site_fract_z
 _atom_site_occupancy
  Pr  Pr0  1  0.346062  0.346062  0.346062  1
  Pr  Pr1  1  0.347398  0.347398  0.958665  1
  Pr  Pr2  1  0.347398  0.958665  0.347398  1
  Pr  Pr3  1  0.958665  0.347398  0.347398  1
  Pr  Pr4  1  0.810864  0.188932  0.188932  1
  Pr  Pr5  1  0.189719  0.809343  0.809343  1
  Pr  Pr6  1  0.188932  0.810864  0.188932  1
  Pr  Pr7  1  0.809343  0.189719  0.809343  1
  Pr  Pr8  1  0.188932  0.188932  0.810864  1
  Pr  Pr9  1  0.809343  0.809343  0.189719  1
  Pr  Pr10  1  0.934932  0.561392  0.561392  1
  Pr  Pr11  1  0.561199  0.937917  0.937917  1
  Pr  Pr12  1  0.561392  0.934932  0.561392  1
  Pr  Pr13  1  0.937917  0.561199  0.937917  1
  Pr  Pr14  1  0.561392  0.561392  0.934932  1
  Pr  Pr15  1  0.937917  0.937917  0.561199  1
  Mg  Mg16  1  0.579256  0.579256  0.267246  1
  Mg  Mg17  1  0.579256  0.267246  0.579256  1
  Mg  Mg18  1  0.267246  0.579256  0.579256  1
  Ag  Ag19  1  0.580334  0.580334  0.580334  1
  Ir  Ir20  1  0.141636  0.141636  0.141636  1
  Ir  Ir21  1  0.142299  0.142299  0.576271  1
  Ir  Ir22  1  0.142299  0.576271  0.142299  1
  Ir  Ir23  1  0.576271  0.142299  0.142299  1
