# generated using pymatgen
data_ErLu5(Si3Pt2)4
_symmetry_space_group_name_H-M   'P 1'
_cell_length_a   4.23672800
_cell_length_b   8.54136780
_cell_length_c   12.90644600
_cell_angle_alpha   80.24909747
_cell_angle_beta   90.00000000
_cell_angle_gamma   90.00000000
_symmetry_Int_Tables_number   1
_chemical_formula_structural   ErLu5(Si3Pt2)4
_chemical_formula_sum   'Er1 Lu5 Si12 Pt8'
_cell_volume   460.30408776
_cell_formula_units_Z   1
loop_
 _symmetry_equiv_pos_site_id
 _symmetry_equiv_pos_as_xyz
  1  'x, y, z'
loop_
 _atom_site_type_symbol
 _atom_site_label
 _atom_site_symmetry_multiplicity
 _atom_site_fract_x
 _atom_site_fract_y
 _atom_site_fract_z
 _atom_site_occupancy
  Er  Er0  1  0.250000  0.766388  0.439108  1
  Lu  Lu1  1  0.250000  0.584232  0.186613  1
  Lu  Lu2  1  0.750000  0.233563  0.561031  1
  Lu  Lu3  1  0.750000  0.415757  0.813468  1
  Lu  Lu4  1  0.750000  0.926841  0.815922  1
  Lu  Lu5  1  0.250000  0.073187  0.184095  1
  Si  Si6  1  0.750000  0.588390  0.571837  1
  Si  Si7  1  0.750000  0.127156  0.004799  1
  Si  Si8  1  0.750000  0.872929  0.574102  1
  Si  Si9  1  0.250000  0.696510  0.713199  1
  Si  Si10  1  0.750000  0.303507  0.286563  1
  Si  Si11  1  0.750000  0.805714  0.276982  1
  Si  Si12  1  0.250000  0.872910  0.995142  1
  Si  Si13  1  0.250000  0.194400  0.722674  1
  Si  Si14  1  0.250000  0.378773  0.001541  1
  Si  Si15  1  0.250000  0.127782  0.426333  1
  Si  Si16  1  0.750000  0.621191  0.998413  1
  Si  Si17  1  0.250000  0.410664  0.428636  1
  Pt  Pt18  1  0.750000  0.351923  0.100182  1
  Pt  Pt19  1  0.250000  0.972031  0.624239  1
  Pt  Pt20  1  0.750000  0.848910  0.089192  1
  Pt  Pt21  1  0.750000  0.029095  0.375709  1
  Pt  Pt22  1  0.250000  0.648059  0.899722  1
  Pt  Pt23  1  0.250000  0.151170  0.910610  1
  Pt  Pt24  1  0.750000  0.532927  0.375994  1
  Pt  Pt25  1  0.250000  0.465994  0.623900  1
