# generated using pymatgen
data_NdLu2Al8(SiOs)4
_symmetry_space_group_name_H-M   'P 1'
_cell_length_a   8.70229205
_cell_length_b   8.70229022
_cell_length_c   9.42827700
_cell_angle_alpha   90.00000000
_cell_angle_beta   90.00000000
_cell_angle_gamma   120.11432388
_symmetry_Int_Tables_number   1
_chemical_formula_structural   NdLu2Al8(SiOs)4
_chemical_formula_sum   'Nd2 Lu4 Al16 Si8 Os8'
_cell_volume   617.63047961
_cell_formula_units_Z   2
loop_
 _symmetry_equiv_pos_site_id
 _symmetry_equiv_pos_as_xyz
  1  'x, y, z'
loop_
 _atom_site_type_symbol
 _atom_site_label
 _atom_site_symmetry_multiplicity
 _atom_site_fract_x
 _atom_site_fract_y
 _atom_site_fract_z
 _atom_site_occupancy
  Nd  Nd0  1  0.190257  0.809743  0.250000  1
  Nd  Nd1  1  0.809743  0.190257  0.750000  1
  Lu  Lu2  1  0.194513  0.392430  0.250000  1
  Lu  Lu3  1  0.805487  0.607570  0.750000  1
  Lu  Lu4  1  0.607570  0.805487  0.250000  1
  Lu  Lu5  1  0.392430  0.194513  0.750000  1
  Al  Al6  1  0.167079  0.329601  0.577209  1
  Al  Al7  1  0.832921  0.670399  0.422791  1
  Al  Al8  1  0.670399  0.832921  0.577209  1
  Al  Al9  1  0.832921  0.670399  0.077209  1
  Al  Al10  1  0.329601  0.167079  0.422791  1
  Al  Al11  1  0.167079  0.329601  0.922791  1
  Al  Al12  1  0.164107  0.835893  0.579790  1
  Al  Al13  1  0.329601  0.167079  0.077209  1
  Al  Al14  1  0.835893  0.164107  0.420210  1
  Al  Al15  1  0.670399  0.832921  0.922791  1
  Al  Al16  1  0.835893  0.164107  0.079790  1
  Al  Al17  1  0.164107  0.835893  0.920210  1
  Al  Al18  1  0.563889  0.436111  0.250000  1
  Al  Al19  1  0.436111  0.563889  0.750000  1
  Al  Al20  1  0.994859  0.005141  0.250000  1
  Al  Al21  1  0.005141  0.994859  0.750000  1
  Si  Si22  1  0.335377  0.664623  0.040321  1
  Si  Si23  1  0.664623  0.335377  0.959679  1
  Si  Si24  1  0.664623  0.335377  0.540321  1
  Si  Si25  1  0.335377  0.664623  0.459679  1
  Si  Si26  1  0.566851  0.125950  0.250000  1
  Si  Si27  1  0.433149  0.874050  0.750000  1
  Si  Si28  1  0.874050  0.433149  0.250000  1
  Si  Si29  1  0.125950  0.566851  0.750000  1
  Os  Os30  1  0.500000  0.000000  0.000000  1
  Os  Os31  1  0.000000  0.500000  0.000000  1
  Os  Os32  1  0.500000  0.000000  0.500000  1
  Os  Os33  1  0.500000  0.500000  0.000000  1
  Os  Os34  1  0.000000  0.500000  0.500000  1
  Os  Os35  1  0.500000  0.500000  0.500000  1
  Os  Os36  1  0.000000  0.000000  0.000000  1
  Os  Os37  1  0.000000  0.000000  0.500000  1
