# generated using pymatgen
data_Tc3I2Br7
_symmetry_space_group_name_H-M   'P 1'
_cell_length_a   10.88498495
_cell_length_b   9.11527351
_cell_length_c   9.71954499
_cell_angle_alpha   70.15802410
_cell_angle_beta   88.87130060
_cell_angle_gamma   90.19297225
_symmetry_Int_Tables_number   1
_chemical_formula_structural   Tc3I2Br7
_chemical_formula_sum   'Tc6 I4 Br14'
_cell_volume   906.88932396
_cell_formula_units_Z   2
loop_
 _symmetry_equiv_pos_site_id
 _symmetry_equiv_pos_as_xyz
  1  'x, y, z'
loop_
 _atom_site_type_symbol
 _atom_site_label
 _atom_site_symmetry_multiplicity
 _atom_site_fract_x
 _atom_site_fract_y
 _atom_site_fract_z
 _atom_site_occupancy
  Tc  Tc0  1  0.750482  0.162581  0.649920  1
  Tc  Tc1  1  0.861130  0.163111  0.865400  1
  Tc  Tc2  1  0.366806  0.841044  0.133560  1
  Tc  Tc3  1  0.139310  0.834595  0.136595  1
  Tc  Tc4  1  0.632725  0.158326  0.866220  1
  Tc  Tc5  1  0.250996  0.836558  0.350140  1
  I  I6  1  0.091685  0.149494  0.019278  1
  I  I7  1  0.907869  0.846560  0.984760  1
  I  I8  1  0.499251  0.157914  0.630320  1
  I  I9  1  0.904474  0.462113  0.806546  1
  Br  Br10  1  0.409859  0.566051  0.189666  1
  Br  Br11  1  0.410096  0.135285  0.023955  1
  Br  Br12  1  0.247563  0.091019  0.376465  1
  Br  Br13  1  0.987278  0.167506  0.638857  1
  Br  Br14  1  0.252330  0.575210  0.517486  1
  Br  Br15  1  0.589712  0.863433  0.978312  1
  Br  Br16  1  0.742906  0.148783  0.099641  1
  Br  Br17  1  0.015328  0.828703  0.364739  1
  Br  Br18  1  0.256267  0.848570  0.902072  1
  Br  Br19  1  0.752507  0.423790  0.481192  1
  Br  Br20  1  0.486476  0.841433  0.357627  1
  Br  Br21  1  0.589382  0.433388  0.811663  1
  Br  Br22  1  0.100470  0.556171  0.192864  1
  Br  Br23  1  0.755100  0.908366  0.622723  1
