# generated using pymatgen
data_Zr3Nb(AlRu2)4
_symmetry_space_group_name_H-M   'P 1'
_cell_length_a   6.27738100
_cell_length_b   4.45940800
_cell_length_c   8.93801600
_cell_angle_alpha   90.00000000
_cell_angle_beta   90.00147863
_cell_angle_gamma   90.00000000
_symmetry_Int_Tables_number   1
_chemical_formula_structural   Zr3Nb(AlRu2)4
_chemical_formula_sum   'Zr3 Nb1 Al4 Ru8'
_cell_volume   250.20548436
_cell_formula_units_Z   1
loop_
 _symmetry_equiv_pos_site_id
 _symmetry_equiv_pos_as_xyz
  1  'x, y, z'
loop_
 _atom_site_type_symbol
 _atom_site_label
 _atom_site_symmetry_multiplicity
 _atom_site_fract_x
 _atom_site_fract_y
 _atom_site_fract_z
 _atom_site_occupancy
  Zr  Zr0  1  0.250018  0.250000  0.124202  1
  Zr  Zr1  1  0.750021  0.750000  0.375014  1
  Zr  Zr2  1  0.249974  0.250000  0.625833  1
  Nb  Nb3  1  0.749980  0.750000  0.874964  1
  Al  Al4  1  0.750029  0.250000  0.123935  1
  Al  Al5  1  0.250025  0.750000  0.374959  1
  Al  Al6  1  0.749969  0.250000  0.626088  1
  Al  Al7  1  0.249973  0.750000  0.874991  1
  Ru  Ru8  1  0.503464  0.750000  0.120201  1
  Ru  Ru9  1  0.996577  0.750000  0.120193  1
  Ru  Ru10  1  0.500519  0.250000  0.375057  1
  Ru  Ru11  1  0.999525  0.250000  0.375054  1
  Ru  Ru12  1  0.996519  0.750000  0.629780  1
  Ru  Ru13  1  0.503446  0.750000  0.629780  1
  Ru  Ru14  1  0.992940  0.250000  0.874974  1
  Ru  Ru15  1  0.507021  0.250000  0.874975  1
