# generated using pymatgen
data_CeNd15(CdRu)4
_symmetry_space_group_name_H-M   'P 1'
_cell_length_a   9.96613297
_cell_length_b   9.96613217
_cell_length_c   9.96613218
_cell_angle_alpha   59.29906080
_cell_angle_beta   59.29906481
_cell_angle_gamma   59.29906485
_symmetry_Int_Tables_number   1
_chemical_formula_structural   CeNd15(CdRu)4
_chemical_formula_sum   'Ce1 Nd15 Cd4 Ru4'
_cell_volume   688.77520982
_cell_formula_units_Z   1
loop_
 _symmetry_equiv_pos_site_id
 _symmetry_equiv_pos_as_xyz
  1  'x, y, z'
loop_
 _atom_site_type_symbol
 _atom_site_label
 _atom_site_symmetry_multiplicity
 _atom_site_fract_x
 _atom_site_fract_y
 _atom_site_fract_z
 _atom_site_occupancy
  Ce  Ce0  1  0.338529  0.338529  0.338529  1
  Nd  Nd1  1  0.560352  0.560352  0.941589  1
  Nd  Nd2  1  0.938967  0.560587  0.938967  1
  Nd  Nd3  1  0.560587  0.938967  0.938967  1
  Nd  Nd4  1  0.938967  0.938967  0.560587  1
  Nd  Nd5  1  0.560352  0.941589  0.560352  1
  Nd  Nd6  1  0.941589  0.560352  0.560352  1
  Nd  Nd7  1  0.190804  0.190804  0.809608  1
  Nd  Nd8  1  0.810138  0.191561  0.810138  1
  Nd  Nd9  1  0.191560  0.810139  0.810138  1
  Nd  Nd10  1  0.810138  0.810139  0.191561  1
  Nd  Nd11  1  0.190803  0.809608  0.190803  1
  Nd  Nd12  1  0.809608  0.190804  0.190804  1
  Nd  Nd13  1  0.345668  0.345668  0.958487  1
  Nd  Nd14  1  0.345668  0.958487  0.345668  1
  Nd  Nd15  1  0.958487  0.345668  0.345668  1
  Cd  Cd16  1  0.578566  0.578566  0.260964  1
  Cd  Cd17  1  0.578566  0.260964  0.578566  1
  Cd  Cd18  1  0.260964  0.578566  0.578566  1
  Cd  Cd19  1  0.579760  0.579760  0.579760  1
  Ru  Ru20  1  0.149657  0.149657  0.573005  1
  Ru  Ru21  1  0.149657  0.573005  0.149657  1
  Ru  Ru22  1  0.573005  0.149657  0.149657  1
  Ru  Ru23  1  0.137606  0.137606  0.137606  1
