# generated using pymatgen
data_La10Pr6Mg4IrOs3
_symmetry_space_group_name_H-M   'P 1'
_cell_length_a   10.15381387
_cell_length_b   10.16896961
_cell_length_c   10.16834377
_cell_angle_alpha   59.67897892
_cell_angle_beta   59.67795433
_cell_angle_gamma   59.67837881
_symmetry_Int_Tables_number   1
_chemical_formula_structural   La10Pr6Mg4IrOs3
_chemical_formula_sum   'La10 Pr6 Mg4 Ir1 Os3'
_cell_volume   736.98237730
_cell_formula_units_Z   1
loop_
 _symmetry_equiv_pos_site_id
 _symmetry_equiv_pos_as_xyz
  1  'x, y, z'
loop_
 _atom_site_type_symbol
 _atom_site_label
 _atom_site_symmetry_multiplicity
 _atom_site_fract_x
 _atom_site_fract_y
 _atom_site_fract_z
 _atom_site_occupancy
  La  La0  1  0.342350  0.343943  0.343951  1
  La  La1  1  0.343133  0.344397  0.966163  1
  La  La2  1  0.343137  0.966173  0.344405  1
  La  La3  1  0.968402  0.343399  0.343396  1
  La  La4  1  0.813464  0.189573  0.189543  1
  La  La5  1  0.189167  0.812185  0.812206  1
  La  La6  1  0.189335  0.811118  0.189137  1
  La  La7  1  0.814582  0.189663  0.808820  1
  La  La8  1  0.189309  0.189130  0.811129  1
  La  La9  1  0.814577  0.808848  0.189655  1
  Pr  Pr10  1  0.934094  0.563729  0.563760  1
  Pr  Pr11  1  0.559713  0.938659  0.938640  1
  Pr  Pr12  1  0.562401  0.934238  0.565881  1
  Pr  Pr13  1  0.938320  0.561484  0.939724  1
  Pr  Pr14  1  0.562424  0.565860  0.934227  1
  Pr  Pr15  1  0.938290  0.939719  0.561510  1
  Mg  Mg16  1  0.578532  0.578725  0.578729  1
  Mg  Mg17  1  0.578270  0.578802  0.263494  1
  Mg  Mg18  1  0.578254  0.263512  0.578799  1
  Mg  Mg19  1  0.262578  0.578738  0.578739  1
  Ir  Ir20  1  0.584241  0.137768  0.137744  1
  Os  Os21  1  0.139786  0.137488  0.137468  1
  Os  Os22  1  0.137810  0.135279  0.587589  1
  Os  Os23  1  0.137833  0.587572  0.135292  1
