# generated using pymatgen
data_Tb8Si12RuAu3
_symmetry_space_group_name_H-M   'P 1'
_cell_length_a   8.21092500
_cell_length_b   8.21092520
_cell_length_c   8.21990000
_cell_angle_alpha   90.00000000
_cell_angle_beta   90.00000000
_cell_angle_gamma   120.00001129
_symmetry_Int_Tables_number   1
_chemical_formula_structural   Tb8Si12RuAu3
_chemical_formula_sum   'Tb8 Si12 Ru1 Au3'
_cell_volume   479.93375632
_cell_formula_units_Z   1
loop_
 _symmetry_equiv_pos_site_id
 _symmetry_equiv_pos_as_xyz
  1  'x, y, z'
loop_
 _atom_site_type_symbol
 _atom_site_label
 _atom_site_symmetry_multiplicity
 _atom_site_fract_x
 _atom_site_fract_y
 _atom_site_fract_z
 _atom_site_occupancy
  Tb  Tb0  1  0.497090  0.994178  0.257001  1
  Tb  Tb1  1  0.495484  0.990971  0.743031  1
  Tb  Tb2  1  0.005822  0.502910  0.257001  1
  Tb  Tb3  1  0.009029  0.504516  0.743031  1
  Tb  Tb4  1  0.497090  0.502910  0.257001  1
  Tb  Tb5  1  0.495484  0.504516  0.743031  1
  Tb  Tb6  1  0.000000  0.000000  0.250759  1
  Tb  Tb7  1  0.000000  0.000000  0.749154  1
  Si  Si8  1  0.162666  0.325332  0.996214  1
  Si  Si9  1  0.836623  0.673246  0.003651  1
  Si  Si10  1  0.674668  0.837334  0.996214  1
  Si  Si11  1  0.839041  0.678081  0.501919  1
  Si  Si12  1  0.326754  0.163377  0.003651  1
  Si  Si13  1  0.169195  0.338389  0.497932  1
  Si  Si14  1  0.162666  0.837334  0.996214  1
  Si  Si15  1  0.321919  0.160959  0.501919  1
  Si  Si16  1  0.836623  0.163377  0.003651  1
  Si  Si17  1  0.661611  0.830805  0.497932  1
  Si  Si18  1  0.839041  0.160959  0.501919  1
  Si  Si19  1  0.169195  0.830805  0.497932  1
  Ru  Ru20  1  0.333333  0.666667  0.497966  1
  Au  Au21  1  0.333333  0.666667  0.003484  1
  Au  Au22  1  0.666667  0.333333  0.997767  1
  Au  Au23  1  0.666667  0.333333  0.501626  1
