# generated using pymatgen
data_Tm5Lu11(In3Au)2
_symmetry_space_group_name_H-M   'P 1'
_cell_length_a   10.41952425
_cell_length_b   10.41962288
_cell_length_c   6.77662201
_cell_angle_alpha   89.99992980
_cell_angle_beta   89.99551012
_cell_angle_gamma   119.97503946
_symmetry_Int_Tables_number   1
_chemical_formula_structural   Tm5Lu11(In3Au)2
_chemical_formula_sum   'Tm5 Lu11 In6 Au2'
_cell_volume   637.31326871
_cell_formula_units_Z   1
loop_
 _symmetry_equiv_pos_site_id
 _symmetry_equiv_pos_as_xyz
  1  'x, y, z'
loop_
 _atom_site_type_symbol
 _atom_site_label
 _atom_site_symmetry_multiplicity
 _atom_site_fract_x
 _atom_site_fract_y
 _atom_site_fract_z
 _atom_site_occupancy
  Tm  Tm0  1  0.522493  0.045035  0.527122  1
  Tm  Tm1  1  0.954966  0.477506  0.527129  1
  Tm  Tm2  1  0.522517  0.477476  0.527133  1
  Tm  Tm3  1  0.477460  0.955069  0.027090  1
  Tm  Tm4  1  0.044927  0.522537  0.027095  1
  Lu  Lu5  1  0.477351  0.522649  0.027120  1
  Lu  Lu6  1  0.173225  0.346323  0.741798  1
  Lu  Lu7  1  0.653667  0.826772  0.741776  1
  Lu  Lu8  1  0.173146  0.826856  0.741596  1
  Lu  Lu9  1  0.826712  0.653715  0.241452  1
  Lu  Lu10  1  0.346278  0.173292  0.241453  1
  Lu  Lu11  1  0.826903  0.173111  0.241575  1
  Lu  Lu12  1  0.666541  0.333469  0.884620  1
  Lu  Lu13  1  0.333422  0.666575  0.384305  1
  Lu  Lu14  1  0.000009  0.999990  0.505491  1
  Lu  Lu15  1  0.999985  0.000011  0.005595  1
  In  In16  1  0.836120  0.672151  0.761660  1
  In  In17  1  0.327850  0.163881  0.761661  1
  In  In18  1  0.836036  0.163962  0.761716  1
  In  In19  1  0.164159  0.328038  0.261581  1
  In  In20  1  0.671963  0.835848  0.261585  1
  In  In21  1  0.163930  0.836074  0.261800  1
  Au  Au22  1  0.666672  0.333326  0.296478  1
  Au  Au23  1  0.333669  0.666333  0.796850  1
