# generated using pymatgen
data_CeTmGaRu2
_symmetry_space_group_name_H-M   'P 1'
_cell_length_a   5.53185548
_cell_length_b   5.53185686
_cell_length_c   7.22414400
_cell_angle_alpha   85.81721059
_cell_angle_beta   94.18279045
_cell_angle_gamma   115.99069628
_symmetry_Int_Tables_number   1
_chemical_formula_structural   CeTmGaRu2
_chemical_formula_sum   'Ce2 Tm2 Ga2 Ru4'
_cell_volume   197.97497085
_cell_formula_units_Z   2
loop_
 _symmetry_equiv_pos_site_id
 _symmetry_equiv_pos_as_xyz
  1  'x, y, z'
loop_
 _atom_site_type_symbol
 _atom_site_label
 _atom_site_symmetry_multiplicity
 _atom_site_fract_x
 _atom_site_fract_y
 _atom_site_fract_z
 _atom_site_occupancy
  Ce  Ce0  1  0.169140  0.830860  0.602832  1
  Ce  Ce1  1  0.830860  0.169140  0.397168  1
  Tm  Tm2  1  0.344707  0.655293  0.088442  1
  Tm  Tm3  1  0.655293  0.344707  0.911558  1
  Ga  Ga4  1  0.000000  0.000000  0.000000  1
  Ga  Ga5  1  0.500000  0.500000  0.500000  1
  Ru  Ru6  1  0.860346  0.639073  0.261941  1
  Ru  Ru7  1  0.639073  0.860346  0.738059  1
  Ru  Ru8  1  0.139654  0.360927  0.738059  1
  Ru  Ru9  1  0.360927  0.139654  0.261941  1
