# generated using pymatgen
data_DyTmNbIr3
_symmetry_space_group_name_H-M   'P 1'
_cell_length_a   5.25361413
_cell_length_b   5.25361420
_cell_length_c   5.25361353
_cell_angle_alpha   64.67206803
_cell_angle_beta   64.67207521
_cell_angle_gamma   64.67206821
_symmetry_Int_Tables_number   1
_chemical_formula_structural   DyTmNbIr3
_chemical_formula_sum   'Dy1 Tm1 Nb1 Ir3'
_cell_volume   113.02259724
_cell_formula_units_Z   1
loop_
 _symmetry_equiv_pos_site_id
 _symmetry_equiv_pos_as_xyz
  1  'x, y, z'
loop_
 _atom_site_type_symbol
 _atom_site_label
 _atom_site_symmetry_multiplicity
 _atom_site_fract_x
 _atom_site_fract_y
 _atom_site_fract_z
 _atom_site_occupancy
  Dy  Dy0  1  0.251052  0.251052  0.251052  1
  Tm  Tm1  1  0.997844  0.997844  0.997844  1
  Nb  Nb2  1  0.625118  0.625118  0.625118  1
  Ir  Ir3  1  0.625535  0.625535  0.124917  1
  Ir  Ir4  1  0.625535  0.124917  0.625535  1
  Ir  Ir5  1  0.124917  0.625535  0.625535  1
