# generated using pymatgen
data_Li4Ac3Si3Ag
_symmetry_space_group_name_H-M   'P 1'
_cell_length_a   4.67697442
_cell_length_b   7.17585705
_cell_length_c   8.74118419
_cell_angle_alpha   114.23388956
_cell_angle_beta   105.51705965
_cell_angle_gamma   90.00000620
_symmetry_Int_Tables_number   1
_chemical_formula_structural   Li4Ac3Si3Ag
_chemical_formula_sum   'Li4 Ac3 Si3 Ag1'
_cell_volume   255.74183199
_cell_formula_units_Z   1
loop_
 _symmetry_equiv_pos_site_id
 _symmetry_equiv_pos_as_xyz
  1  'x, y, z'
loop_
 _atom_site_type_symbol
 _atom_site_label
 _atom_site_symmetry_multiplicity
 _atom_site_fract_x
 _atom_site_fract_y
 _atom_site_fract_z
 _atom_site_occupancy
  Li  Li0  1  0.669992  0.966152  0.339980  1
  Li  Li1  1  0.332262  0.011349  0.664526  1
  Li  Li2  1  0.332262  0.653176  0.664526  1
  Li  Li3  1  0.669992  0.373828  0.339980  1
  Ac  Ac4  1  0.997510  0.997510  0.995022  1
  Ac  Ac5  1  0.131794  0.631794  0.263589  1
  Ac  Ac6  1  0.872466  0.372466  0.744932  1
  Si  Si7  1  0.498295  0.669487  0.996590  1
  Si  Si8  1  0.498295  0.327104  0.996590  1
  Si  Si9  1  0.786716  0.786716  0.573429  1
  Ag  Ag10  1  0.210417  0.210417  0.420833  1
