# generated using pymatgen
data_Rb5Cr(PSe3)4
_symmetry_space_group_name_H-M   'P 1'
_cell_length_a   13.88730200
_cell_length_b   13.88730200
_cell_length_c   7.57234100
_cell_angle_alpha   90.00000000
_cell_angle_beta   90.00000000
_cell_angle_gamma   90.00000000
_symmetry_Int_Tables_number   1
_chemical_formula_structural   Rb5Cr(PSe3)4
_chemical_formula_sum   'Rb10 Cr2 P8 Se24'
_cell_volume   1460.38015588
_cell_formula_units_Z   2
loop_
 _symmetry_equiv_pos_site_id
 _symmetry_equiv_pos_as_xyz
  1  'x, y, z'
loop_
 _atom_site_type_symbol
 _atom_site_label
 _atom_site_symmetry_multiplicity
 _atom_site_fract_x
 _atom_site_fract_y
 _atom_site_fract_z
 _atom_site_occupancy
  Rb  Rb0  1  0.000000  0.000000  0.500000  1
  Rb  Rb1  1  0.000000  0.000000  0.000000  1
  Rb  Rb2  1  0.315195  0.341579  0.500000  1
  Rb  Rb3  1  0.684805  0.658421  0.500000  1
  Rb  Rb4  1  0.658421  0.315195  0.000000  1
  Rb  Rb5  1  0.341579  0.684805  0.000000  1
  Rb  Rb6  1  0.317220  0.970303  0.500000  1
  Rb  Rb7  1  0.682780  0.029697  0.500000  1
  Rb  Rb8  1  0.029697  0.317220  0.000000  1
  Rb  Rb9  1  0.970303  0.682780  0.000000  1
  Cr  Cr10  1  0.000000  0.500000  0.500000  1
  Cr  Cr11  1  0.500000  0.000000  0.000000  1
  P  P12  1  0.200368  0.606002  0.500000  1
  P  P13  1  0.799632  0.393998  0.500000  1
  P  P14  1  0.393998  0.200368  0.000000  1
  P  P15  1  0.606002  0.799632  0.000000  1
  P  P16  1  0.112565  0.745088  0.500000  1
  P  P17  1  0.887435  0.254912  0.500000  1
  P  P18  1  0.254912  0.112565  0.000000  1
  P  P19  1  0.745088  0.887435  0.000000  1
  Se  Se20  1  0.149247  0.823674  0.258839  1
  Se  Se21  1  0.850753  0.176326  0.258839  1
  Se  Se22  1  0.176326  0.149247  0.758839  1
  Se  Se23  1  0.823674  0.850753  0.758839  1
  Se  Se24  1  0.850753  0.176326  0.741161  1
  Se  Se25  1  0.149247  0.823674  0.741161  1
  Se  Se26  1  0.823674  0.850753  0.241161  1
  Se  Se27  1  0.176326  0.149247  0.241161  1
  Se  Se28  1  0.035709  0.319941  0.500000  1
  Se  Se29  1  0.964291  0.680059  0.500000  1
  Se  Se30  1  0.680059  0.035709  0.000000  1
  Se  Se31  1  0.319941  0.964291  0.000000  1
  Se  Se32  1  0.352910  0.631489  0.500000  1
  Se  Se33  1  0.647090  0.368511  0.500000  1
  Se  Se34  1  0.368511  0.352910  0.000000  1
  Se  Se35  1  0.631489  0.647090  0.000000  1
  Se  Se36  1  0.138522  0.523289  0.273705  1
  Se  Se37  1  0.861478  0.476711  0.273705  1
  Se  Se38  1  0.476711  0.138522  0.773705  1
  Se  Se39  1  0.523289  0.861478  0.773705  1
  Se  Se40  1  0.861478  0.476711  0.726295  1
  Se  Se41  1  0.138522  0.523289  0.726295  1
  Se  Se42  1  0.523289  0.861478  0.226295  1
  Se  Se43  1  0.476711  0.138522  0.226295  1
