# generated using pymatgen
data_Yb4Cu3Si4Pd5
_symmetry_space_group_name_H-M   'P 1'
_cell_length_a   5.61211575
_cell_length_b   6.76108077
_cell_length_c   7.27568551
_cell_angle_alpha   89.85142772
_cell_angle_beta   89.59933538
_cell_angle_gamma   89.36637681
_symmetry_Int_Tables_number   1
_chemical_formula_structural   Yb4Cu3Si4Pd5
_chemical_formula_sum   'Yb4 Cu3 Si4 Pd5'
_cell_volume   276.04387294
_cell_formula_units_Z   1
loop_
 _symmetry_equiv_pos_site_id
 _symmetry_equiv_pos_as_xyz
  1  'x, y, z'
loop_
 _atom_site_type_symbol
 _atom_site_label
 _atom_site_symmetry_multiplicity
 _atom_site_fract_x
 _atom_site_fract_y
 _atom_site_fract_z
 _atom_site_occupancy
  Yb  Yb0  1  0.357022  0.745157  0.023307  1
  Yb  Yb1  1  0.146173  0.747675  0.523476  1
  Yb  Yb2  1  0.641692  0.243257  0.977677  1
  Yb  Yb3  1  0.855736  0.250765  0.475083  1
  Cu  Cu4  1  0.902350  0.552632  0.168105  1
  Cu  Cu5  1  0.583385  0.949202  0.672585  1
  Cu  Cu6  1  0.094763  0.054713  0.827226  1
  Si  Si7  1  0.649171  0.746398  0.372948  1
  Si  Si8  1  0.857453  0.764560  0.869541  1
  Si  Si9  1  0.357302  0.249605  0.629336  1
  Si  Si10  1  0.140095  0.255213  0.128008  1
  Pd  Pd11  1  0.410809  0.449138  0.324609  1
  Pd  Pd12  1  0.086510  0.443929  0.830045  1
  Pd  Pd13  1  0.404794  0.046035  0.331016  1
  Pd  Pd14  1  0.913825  0.941892  0.171360  1
  Pd  Pd15  1  0.598919  0.559828  0.675678  1
