# generated using pymatgen
data_Zr4InHgN2
_symmetry_space_group_name_H-M   'P 1'
_cell_length_a   3.33004700
_cell_length_b   3.33004736
_cell_length_c   14.73438100
_cell_angle_alpha   90.00000000
_cell_angle_beta   90.00000000
_cell_angle_gamma   119.99998651
_symmetry_Int_Tables_number   1
_chemical_formula_structural   Zr4InHgN2
_chemical_formula_sum   'Zr4 In1 Hg1 N2'
_cell_volume   141.50225449
_cell_formula_units_Z   1
loop_
 _symmetry_equiv_pos_site_id
 _symmetry_equiv_pos_as_xyz
  1  'x, y, z'
loop_
 _atom_site_type_symbol
 _atom_site_label
 _atom_site_symmetry_multiplicity
 _atom_site_fract_x
 _atom_site_fract_y
 _atom_site_fract_z
 _atom_site_occupancy
  Zr  Zr0  1  0.333333  0.666667  0.417335  1
  Zr  Zr1  1  0.666667  0.333333  0.585239  1
  Zr  Zr2  1  0.666667  0.333333  0.914761  1
  Zr  Zr3  1  0.333333  0.666667  0.082665  1
  In  In4  1  0.666667  0.333333  0.250000  1
  Hg  Hg5  1  0.333333  0.666667  0.750000  1
  N  N6  1  0.000000  0.000000  0.502396  1
  N  N7  1  0.000000  0.000000  0.997604  1
