# generated using pymatgen
data_Hf2Zr4GeSb2
_symmetry_space_group_name_H-M   'P 1'
_cell_length_a   3.94317000
_cell_length_b   7.58965435
_cell_length_c   7.57476588
_cell_angle_alpha   120.06505031
_cell_angle_beta   90.00000000
_cell_angle_gamma   90.00000000
_symmetry_Int_Tables_number   1
_chemical_formula_structural   Hf2Zr4GeSb2
_chemical_formula_sum   'Hf2 Zr4 Ge1 Sb2'
_cell_volume   196.19245230
_cell_formula_units_Z   1
loop_
 _symmetry_equiv_pos_site_id
 _symmetry_equiv_pos_as_xyz
  1  'x, y, z'
loop_
 _atom_site_type_symbol
 _atom_site_label
 _atom_site_symmetry_multiplicity
 _atom_site_fract_x
 _atom_site_fract_y
 _atom_site_fract_z
 _atom_site_occupancy
  Hf  Hf0  1  0.500000  0.998974  0.243703  1
  Hf  Hf1  1  0.500000  0.755270  0.756297  1
  Zr  Zr2  1  0.500000  0.244494  0.000000  1
  Zr  Zr3  1  0.000000  0.602172  0.000000  1
  Zr  Zr4  1  0.000000  0.399467  0.399400  1
  Zr  Zr5  1  0.000000  0.000067  0.600601  1
  Ge  Ge6  1  0.000000  0.999026  0.000000  1
  Sb  Sb7  1  0.500000  0.667390  0.334247  1
  Sb  Sb8  1  0.500000  0.333143  0.665755  1
