# generated using pymatgen
data_Hf2SiNi3As2
_symmetry_space_group_name_H-M   'P 1'
_cell_length_a   3.70047900
_cell_length_b   10.30560700
_cell_length_c   12.62301200
_cell_angle_alpha   90.00000000
_cell_angle_beta   90.00000000
_cell_angle_gamma   90.00000000
_symmetry_Int_Tables_number   1
_chemical_formula_structural   Hf2SiNi3As2
_chemical_formula_sum   'Hf8 Si4 Ni12 As8'
_cell_volume   481.38717512
_cell_formula_units_Z   4
loop_
 _symmetry_equiv_pos_site_id
 _symmetry_equiv_pos_as_xyz
  1  'x, y, z'
loop_
 _atom_site_type_symbol
 _atom_site_label
 _atom_site_symmetry_multiplicity
 _atom_site_fract_x
 _atom_site_fract_y
 _atom_site_fract_z
 _atom_site_occupancy
  Hf  Hf0  1  0.250000  0.332813  0.994825  1
  Hf  Hf1  1  0.250000  0.167187  0.494825  1
  Hf  Hf2  1  0.750000  0.667187  0.005175  1
  Hf  Hf3  1  0.750000  0.832813  0.505175  1
  Hf  Hf4  1  0.250000  0.430232  0.708593  1
  Hf  Hf5  1  0.250000  0.069768  0.208593  1
  Hf  Hf6  1  0.750000  0.569768  0.291407  1
  Hf  Hf7  1  0.750000  0.930232  0.791407  1
  Si  Si8  1  0.250000  0.100482  0.898533  1
  Si  Si9  1  0.250000  0.399518  0.398533  1
  Si  Si10  1  0.750000  0.899518  0.101467  1
  Si  Si11  1  0.750000  0.600482  0.601467  1
  Ni  Ni12  1  0.250000  0.910041  0.987498  1
  Ni  Ni13  1  0.250000  0.589959  0.487498  1
  Ni  Ni14  1  0.750000  0.089959  0.012502  1
  Ni  Ni15  1  0.750000  0.410041  0.512502  1
  Ni  Ni16  1  0.250000  0.138648  0.721497  1
  Ni  Ni17  1  0.250000  0.361352  0.221497  1
  Ni  Ni18  1  0.750000  0.861352  0.278503  1
  Ni  Ni19  1  0.750000  0.638648  0.778503  1
  Ni  Ni20  1  0.250000  0.779627  0.161009  1
  Ni  Ni21  1  0.250000  0.720373  0.661009  1
  Ni  Ni22  1  0.750000  0.220373  0.838991  1
  Ni  Ni23  1  0.750000  0.279627  0.338991  1
  As  As24  1  0.250000  0.742011  0.856530  1
  As  As25  1  0.250000  0.757989  0.356530  1
  As  As26  1  0.750000  0.257989  0.143470  1
  As  As27  1  0.750000  0.242011  0.643470  1
  As  As28  1  0.250000  0.551421  0.125328  1
  As  As29  1  0.250000  0.948579  0.625328  1
  As  As30  1  0.750000  0.448579  0.874672  1
  As  As31  1  0.750000  0.051421  0.374672  1
