# generated using pymatgen
data_SrCe(BIr)8
_symmetry_space_group_name_H-M   'P 1'
_cell_length_a   3.98126400
_cell_length_b   7.72322000
_cell_length_c   7.72322000
_cell_angle_alpha   90.00000000
_cell_angle_beta   90.00000000
_cell_angle_gamma   90.00000000
_symmetry_Int_Tables_number   1
_chemical_formula_structural   SrCe(BIr)8
_chemical_formula_sum   'Sr1 Ce1 B8 Ir8'
_cell_volume   237.47494136
_cell_formula_units_Z   1
loop_
 _symmetry_equiv_pos_site_id
 _symmetry_equiv_pos_as_xyz
  1  'x, y, z'
loop_
 _atom_site_type_symbol
 _atom_site_label
 _atom_site_symmetry_multiplicity
 _atom_site_fract_x
 _atom_site_fract_y
 _atom_site_fract_z
 _atom_site_occupancy
  Sr  Sr0  1  0.250000  0.250000  0.250000  1
  Ce  Ce1  1  0.750000  0.750000  0.750000  1
  B  B2  1  0.357676  0.907536  0.029347  1
  B  B3  1  0.357676  0.592464  0.470653  1
  B  B4  1  0.858653  0.528941  0.091349  1
  B  B5  1  0.858653  0.971059  0.408651  1
  B  B6  1  0.641347  0.091349  0.971059  1
  B  B7  1  0.641347  0.408651  0.528941  1
  B  B8  1  0.142324  0.470653  0.907536  1
  B  B9  1  0.142324  0.029347  0.592464  1
  Ir  Ir10  1  0.139021  0.412494  0.640373  1
  Ir  Ir11  1  0.139021  0.087506  0.859627  1
  Ir  Ir12  1  0.644231  0.139863  0.596117  1
  Ir  Ir13  1  0.644231  0.360137  0.903883  1
  Ir  Ir14  1  0.855769  0.596117  0.360137  1
  Ir  Ir15  1  0.855769  0.903883  0.139863  1
  Ir  Ir16  1  0.360979  0.859627  0.412494  1
  Ir  Ir17  1  0.360979  0.640373  0.087506  1
