# generated using pymatgen
data_Zr10Ni2BiPb5
_symmetry_space_group_name_H-M   'P 1'
_cell_length_a   5.92752200
_cell_length_b   8.80167499
_cell_length_c   8.79001258
_cell_angle_alpha   120.04388940
_cell_angle_beta   90.00000000
_cell_angle_gamma   90.00000000
_symmetry_Int_Tables_number   1
_chemical_formula_structural   Zr10Ni2BiPb5
_chemical_formula_sum   'Zr10 Ni2 Bi1 Pb5'
_cell_volume   396.97795504
_cell_formula_units_Z   1
loop_
 _symmetry_equiv_pos_site_id
 _symmetry_equiv_pos_as_xyz
  1  'x, y, z'
loop_
 _atom_site_type_symbol
 _atom_site_label
 _atom_site_symmetry_multiplicity
 _atom_site_fract_x
 _atom_site_fract_y
 _atom_site_fract_z
 _atom_site_occupancy
  Zr  Zr0  1  0.750000  0.751401  0.751426  1
  Zr  Zr1  1  0.250000  0.248125  0.249431  1
  Zr  Zr2  1  0.750000  0.999976  0.248574  1
  Zr  Zr3  1  0.250000  0.998695  0.750569  1
  Zr  Zr4  1  0.750000  0.250539  0.000000  1
  Zr  Zr5  1  0.250000  0.750570  0.000000  1
  Zr  Zr6  1  0.999223  0.667044  0.333605  1
  Zr  Zr7  1  0.999223  0.333438  0.666395  1
  Zr  Zr8  1  0.500777  0.333438  0.666395  1
  Zr  Zr9  1  0.500777  0.667044  0.333605  1
  Ni  Ni10  1  0.999725  0.999793  0.000000  1
  Ni  Ni11  1  0.500275  0.999793  0.000000  1
  Bi  Bi12  1  0.250000  0.390661  0.000000  1
  Pb  Pb13  1  0.750000  0.391507  0.391429  1
  Pb  Pb14  1  0.250000  0.608226  0.608499  1
  Pb  Pb15  1  0.750000  0.000078  0.608571  1
  Pb  Pb16  1  0.250000  0.999726  0.391501  1
  Pb  Pb17  1  0.750000  0.609945  0.000000  1
