# generated using pymatgen
data_Tb11Y2Er3(In3Ir)2
_symmetry_space_group_name_H-M   'P 1'
_cell_length_a   10.44500700
_cell_length_b   10.44244790
_cell_length_c   7.09595120
_cell_angle_alpha   89.98944470
_cell_angle_beta   90.00000000
_cell_angle_gamma   120.00811025
_symmetry_Int_Tables_number   1
_chemical_formula_structural   Tb11Y2Er3(In3Ir)2
_chemical_formula_sum   'Tb11 Y2 Er3 In6 Ir2'
_cell_volume   670.21909450
_cell_formula_units_Z   1
loop_
 _symmetry_equiv_pos_site_id
 _symmetry_equiv_pos_as_xyz
  1  'x, y, z'
loop_
 _atom_site_type_symbol
 _atom_site_label
 _atom_site_symmetry_multiplicity
 _atom_site_fract_x
 _atom_site_fract_y
 _atom_site_fract_z
 _atom_site_occupancy
  Tb  Tb0  1  0.465043  0.533260  0.481540  1
  Tb  Tb1  1  0.068219  0.533260  0.481540  1
  Tb  Tb2  1  0.465697  0.931393  0.481057  1
  Tb  Tb3  1  0.533331  0.465654  0.980764  1
  Tb  Tb4  1  0.932324  0.465654  0.980764  1
  Tb  Tb5  1  0.534380  0.068760  0.980866  1
  Tb  Tb6  1  0.823675  0.176150  0.276268  1
  Tb  Tb7  1  0.352475  0.176150  0.276268  1
  Tb  Tb8  1  0.823701  0.647401  0.275818  1
  Tb  Tb9  1  0.176501  0.823924  0.775977  1
  Tb  Tb10  1  0.647422  0.823924  0.775977  1
  Y  Y11  1  0.000606  0.001213  0.496289  1
  Y  Y12  1  0.000174  0.000350  0.994775  1
  Er  Er13  1  0.176928  0.353855  0.776328  1
  Er  Er14  1  0.332974  0.665949  0.097063  1
  Er  Er15  1  0.666648  0.333294  0.597719  1
  In  In16  1  0.163687  0.836248  0.233556  1
  In  In17  1  0.672563  0.836248  0.233556  1
  In  In18  1  0.163413  0.326824  0.230838  1
  In  In19  1  0.838438  0.164498  0.733923  1
  In  In20  1  0.326061  0.164498  0.733923  1
  In  In21  1  0.836647  0.673295  0.733896  1
  Ir  Ir22  1  0.332407  0.664816  0.708017  1
  Ir  Ir23  1  0.666691  0.333379  0.207831  1
