# generated using pymatgen
data_YHo3(TcB6)2
_symmetry_space_group_name_H-M   'P 1'
_cell_length_a   3.68019000
_cell_length_b   9.15128103
_cell_length_c   11.53165104
_cell_angle_alpha   89.99070379
_cell_angle_beta   90.00000000
_cell_angle_gamma   90.00000000
_symmetry_Int_Tables_number   1
_chemical_formula_structural   YHo3(TcB6)2
_chemical_formula_sum   'Y2 Ho6 Tc4 B24'
_cell_volume   388.36816162
_cell_formula_units_Z   2
loop_
 _symmetry_equiv_pos_site_id
 _symmetry_equiv_pos_as_xyz
  1  'x, y, z'
loop_
 _atom_site_type_symbol
 _atom_site_label
 _atom_site_symmetry_multiplicity
 _atom_site_fract_x
 _atom_site_fract_y
 _atom_site_fract_z
 _atom_site_occupancy
  Y  Y0  1  0.000000  0.323563  0.414175  1
  Y  Y1  1  0.000000  0.676437  0.585825  1
  Ho  Ho2  1  0.000000  0.823962  0.085747  1
  Ho  Ho3  1  0.000000  0.176038  0.914253  1
  Ho  Ho4  1  0.000000  0.942732  0.369086  1
  Ho  Ho5  1  0.000000  0.057268  0.630914  1
  Ho  Ho6  1  0.000000  0.442688  0.130555  1
  Ho  Ho7  1  0.000000  0.557312  0.869445  1
  Tc  Tc8  1  0.000000  0.639172  0.319909  1
  Tc  Tc9  1  0.000000  0.360828  0.680091  1
  Tc  Tc10  1  0.000000  0.138610  0.179245  1
  Tc  Tc11  1  0.000000  0.861390  0.820755  1
  B  B12  1  0.500000  0.553528  0.432609  1
  B  B13  1  0.500000  0.446472  0.567391  1
  B  B14  1  0.500000  0.053246  0.066896  1
  B  B15  1  0.500000  0.946754  0.933104  1
  B  B16  1  0.500000  0.749243  0.418143  1
  B  B17  1  0.500000  0.250757  0.581857  1
  B  B18  1  0.500000  0.248956  0.081152  1
  B  B19  1  0.500000  0.751044  0.918848  1
  B  B20  1  0.500000  0.792102  0.264741  1
  B  B21  1  0.500000  0.207898  0.735259  1
  B  B22  1  0.500000  0.291774  0.234502  1
  B  B23  1  0.500000  0.708226  0.765498  1
  B  B24  1  0.500000  0.630858  0.185089  1
  B  B25  1  0.500000  0.369142  0.814911  1
  B  B26  1  0.500000  0.130397  0.314263  1
  B  B27  1  0.500000  0.869603  0.685737  1
  B  B28  1  0.500000  0.981942  0.211392  1
  B  B29  1  0.500000  0.018058  0.788608  1
  B  B30  1  0.500000  0.482356  0.287971  1
  B  B31  1  0.500000  0.517644  0.712029  1
  B  B32  1  0.500000  0.600105  0.027912  1
  B  B33  1  0.500000  0.399895  0.972088  1
  B  B34  1  0.500000  0.099442  0.472229  1
  B  B35  1  0.500000  0.900558  0.527771  1
