# generated using pymatgen
data_TbHo5TcOs
_symmetry_space_group_name_H-M   'P 1'
_cell_length_a   6.28453100
_cell_length_b   7.40608600
_cell_length_c   9.05633600
_cell_angle_alpha   90.00000000
_cell_angle_beta   90.00000000
_cell_angle_gamma   90.00000000
_symmetry_Int_Tables_number   1
_chemical_formula_structural   TbHo5TcOs
_chemical_formula_sum   'Tb2 Ho10 Tc2 Os2'
_cell_volume   421.51608373
_cell_formula_units_Z   2
loop_
 _symmetry_equiv_pos_site_id
 _symmetry_equiv_pos_as_xyz
  1  'x, y, z'
loop_
 _atom_site_type_symbol
 _atom_site_label
 _atom_site_symmetry_multiplicity
 _atom_site_fract_x
 _atom_site_fract_y
 _atom_site_fract_z
 _atom_site_occupancy
  Tb  Tb0  1  0.875738  0.539794  0.250000  1
  Tb  Tb1  1  0.624262  0.039794  0.250000  1
  Ho  Ho2  1  0.337090  0.675380  0.062248  1
  Ho  Ho3  1  0.162910  0.175380  0.437752  1
  Ho  Ho4  1  0.665104  0.324314  0.563371  1
  Ho  Ho5  1  0.834896  0.824314  0.936629  1
  Ho  Ho6  1  0.665104  0.324314  0.936629  1
  Ho  Ho7  1  0.834896  0.824314  0.563371  1
  Ho  Ho8  1  0.337090  0.675380  0.437752  1
  Ho  Ho9  1  0.162910  0.175380  0.062248  1
  Ho  Ho10  1  0.130375  0.459246  0.750000  1
  Ho  Ho11  1  0.369625  0.959246  0.750000  1
  Tc  Tc12  1  0.039098  0.884278  0.250000  1
  Tc  Tc13  1  0.460902  0.384278  0.250000  1
  Os  Os14  1  0.959502  0.117293  0.750000  1
  Os  Os15  1  0.540498  0.617293  0.750000  1
