# generated using pymatgen
data_Ac2Zn5Ga3
_symmetry_space_group_name_H-M   'P 1'
_cell_length_a   8.84506026
_cell_length_b   8.84506053
_cell_length_c   8.84505997
_cell_angle_alpha   138.30959210
_cell_angle_beta   105.27530569
_cell_angle_gamma   89.41517994
_symmetry_Int_Tables_number   1
_chemical_formula_structural   Ac2Zn5Ga3
_chemical_formula_sum   'Ac4 Zn10 Ga6'
_cell_volume   424.81185282
_cell_formula_units_Z   2
loop_
 _symmetry_equiv_pos_site_id
 _symmetry_equiv_pos_as_xyz
  1  'x, y, z'
loop_
 _atom_site_type_symbol
 _atom_site_label
 _atom_site_symmetry_multiplicity
 _atom_site_fract_x
 _atom_site_fract_y
 _atom_site_fract_z
 _atom_site_occupancy
  Ac  Ac0  1  0.620716  0.374855  0.245861  1
  Ac  Ac1  1  0.379284  0.625145  0.754139  1
  Ac  Ac2  1  0.128994  0.874855  0.254139  1
  Ac  Ac3  1  0.871006  0.125145  0.745861  1
  Zn  Zn4  1  0.500000  0.250000  0.750000  1
  Zn  Zn5  1  0.500000  0.750000  0.250000  1
  Zn  Zn6  1  0.245239  0.495239  0.250000  1
  Zn  Zn7  1  0.754761  0.004761  0.250000  1
  Zn  Zn8  1  0.754761  0.504761  0.750000  1
  Zn  Zn9  1  0.245239  0.995239  0.750000  1
  Zn  Zn10  1  0.991928  0.623393  0.368535  1
  Zn  Zn11  1  0.008072  0.376607  0.631465  1
  Zn  Zn12  1  0.254857  0.123393  0.131465  1
  Zn  Zn13  1  0.745143  0.876607  0.868535  1
  Ga  Ga14  1  0.000000  0.750000  0.750000  1
  Ga  Ga15  1  0.000000  0.250000  0.250000  1
  Ga  Ga16  1  0.501268  0.128309  0.372958  1
  Ga  Ga17  1  0.498732  0.871691  0.627042  1
  Ga  Ga18  1  0.755349  0.628309  0.127042  1
  Ga  Ga19  1  0.244651  0.371691  0.872958  1
