# generated using pymatgen
data_La2TbSi4(AsPd10)2
_symmetry_space_group_name_H-M   'P 1'
_cell_length_a   8.87243129
_cell_length_b   8.87243103
_cell_length_c   8.76552300
_cell_angle_alpha   60.39780267
_cell_angle_beta   60.39780361
_cell_angle_gamma   59.20439748
_symmetry_Int_Tables_number   1
_chemical_formula_structural   La2TbSi4(AsPd10)2
_chemical_formula_sum   'La2 Tb1 Si4 As2 Pd20'
_cell_volume   487.77944194
_cell_formula_units_Z   1
loop_
 _symmetry_equiv_pos_site_id
 _symmetry_equiv_pos_as_xyz
  1  'x, y, z'
loop_
 _atom_site_type_symbol
 _atom_site_label
 _atom_site_symmetry_multiplicity
 _atom_site_fract_x
 _atom_site_fract_y
 _atom_site_fract_z
 _atom_site_occupancy
  La  La0  1  0.750000  0.750000  0.750000  1
  La  La1  1  0.250000  0.250000  0.250000  1
  Tb  Tb2  1  0.000000  0.000000  0.000000  1
  Si  Si3  1  0.733699  0.266301  0.733699  1
  Si  Si4  1  0.266301  0.733699  0.266301  1
  Si  Si5  1  0.266301  0.733699  0.733699  1
  Si  Si6  1  0.733699  0.266301  0.266301  1
  As  As7  1  0.736947  0.736947  0.263053  1
  As  As8  1  0.263053  0.263053  0.736947  1
  Pd  Pd9  1  0.612191  0.612191  0.619413  1
  Pd  Pd10  1  0.387809  0.387809  0.380587  1
  Pd  Pd11  1  0.156203  0.619413  0.612191  1
  Pd  Pd12  1  0.619413  0.156203  0.612191  1
  Pd  Pd13  1  0.843797  0.380587  0.387809  1
  Pd  Pd14  1  0.380587  0.843797  0.387809  1
  Pd  Pd15  1  0.612191  0.612191  0.156203  1
  Pd  Pd16  1  0.387809  0.387809  0.843797  1
  Pd  Pd17  1  0.000000  0.000000  0.654272  1
  Pd  Pd18  1  0.000000  0.000000  0.345728  1
  Pd  Pd19  1  0.345728  0.654272  0.000000  1
  Pd  Pd20  1  0.654272  0.345728  0.000000  1
  Pd  Pd21  1  0.008708  0.653286  0.991292  1
  Pd  Pd22  1  0.653286  0.008708  0.346714  1
  Pd  Pd23  1  0.991292  0.346714  0.008708  1
  Pd  Pd24  1  0.346714  0.991292  0.653286  1
  Pd  Pd25  1  0.653286  0.008708  0.991292  1
  Pd  Pd26  1  0.346714  0.991292  0.008708  1
  Pd  Pd27  1  0.008708  0.653286  0.346714  1
  Pd  Pd28  1  0.991292  0.346714  0.653286  1
