# generated using pymatgen
data_Zr8Nb11Si16Os
_symmetry_space_group_name_H-M   'P 1'
_cell_length_a   6.88060480
_cell_length_b   6.87617821
_cell_length_c   12.74942601
_cell_angle_alpha   89.63728115
_cell_angle_beta   89.97133973
_cell_angle_gamma   89.89495432
_symmetry_Int_Tables_number   1
_chemical_formula_structural   Zr8Nb11Si16Os
_chemical_formula_sum   'Zr8 Nb11 Si16 Os1'
_cell_volume   603.19104694
_cell_formula_units_Z   1
loop_
 _symmetry_equiv_pos_site_id
 _symmetry_equiv_pos_as_xyz
  1  'x, y, z'
loop_
 _atom_site_type_symbol
 _atom_site_label
 _atom_site_symmetry_multiplicity
 _atom_site_fract_x
 _atom_site_fract_y
 _atom_site_fract_z
 _atom_site_occupancy
  Zr  Zr0  1  0.000515  0.345308  0.217755  1
  Zr  Zr1  1  0.998782  0.660226  0.717839  1
  Zr  Zr2  1  0.157880  0.507672  0.467747  1
  Zr  Zr3  1  0.498026  0.839229  0.033079  1
  Zr  Zr4  1  0.839774  0.498669  0.968645  1
  Zr  Zr5  1  0.504468  0.159074  0.531424  1
  Zr  Zr6  1  0.339576  0.000038  0.780591  1
  Zr  Zr7  1  0.665223  0.998091  0.278375  1
  Nb  Nb8  1  0.168156  0.166513  0.001485  1
  Nb  Nb9  1  0.828046  0.832786  0.499420  1
  Nb  Nb10  1  0.328032  0.666069  0.250441  1
  Nb  Nb11  1  0.668647  0.330240  0.749266  1
  Nb  Nb12  1  0.845188  0.003405  0.875582  1
  Nb  Nb13  1  0.499617  0.655452  0.625352  1
  Nb  Nb14  1  0.346111  0.494986  0.873411  1
  Nb  Nb15  1  0.493662  0.338962  0.127901  1
  Nb  Nb16  1  0.654323  0.501705  0.372657  1
  Nb  Nb17  1  0.996614  0.153120  0.623735  1
  Nb  Nb18  1  0.000597  0.841151  0.120291  1
  Si  Si19  1  0.290458  0.037627  0.192935  1
  Si  Si20  1  0.702790  0.954787  0.686190  1
  Si  Si21  1  0.453658  0.800208  0.434573  1
  Si  Si22  1  0.203501  0.541573  0.063043  1
  Si  Si23  1  0.542977  0.201101  0.937346  1
  Si  Si24  1  0.796821  0.457118  0.562159  1
  Si  Si25  1  0.043999  0.297468  0.813444  1
  Si  Si26  1  0.962642  0.718085  0.314351  1
  Si  Si27  1  0.365021  0.289173  0.324207  1
  Si  Si28  1  0.632834  0.708521  0.822503  1
  Si  Si29  1  0.204902  0.867262  0.569950  1
  Si  Si30  1  0.134996  0.791094  0.927318  1
  Si  Si31  1  0.791035  0.133078  0.073205  1
  Si  Si32  1  0.874172  0.204575  0.426279  1
  Si  Si33  1  0.290738  0.365168  0.676868  1
  Si  Si34  1  0.708089  0.628670  0.177509  1
  Os  Os35  1  0.168125  0.011798  0.383123  1
