# generated using pymatgen
data_Eu5InRh2
_symmetry_space_group_name_H-M   'P 1'
_cell_length_a   9.27706290
_cell_length_b   9.27706207
_cell_length_c   9.27706300
_cell_angle_alpha   128.41999999
_cell_angle_beta   128.41999592
_cell_angle_gamma   75.94563139
_symmetry_Int_Tables_number   1
_chemical_formula_structural   Eu5InRh2
_chemical_formula_sum   'Eu10 In2 Rh4'
_cell_volume   476.55246627
_cell_formula_units_Z   2
loop_
 _symmetry_equiv_pos_site_id
 _symmetry_equiv_pos_as_xyz
  1  'x, y, z'
loop_
 _atom_site_type_symbol
 _atom_site_label
 _atom_site_symmetry_multiplicity
 _atom_site_fract_x
 _atom_site_fract_y
 _atom_site_fract_z
 _atom_site_occupancy
  Eu  Eu0  1  0.536564  0.036564  0.834586  1
  Eu  Eu1  1  0.201976  0.701976  0.165414  1
  Eu  Eu2  1  0.036564  0.201976  0.500000  1
  Eu  Eu3  1  0.701976  0.536564  0.500000  1
  Eu  Eu4  1  0.463436  0.963436  0.165414  1
  Eu  Eu5  1  0.798024  0.298024  0.834586  1
  Eu  Eu6  1  0.963436  0.798024  0.500000  1
  Eu  Eu7  1  0.298024  0.463436  0.500000  1
  Eu  Eu8  1  0.500000  0.500000  0.000000  1
  Eu  Eu9  1  0.000000  0.000000  0.000000  1
  In  In10  1  0.250000  0.250000  0.000000  1
  In  In11  1  0.750000  0.750000  0.000000  1
  Rh  Rh12  1  0.870435  0.370435  0.240869  1
  Rh  Rh13  1  0.129565  0.629565  0.759131  1
  Rh  Rh14  1  0.370435  0.129565  0.500000  1
  Rh  Rh15  1  0.629565  0.870435  0.500000  1
