# generated using pymatgen
data_Er8Be3Si12Rh
_symmetry_space_group_name_H-M   'P 1'
_cell_length_a   7.91516300
_cell_length_b   7.91516391
_cell_length_c   7.96012100
_cell_angle_alpha   90.00000000
_cell_angle_beta   90.00000000
_cell_angle_gamma   120.00000036
_symmetry_Int_Tables_number   1
_chemical_formula_structural   Er8Be3Si12Rh
_chemical_formula_sum   'Er8 Be3 Si12 Rh1'
_cell_volume   431.88694399
_cell_formula_units_Z   1
loop_
 _symmetry_equiv_pos_site_id
 _symmetry_equiv_pos_as_xyz
  1  'x, y, z'
loop_
 _atom_site_type_symbol
 _atom_site_label
 _atom_site_symmetry_multiplicity
 _atom_site_fract_x
 _atom_site_fract_y
 _atom_site_fract_z
 _atom_site_occupancy
  Er  Er0  1  0.000000  0.000000  0.248375  1
  Er  Er1  1  0.000000  0.000000  0.752192  1
  Er  Er2  1  0.498589  0.501411  0.249090  1
  Er  Er3  1  0.498589  0.997178  0.249090  1
  Er  Er4  1  0.002822  0.501411  0.249090  1
  Er  Er5  1  0.502157  0.497843  0.750908  1
  Er  Er6  1  0.995687  0.497843  0.750908  1
  Er  Er7  1  0.502157  0.004313  0.750908  1
  Be  Be8  1  0.666667  0.333333  0.496781  1
  Be  Be9  1  0.666667  0.333333  0.003235  1
  Be  Be10  1  0.333333  0.666667  0.993108  1
  Si  Si11  1  0.829199  0.170801  0.498061  1
  Si  Si12  1  0.829199  0.658398  0.498061  1
  Si  Si13  1  0.341602  0.170801  0.498061  1
  Si  Si14  1  0.826883  0.173117  0.000936  1
  Si  Si15  1  0.826883  0.653768  0.000936  1
  Si  Si16  1  0.346232  0.173117  0.000936  1
  Si  Si17  1  0.172518  0.827482  0.999731  1
  Si  Si18  1  0.654965  0.827482  0.999731  1
  Si  Si19  1  0.172518  0.345035  0.999731  1
  Si  Si20  1  0.167821  0.832179  0.500711  1
  Si  Si21  1  0.664359  0.832179  0.500711  1
  Si  Si22  1  0.167821  0.335641  0.500711  1
  Rh  Rh23  1  0.333333  0.666667  0.507999  1
