# generated using pymatgen
data_Ho2Er6Tc3B24Rh
_symmetry_space_group_name_H-M   'P 1'
_cell_length_a   3.65708900
_cell_length_b   9.11627871
_cell_length_c   11.49442501
_cell_angle_alpha   90.11975376
_cell_angle_beta   90.00000000
_cell_angle_gamma   90.00000000
_symmetry_Int_Tables_number   1
_chemical_formula_structural   Ho2Er6Tc3B24Rh
_chemical_formula_sum   'Ho2 Er6 Tc3 B24 Rh1'
_cell_volume   383.21228804
_cell_formula_units_Z   1
loop_
 _symmetry_equiv_pos_site_id
 _symmetry_equiv_pos_as_xyz
  1  'x, y, z'
loop_
 _atom_site_type_symbol
 _atom_site_label
 _atom_site_symmetry_multiplicity
 _atom_site_fract_x
 _atom_site_fract_y
 _atom_site_fract_z
 _atom_site_occupancy
  Ho  Ho0  1  0.500000  0.318709  0.415804  1
  Ho  Ho1  1  0.500000  0.677885  0.591102  1
  Er  Er2  1  0.500000  0.176906  0.912796  1
  Er  Er3  1  0.500000  0.827436  0.081059  1
  Er  Er4  1  0.500000  0.440613  0.128834  1
  Er  Er5  1  0.500000  0.557090  0.871153  1
  Er  Er6  1  0.500000  0.056156  0.629734  1
  Er  Er7  1  0.500000  0.943926  0.369658  1
  Tc  Tc8  1  0.500000  0.138503  0.180118  1
  Tc  Tc9  1  0.500000  0.861507  0.820820  1
  Tc  Tc10  1  0.500000  0.362257  0.678047  1
  B  B11  1  0.000000  0.101599  0.471350  1
  B  B12  1  0.000000  0.895450  0.528178  1
  B  B13  1  0.000000  0.396836  0.971922  1
  B  B14  1  0.000000  0.604120  0.029298  1
  B  B15  1  0.000000  0.130789  0.315068  1
  B  B16  1  0.000000  0.868460  0.685361  1
  B  B17  1  0.000000  0.369096  0.814537  1
  B  B18  1  0.000000  0.631814  0.183800  1
  B  B19  1  0.000000  0.053471  0.066314  1
  B  B20  1  0.000000  0.947307  0.932875  1
  B  B21  1  0.000000  0.446383  0.566584  1
  B  B22  1  0.000000  0.554012  0.433758  1
  B  B23  1  0.000000  0.483133  0.287792  1
  B  B24  1  0.000000  0.518026  0.712479  1
  B  B25  1  0.000000  0.017707  0.787234  1
  B  B26  1  0.000000  0.982611  0.211850  1
  B  B27  1  0.000000  0.249368  0.080920  1
  B  B28  1  0.000000  0.751525  0.919230  1
  B  B29  1  0.000000  0.250080  0.580936  1
  B  B30  1  0.000000  0.749331  0.420193  1
  B  B31  1  0.000000  0.291999  0.235258  1
  B  B32  1  0.000000  0.707947  0.765846  1
  B  B33  1  0.000000  0.208054  0.734453  1
  B  B34  1  0.000000  0.791609  0.264748  1
  Rh  Rh35  1  0.500000  0.638288  0.320890  1
