# generated using pymatgen
data_Li4Nd4IrPt3
_symmetry_space_group_name_H-M   'P 1'
_cell_length_a   4.10438800
_cell_length_b   7.21659412
_cell_length_c   8.55673216
_cell_angle_alpha   89.66516813
_cell_angle_beta   90.00000000
_cell_angle_gamma   90.00000000
_symmetry_Int_Tables_number   1
_chemical_formula_structural   Li4Nd4IrPt3
_chemical_formula_sum   'Li4 Nd4 Ir1 Pt3'
_cell_volume   253.44353148
_cell_formula_units_Z   1
loop_
 _symmetry_equiv_pos_site_id
 _symmetry_equiv_pos_as_xyz
  1  'x, y, z'
loop_
 _atom_site_type_symbol
 _atom_site_label
 _atom_site_symmetry_multiplicity
 _atom_site_fract_x
 _atom_site_fract_y
 _atom_site_fract_z
 _atom_site_occupancy
  Li  Li0  1  0.250000  0.129939  0.056924  1
  Li  Li1  1  0.250000  0.628768  0.444964  1
  Li  Li2  1  0.750000  0.870463  0.940403  1
  Li  Li3  1  0.750000  0.369103  0.557017  1
  Nd  Nd4  1  0.250000  0.046513  0.676792  1
  Nd  Nd5  1  0.250000  0.543444  0.819482  1
  Nd  Nd6  1  0.750000  0.965912  0.315319  1
  Nd  Nd7  1  0.750000  0.454532  0.191769  1
  Ir  Ir8  1  0.250000  0.245812  0.376551  1
  Pt  Pt9  1  0.250000  0.749645  0.118920  1
  Pt  Pt10  1  0.750000  0.747277  0.620650  1
  Pt  Pt11  1  0.750000  0.248592  0.881211  1
