# generated using pymatgen
data_Dy6ScP12Rh17
_symmetry_space_group_name_H-M   'P 1'
_cell_length_a   3.93578900
_cell_length_b   11.23120900
_cell_length_c   12.82927000
_cell_angle_alpha   90.00000000
_cell_angle_beta   90.00000000
_cell_angle_gamma   90.00000000
_symmetry_Int_Tables_number   1
_chemical_formula_structural   Dy6ScP12Rh17
_chemical_formula_sum   'Dy6 Sc1 P12 Rh17'
_cell_volume   567.10080252
_cell_formula_units_Z   1
loop_
 _symmetry_equiv_pos_site_id
 _symmetry_equiv_pos_as_xyz
  1  'x, y, z'
loop_
 _atom_site_type_symbol
 _atom_site_label
 _atom_site_symmetry_multiplicity
 _atom_site_fract_x
 _atom_site_fract_y
 _atom_site_fract_z
 _atom_site_occupancy
  Dy  Dy0  1  0.000000  0.500000  0.521311  1
  Dy  Dy1  1  0.500000  0.000000  0.477463  1
  Dy  Dy2  1  0.500000  0.816964  0.206095  1
  Dy  Dy3  1  0.500000  0.183036  0.206095  1
  Dy  Dy4  1  0.000000  0.682317  0.796843  1
  Dy  Dy5  1  0.000000  0.317683  0.796843  1
  Sc  Sc6  1  0.500000  0.500000  0.156066  1
  P  P7  1  0.500000  0.500000  0.878803  1
  P  P8  1  0.000000  0.000000  0.120793  1
  P  P9  1  0.500000  0.500000  0.359069  1
  P  P10  1  0.000000  0.000000  0.647332  1
  P  P11  1  0.500000  0.314949  0.619378  1
  P  P12  1  0.500000  0.685051  0.619378  1
  P  P13  1  0.000000  0.186099  0.383683  1
  P  P14  1  0.000000  0.813901  0.383683  1
  P  P15  1  0.500000  0.849327  0.888788  1
  P  P16  1  0.500000  0.150673  0.888788  1
  P  P17  1  0.000000  0.660697  0.106940  1
  P  P18  1  0.000000  0.339303  0.106940  1
  Rh  Rh19  1  0.000000  0.000000  0.828500  1
  Rh  Rh20  1  0.500000  0.500000  0.701358  1
  Rh  Rh21  1  0.000000  0.000000  0.298999  1
  Rh  Rh22  1  0.000000  0.500000  0.984713  1
  Rh  Rh23  1  0.500000  0.000000  0.020284  1
  Rh  Rh24  1  0.500000  0.329540  0.989342  1
  Rh  Rh25  1  0.500000  0.670460  0.989342  1
  Rh  Rh26  1  0.000000  0.163866  0.005047  1
  Rh  Rh27  1  0.000000  0.836134  0.005047  1
  Rh  Rh28  1  0.500000  0.290098  0.434342  1
  Rh  Rh29  1  0.500000  0.709902  0.434342  1
  Rh  Rh30  1  0.000000  0.203199  0.571267  1
  Rh  Rh31  1  0.000000  0.796801  0.571267  1
  Rh  Rh32  1  0.500000  0.874451  0.709273  1
  Rh  Rh33  1  0.500000  0.125549  0.709273  1
  Rh  Rh34  1  0.000000  0.627160  0.291656  1
  Rh  Rh35  1  0.000000  0.372840  0.291656  1
