# generated using pymatgen
data_Mn7V(FeSi)4
_symmetry_space_group_name_H-M   'P 1'
_cell_length_a   5.60677509
_cell_length_b   5.60677509
_cell_length_c   5.60677509
_cell_angle_alpha   90.01481663
_cell_angle_beta   90.01481663
_cell_angle_gamma   90.01481663
_symmetry_Int_Tables_number   1
_chemical_formula_structural   Mn7V(FeSi)4
_chemical_formula_sum   'Mn7 V1 Fe4 Si4'
_cell_volume   176.25415460
_cell_formula_units_Z   1
loop_
 _symmetry_equiv_pos_site_id
 _symmetry_equiv_pos_as_xyz
  1  'x, y, z'
loop_
 _atom_site_type_symbol
 _atom_site_label
 _atom_site_symmetry_multiplicity
 _atom_site_fract_x
 _atom_site_fract_y
 _atom_site_fract_z
 _atom_site_occupancy
  Mn  Mn0  1  0.247619  0.751588  0.751588  1
  Mn  Mn1  1  0.751588  0.247619  0.751588  1
  Mn  Mn2  1  0.750479  0.750479  0.750479  1
  Mn  Mn3  1  0.501499  0.997190  0.997190  1
  Mn  Mn4  1  0.997190  0.997190  0.501499  1
  Mn  Mn5  1  0.997190  0.501499  0.997190  1
  Mn  Mn6  1  0.751588  0.751588  0.247619  1
  V  V7  1  0.504781  0.504781  0.504781  1
  Fe  Fe8  1  0.749007  0.250405  0.250405  1
  Fe  Fe9  1  0.250405  0.250405  0.749007  1
  Fe  Fe10  1  0.250405  0.749007  0.250405  1
  Fe  Fe11  1  0.249381  0.249381  0.249381  1
  Si  Si12  1  0.003147  0.496321  0.496321  1
  Si  Si13  1  0.496321  0.003147  0.496321  1
  Si  Si14  1  0.496321  0.496321  0.003147  1
  Si  Si15  1  0.003079  0.003079  0.003079  1
