# generated using pymatgen
data_NdDySi4(PRh4)3
_symmetry_space_group_name_H-M   'P 1'
_cell_length_a   9.71464900
_cell_length_b   9.71464854
_cell_length_c   3.86450500
_cell_angle_alpha   90.00000000
_cell_angle_beta   90.00000000
_cell_angle_gamma   120.00000498
_symmetry_Int_Tables_number   1
_chemical_formula_structural   NdDySi4(PRh4)3
_chemical_formula_sum   'Nd1 Dy1 Si4 P3 Rh12'
_cell_volume   315.84840653
_cell_formula_units_Z   1
loop_
 _symmetry_equiv_pos_site_id
 _symmetry_equiv_pos_as_xyz
  1  'x, y, z'
loop_
 _atom_site_type_symbol
 _atom_site_label
 _atom_site_symmetry_multiplicity
 _atom_site_fract_x
 _atom_site_fract_y
 _atom_site_fract_z
 _atom_site_occupancy
  Nd  Nd0  1  0.333333  0.666667  0.740430  1
  Dy  Dy1  1  0.666667  0.333333  0.241852  1
  Si  Si2  1  0.000000  0.000000  0.658928  1
  Si  Si3  1  0.400869  0.287507  0.742548  1
  Si  Si4  1  0.712493  0.113363  0.742548  1
  Si  Si5  1  0.886637  0.599131  0.742548  1
  P  P6  1  0.600679  0.709630  0.240635  1
  P  P7  1  0.290370  0.891050  0.240635  1
  P  P8  1  0.108950  0.399321  0.240635  1
  Rh  Rh9  1  0.445818  0.066410  0.742814  1
  Rh  Rh10  1  0.933590  0.379408  0.742814  1
  Rh  Rh11  1  0.620592  0.554182  0.742814  1
  Rh  Rh12  1  0.556310  0.940308  0.241007  1
  Rh  Rh13  1  0.059692  0.616000  0.241007  1
  Rh  Rh14  1  0.384000  0.443690  0.241007  1
  Rh  Rh15  1  0.149604  0.274396  0.740759  1
  Rh  Rh16  1  0.725604  0.875210  0.740759  1
  Rh  Rh17  1  0.124790  0.850396  0.740759  1
  Rh  Rh18  1  0.859438  0.747997  0.245169  1
  Rh  Rh19  1  0.252003  0.111439  0.245169  1
  Rh  Rh20  1  0.888561  0.140562  0.245169  1
