# generated using pymatgen
data_Cs3RbDy4Bi6(SbSe10)2
_symmetry_space_group_name_H-M   'P 1'
_cell_length_a   4.16611100
_cell_length_b   12.43739978
_cell_length_c   22.89449342
_cell_angle_alpha   89.73360952
_cell_angle_beta   90.00000000
_cell_angle_gamma   90.00000000
_symmetry_Int_Tables_number   1
_chemical_formula_structural   Cs3RbDy4Bi6(SbSe10)2
_chemical_formula_sum   'Cs3 Rb1 Dy4 Bi6 Sb2 Se20'
_cell_volume   1186.27881710
_cell_formula_units_Z   1
loop_
 _symmetry_equiv_pos_site_id
 _symmetry_equiv_pos_as_xyz
  1  'x, y, z'
loop_
 _atom_site_type_symbol
 _atom_site_label
 _atom_site_symmetry_multiplicity
 _atom_site_fract_x
 _atom_site_fract_y
 _atom_site_fract_z
 _atom_site_occupancy
  Cs  Cs0  1  0.250000  0.489913  0.208884  1
  Cs  Cs1  1  0.750000  0.510135  0.790802  1
  Cs  Cs2  1  0.750000  0.989894  0.289241  1
  Rb  Rb3  1  0.250000  0.010725  0.710683  1
  Dy  Dy4  1  0.250000  0.364920  0.022950  1
  Dy  Dy5  1  0.750000  0.634967  0.976746  1
  Dy  Dy6  1  0.750000  0.863853  0.477192  1
  Dy  Dy7  1  0.250000  0.136238  0.524700  1
  Bi  Bi8  1  0.750000  0.302418  0.377392  1
  Bi  Bi9  1  0.250000  0.699657  0.623437  1
  Bi  Bi10  1  0.250000  0.595001  0.426173  1
  Bi  Bi11  1  0.750000  0.404217  0.575002  1
  Bi  Bi12  1  0.750000  0.094689  0.071592  1
  Bi  Bi13  1  0.250000  0.905380  0.926949  1
  Sb  Sb14  1  0.250000  0.807249  0.121778  1
  Sb  Sb15  1  0.750000  0.191048  0.876547  1
  Se  Se16  1  0.250000  0.811217  0.393906  1
  Se  Se17  1  0.750000  0.187809  0.608293  1
  Se  Se18  1  0.750000  0.308397  0.106802  1
  Se  Se19  1  0.250000  0.691429  0.892905  1
  Se  Se20  1  0.250000  0.247527  0.300897  1
  Se  Se21  1  0.750000  0.756956  0.699604  1
  Se  Se22  1  0.750000  0.752950  0.194496  1
  Se  Se23  1  0.250000  0.242675  0.803288  1
  Se  Se24  1  0.250000  0.354795  0.481444  1
  Se  Se25  1  0.750000  0.644533  0.519425  1
  Se  Se26  1  0.750000  0.855950  0.018172  1
  Se  Se27  1  0.250000  0.144613  0.980530  1
  Se  Se28  1  0.250000  0.019771  0.153744  1
  Se  Se29  1  0.750000  0.979736  0.844066  1
  Se  Se30  1  0.750000  0.527558  0.345323  1
  Se  Se31  1  0.250000  0.473250  0.655133  1
  Se  Se32  1  0.250000  0.583644  0.057841  1
  Se  Se33  1  0.750000  0.416569  0.941903  1
  Se  Se34  1  0.750000  0.083633  0.442934  1
  Se  Se35  1  0.250000  0.916682  0.559225  1
