# generated using pymatgen
data_Tb5Ho5In8(IrPd)2
_symmetry_space_group_name_H-M   'P 1'
_cell_length_a   3.63993000
_cell_length_b   8.13621844
_cell_length_c   18.27687098
_cell_angle_alpha   90.04972811
_cell_angle_beta   90.00000000
_cell_angle_gamma   90.00000000
_symmetry_Int_Tables_number   1
_chemical_formula_structural   Tb5Ho5In8(IrPd)2
_chemical_formula_sum   'Tb5 Ho5 In8 Ir2 Pd2'
_cell_volume   541.27418401
_cell_formula_units_Z   1
loop_
 _symmetry_equiv_pos_site_id
 _symmetry_equiv_pos_as_xyz
  1  'x, y, z'
loop_
 _atom_site_type_symbol
 _atom_site_label
 _atom_site_symmetry_multiplicity
 _atom_site_fract_x
 _atom_site_fract_y
 _atom_site_fract_z
 _atom_site_occupancy
  Tb  Tb0  1  0.000000  0.499935  0.499914  1
  Tb  Tb1  1  0.000000  0.999904  0.000027  1
  Tb  Tb2  1  0.000000  0.728573  0.277901  1
  Tb  Tb3  1  0.000000  0.271323  0.722069  1
  Tb  Tb4  1  0.000000  0.747783  0.780057  1
  Ho  Ho5  1  0.000000  0.253316  0.220034  1
  Ho  Ho6  1  0.000000  0.612988  0.087425  1
  Ho  Ho7  1  0.000000  0.386684  0.912875  1
  Ho  Ho8  1  0.000000  0.884680  0.584582  1
  Ho  Ho9  1  0.000000  0.115342  0.415118  1
  In  In10  1  0.500000  0.708289  0.932202  1
  In  In11  1  0.500000  0.291362  0.068348  1
  In  In12  1  0.500000  0.792692  0.432126  1
  In  In13  1  0.500000  0.207477  0.567759  1
  In  In14  1  0.500000  0.578960  0.648517  1
  In  In15  1  0.500000  0.420545  0.351191  1
  In  In16  1  0.500000  0.922188  0.150109  1
  In  In17  1  0.500000  0.078537  0.850005  1
  Ir  Ir18  1  0.500000  0.517685  0.195133  1
  Ir  Ir19  1  0.500000  0.480484  0.805046  1
  Pd  Pd20  1  0.500000  0.979978  0.695586  1
  Pd  Pd21  1  0.500000  0.021274  0.303975  1
