# generated using pymatgen
data_Cs3CrPBr9
_symmetry_space_group_name_H-M   'P 1'
_cell_length_a   7.77842700
_cell_length_b   7.77842642
_cell_length_c   19.66149600
_cell_angle_alpha   90.00000000
_cell_angle_beta   90.00000000
_cell_angle_gamma   119.99999822
_symmetry_Int_Tables_number   1
_chemical_formula_structural   Cs3CrPBr9
_chemical_formula_sum   'Cs6 Cr2 P2 Br18'
_cell_volume   1030.22177912
_cell_formula_units_Z   2
loop_
 _symmetry_equiv_pos_site_id
 _symmetry_equiv_pos_as_xyz
  1  'x, y, z'
loop_
 _atom_site_type_symbol
 _atom_site_label
 _atom_site_symmetry_multiplicity
 _atom_site_fract_x
 _atom_site_fract_y
 _atom_site_fract_z
 _atom_site_occupancy
  Cs  Cs0  1  0.666667  0.333333  0.911103  1
  Cs  Cs1  1  0.333333  0.666667  0.411103  1
  Cs  Cs2  1  0.666667  0.333333  0.564619  1
  Cs  Cs3  1  0.333333  0.666667  0.064619  1
  Cs  Cs4  1  0.000000  0.000000  0.763725  1
  Cs  Cs5  1  0.000000  0.000000  0.263725  1
  Cr  Cr6  1  0.666667  0.333333  0.336905  1
  Cr  Cr7  1  0.333333  0.666667  0.836905  1
  P  P8  1  0.333333  0.666667  0.653512  1
  P  P9  1  0.666667  0.333333  0.153512  1
  Br  Br10  1  0.820365  0.640729  0.408515  1
  Br  Br11  1  0.179635  0.359271  0.908515  1
  Br  Br12  1  0.179635  0.820365  0.908515  1
  Br  Br13  1  0.181602  0.363205  0.590419  1
  Br  Br14  1  0.640729  0.820365  0.908515  1
  Br  Br15  1  0.359271  0.179635  0.408515  1
  Br  Br16  1  0.026900  0.513450  0.757778  1
  Br  Br17  1  0.820365  0.179635  0.408515  1
  Br  Br18  1  0.513450  0.026900  0.257778  1
  Br  Br19  1  0.486550  0.513450  0.757778  1
  Br  Br20  1  0.513450  0.486550  0.257778  1
  Br  Br21  1  0.973100  0.486550  0.257778  1
  Br  Br22  1  0.363205  0.181602  0.090419  1
  Br  Br23  1  0.486550  0.973100  0.757778  1
  Br  Br24  1  0.818398  0.636795  0.090419  1
  Br  Br25  1  0.181602  0.818398  0.590419  1
  Br  Br26  1  0.636795  0.818398  0.590419  1
  Br  Br27  1  0.818398  0.181602  0.090419  1
