# generated using pymatgen
data_Nd2CdAgRh
_symmetry_space_group_name_H-M   'P 1'
_cell_length_a   7.96881409
_cell_length_b   7.96881409
_cell_length_c   3.91851900
_cell_angle_alpha   90.00000000
_cell_angle_beta   90.00000000
_cell_angle_gamma   89.65037848
_symmetry_Int_Tables_number   1
_chemical_formula_structural   Nd2CdAgRh
_chemical_formula_sum   'Nd4 Cd2 Ag2 Rh2'
_cell_volume   248.82915305
_cell_formula_units_Z   2
loop_
 _symmetry_equiv_pos_site_id
 _symmetry_equiv_pos_as_xyz
  1  'x, y, z'
loop_
 _atom_site_type_symbol
 _atom_site_label
 _atom_site_symmetry_multiplicity
 _atom_site_fract_x
 _atom_site_fract_y
 _atom_site_fract_z
 _atom_site_occupancy
  Nd  Nd0  1  0.656431  0.156431  0.500000  1
  Nd  Nd1  1  0.343569  0.843569  0.500000  1
  Nd  Nd2  1  0.190032  0.309968  0.500000  1
  Nd  Nd3  1  0.809968  0.690032  0.500000  1
  Cd  Cd4  1  0.000000  0.000000  0.000000  1
  Cd  Cd5  1  0.500000  0.500000  0.000000  1
  Ag  Ag6  1  0.127767  0.627767  0.000000  1
  Ag  Ag7  1  0.872233  0.372233  0.000000  1
  Rh  Rh8  1  0.631308  0.868692  0.000000  1
  Rh  Rh9  1  0.368692  0.131308  0.000000  1
