# generated using pymatgen
data_NdSm3Er2(Si3Ru)8
_symmetry_space_group_name_H-M   'P 1'
_cell_length_a   10.14451791
_cell_length_b   10.14451750
_cell_length_c   8.19833456
_cell_angle_alpha   90.03155248
_cell_angle_beta   89.96845084
_cell_angle_gamma   132.37984604
_symmetry_Int_Tables_number   1
_chemical_formula_structural   NdSm3Er2(Si3Ru)8
_chemical_formula_sum   'Nd1 Sm3 Er2 Si24 Ru8'
_cell_volume   623.23530456
_cell_formula_units_Z   1
loop_
 _symmetry_equiv_pos_site_id
 _symmetry_equiv_pos_as_xyz
  1  'x, y, z'
loop_
 _atom_site_type_symbol
 _atom_site_label
 _atom_site_symmetry_multiplicity
 _atom_site_fract_x
 _atom_site_fract_y
 _atom_site_fract_z
 _atom_site_occupancy
  Nd  Nd0  1  0.997374  0.497374  0.250000  1
  Sm  Sm1  1  0.497548  0.997548  0.250000  1
  Sm  Sm2  1  0.002367  0.502367  0.750000  1
  Sm  Sm3  1  0.502920  0.002920  0.750000  1
  Er  Er4  1  0.500061  0.500194  0.500047  1
  Er  Er5  1  0.000194  0.000061  0.999953  1
  Si  Si6  1  0.387382  0.154469  0.004545  1
  Si  Si7  1  0.654469  0.887382  0.495455  1
  Si  Si8  1  0.112096  0.343520  0.504076  1
  Si  Si9  1  0.843520  0.612096  0.995924  1
  Si  Si10  1  0.612659  0.845518  0.995102  1
  Si  Si11  1  0.345518  0.112659  0.504898  1
  Si  Si12  1  0.887644  0.656150  0.495667  1
  Si  Si13  1  0.156150  0.387644  0.004333  1
  Si  Si14  1  0.611600  0.378923  0.228029  1
  Si  Si15  1  0.878923  0.111600  0.271971  1
  Si  Si16  1  0.886667  0.119890  0.728707  1
  Si  Si17  1  0.619890  0.386667  0.771293  1
  Si  Si18  1  0.388506  0.621782  0.771788  1
  Si  Si19  1  0.121782  0.888506  0.728212  1
  Si  Si20  1  0.704359  0.293917  0.999220  1
  Si  Si21  1  0.793917  0.204359  0.500780  1
  Si  Si22  1  0.295626  0.706163  0.999619  1
  Si  Si23  1  0.206163  0.795626  0.500381  1
  Si  Si24  1  0.168227  0.167894  0.333010  1
  Si  Si25  1  0.667894  0.668227  0.166990  1
  Si  Si26  1  0.332008  0.331944  0.832845  1
  Si  Si27  1  0.831944  0.832008  0.667155  1
  Si  Si28  1  0.380236  0.612849  0.228638  1
  Si  Si29  1  0.112849  0.880236  0.271362  1
  Ru  Ru30  1  0.625291  0.625331  0.873328  1
  Ru  Ru31  1  0.125331  0.125291  0.626672  1
  Ru  Ru32  1  0.874369  0.874709  0.373493  1
  Ru  Ru33  1  0.374709  0.374369  0.126507  1
  Ru  Ru34  1  0.331765  0.666440  0.500741  1
  Ru  Ru35  1  0.166440  0.831765  0.999259  1
  Ru  Ru36  1  0.668115  0.333488  0.499813  1
  Ru  Ru37  1  0.833488  0.168115  0.000187  1
