# generated using pymatgen
data_Tb4GePS2
_symmetry_space_group_name_H-M   'P 1'
_cell_length_a   6.97886981
_cell_length_b   6.97887091
_cell_length_c   6.97887091
_cell_angle_alpha   132.07458485
_cell_angle_beta   132.07459375
_cell_angle_gamma   70.11124852
_symmetry_Int_Tables_number   1
_chemical_formula_structural   Tb4GePS2
_chemical_formula_sum   'Tb4 Ge1 P1 S2'
_cell_volume   183.58620158
_cell_formula_units_Z   1
loop_
 _symmetry_equiv_pos_site_id
 _symmetry_equiv_pos_as_xyz
  1  'x, y, z'
loop_
 _atom_site_type_symbol
 _atom_site_label
 _atom_site_symmetry_multiplicity
 _atom_site_fract_x
 _atom_site_fract_y
 _atom_site_fract_z
 _atom_site_occupancy
  Tb  Tb0  1  0.250605  0.250605  0.000000  1
  Tb  Tb1  1  0.749395  0.749395  0.000000  1
  Tb  Tb2  1  0.502917  0.002917  0.500000  1
  Tb  Tb3  1  0.997083  0.497083  0.500000  1
  Ge  Ge4  1  0.000000  0.000000  0.000000  1
  P  P5  1  0.750000  0.250000  0.500000  1
  S  S6  1  0.500000  0.500000  0.000000  1
  S  S7  1  0.250000  0.750000  0.500000  1
