# generated using pymatgen
data_TbEu2Y(Ga2Ag)4
_symmetry_space_group_name_H-M   'P 1'
_cell_length_a   4.44002000
_cell_length_b   7.06831548
_cell_length_c   10.45097663
_cell_angle_alpha   90.04186840
_cell_angle_beta   90.00000000
_cell_angle_gamma   90.00000000
_symmetry_Int_Tables_number   1
_chemical_formula_structural   TbEu2Y(Ga2Ag)4
_chemical_formula_sum   'Tb1 Eu2 Y1 Ga8 Ag4'
_cell_volume   327.98774133
_cell_formula_units_Z   1
loop_
 _symmetry_equiv_pos_site_id
 _symmetry_equiv_pos_as_xyz
  1  'x, y, z'
loop_
 _atom_site_type_symbol
 _atom_site_label
 _atom_site_symmetry_multiplicity
 _atom_site_fract_x
 _atom_site_fract_y
 _atom_site_fract_z
 _atom_site_occupancy
  Tb  Tb0  1  0.250000  0.283596  0.670930  1
  Eu  Eu1  1  0.750000  0.218004  0.171939  1
  Eu  Eu2  1  0.750000  0.717212  0.327953  1
  Y  Y3  1  0.250000  0.784496  0.828290  1
  Ga  Ga4  1  0.250000  0.921225  0.146811  1
  Ga  Ga5  1  0.750000  0.079255  0.844355  1
  Ga  Ga6  1  0.750000  0.577412  0.655468  1
  Ga  Ga7  1  0.250000  0.419320  0.353242  1
  Ga  Ga8  1  0.250000  0.701583  0.539191  1
  Ga  Ga9  1  0.750000  0.295216  0.468309  1
  Ga  Ga10  1  0.750000  0.797539  0.031403  1
  Ga  Ga11  1  0.250000  0.204689  0.960538  1
  Ag  Ag12  1  0.250000  0.540810  0.094715  1
  Ag  Ag13  1  0.750000  0.461665  0.898789  1
  Ag  Ag14  1  0.750000  0.959299  0.601738  1
  Ag  Ag15  1  0.250000  0.038680  0.406329  1
