# generated using pymatgen
data_Tb8Sc11Si16Tc
_symmetry_space_group_name_H-M   'P 1'
_cell_length_a   7.03389063
_cell_length_b   7.36203973
_cell_length_c   13.91797400
_cell_angle_alpha   90.00000000
_cell_angle_beta   90.00000000
_cell_angle_gamma   90.09888184
_symmetry_Int_Tables_number   1
_chemical_formula_structural   Tb8Sc11Si16Tc
_chemical_formula_sum   'Tb8 Sc11 Si16 Tc1'
_cell_volume   720.72426192
_cell_formula_units_Z   1
loop_
 _symmetry_equiv_pos_site_id
 _symmetry_equiv_pos_as_xyz
  1  'x, y, z'
loop_
 _atom_site_type_symbol
 _atom_site_label
 _atom_site_symmetry_multiplicity
 _atom_site_fract_x
 _atom_site_fract_y
 _atom_site_fract_z
 _atom_site_occupancy
  Tb  Tb0  1  0.011752  0.176592  0.094045  1
  Tb  Tb1  1  0.993046  0.819078  0.900442  1
  Tb  Tb2  1  0.487020  0.671853  0.901225  1
  Tb  Tb3  1  0.993046  0.819078  0.599558  1
  Tb  Tb4  1  0.511280  0.324332  0.095814  1
  Tb  Tb5  1  0.011752  0.176592  0.405955  1
  Tb  Tb6  1  0.511280  0.324332  0.404186  1
  Tb  Tb7  1  0.487020  0.671853  0.598775  1
  Sc  Sc8  1  0.840988  0.496555  0.250000  1
  Sc  Sc9  1  0.341415  0.003128  0.250000  1
  Sc  Sc10  1  0.657880  0.997060  0.750000  1
  Sc  Sc11  1  0.326283  0.178739  0.627364  1
  Sc  Sc12  1  0.671610  0.824121  0.374750  1
  Sc  Sc13  1  0.171781  0.674769  0.376555  1
  Sc  Sc14  1  0.671610  0.824121  0.125250  1
  Sc  Sc15  1  0.829392  0.330710  0.628084  1
  Sc  Sc16  1  0.326283  0.178739  0.872636  1
  Sc  Sc17  1  0.829392  0.330710  0.871916  1
  Sc  Sc18  1  0.171781  0.674769  0.123445  1
  Si  Si19  1  0.030639  0.122118  0.750000  1
  Si  Si20  1  0.970990  0.884113  0.250000  1
  Si  Si21  1  0.467983  0.617901  0.250000  1
  Si  Si22  1  0.521045  0.391399  0.750000  1
  Si  Si23  1  0.285604  0.866533  0.750000  1
  Si  Si24  1  0.715794  0.127402  0.250000  1
  Si  Si25  1  0.213824  0.373048  0.250000  1
  Si  Si26  1  0.794939  0.626937  0.750000  1
  Si  Si27  1  0.155571  0.465457  0.546820  1
  Si  Si28  1  0.843418  0.535771  0.462816  1
  Si  Si29  1  0.346288  0.964676  0.463056  1
  Si  Si30  1  0.843418  0.535771  0.037184  1
  Si  Si31  1  0.656660  0.034616  0.540034  1
  Si  Si32  1  0.155571  0.465457  0.953180  1
  Si  Si33  1  0.656660  0.034616  0.959966  1
  Si  Si34  1  0.346288  0.964676  0.036944  1
  Tc  Tc35  1  0.150699  0.492377  0.750000  1
