# generated using pymatgen
data_CoAsBr18
_symmetry_space_group_name_H-M   'P 1'
_cell_length_a   9.15850253
_cell_length_b   9.15850345
_cell_length_c   9.15850445
_cell_angle_alpha   93.06293397
_cell_angle_beta   93.06293271
_cell_angle_gamma   93.06294975
_symmetry_Int_Tables_number   1
_chemical_formula_structural   CoAsBr18
_chemical_formula_sum   'Co1 As1 Br18'
_cell_volume   764.78397779
_cell_formula_units_Z   1
loop_
 _symmetry_equiv_pos_site_id
 _symmetry_equiv_pos_as_xyz
  1  'x, y, z'
loop_
 _atom_site_type_symbol
 _atom_site_label
 _atom_site_symmetry_multiplicity
 _atom_site_fract_x
 _atom_site_fract_y
 _atom_site_fract_z
 _atom_site_occupancy
  Co  Co0  1  0.000000  0.000000  0.000000  1
  As  As1  1  0.500000  0.500000  0.500000  1
  Br  Br2  1  0.262573  0.995325  0.031482  1
  Br  Br3  1  0.995325  0.031482  0.262573  1
  Br  Br4  1  0.031482  0.262573  0.995325  1
  Br  Br5  1  0.737427  0.004675  0.968518  1
  Br  Br6  1  0.004675  0.968518  0.737427  1
  Br  Br7  1  0.968518  0.737427  0.004675  1
  Br  Br8  1  0.226655  0.104534  0.640834  1
  Br  Br9  1  0.104534  0.640834  0.226655  1
  Br  Br10  1  0.640834  0.226655  0.104534  1
  Br  Br11  1  0.773345  0.895466  0.359166  1
  Br  Br12  1  0.895466  0.359166  0.773345  1
  Br  Br13  1  0.359166  0.773345  0.895466  1
  Br  Br14  1  0.530008  0.460975  0.210471  1
  Br  Br15  1  0.460975  0.210471  0.530008  1
  Br  Br16  1  0.210471  0.530008  0.460975  1
  Br  Br17  1  0.469992  0.539025  0.789529  1
  Br  Br18  1  0.539025  0.789529  0.469992  1
  Br  Br19  1  0.789529  0.469992  0.539025  1
