# generated using pymatgen
data_Sr4Ca6In3GaSb12
_symmetry_space_group_name_H-M   'P 1'
_cell_length_a   4.68597300
_cell_length_b   12.42210651
_cell_length_c   14.33706921
_cell_angle_alpha   89.88388468
_cell_angle_beta   90.00000000
_cell_angle_gamma   90.00000000
_symmetry_Int_Tables_number   1
_chemical_formula_structural   Sr4Ca6In3GaSb12
_chemical_formula_sum   'Sr4 Ca6 In3 Ga1 Sb12'
_cell_volume   834.55414873
_cell_formula_units_Z   1
loop_
 _symmetry_equiv_pos_site_id
 _symmetry_equiv_pos_as_xyz
  1  'x, y, z'
loop_
 _atom_site_type_symbol
 _atom_site_label
 _atom_site_symmetry_multiplicity
 _atom_site_fract_x
 _atom_site_fract_y
 _atom_site_fract_z
 _atom_site_occupancy
  Sr  Sr0  1  0.500000  0.674719  0.478898  1
  Sr  Sr1  1  0.500000  0.324138  0.519370  1
  Sr  Sr2  1  0.500000  0.826899  0.979812  1
  Sr  Sr3  1  0.500000  0.173338  0.026217  1
  Ca  Ca4  1  0.500000  0.001902  0.497806  1
  Ca  Ca5  1  0.500000  0.497953  0.000926  1
  Ca  Ca6  1  0.500000  0.910111  0.250207  1
  Ca  Ca7  1  0.500000  0.088618  0.750135  1
  Ca  Ca8  1  0.500000  0.410639  0.249805  1
  Ca  Ca9  1  0.500000  0.588432  0.750872  1
  In  In10  1  0.000000  0.326537  0.715403  1
  In  In11  1  0.000000  0.673620  0.284668  1
  In  In12  1  0.000000  0.826170  0.785027  1
  Ga  Ga13  1  0.000000  0.176002  0.212130  1
  Sb  Sb14  1  0.000000  0.980180  0.102448  1
  Sb  Sb15  1  0.000000  0.027422  0.902639  1
  Sb  Sb16  1  0.000000  0.472030  0.401081  1
  Sb  Sb17  1  0.000000  0.527775  0.598762  1
  Sb  Sb18  1  0.500000  0.160875  0.317107  1
  Sb  Sb19  1  0.500000  0.838522  0.671698  1
  Sb  Sb20  1  0.500000  0.662114  0.171443  1
  Sb  Sb21  1  0.500000  0.337035  0.828727  1
  Sb  Sb22  1  0.000000  0.355732  0.101474  1
  Sb  Sb23  1  0.000000  0.638992  0.903606  1
  Sb  Sb24  1  0.000000  0.860610  0.403242  1
  Sb  Sb25  1  0.000000  0.139635  0.596498  1
