# generated using pymatgen
data_Y4Ge6Ir5Pt2
_symmetry_space_group_name_H-M   'P 1'
_cell_length_a   7.31051027
_cell_length_b   7.31295103
_cell_length_c   7.31295033
_cell_angle_alpha   109.77282842
_cell_angle_beta   109.32733896
_cell_angle_gamma   109.32733829
_symmetry_Int_Tables_number   1
_chemical_formula_structural   Y4Ge6Ir5Pt2
_chemical_formula_sum   'Y4 Ge6 Ir5 Pt2'
_cell_volume   300.90561825
_cell_formula_units_Z   1
loop_
 _symmetry_equiv_pos_site_id
 _symmetry_equiv_pos_as_xyz
  1  'x, y, z'
loop_
 _atom_site_type_symbol
 _atom_site_label
 _atom_site_symmetry_multiplicity
 _atom_site_fract_x
 _atom_site_fract_y
 _atom_site_fract_z
 _atom_site_occupancy
  Y  Y0  1  0.002103  0.001052  0.501052  1
  Y  Y1  1  0.002103  0.501052  0.001052  1
  Y  Y2  1  0.497761  0.996926  0.996926  1
  Y  Y3  1  0.497761  0.500835  0.500835  1
  Ge  Ge4  1  0.678555  0.681850  0.996704  1
  Ge  Ge5  1  0.315554  0.997094  0.318460  1
  Ge  Ge6  1  0.005589  0.319689  0.319689  1
  Ge  Ge7  1  0.315554  0.318460  0.997094  1
  Ge  Ge8  1  0.678555  0.996704  0.681850  1
  Ge  Ge9  1  0.005589  0.685900  0.685900  1
  Ir  Ir10  1  0.500483  0.250242  0.750242  1
  Ir  Ir11  1  0.249659  0.500270  0.749388  1
  Ir  Ir12  1  0.249659  0.749388  0.500270  1
  Ir  Ir13  1  0.500483  0.750242  0.250242  1
  Ir  Ir14  1  0.999238  0.999619  0.999619  1
  Pt  Pt15  1  0.750677  0.250401  0.500276  1
  Pt  Pt16  1  0.750677  0.500276  0.250401  1
