# generated using pymatgen
data_YbTm2Al7Zn2
_symmetry_space_group_name_H-M   'P 1'
_cell_length_a   9.23702000
_cell_length_b   9.23701991
_cell_length_c   9.23702000
_cell_angle_alpha   34.84979689
_cell_angle_beta   34.84979768
_cell_angle_gamma   34.84979987
_symmetry_Int_Tables_number   1
_chemical_formula_structural   YbTm2Al7Zn2
_chemical_formula_sum   'Yb1 Tm2 Al7 Zn2'
_cell_volume   229.72032441
_cell_formula_units_Z   1
loop_
 _symmetry_equiv_pos_site_id
 _symmetry_equiv_pos_as_xyz
  1  'x, y, z'
loop_
 _atom_site_type_symbol
 _atom_site_label
 _atom_site_symmetry_multiplicity
 _atom_site_fract_x
 _atom_site_fract_y
 _atom_site_fract_z
 _atom_site_occupancy
  Yb  Yb0  1  0.000000  0.000000  0.000000  1
  Tm  Tm1  1  0.857720  0.857720  0.857720  1
  Tm  Tm2  1  0.142280  0.142280  0.142280  1
  Al  Al3  1  0.413070  0.413070  0.923936  1
  Al  Al4  1  0.923936  0.413070  0.413070  1
  Al  Al5  1  0.413070  0.923936  0.413070  1
  Al  Al6  1  0.500000  0.500000  0.500000  1
  Al  Al7  1  0.586930  0.076064  0.586930  1
  Al  Al8  1  0.076064  0.586930  0.586930  1
  Al  Al9  1  0.586930  0.586930  0.076064  1
  Zn  Zn10  1  0.664701  0.664701  0.664701  1
  Zn  Zn11  1  0.335299  0.335299  0.335299  1
