# generated using pymatgen
data_Ta2GaCo5B2
_symmetry_space_group_name_H-M   'P 1'
_cell_length_a   8.54610500
_cell_length_b   8.54610500
_cell_length_c   3.02788600
_cell_angle_alpha   90.00000000
_cell_angle_beta   90.00000000
_cell_angle_gamma   90.00000000
_symmetry_Int_Tables_number   1
_chemical_formula_structural   Ta2GaCo5B2
_chemical_formula_sum   'Ta4 Ga2 Co10 B4'
_cell_volume   221.14441142
_cell_formula_units_Z   2
loop_
 _symmetry_equiv_pos_site_id
 _symmetry_equiv_pos_as_xyz
  1  'x, y, z'
loop_
 _atom_site_type_symbol
 _atom_site_label
 _atom_site_symmetry_multiplicity
 _atom_site_fract_x
 _atom_site_fract_y
 _atom_site_fract_z
 _atom_site_occupancy
  Ta  Ta0  1  0.823593  0.323593  0.000000  1
  Ta  Ta1  1  0.323593  0.176407  0.000000  1
  Ta  Ta2  1  0.676407  0.823593  0.000000  1
  Ta  Ta3  1  0.176407  0.676407  0.000000  1
  Ga  Ga4  1  0.000000  0.000000  0.000000  1
  Ga  Ga5  1  0.500000  0.500000  0.000000  1
  Co  Co6  1  0.500000  0.000000  0.500000  1
  Co  Co7  1  0.000000  0.500000  0.500000  1
  Co  Co8  1  0.068242  0.221158  0.500000  1
  Co  Co9  1  0.221158  0.931758  0.500000  1
  Co  Co10  1  0.778842  0.068242  0.500000  1
  Co  Co11  1  0.931758  0.778842  0.500000  1
  Co  Co12  1  0.431758  0.721158  0.500000  1
  Co  Co13  1  0.568242  0.278842  0.500000  1
  Co  Co14  1  0.721158  0.568242  0.500000  1
  Co  Co15  1  0.278842  0.431758  0.500000  1
  B  B16  1  0.619786  0.119786  0.000000  1
  B  B17  1  0.119786  0.380214  0.000000  1
  B  B18  1  0.880214  0.619786  0.000000  1
  B  B19  1  0.380214  0.880214  0.000000  1
