# generated using pymatgen
data_PrNdTc2I
_symmetry_space_group_name_H-M   'P 1'
_cell_length_a   4.17131700
_cell_length_b   4.17131719
_cell_length_c   18.44026600
_cell_angle_alpha   90.00000000
_cell_angle_beta   90.00000000
_cell_angle_gamma   119.99999054
_symmetry_Int_Tables_number   1
_chemical_formula_structural   PrNdTc2I
_chemical_formula_sum   'Pr2 Nd2 Tc4 I2'
_cell_volume   277.87166625
_cell_formula_units_Z   2
loop_
 _symmetry_equiv_pos_site_id
 _symmetry_equiv_pos_as_xyz
  1  'x, y, z'
loop_
 _atom_site_type_symbol
 _atom_site_label
 _atom_site_symmetry_multiplicity
 _atom_site_fract_x
 _atom_site_fract_y
 _atom_site_fract_z
 _atom_site_occupancy
  Pr  Pr0  1  0.000000  0.000000  0.114388  1
  Pr  Pr1  1  0.000000  0.000000  0.885612  1
  Nd  Nd2  1  0.000000  0.000000  0.612960  1
  Nd  Nd3  1  0.000000  0.000000  0.387040  1
  Tc  Tc4  1  0.666667  0.333333  0.515111  1
  Tc  Tc5  1  0.333333  0.666667  0.015265  1
  Tc  Tc6  1  0.666667  0.333333  0.984735  1
  Tc  Tc7  1  0.333333  0.666667  0.484889  1
  I  I8  1  0.666667  0.333333  0.251571  1
  I  I9  1  0.333333  0.666667  0.748429  1
