# generated using pymatgen
data_YTa5NbCl18
_symmetry_space_group_name_H-M   'P 1'
_cell_length_a   10.15076932
_cell_length_b   10.14571703
_cell_length_c   10.14786703
_cell_angle_alpha   55.99377050
_cell_angle_beta   56.01152426
_cell_angle_gamma   56.00461400
_symmetry_Int_Tables_number   1
_chemical_formula_structural   YTa5NbCl18
_chemical_formula_sum   'Y1 Ta5 Nb1 Cl18'
_cell_volume   670.57111208
_cell_formula_units_Z   1
loop_
 _symmetry_equiv_pos_site_id
 _symmetry_equiv_pos_as_xyz
  1  'x, y, z'
loop_
 _atom_site_type_symbol
 _atom_site_label
 _atom_site_symmetry_multiplicity
 _atom_site_fract_x
 _atom_site_fract_y
 _atom_site_fract_z
 _atom_site_occupancy
  Y  Y0  1  0.999850  0.999702  0.000127  1
  Ta  Ta1  1  0.409067  0.302080  0.648594  1
  Ta  Ta2  1  0.351081  0.591621  0.698324  1
  Ta  Ta3  1  0.698658  0.351160  0.591166  1
  Ta  Ta4  1  0.301645  0.649336  0.408427  1
  Ta  Ta5  1  0.649234  0.408884  0.301275  1
  Nb  Nb6  1  0.591618  0.699344  0.350348  1
  Cl  Cl7  1  0.568338  0.161446  0.441911  1
  Cl  Cl8  1  0.223386  0.371552  0.907829  1
  Cl  Cl9  1  0.907732  0.223033  0.371653  1
  Cl  Cl10  1  0.368450  0.908807  0.223080  1
  Cl  Cl11  1  0.777749  0.626635  0.090524  1
  Cl  Cl12  1  0.092131  0.776613  0.628610  1
  Cl  Cl13  1  0.704118  0.958555  0.159494  1
  Cl  Cl14  1  0.954865  0.161390  0.702986  1
  Cl  Cl15  1  0.161845  0.702070  0.955435  1
  Cl  Cl16  1  0.296995  0.046090  0.837585  1
  Cl  Cl17  1  0.045046  0.837148  0.297529  1
  Cl  Cl18  1  0.838164  0.296771  0.045424  1
  Cl  Cl19  1  0.557941  0.431631  0.838656  1
  Cl  Cl20  1  0.161572  0.442167  0.568083  1
  Cl  Cl21  1  0.441982  0.568071  0.161510  1
  Cl  Cl22  1  0.429612  0.838625  0.560974  1
  Cl  Cl23  1  0.840246  0.555218  0.433591  1
  Cl  Cl24  1  0.628673  0.092051  0.776864  1
