# generated using pymatgen
data_Er8Si16(Mo3W)3
_symmetry_space_group_name_H-M   'P 1'
_cell_length_a   6.74999534
_cell_length_b   6.93007553
_cell_length_c   12.87835200
_cell_angle_alpha   90.00000000
_cell_angle_beta   90.00000000
_cell_angle_gamma   90.05853827
_symmetry_Int_Tables_number   1
_chemical_formula_structural   Er8Si16(Mo3W)3
_chemical_formula_sum   'Er8 Si16 Mo9 W3'
_cell_volume   602.42294613
_cell_formula_units_Z   1
loop_
 _symmetry_equiv_pos_site_id
 _symmetry_equiv_pos_as_xyz
  1  'x, y, z'
loop_
 _atom_site_type_symbol
 _atom_site_label
 _atom_site_symmetry_multiplicity
 _atom_site_fract_x
 _atom_site_fract_y
 _atom_site_fract_z
 _atom_site_occupancy
  Er  Er0  1  0.496691  0.332051  0.093680  1
  Er  Er1  1  0.996830  0.167918  0.406187  1
  Er  Er2  1  0.502971  0.667800  0.593841  1
  Er  Er3  1  0.003465  0.831924  0.906056  1
  Er  Er4  1  0.502971  0.667800  0.906159  1
  Er  Er5  1  0.003465  0.831924  0.593944  1
  Er  Er6  1  0.496691  0.332051  0.406320  1
  Er  Er7  1  0.996830  0.167918  0.093813  1
  Si  Si8  1  0.660418  0.040891  0.547316  1
  Si  Si9  1  0.160097  0.458486  0.952752  1
  Si  Si10  1  0.339670  0.959190  0.047160  1
  Si  Si11  1  0.840238  0.541807  0.452584  1
  Si  Si12  1  0.339670  0.959190  0.452840  1
  Si  Si13  1  0.840238  0.541807  0.047416  1
  Si  Si14  1  0.660418  0.040891  0.952684  1
  Si  Si15  1  0.160097  0.458486  0.547248  1
  Si  Si16  1  0.534785  0.368963  0.750000  1
  Si  Si17  1  0.034232  0.130837  0.750000  1
  Si  Si18  1  0.465650  0.631314  0.250000  1
  Si  Si19  1  0.965261  0.868042  0.250000  1
  Si  Si20  1  0.801683  0.632254  0.750000  1
  Si  Si21  1  0.301808  0.868151  0.750000  1
  Si  Si22  1  0.197934  0.368722  0.250000  1
  Si  Si23  1  0.698210  0.131328  0.250000  1
  Mo  Mo24  1  0.829976  0.335436  0.625134  1
  Mo  Mo25  1  0.330795  0.165334  0.874597  1
  Mo  Mo26  1  0.170471  0.665032  0.125131  1
  Mo  Mo27  1  0.668823  0.834756  0.374767  1
  Mo  Mo28  1  0.170471  0.665032  0.374869  1
  Mo  Mo29  1  0.668823  0.834756  0.125233  1
  Mo  Mo30  1  0.829976  0.335436  0.874866  1
  Mo  Mo31  1  0.330795  0.165334  0.625403  1
  Mo  Mo32  1  0.834130  0.497734  0.250000  1
  W  W33  1  0.665559  0.997935  0.750000  1
  W  W34  1  0.165546  0.501390  0.750000  1
  W  W35  1  0.334315  0.002081  0.250000  1
