# generated using pymatgen
data_Tb3SmGa12Ni
_symmetry_space_group_name_H-M   'P 1'
_cell_length_a   7.44015831
_cell_length_b   7.44015746
_cell_length_c   7.44015800
_cell_angle_alpha   109.36075728
_cell_angle_beta   109.36075497
_cell_angle_gamma   109.36073223
_symmetry_Int_Tables_number   1
_chemical_formula_structural   Tb3SmGa12Ni
_chemical_formula_sum   'Tb3 Sm1 Ga12 Ni1'
_cell_volume   318.33783784
_cell_formula_units_Z   1
loop_
 _symmetry_equiv_pos_site_id
 _symmetry_equiv_pos_as_xyz
  1  'x, y, z'
loop_
 _atom_site_type_symbol
 _atom_site_label
 _atom_site_symmetry_multiplicity
 _atom_site_fract_x
 _atom_site_fract_y
 _atom_site_fract_z
 _atom_site_occupancy
  Tb  Tb0  1  0.000000  0.000000  0.500000  1
  Tb  Tb1  1  0.000000  0.500000  0.000000  1
  Tb  Tb2  1  0.500000  0.000000  0.000000  1
  Sm  Sm3  1  0.500000  0.500000  0.500000  1
  Ga  Ga4  1  0.750880  0.249120  0.500000  1
  Ga  Ga5  1  0.750880  0.500000  0.249120  1
  Ga  Ga6  1  0.500000  0.249120  0.750880  1
  Ga  Ga7  1  0.249120  0.500000  0.750880  1
  Ga  Ga8  1  0.249120  0.750880  0.500000  1
  Ga  Ga9  1  0.500000  0.750880  0.249120  1
  Ga  Ga10  1  0.712222  0.712222  0.001583  1
  Ga  Ga11  1  0.287778  0.998417  0.287778  1
  Ga  Ga12  1  0.998417  0.287778  0.287778  1
  Ga  Ga13  1  0.287778  0.287778  0.998417  1
  Ga  Ga14  1  0.712222  0.001583  0.712222  1
  Ga  Ga15  1  0.001583  0.712222  0.712222  1
  Ni  Ni16  1  0.000000  0.000000  0.000000  1
