# generated using pymatgen
data_SmDySn5PtRh2
_symmetry_space_group_name_H-M   'P 1'
_cell_length_a   13.52172015
_cell_length_b   13.52172162
_cell_length_c   7.39162500
_cell_angle_alpha   90.00000000
_cell_angle_beta   90.00000000
_cell_angle_gamma   161.12812184
_symmetry_Int_Tables_number   1
_chemical_formula_structural   SmDySn5PtRh2
_chemical_formula_sum   'Sm2 Dy2 Sn10 Pt2 Rh4'
_cell_volume   437.13448996
_cell_formula_units_Z   2
loop_
 _symmetry_equiv_pos_site_id
 _symmetry_equiv_pos_as_xyz
  1  'x, y, z'
loop_
 _atom_site_type_symbol
 _atom_site_label
 _atom_site_symmetry_multiplicity
 _atom_site_fract_x
 _atom_site_fract_y
 _atom_site_fract_z
 _atom_site_occupancy
  Sm  Sm0  1  0.174578  0.825422  0.750128  1
  Sm  Sm1  1  0.825422  0.174578  0.250128  1
  Dy  Dy2  1  0.476173  0.523827  0.738855  1
  Dy  Dy3  1  0.523827  0.476173  0.238855  1
  Sn  Sn4  1  0.879776  0.120224  0.726978  1
  Sn  Sn5  1  0.120224  0.879776  0.226978  1
  Sn  Sn6  1  0.703891  0.296109  0.049085  1
  Sn  Sn7  1  0.296109  0.703891  0.549085  1
  Sn  Sn8  1  0.597936  0.402064  0.619240  1
  Sn  Sn9  1  0.402064  0.597936  0.119240  1
  Sn  Sn10  1  0.951171  0.048829  0.400264  1
  Sn  Sn11  1  0.048829  0.951171  0.900264  1
  Sn  Sn12  1  0.289437  0.710563  0.973672  1
  Sn  Sn13  1  0.710563  0.289437  0.473672  1
  Pt  Pt14  1  0.049101  0.950899  0.517403  1
  Pt  Pt15  1  0.950899  0.049101  0.017403  1
  Rh  Rh16  1  0.777429  0.222571  0.766519  1
  Rh  Rh17  1  0.222571  0.777429  0.266519  1
  Rh  Rh18  1  0.395557  0.604443  0.485854  1
  Rh  Rh19  1  0.604443  0.395557  0.985854  1
