# generated using pymatgen
data_Eu2Br4O13
_symmetry_space_group_name_H-M   'P 1'
_cell_length_a   8.03581902
_cell_length_b   8.03581833
_cell_length_c   15.94390480
_cell_angle_alpha   73.40535661
_cell_angle_beta   73.40535751
_cell_angle_gamma   49.46108067
_symmetry_Int_Tables_number   1
_chemical_formula_structural   Eu2Br4O13
_chemical_formula_sum   'Eu4 Br8 O26'
_cell_volume   742.74863977
_cell_formula_units_Z   2
loop_
 _symmetry_equiv_pos_site_id
 _symmetry_equiv_pos_as_xyz
  1  'x, y, z'
loop_
 _atom_site_type_symbol
 _atom_site_label
 _atom_site_symmetry_multiplicity
 _atom_site_fract_x
 _atom_site_fract_y
 _atom_site_fract_z
 _atom_site_occupancy
  Eu  Eu0  1  0.635926  0.121679  0.366357  1
  Eu  Eu1  1  0.878321  0.364074  0.133643  1
  Eu  Eu2  1  0.364074  0.878321  0.633643  1
  Eu  Eu3  1  0.121679  0.635926  0.866357  1
  Br  Br4  1  0.978480  0.421008  0.625856  1
  Br  Br5  1  0.578992  0.021520  0.874144  1
  Br  Br6  1  0.021520  0.578992  0.374144  1
  Br  Br7  1  0.421008  0.978480  0.125856  1
  Br  Br8  1  0.366429  0.847142  0.398517  1
  Br  Br9  1  0.152858  0.633571  0.101483  1
  Br  Br10  1  0.633571  0.152858  0.601483  1
  Br  Br11  1  0.847142  0.366429  0.898517  1
  O  O12  1  0.618935  0.627312  0.368899  1
  O  O13  1  0.372688  0.381065  0.131101  1
  O  O14  1  0.381065  0.372688  0.631101  1
  O  O15  1  0.627312  0.618935  0.868899  1
  O  O16  1  0.753582  0.246418  0.250000  1
  O  O17  1  0.246418  0.753582  0.750000  1
  O  O18  1  0.279966  0.490411  0.368941  1
  O  O19  1  0.509589  0.720034  0.131059  1
  O  O20  1  0.720034  0.509589  0.631059  1
  O  O21  1  0.490411  0.279966  0.868941  1
  O  O22  1  0.925392  0.780003  0.286327  1
  O  O23  1  0.219997  0.074608  0.213673  1
  O  O24  1  0.074608  0.219997  0.713673  1
  O  O25  1  0.780003  0.925392  0.786327  1
  O  O26  1  0.871281  0.740796  0.456016  1
  O  O27  1  0.259204  0.128719  0.043984  1
  O  O28  1  0.128719  0.259204  0.543984  1
  O  O29  1  0.740796  0.871281  0.956016  1
  O  O30  1  0.380472  0.059562  0.376768  1
  O  O31  1  0.940438  0.619528  0.123232  1
  O  O32  1  0.619528  0.940438  0.623232  1
  O  O33  1  0.059562  0.380472  0.876768  1
  O  O34  1  0.684115  0.191216  0.489395  1
  O  O35  1  0.808784  0.315885  0.010605  1
  O  O36  1  0.315885  0.808784  0.510605  1
  O  O37  1  0.191216  0.684115  0.989395  1
