# generated using pymatgen
data_NiAs6Ru
_symmetry_space_group_name_H-M   'P 1'
_cell_length_a   7.30336239
_cell_length_b   7.30336270
_cell_length_c   8.46010115
_cell_angle_alpha   55.14808657
_cell_angle_beta   55.14808572
_cell_angle_gamma   71.07946909
_symmetry_Int_Tables_number   1
_chemical_formula_structural   NiAs6Ru
_chemical_formula_sum   'Ni2 As12 Ru2'
_cell_volume   303.88927731
_cell_formula_units_Z   2
loop_
 _symmetry_equiv_pos_site_id
 _symmetry_equiv_pos_as_xyz
  1  'x, y, z'
loop_
 _atom_site_type_symbol
 _atom_site_label
 _atom_site_symmetry_multiplicity
 _atom_site_fract_x
 _atom_site_fract_y
 _atom_site_fract_z
 _atom_site_occupancy
  Ni  Ni0  1  0.000000  0.500000  0.500000  1
  Ni  Ni1  1  0.500000  0.000000  0.500000  1
  As  As2  1  0.147480  0.147480  0.196925  1
  As  As3  1  0.852520  0.852520  0.803075  1
  As  As4  1  0.849699  0.849699  0.497037  1
  As  As5  1  0.150301  0.150301  0.502963  1
  As  As6  1  0.803154  0.505164  0.347491  1
  As  As7  1  0.196846  0.494836  0.652509  1
  As  As8  1  0.505164  0.803154  0.347491  1
  As  As9  1  0.494836  0.196846  0.652509  1
  As  As10  1  0.656943  0.349593  0.847611  1
  As  As11  1  0.343057  0.650407  0.152389  1
  As  As12  1  0.650407  0.343057  0.152389  1
  As  As13  1  0.349593  0.656943  0.847611  1
  Ru  Ru14  1  0.000000  0.500000  0.000000  1
  Ru  Ru15  1  0.500000  0.000000  0.000000  1
