# generated using pymatgen
data_Sr3Ho(Al3Pd)6
_symmetry_space_group_name_H-M   'P 1'
_cell_length_a   7.72442693
_cell_length_b   7.73340773
_cell_length_c   9.65974300
_cell_angle_alpha   90.00000000
_cell_angle_beta   90.00000000
_cell_angle_gamma   119.43462288
_symmetry_Int_Tables_number   1
_chemical_formula_structural   Sr3Ho(Al3Pd)6
_chemical_formula_sum   'Sr3 Ho1 Al18 Pd6'
_cell_volume   502.55028180
_cell_formula_units_Z   1
loop_
 _symmetry_equiv_pos_site_id
 _symmetry_equiv_pos_as_xyz
  1  'x, y, z'
loop_
 _atom_site_type_symbol
 _atom_site_label
 _atom_site_symmetry_multiplicity
 _atom_site_fract_x
 _atom_site_fract_y
 _atom_site_fract_z
 _atom_site_occupancy
  Sr  Sr0  1  0.994213  0.669659  0.250000  1
  Sr  Sr1  1  0.002761  0.330236  0.750000  1
  Sr  Sr2  1  0.671236  0.995406  0.250000  1
  Ho  Ho3  1  0.329570  0.002454  0.750000  1
  Al  Al4  1  0.138016  0.135513  0.250000  1
  Al  Al5  1  0.870912  0.867053  0.750000  1
  Al  Al6  1  0.005890  0.335149  0.072191  1
  Al  Al7  1  0.999798  0.668086  0.921006  1
  Al  Al8  1  0.999798  0.668086  0.578994  1
  Al  Al9  1  0.334685  0.003791  0.431779  1
  Al  Al10  1  0.005890  0.335149  0.427809  1
  Al  Al11  1  0.661973  0.997252  0.578852  1
  Al  Al12  1  0.661973  0.997252  0.921148  1
  Al  Al13  1  0.334685  0.003791  0.068221  1
  Al  Al14  1  0.334296  0.331375  0.558433  1
  Al  Al15  1  0.663490  0.663560  0.455690  1
  Al  Al16  1  0.663490  0.663560  0.044310  1
  Al  Al17  1  0.334296  0.331375  0.941567  1
  Al  Al18  1  0.341570  0.543126  0.250000  1
  Al  Al19  1  0.652254  0.451694  0.750000  1
  Al  Al20  1  0.540896  0.339318  0.250000  1
  Al  Al21  1  0.457707  0.666392  0.750000  1
  Pd  Pd22  1  0.670609  0.328473  0.997502  1
  Pd  Pd23  1  0.328581  0.671141  0.997229  1
  Pd  Pd24  1  0.328581  0.671141  0.502771  1
  Pd  Pd25  1  0.670609  0.328473  0.502498  1
  Pd  Pd26  1  0.001110  0.000748  0.996987  1
  Pd  Pd27  1  0.001110  0.000748  0.503013  1
