# generated using pymatgen
data_Gd6YBeI12
_symmetry_space_group_name_H-M   'P 1'
_cell_length_a   9.71812482
_cell_length_b   9.71812438
_cell_length_c   9.71812500
_cell_angle_alpha   107.64132121
_cell_angle_beta   107.64132659
_cell_angle_gamma   107.64130968
_symmetry_Int_Tables_number   1
_chemical_formula_structural   Gd6YBeI12
_chemical_formula_sum   'Gd6 Y1 Be1 I12'
_cell_volume   750.57817286
_cell_formula_units_Z   1
loop_
 _symmetry_equiv_pos_site_id
 _symmetry_equiv_pos_as_xyz
  1  'x, y, z'
loop_
 _atom_site_type_symbol
 _atom_site_label
 _atom_site_symmetry_multiplicity
 _atom_site_fract_x
 _atom_site_fract_y
 _atom_site_fract_z
 _atom_site_occupancy
  Gd  Gd0  1  0.697278  0.971239  0.900561  1
  Gd  Gd1  1  0.971239  0.900561  0.697278  1
  Gd  Gd2  1  0.099439  0.302722  0.028761  1
  Gd  Gd3  1  0.302722  0.028761  0.099439  1
  Gd  Gd4  1  0.900561  0.697278  0.971239  1
  Gd  Gd5  1  0.028761  0.099439  0.302722  1
  Y  Y6  1  0.500000  0.500000  0.500000  1
  Be  Be7  1  0.000000  0.000000  0.000000  1
  I  I8  1  0.074881  0.229504  0.681147  1
  I  I9  1  0.389936  0.157154  0.470126  1
  I  I10  1  0.610064  0.842846  0.529874  1
  I  I11  1  0.229504  0.681147  0.074881  1
  I  I12  1  0.770496  0.318853  0.925119  1
  I  I13  1  0.681147  0.074881  0.229504  1
  I  I14  1  0.529874  0.610064  0.842846  1
  I  I15  1  0.842846  0.529874  0.610064  1
  I  I16  1  0.925119  0.770496  0.318853  1
  I  I17  1  0.318853  0.925119  0.770496  1
  I  I18  1  0.470126  0.389936  0.157154  1
  I  I19  1  0.157154  0.470126  0.389936  1
