# generated using pymatgen
data_Na2PPd2
_symmetry_space_group_name_H-M   'P 1'
_cell_length_a   8.80350277
_cell_length_b   7.94552189
_cell_length_c   5.60442211
_cell_angle_alpha   78.97002841
_cell_angle_beta   62.35859080
_cell_angle_gamma   38.67136733
_symmetry_Int_Tables_number   1
_chemical_formula_structural   Na2PPd2
_chemical_formula_sum   'Na4 P2 Pd4'
_cell_volume   206.39765249
_cell_formula_units_Z   2
loop_
 _symmetry_equiv_pos_site_id
 _symmetry_equiv_pos_as_xyz
  1  'x, y, z'
loop_
 _atom_site_type_symbol
 _atom_site_label
 _atom_site_symmetry_multiplicity
 _atom_site_fract_x
 _atom_site_fract_y
 _atom_site_fract_z
 _atom_site_occupancy
  Na  Na0  1  0.042053  0.050065  0.635301  1
  Na  Na1  1  0.272581  0.635301  0.050065  1
  Na  Na2  1  0.614699  0.977419  0.207947  1
  Na  Na3  1  0.199935  0.207947  0.977419  1
  P  P4  1  0.831051  0.668949  0.668949  1
  P  P5  1  0.581051  0.418949  0.418949  1
  Pd  Pd6  1  0.646808  0.590779  0.054046  1
  Pd  Pd7  1  0.708366  0.054046  0.590779  1
  Pd  Pd8  1  0.195954  0.541634  0.603192  1
  Pd  Pd9  1  0.659221  0.603192  0.541634  1
