# generated using pymatgen
data_Sm2V3Co9P7
_symmetry_space_group_name_H-M   'P 1'
_cell_length_a   9.08479700
_cell_length_b   9.08479776
_cell_length_c   3.66439900
_cell_angle_alpha   90.00000000
_cell_angle_beta   90.00000000
_cell_angle_gamma   120.00000816
_symmetry_Int_Tables_number   1
_chemical_formula_structural   Sm2V3Co9P7
_chemical_formula_sum   'Sm2 V3 Co9 P7'
_cell_volume   261.91709370
_cell_formula_units_Z   1
loop_
 _symmetry_equiv_pos_site_id
 _symmetry_equiv_pos_as_xyz
  1  'x, y, z'
loop_
 _atom_site_type_symbol
 _atom_site_label
 _atom_site_symmetry_multiplicity
 _atom_site_fract_x
 _atom_site_fract_y
 _atom_site_fract_z
 _atom_site_occupancy
  Sm  Sm0  1  0.666667  0.333333  0.000000  1
  Sm  Sm1  1  0.333333  0.666667  0.500000  1
  V  V2  1  0.217644  0.099903  0.000000  1
  V  V3  1  0.900097  0.117742  0.000000  1
  V  V4  1  0.882258  0.782356  0.000000  1
  Co  Co5  1  0.429869  0.059657  0.500000  1
  Co  Co6  1  0.940343  0.370213  0.500000  1
  Co  Co7  1  0.629787  0.570131  0.500000  1
  Co  Co8  1  0.156483  0.276246  0.500000  1
  Co  Co9  1  0.723754  0.880236  0.500000  1
  Co  Co10  1  0.119764  0.843517  0.500000  1
  Co  Co11  1  0.384970  0.434156  0.000000  1
  Co  Co12  1  0.565844  0.950814  0.000000  1
  Co  Co13  1  0.049186  0.615030  0.000000  1
  P  P14  1  0.113187  0.403554  0.000000  1
  P  P15  1  0.596446  0.709632  0.000000  1
  P  P16  1  0.290368  0.886813  0.000000  1
  P  P17  1  0.000000  0.000000  0.500000  1
  P  P18  1  0.409183  0.300358  0.500000  1
  P  P19  1  0.699642  0.108824  0.500000  1
  P  P20  1  0.891176  0.590817  0.500000  1
