# generated using pymatgen
data_Ho3CdIn4
_symmetry_space_group_name_H-M   'P 1'
_cell_length_a   6.33518009
_cell_length_b   6.33517979
_cell_length_c   10.47986400
_cell_angle_alpha   90.00000000
_cell_angle_beta   90.00000000
_cell_angle_gamma   102.99399274
_symmetry_Int_Tables_number   1
_chemical_formula_structural   Ho3CdIn4
_chemical_formula_sum   'Ho6 Cd2 In8'
_cell_volume   409.83401359
_cell_formula_units_Z   2
loop_
 _symmetry_equiv_pos_site_id
 _symmetry_equiv_pos_as_xyz
  1  'x, y, z'
loop_
 _atom_site_type_symbol
 _atom_site_label
 _atom_site_symmetry_multiplicity
 _atom_site_fract_x
 _atom_site_fract_y
 _atom_site_fract_z
 _atom_site_occupancy
  Ho  Ho0  1  0.618092  0.618092  0.250000  1
  Ho  Ho1  1  0.381908  0.381908  0.750000  1
  Ho  Ho2  1  0.204507  0.795493  0.500000  1
  Ho  Ho3  1  0.204507  0.795493  0.000000  1
  Ho  Ho4  1  0.795493  0.204507  0.500000  1
  Ho  Ho5  1  0.795493  0.204507  0.000000  1
  Cd  Cd6  1  0.009143  0.009143  0.250000  1
  Cd  Cd7  1  0.990857  0.990857  0.750000  1
  In  In8  1  0.308488  0.308488  0.043623  1
  In  In9  1  0.691512  0.691512  0.956377  1
  In  In10  1  0.308488  0.308488  0.456377  1
  In  In11  1  0.691512  0.691512  0.543623  1
  In  In12  1  0.512912  0.073270  0.250000  1
  In  In13  1  0.926730  0.487088  0.750000  1
  In  In14  1  0.487088  0.926730  0.750000  1
  In  In15  1  0.073270  0.512912  0.250000  1
