# generated using pymatgen
data_Hf6CoBr15
_symmetry_space_group_name_H-M   'P 1'
_cell_length_a   9.34588733
_cell_length_b   9.34588840
_cell_length_c   9.34588800
_cell_angle_alpha   109.47121977
_cell_angle_beta   109.47122208
_cell_angle_gamma   109.47121995
_symmetry_Int_Tables_number   1
_chemical_formula_structural   Hf6CoBr15
_chemical_formula_sum   'Hf6 Co1 Br15'
_cell_volume   628.40526319
_cell_formula_units_Z   1
loop_
 _symmetry_equiv_pos_site_id
 _symmetry_equiv_pos_as_xyz
  1  'x, y, z'
loop_
 _atom_site_type_symbol
 _atom_site_label
 _atom_site_symmetry_multiplicity
 _atom_site_fract_x
 _atom_site_fract_y
 _atom_site_fract_z
 _atom_site_occupancy
  Hf  Hf0  1  0.772162  0.772162  0.000000  1
  Hf  Hf1  1  0.227838  0.000000  0.227838  1
  Hf  Hf2  1  0.772162  0.000000  0.772162  1
  Hf  Hf3  1  0.000000  0.772162  0.772162  1
  Hf  Hf4  1  0.000000  0.227838  0.227838  1
  Hf  Hf5  1  0.227838  0.227838  0.000000  1
  Co  Co6  1  0.000000  0.000000  0.000000  1
  Br  Br7  1  0.500000  0.000000  0.500000  1
  Br  Br8  1  0.000000  0.500000  0.500000  1
  Br  Br9  1  0.500000  0.500000  0.000000  1
  Br  Br10  1  0.505082  0.752541  0.752541  1
  Br  Br11  1  0.752541  0.000000  0.247459  1
  Br  Br12  1  0.494918  0.247459  0.247459  1
  Br  Br13  1  0.247459  0.247459  0.494918  1
  Br  Br14  1  0.247459  0.752541  0.000000  1
  Br  Br15  1  0.000000  0.247459  0.752541  1
  Br  Br16  1  0.000000  0.752541  0.247459  1
  Br  Br17  1  0.247459  0.000000  0.752541  1
  Br  Br18  1  0.247459  0.494918  0.247459  1
  Br  Br19  1  0.752541  0.247459  0.000000  1
  Br  Br20  1  0.752541  0.505082  0.752541  1
  Br  Br21  1  0.752541  0.752541  0.505082  1
