# generated using pymatgen
data_Tm5Zr3(Co4P3)4
_symmetry_space_group_name_H-M   'P 1'
_cell_length_a   12.26788100
_cell_length_b   12.26788073
_cell_length_c   3.69681400
_cell_angle_alpha   90.00000000
_cell_angle_beta   90.00000000
_cell_angle_gamma   120.00000342
_symmetry_Int_Tables_number   1
_chemical_formula_structural   Tm5Zr3(Co4P3)4
_chemical_formula_sum   'Tm5 Zr3 Co16 P12'
_cell_volume   481.83386085
_cell_formula_units_Z   1
loop_
 _symmetry_equiv_pos_site_id
 _symmetry_equiv_pos_as_xyz
  1  'x, y, z'
loop_
 _atom_site_type_symbol
 _atom_site_label
 _atom_site_symmetry_multiplicity
 _atom_site_fract_x
 _atom_site_fract_y
 _atom_site_fract_z
 _atom_site_occupancy
  Tm  Tm0  1  0.666667  0.333333  0.000000  1
  Tm  Tm1  1  0.333333  0.666667  0.000000  1
  Tm  Tm2  1  0.818229  0.818229  0.500000  1
  Tm  Tm3  1  0.181771  0.000000  0.500000  1
  Tm  Tm4  1  0.000000  0.181771  0.500000  1
  Zr  Zr5  1  0.441776  0.441776  0.000000  1
  Zr  Zr6  1  0.558224  0.000000  0.000000  1
  Zr  Zr7  1  0.000000  0.558224  0.000000  1
  Co  Co8  1  0.874891  0.354912  0.500000  1
  Co  Co9  1  0.645088  0.519979  0.500000  1
  Co  Co10  1  0.480021  0.125109  0.500000  1
  Co  Co11  1  0.354912  0.874891  0.500000  1
  Co  Co12  1  0.519979  0.645088  0.500000  1
  Co  Co13  1  0.125109  0.480021  0.500000  1
  Co  Co14  1  0.805983  0.178478  0.000000  1
  Co  Co15  1  0.821522  0.627505  0.000000  1
  Co  Co16  1  0.372495  0.194017  0.000000  1
  Co  Co17  1  0.178478  0.805983  0.000000  1
  Co  Co18  1  0.627505  0.821522  0.000000  1
  Co  Co19  1  0.194017  0.372495  0.000000  1
  Co  Co20  1  0.276623  0.276623  0.500000  1
  Co  Co21  1  0.723377  0.000000  0.500000  1
  Co  Co22  1  0.000000  0.723377  0.500000  1
  Co  Co23  1  0.000000  0.000000  0.000000  1
  P  P24  1  0.693325  0.172643  0.500000  1
  P  P25  1  0.827357  0.520682  0.500000  1
  P  P26  1  0.479318  0.306675  0.500000  1
  P  P27  1  0.172643  0.693325  0.500000  1
  P  P28  1  0.520682  0.827357  0.500000  1
  P  P29  1  0.306675  0.479318  0.500000  1
  P  P30  1  0.177330  0.177330  0.000000  1
  P  P31  1  0.822670  0.000000  0.000000  1
  P  P32  1  0.000000  0.822670  0.000000  1
  P  P33  1  0.650234  0.650234  0.000000  1
  P  P34  1  0.349766  0.000000  0.000000  1
  P  P35  1  0.000000  0.349766  0.000000  1
