# generated using pymatgen
data_CePa(AsRh)2
_symmetry_space_group_name_H-M   'P 1'
_cell_length_a   4.21971200
_cell_length_b   4.21971182
_cell_length_c   15.30486000
_cell_angle_alpha   90.00000000
_cell_angle_beta   90.00000000
_cell_angle_gamma   120.00001711
_symmetry_Int_Tables_number   1
_chemical_formula_structural   CePa(AsRh)2
_chemical_formula_sum   'Ce2 Pa2 As4 Rh4'
_cell_volume   236.00734597
_cell_formula_units_Z   2
loop_
 _symmetry_equiv_pos_site_id
 _symmetry_equiv_pos_as_xyz
  1  'x, y, z'
loop_
 _atom_site_type_symbol
 _atom_site_label
 _atom_site_symmetry_multiplicity
 _atom_site_fract_x
 _atom_site_fract_y
 _atom_site_fract_z
 _atom_site_occupancy
  Ce  Ce0  1  0.000000  0.000000  0.500000  1
  Ce  Ce1  1  0.000000  0.000000  0.000000  1
  Pa  Pa2  1  0.000000  0.000000  0.250000  1
  Pa  Pa3  1  0.000000  0.000000  0.750000  1
  As  As4  1  0.333333  0.666667  0.885185  1
  As  As5  1  0.666667  0.333333  0.114815  1
  As  As6  1  0.666667  0.333333  0.385185  1
  As  As7  1  0.333333  0.666667  0.614815  1
  Rh  Rh8  1  0.333333  0.666667  0.349963  1
  Rh  Rh9  1  0.666667  0.333333  0.650037  1
  Rh  Rh10  1  0.666667  0.333333  0.849963  1
  Rh  Rh11  1  0.333333  0.666667  0.150037  1
