# generated using pymatgen
data_Sr2Ca3AlGaSb6
_symmetry_space_group_name_H-M   'P 1'
_cell_length_a   4.60871700
_cell_length_b   12.36064105
_cell_length_c   14.14778406
_cell_angle_alpha   90.01033713
_cell_angle_beta   90.00000000
_cell_angle_gamma   90.00000000
_symmetry_Int_Tables_number   1
_chemical_formula_structural   Sr2Ca3AlGaSb6
_chemical_formula_sum   'Sr4 Ca6 Al2 Ga2 Sb12'
_cell_volume   805.95250800
_cell_formula_units_Z   2
loop_
 _symmetry_equiv_pos_site_id
 _symmetry_equiv_pos_as_xyz
  1  'x, y, z'
loop_
 _atom_site_type_symbol
 _atom_site_label
 _atom_site_symmetry_multiplicity
 _atom_site_fract_x
 _atom_site_fract_y
 _atom_site_fract_z
 _atom_site_occupancy
  Sr  Sr0  1  0.500000  0.672413  0.477241  1
  Sr  Sr1  1  0.500000  0.327587  0.522759  1
  Sr  Sr2  1  0.500000  0.827333  0.976380  1
  Sr  Sr3  1  0.500000  0.172667  0.023620  1
  Ca  Ca4  1  0.500000  0.000000  0.500000  1
  Ca  Ca5  1  0.500000  0.500000  0.000000  1
  Ca  Ca6  1  0.500000  0.908755  0.249848  1
  Ca  Ca7  1  0.500000  0.091245  0.750152  1
  Ca  Ca8  1  0.500000  0.408990  0.249913  1
  Ca  Ca9  1  0.500000  0.591010  0.750087  1
  Al  Al10  1  0.000000  0.324549  0.712384  1
  Al  Al11  1  0.000000  0.675451  0.287616  1
  Ga  Ga12  1  0.000000  0.824101  0.787919  1
  Ga  Ga13  1  0.000000  0.175899  0.212081  1
  Sb  Sb14  1  0.000000  0.979679  0.101674  1
  Sb  Sb15  1  0.000000  0.020321  0.898326  1
  Sb  Sb16  1  0.000000  0.480727  0.397571  1
  Sb  Sb17  1  0.000000  0.519273  0.602429  1
  Sb  Sb18  1  0.500000  0.160613  0.319118  1
  Sb  Sb19  1  0.500000  0.839387  0.680882  1
  Sb  Sb20  1  0.500000  0.660930  0.181848  1
  Sb  Sb21  1  0.500000  0.339070  0.818152  1
  Sb  Sb22  1  0.000000  0.355564  0.098718  1
  Sb  Sb23  1  0.000000  0.644436  0.901282  1
  Sb  Sb24  1  0.000000  0.854038  0.400985  1
  Sb  Sb25  1  0.000000  0.145962  0.599015  1
