# generated using pymatgen
data_Tb23LuTe12
_symmetry_space_group_name_H-M   'P 1'
_cell_length_a   4.08713500
_cell_length_b   11.58577669
_cell_length_c   22.23770542
_cell_angle_alpha   90.06582242
_cell_angle_beta   90.00000000
_cell_angle_gamma   90.00000000
_symmetry_Int_Tables_number   1
_chemical_formula_structural   Tb23LuTe12
_chemical_formula_sum   'Tb23 Lu1 Te12'
_cell_volume   1053.01321835
_cell_formula_units_Z   1
loop_
 _symmetry_equiv_pos_site_id
 _symmetry_equiv_pos_as_xyz
  1  'x, y, z'
loop_
 _atom_site_type_symbol
 _atom_site_label
 _atom_site_symmetry_multiplicity
 _atom_site_fract_x
 _atom_site_fract_y
 _atom_site_fract_z
 _atom_site_occupancy
  Tb  Tb0  1  0.250000  0.151529  0.392202  1
  Tb  Tb1  1  0.750000  0.849365  0.607461  1
  Tb  Tb2  1  0.750000  0.651736  0.108462  1
  Tb  Tb3  1  0.250000  0.348445  0.891742  1
  Tb  Tb4  1  0.250000  0.456039  0.340337  1
  Tb  Tb5  1  0.750000  0.544774  0.659571  1
  Tb  Tb6  1  0.750000  0.955700  0.159917  1
  Tb  Tb7  1  0.250000  0.044123  0.840139  1
  Tb  Tb8  1  0.250000  0.734415  0.234073  1
  Tb  Tb9  1  0.750000  0.265665  0.766242  1
  Tb  Tb10  1  0.750000  0.234483  0.266498  1
  Tb  Tb11  1  0.250000  0.765794  0.733379  1
  Tb  Tb12  1  0.250000  0.115048  0.034539  1
  Tb  Tb13  1  0.750000  0.884905  0.965456  1
  Tb  Tb14  1  0.750000  0.615658  0.465464  1
  Tb  Tb15  1  0.250000  0.385133  0.534566  1
  Tb  Tb16  1  0.250000  0.413371  0.147370  1
  Tb  Tb17  1  0.750000  0.586696  0.852625  1
  Tb  Tb18  1  0.750000  0.914154  0.353823  1
  Tb  Tb19  1  0.250000  0.086502  0.647350  1
  Tb  Tb20  1  0.250000  0.612415  0.982923  1
  Tb  Tb21  1  0.750000  0.387467  0.017098  1
  Tb  Tb22  1  0.750000  0.109329  0.516693  1
  Lu  Lu23  1  0.250000  0.886500  0.481796  1
  Te  Te24  1  0.250000  0.849961  0.068588  1
  Te  Te25  1  0.750000  0.150007  0.931433  1
  Te  Te26  1  0.750000  0.349720  0.431322  1
  Te  Te27  1  0.250000  0.650651  0.568316  1
  Te  Te28  1  0.250000  0.712221  0.373360  1
  Te  Te29  1  0.750000  0.288114  0.626983  1
  Te  Te30  1  0.750000  0.211545  0.127145  1
  Te  Te31  1  0.250000  0.788393  0.872863  1
  Te  Te32  1  0.250000  0.020447  0.261435  1
  Te  Te33  1  0.750000  0.979529  0.738808  1
  Te  Te34  1  0.750000  0.520682  0.239049  1
  Te  Te35  1  0.250000  0.479488  0.760978  1
