# generated using pymatgen
data_Tb5Ho5AlBi5
_symmetry_space_group_name_H-M   'P 1'
_cell_length_a   9.11381203
_cell_length_b   9.11381078
_cell_length_c   6.41688300
_cell_angle_alpha   90.00000000
_cell_angle_beta   90.00000000
_cell_angle_gamma   119.68593006
_symmetry_Int_Tables_number   1
_chemical_formula_structural   Tb5Ho5AlBi5
_chemical_formula_sum   'Tb5 Ho5 Al1 Bi5'
_cell_volume   463.04221934
_cell_formula_units_Z   1
loop_
 _symmetry_equiv_pos_site_id
 _symmetry_equiv_pos_as_xyz
  1  'x, y, z'
loop_
 _atom_site_type_symbol
 _atom_site_label
 _atom_site_symmetry_multiplicity
 _atom_site_fract_x
 _atom_site_fract_y
 _atom_site_fract_z
 _atom_site_occupancy
  Tb  Tb0  1  0.749905  0.749905  0.750000  1
  Tb  Tb1  1  0.243845  0.012849  0.750000  1
  Tb  Tb2  1  0.012849  0.243845  0.750000  1
  Tb  Tb3  1  0.758345  0.000383  0.250000  1
  Tb  Tb4  1  0.000383  0.758345  0.250000  1
  Ho  Ho5  1  0.659425  0.335432  0.996671  1
  Ho  Ho6  1  0.335432  0.659425  0.996671  1
  Ho  Ho7  1  0.335432  0.659425  0.503329  1
  Ho  Ho8  1  0.659425  0.335432  0.503329  1
  Ho  Ho9  1  0.240305  0.240305  0.250000  1
  Al  Al10  1  0.396506  0.396506  0.750000  1
  Bi  Bi11  1  0.610928  0.002821  0.750000  1
  Bi  Bi12  1  0.002821  0.610928  0.750000  1
  Bi  Bi13  1  0.606765  0.606765  0.250000  1
  Bi  Bi14  1  0.391088  0.996550  0.250000  1
  Bi  Bi15  1  0.996550  0.391088  0.250000  1
