# generated using pymatgen
data_Tb2YHf(Co5P3)4
_symmetry_space_group_name_H-M   'P 1'
_cell_length_a   3.64207300
_cell_length_b   10.25280003
_cell_length_c   11.71195605
_cell_angle_alpha   90.07694577
_cell_angle_beta   90.00000000
_cell_angle_gamma   90.00000000
_symmetry_Int_Tables_number   1
_chemical_formula_structural   Tb2YHf(Co5P3)4
_chemical_formula_sum   'Tb2 Y1 Hf1 Co20 P12'
_cell_volume   437.34098204
_cell_formula_units_Z   1
loop_
 _symmetry_equiv_pos_site_id
 _symmetry_equiv_pos_as_xyz
  1  'x, y, z'
loop_
 _atom_site_type_symbol
 _atom_site_label
 _atom_site_symmetry_multiplicity
 _atom_site_fract_x
 _atom_site_fract_y
 _atom_site_fract_z
 _atom_site_occupancy
  Tb  Tb0  1  0.750000  0.082474  0.797286  1
  Tb  Tb1  1  0.750000  0.416929  0.297171  1
  Y  Y2  1  0.250000  0.583191  0.702739  1
  Hf  Hf3  1  0.250000  0.918293  0.200808  1
  Co  Co4  1  0.250000  0.783132  0.492336  1
  Co  Co5  1  0.750000  0.216223  0.506648  1
  Co  Co6  1  0.750000  0.282159  0.010266  1
  Co  Co7  1  0.250000  0.718191  0.993132  1
  Co  Co8  1  0.250000  0.089753  0.991224  1
  Co  Co9  1  0.750000  0.906233  0.018144  1
  Co  Co10  1  0.750000  0.593458  0.511019  1
  Co  Co11  1  0.250000  0.406805  0.488645  1
  Co  Co12  1  0.250000  0.277957  0.676649  1
  Co  Co13  1  0.750000  0.725345  0.321918  1
  Co  Co14  1  0.750000  0.779817  0.824551  1
  Co  Co15  1  0.250000  0.220279  0.177446  1
  Co  Co16  1  0.250000  0.621014  0.199165  1
  Co  Co17  1  0.750000  0.382442  0.802181  1
  Co  Co18  1  0.750000  0.112339  0.298190  1
  Co  Co19  1  0.250000  0.883009  0.697742  1
  Co  Co20  1  0.250000  0.029314  0.426999  1
  Co  Co21  1  0.750000  0.967342  0.564996  1
  Co  Co22  1  0.750000  0.534940  0.069082  1
  Co  Co23  1  0.250000  0.468455  0.932527  1
  P  P24  1  0.250000  0.081186  0.609460  1
  P  P25  1  0.750000  0.918592  0.382986  1
  P  P26  1  0.750000  0.581973  0.888491  1
  P  P27  1  0.250000  0.419120  0.112336  1
  P  P28  1  0.250000  0.228601  0.370903  1
  P  P29  1  0.750000  0.771375  0.629493  1
  P  P30  1  0.750000  0.733377  0.132219  1
  P  P31  1  0.250000  0.270535  0.871726  1
  P  P32  1  0.250000  0.897750  0.891050  1
  P  P33  1  0.750000  0.098745  0.110196  1
  P  P34  1  0.750000  0.397476  0.608849  1
  P  P35  1  0.250000  0.602176  0.391433  1
