# generated using pymatgen
data_Dy2Mg(PRh2)6
_symmetry_space_group_name_H-M   'P 1'
_cell_length_a   9.71045600
_cell_length_b   9.71045600
_cell_length_c   3.88477600
_cell_angle_alpha   90.00000000
_cell_angle_beta   90.00000000
_cell_angle_gamma   120.00000682
_symmetry_Int_Tables_number   1
_chemical_formula_structural   Dy2Mg(PRh2)6
_chemical_formula_sum   'Dy2 Mg1 P6 Rh12'
_cell_volume   317.23115562
_cell_formula_units_Z   1
loop_
 _symmetry_equiv_pos_site_id
 _symmetry_equiv_pos_as_xyz
  1  'x, y, z'
loop_
 _atom_site_type_symbol
 _atom_site_label
 _atom_site_symmetry_multiplicity
 _atom_site_fract_x
 _atom_site_fract_y
 _atom_site_fract_z
 _atom_site_occupancy
  Dy  Dy0  1  0.333333  0.666667  0.753598  1
  Dy  Dy1  1  0.666667  0.333333  0.246402  1
  Mg  Mg2  1  0.000000  0.000000  0.500000  1
  P  P3  1  0.402133  0.285280  0.746849  1
  P  P4  1  0.714720  0.116854  0.746849  1
  P  P5  1  0.883146  0.597867  0.746849  1
  P  P6  1  0.597867  0.714720  0.253151  1
  P  P7  1  0.285280  0.883146  0.253151  1
  P  P8  1  0.116854  0.402133  0.253151  1
  Rh  Rh9  1  0.453283  0.066125  0.748580  1
  Rh  Rh10  1  0.933875  0.387158  0.748580  1
  Rh  Rh11  1  0.612842  0.546717  0.748580  1
  Rh  Rh12  1  0.546717  0.933875  0.251420  1
  Rh  Rh13  1  0.066125  0.612842  0.251420  1
  Rh  Rh14  1  0.387158  0.453283  0.251420  1
  Rh  Rh15  1  0.161324  0.289498  0.754099  1
  Rh  Rh16  1  0.710502  0.871827  0.754099  1
  Rh  Rh17  1  0.128173  0.838676  0.754099  1
  Rh  Rh18  1  0.838676  0.710502  0.245901  1
  Rh  Rh19  1  0.289498  0.128173  0.245901  1
  Rh  Rh20  1  0.871827  0.161324  0.245901  1
