# generated using pymatgen
data_LiDy3S4
_symmetry_space_group_name_H-M   'P 1'
_cell_length_a   6.71546214
_cell_length_b   6.71546188
_cell_length_c   6.71546121
_cell_angle_alpha   131.75129560
_cell_angle_beta   131.75129570
_cell_angle_gamma   70.62211555
_symmetry_Int_Tables_number   1
_chemical_formula_structural   LiDy3S4
_chemical_formula_sum   'Li1 Dy3 S4'
_cell_volume   165.13534402
_cell_formula_units_Z   1
loop_
 _symmetry_equiv_pos_site_id
 _symmetry_equiv_pos_as_xyz
  1  'x, y, z'
loop_
 _atom_site_type_symbol
 _atom_site_label
 _atom_site_symmetry_multiplicity
 _atom_site_fract_x
 _atom_site_fract_y
 _atom_site_fract_z
 _atom_site_occupancy
  Li  Li0  1  0.750000  0.250000  0.500000  1
  Dy  Dy1  1  0.000000  0.000000  0.000000  1
  Dy  Dy2  1  0.250000  0.750000  0.500000  1
  Dy  Dy3  1  0.500000  0.500000  0.000000  1
  S  S4  1  0.506067  0.006067  0.500000  1
  S  S5  1  0.993933  0.493933  0.500000  1
  S  S6  1  0.749869  0.749869  0.000000  1
  S  S7  1  0.250131  0.250131  0.000000  1
