# generated using pymatgen
data_TbY(MnAl5)4
_symmetry_space_group_name_H-M   'P 1'
_cell_length_a   6.80146329
_cell_length_b   6.80136264
_cell_length_c   9.05203000
_cell_angle_alpha   89.99976197
_cell_angle_beta   90.00001493
_cell_angle_gamma   97.36733850
_symmetry_Int_Tables_number   1
_chemical_formula_structural   TbY(MnAl5)4
_chemical_formula_sum   'Tb1 Y1 Mn4 Al20'
_cell_volume   415.28289241
_cell_formula_units_Z   1
loop_
 _symmetry_equiv_pos_site_id
 _symmetry_equiv_pos_as_xyz
  1  'x, y, z'
loop_
 _atom_site_type_symbol
 _atom_site_label
 _atom_site_symmetry_multiplicity
 _atom_site_fract_x
 _atom_site_fract_y
 _atom_site_fract_z
 _atom_site_occupancy
  Tb  Tb0  1  0.126322  0.873664  0.249983  1
  Y  Y1  1  0.872973  0.126972  0.750004  1
  Mn  Mn2  1  0.500443  0.999993  0.999942  1
  Mn  Mn3  1  0.999966  0.499787  0.999963  1
  Mn  Mn4  1  0.500520  0.000001  0.500029  1
  Mn  Mn5  1  0.999959  0.500085  0.500131  1
  Al  Al6  1  0.412288  0.133723  0.750009  1
  Al  Al7  1  0.132808  0.411343  0.249985  1
  Al  Al8  1  0.588629  0.867197  0.249994  1
  Al  Al9  1  0.866259  0.587682  0.749987  1
  Al  Al10  1  0.523500  0.782132  0.750006  1
  Al  Al11  1  0.781845  0.523932  0.249998  1
  Al  Al12  1  0.476038  0.218127  0.249987  1
  Al  Al13  1  0.217839  0.476457  0.749998  1
  Al  Al14  1  0.843236  0.156665  0.403366  1
  Al  Al15  1  0.156959  0.842954  0.596798  1
  Al  Al16  1  0.843253  0.156695  0.096634  1
  Al  Al17  1  0.156991  0.843000  0.903184  1
  Al  Al18  1  0.625891  0.374069  0.955371  1
  Al  Al19  1  0.374082  0.625916  0.045866  1
  Al  Al20  1  0.625890  0.374055  0.544630  1
  Al  Al21  1  0.374060  0.625894  0.454135  1
  Al  Al22  1  0.770632  0.770535  0.999825  1
  Al  Al23  1  0.770665  0.770497  0.500174  1
  Al  Al24  1  0.229466  0.229321  0.999820  1
  Al  Al25  1  0.229482  0.229303  0.500182  1
