# generated using pymatgen
data_NaErPt3Rh
_symmetry_space_group_name_H-M   'P 1'
_cell_length_a   5.36268623
_cell_length_b   5.36268583
_cell_length_c   5.35457407
_cell_angle_alpha   59.94985977
_cell_angle_beta   59.94986432
_cell_angle_gamma   59.99999025
_symmetry_Int_Tables_number   1
_chemical_formula_structural   NaErPt3Rh
_chemical_formula_sum   'Na1 Er1 Pt3 Rh1'
_cell_volume   108.80406065
_cell_formula_units_Z   1
loop_
 _symmetry_equiv_pos_site_id
 _symmetry_equiv_pos_as_xyz
  1  'x, y, z'
loop_
 _atom_site_type_symbol
 _atom_site_label
 _atom_site_symmetry_multiplicity
 _atom_site_fract_x
 _atom_site_fract_y
 _atom_site_fract_z
 _atom_site_occupancy
  Na  Na0  1  0.250030  0.250030  0.249911  1
  Er  Er1  1  0.999932  0.999932  0.000204  1
  Pt  Pt2  1  0.624819  0.125528  0.624835  1
  Pt  Pt3  1  0.125528  0.624819  0.624835  1
  Pt  Pt4  1  0.624819  0.624819  0.624835  1
  Rh  Rh5  1  0.624873  0.624873  0.125382  1
