# generated using pymatgen
data_Pr3HoTmPb3
_symmetry_space_group_name_H-M   'P 1'
_cell_length_a   9.29303900
_cell_length_b   9.29303851
_cell_length_c   6.77245300
_cell_angle_alpha   90.00000000
_cell_angle_beta   90.00000000
_cell_angle_gamma   120.00000530
_symmetry_Int_Tables_number   1
_chemical_formula_structural   Pr3HoTmPb3
_chemical_formula_sum   'Pr6 Ho2 Tm2 Pb6'
_cell_volume   506.51475955
_cell_formula_units_Z   2
loop_
 _symmetry_equiv_pos_site_id
 _symmetry_equiv_pos_as_xyz
  1  'x, y, z'
loop_
 _atom_site_type_symbol
 _atom_site_label
 _atom_site_symmetry_multiplicity
 _atom_site_fract_x
 _atom_site_fract_y
 _atom_site_fract_z
 _atom_site_occupancy
  Pr  Pr0  1  0.240003  0.000000  0.250000  1
  Pr  Pr1  1  0.240003  0.240003  0.750000  1
  Pr  Pr2  1  0.000000  0.759997  0.750000  1
  Pr  Pr3  1  0.000000  0.240003  0.250000  1
  Pr  Pr4  1  0.759997  0.759997  0.250000  1
  Pr  Pr5  1  0.759997  0.000000  0.750000  1
  Ho  Ho6  1  0.666667  0.333333  0.000000  1
  Ho  Ho7  1  0.333333  0.666667  0.500000  1
  Tm  Tm8  1  0.333333  0.666667  0.000000  1
  Tm  Tm9  1  0.666667  0.333333  0.500000  1
  Pb  Pb10  1  0.600579  0.000000  0.250000  1
  Pb  Pb11  1  0.600579  0.600579  0.750000  1
  Pb  Pb12  1  0.000000  0.399421  0.750000  1
  Pb  Pb13  1  0.000000  0.600579  0.250000  1
  Pb  Pb14  1  0.399421  0.399421  0.250000  1
  Pb  Pb15  1  0.399421  0.000000  0.750000  1
