# generated using pymatgen
data_Ca7P12Pd17
_symmetry_space_group_name_H-M   'P 1'
_cell_length_a   12.40961163
_cell_length_b   12.40961155
_cell_length_c   13.60392435
_cell_angle_alpha   68.66297190
_cell_angle_beta   68.66297182
_cell_angle_gamma   18.64812440
_symmetry_Int_Tables_number   1
_chemical_formula_structural   Ca7P12Pd17
_chemical_formula_sum   'Ca7 P12 Pd17'
_cell_volume   622.68109412
_cell_formula_units_Z   1
loop_
 _symmetry_equiv_pos_site_id
 _symmetry_equiv_pos_as_xyz
  1  'x, y, z'
loop_
 _atom_site_type_symbol
 _atom_site_label
 _atom_site_symmetry_multiplicity
 _atom_site_fract_x
 _atom_site_fract_y
 _atom_site_fract_z
 _atom_site_occupancy
  Ca  Ca0  1  0.500000  0.500000  0.500000  1
  Ca  Ca1  1  0.366577  0.366577  0.000231  1
  Ca  Ca2  1  0.633423  0.633423  0.999769  1
  Ca  Ca3  1  0.235597  0.235597  0.311163  1
  Ca  Ca4  1  0.764403  0.764403  0.688837  1
  Ca  Ca5  1  0.417889  0.417889  0.260018  1
  Ca  Ca6  1  0.582111  0.582111  0.739982  1
  P  P7  1  0.061933  0.061933  0.925693  1
  P  P8  1  0.938067  0.938067  0.074307  1
  P  P9  1  0.887195  0.887195  0.826656  1
  P  P10  1  0.112805  0.112805  0.173344  1
  P  P11  1  0.188714  0.188714  0.621175  1
  P  P12  1  0.811286  0.811286  0.378825  1
  P  P13  1  0.364580  0.364580  0.582098  1
  P  P14  1  0.635420  0.635420  0.417902  1
  P  P15  1  0.011762  0.011762  0.672607  1
  P  P16  1  0.988238  0.988238  0.327393  1
  P  P17  1  0.232882  0.232882  0.880935  1
  P  P18  1  0.767118  0.767118  0.119065  1
  Pd  Pd19  1  0.839486  0.839486  0.191992  1
  Pd  Pd20  1  0.160514  0.160514  0.808008  1
  Pd  Pd21  1  0.026658  0.026658  0.122890  1
  Pd  Pd22  1  0.973342  0.973342  0.877110  1
  Pd  Pd23  1  0.888618  0.888618  0.454395  1
  Pd  Pd24  1  0.111382  0.111382  0.545605  1
  Pd  Pd25  1  0.500000  0.500000  0.000000  1
  Pd  Pd26  1  0.546441  0.546441  0.256459  1
  Pd  Pd27  1  0.453559  0.453559  0.743541  1
  Pd  Pd28  1  0.295040  0.295040  0.492221  1
  Pd  Pd29  1  0.704960  0.704960  0.507779  1
  Pd  Pd30  1  0.667081  0.667081  0.223111  1
  Pd  Pd31  1  0.332919  0.332919  0.776889  1
  Pd  Pd32  1  0.906816  0.906816  0.642692  1
  Pd  Pd33  1  0.093184  0.093184  0.357308  1
  Pd  Pd34  1  0.217387  0.217387  0.068528  1
  Pd  Pd35  1  0.782613  0.782613  0.931472  1
