# generated using pymatgen
data_Na4SrUO6
_symmetry_space_group_name_H-M   'P 1'
_cell_length_a   6.11251419
_cell_length_b   6.11251534
_cell_length_c   6.01162100
_cell_angle_alpha   100.39796014
_cell_angle_beta   100.39795259
_cell_angle_gamma   119.70956492
_symmetry_Int_Tables_number   1
_chemical_formula_structural   Na4SrUO6
_chemical_formula_sum   'Na4 Sr1 U1 O6'
_cell_volume   182.05150130
_cell_formula_units_Z   1
loop_
 _symmetry_equiv_pos_site_id
 _symmetry_equiv_pos_as_xyz
  1  'x, y, z'
loop_
 _atom_site_type_symbol
 _atom_site_label
 _atom_site_symmetry_multiplicity
 _atom_site_fract_x
 _atom_site_fract_y
 _atom_site_fract_z
 _atom_site_occupancy
  Na  Na0  1  0.499237  0.500763  0.000000  1
  Na  Na1  1  0.013092  0.986908  0.500000  1
  Na  Na2  1  0.658843  0.341158  0.500000  1
  Na  Na3  1  0.329970  0.670030  0.500000  1
  Sr  Sr4  1  0.833690  0.166311  0.000000  1
  U  U5  1  0.167055  0.832945  0.000000  1
  O  O6  1  0.955630  0.618868  0.207278  1
  O  O7  1  0.234402  0.188390  0.221815  1
  O  O8  1  0.526874  0.911564  0.220167  1
  O  O9  1  0.088436  0.473126  0.779833  1
  O  O10  1  0.811610  0.765598  0.778185  1
  O  O11  1  0.381133  0.044370  0.792722  1
