# generated using pymatgen
data_Lu3HfZn2Ir3
_symmetry_space_group_name_H-M   'P 1'
_cell_length_a   7.08371529
_cell_length_b   7.00008076
_cell_length_c   4.06223700
_cell_angle_alpha   90.00000000
_cell_angle_beta   90.00000000
_cell_angle_gamma   119.61020426
_symmetry_Int_Tables_number   1
_chemical_formula_structural   Lu3HfZn2Ir3
_chemical_formula_sum   'Lu3 Hf1 Zn2 Ir3'
_cell_volume   175.12675931
_cell_formula_units_Z   1
loop_
 _symmetry_equiv_pos_site_id
 _symmetry_equiv_pos_as_xyz
  1  'x, y, z'
loop_
 _atom_site_type_symbol
 _atom_site_label
 _atom_site_symmetry_multiplicity
 _atom_site_fract_x
 _atom_site_fract_y
 _atom_site_fract_z
 _atom_site_occupancy
  Lu  Lu0  1  0.000000  0.389351  0.500000  1
  Lu  Lu1  1  0.572112  0.583458  0.500000  1
  Lu  Lu2  1  0.427888  0.011347  0.500000  1
  Hf  Hf3  1  0.000000  0.758586  0.000000  1
  Zn  Zn4  1  0.253904  0.252313  0.000000  1
  Zn  Zn5  1  0.746096  0.998410  0.000000  1
  Ir  Ir6  1  0.326487  0.670768  0.000000  1
  Ir  Ir7  1  0.673513  0.344280  0.000000  1
  Ir  Ir8  1  0.000000  0.991487  0.500000  1
