# generated using pymatgen
data_Ac6SiHg7
_symmetry_space_group_name_H-M   'P 1'
_cell_length_a   8.93736540
_cell_length_b   8.93736581
_cell_length_c   8.93736583
_cell_angle_alpha   113.59282972
_cell_angle_beta   113.59282532
_cell_angle_gamma   113.59280764
_symmetry_Int_Tables_number   1
_chemical_formula_structural   Ac6SiHg7
_chemical_formula_sum   'Ac6 Si1 Hg7'
_cell_volume   446.51400843
_cell_formula_units_Z   1
loop_
 _symmetry_equiv_pos_site_id
 _symmetry_equiv_pos_as_xyz
  1  'x, y, z'
loop_
 _atom_site_type_symbol
 _atom_site_label
 _atom_site_symmetry_multiplicity
 _atom_site_fract_x
 _atom_site_fract_y
 _atom_site_fract_z
 _atom_site_occupancy
  Ac  Ac0  1  0.013043  0.379562  0.260340  1
  Ac  Ac1  1  0.379562  0.260340  0.013043  1
  Ac  Ac2  1  0.739660  0.986957  0.620438  1
  Ac  Ac3  1  0.260340  0.013043  0.379562  1
  Ac  Ac4  1  0.620438  0.739660  0.986957  1
  Ac  Ac5  1  0.986957  0.620438  0.739660  1
  Si  Si6  1  0.000000  0.000000  0.000000  1
  Hg  Hg7  1  0.500000  0.500000  0.500000  1
  Hg  Hg8  1  0.421586  0.913568  0.750329  1
  Hg  Hg9  1  0.913568  0.750329  0.421586  1
  Hg  Hg10  1  0.249671  0.578414  0.086432  1
  Hg  Hg11  1  0.750329  0.421586  0.913568  1
  Hg  Hg12  1  0.086432  0.249671  0.578414  1
  Hg  Hg13  1  0.578414  0.086432  0.249671  1
