# generated using pymatgen
data_Li4HoIn3O8
_symmetry_space_group_name_H-M   'P 1'
_cell_length_a   3.28417100
_cell_length_b   5.25718108
_cell_length_c   10.89903908
_cell_angle_alpha   90.45110567
_cell_angle_beta   90.00000000
_cell_angle_gamma   90.00000000
_symmetry_Int_Tables_number   1
_chemical_formula_structural   Li4HoIn3O8
_chemical_formula_sum   'Li4 Ho1 In3 O8'
_cell_volume   188.17132688
_cell_formula_units_Z   1
loop_
 _symmetry_equiv_pos_site_id
 _symmetry_equiv_pos_as_xyz
  1  'x, y, z'
loop_
 _atom_site_type_symbol
 _atom_site_label
 _atom_site_symmetry_multiplicity
 _atom_site_fract_x
 _atom_site_fract_y
 _atom_site_fract_z
 _atom_site_occupancy
  Li  Li0  1  0.250000  0.106759  0.563988  1
  Li  Li1  1  0.750000  0.902221  0.425271  1
  Li  Li2  1  0.750000  0.597207  0.934304  1
  Li  Li3  1  0.250000  0.402455  0.078643  1
  Ho  Ho4  1  0.250000  0.052352  0.859109  1
  In  In5  1  0.250000  0.452363  0.360162  1
  In  In6  1  0.750000  0.552392  0.636610  1
  In  In7  1  0.750000  0.948959  0.141081  1
  O  O8  1  0.250000  0.320261  0.705479  1
  O  O9  1  0.750000  0.675408  0.287584  1
  O  O10  1  0.750000  0.808292  0.790631  1
  O  O11  1  0.250000  0.172999  0.214762  1
  O  O12  1  0.250000  0.757951  0.029130  1
  O  O13  1  0.750000  0.242758  0.977538  1
  O  O14  1  0.750000  0.262284  0.471371  1
  O  O15  1  0.250000  0.745339  0.524338  1
