# generated using pymatgen
data_Ho3Tm5(Si4Mo3)4
_symmetry_space_group_name_H-M   'P 1'
_cell_length_a   6.74278511
_cell_length_b   6.93035711
_cell_length_c   12.88765986
_cell_angle_alpha   90.03076457
_cell_angle_beta   90.00211835
_cell_angle_gamma   90.01213552
_symmetry_Int_Tables_number   1
_chemical_formula_structural   Ho3Tm5(Si4Mo3)4
_chemical_formula_sum   'Ho3 Tm5 Si16 Mo12'
_cell_volume   602.23906790
_cell_formula_units_Z   1
loop_
 _symmetry_equiv_pos_site_id
 _symmetry_equiv_pos_as_xyz
  1  'x, y, z'
loop_
 _atom_site_type_symbol
 _atom_site_label
 _atom_site_symmetry_multiplicity
 _atom_site_fract_x
 _atom_site_fract_y
 _atom_site_fract_z
 _atom_site_occupancy
  Ho  Ho0  1  0.002840  0.832536  0.593587  1
  Ho  Ho1  1  0.497119  0.332618  0.406496  1
  Ho  Ho2  1  0.997145  0.167463  0.093506  1
  Tm  Tm3  1  0.496758  0.332342  0.093801  1
  Tm  Tm4  1  0.996747  0.167811  0.406094  1
  Tm  Tm5  1  0.503249  0.667804  0.593946  1
  Tm  Tm6  1  0.003236  0.832076  0.906022  1
  Tm  Tm7  1  0.503109  0.667862  0.906180  1
  Si  Si8  1  0.659394  0.040755  0.547176  1
  Si  Si9  1  0.160361  0.459705  0.952751  1
  Si  Si10  1  0.340875  0.958788  0.046945  1
  Si  Si11  1  0.840566  0.540794  0.452868  1
  Si  Si12  1  0.339951  0.958526  0.452875  1
  Si  Si13  1  0.839519  0.541650  0.046987  1
  Si  Si14  1  0.659583  0.040528  0.952716  1
  Si  Si15  1  0.160054  0.458587  0.547136  1
  Si  Si16  1  0.534329  0.367785  0.749967  1
  Si  Si17  1  0.034404  0.132593  0.750269  1
  Si  Si18  1  0.465601  0.632675  0.249703  1
  Si  Si19  1  0.965478  0.867263  0.250237  1
  Si  Si20  1  0.801549  0.630914  0.750354  1
  Si  Si21  1  0.302702  0.868659  0.750347  1
  Si  Si22  1  0.197749  0.369361  0.250064  1
  Si  Si23  1  0.697808  0.130748  0.249932  1
  Mo  Mo24  1  0.830043  0.334748  0.624897  1
  Mo  Mo25  1  0.330092  0.165360  0.875186  1
  Mo  Mo26  1  0.170052  0.665265  0.124738  1
  Mo  Mo27  1  0.670015  0.834608  0.375118  1
  Mo  Mo28  1  0.169804  0.665466  0.374802  1
  Mo  Mo29  1  0.669745  0.834451  0.124908  1
  Mo  Mo30  1  0.829773  0.334864  0.875007  1
  Mo  Mo31  1  0.330153  0.165387  0.625243  1
  Mo  Mo32  1  0.666061  0.997682  0.750099  1
  Mo  Mo33  1  0.166411  0.502371  0.750119  1
  Mo  Mo34  1  0.333839  0.002024  0.249983  1
  Mo  Mo35  1  0.833886  0.497931  0.249943  1
