# generated using pymatgen
data_CsBBr4
_symmetry_space_group_name_H-M   'P 1'
_cell_length_a   7.22182100
_cell_length_b   10.06168400
_cell_length_c   12.45849500
_cell_angle_alpha   90.00000000
_cell_angle_beta   90.00000000
_cell_angle_gamma   90.00000000
_symmetry_Int_Tables_number   1
_chemical_formula_structural   CsBBr4
_chemical_formula_sum   'Cs4 B4 Br16'
_cell_volume   905.28010401
_cell_formula_units_Z   4
loop_
 _symmetry_equiv_pos_site_id
 _symmetry_equiv_pos_as_xyz
  1  'x, y, z'
loop_
 _atom_site_type_symbol
 _atom_site_label
 _atom_site_symmetry_multiplicity
 _atom_site_fract_x
 _atom_site_fract_y
 _atom_site_fract_z
 _atom_site_occupancy
  Cs  Cs0  1  0.000000  0.161521  0.184202  1
  Cs  Cs1  1  0.500000  0.661521  0.315798  1
  Cs  Cs2  1  0.000000  0.338478  0.684203  1
  Cs  Cs3  1  0.500000  0.838479  0.815797  1
  B  B4  1  0.000000  0.707030  0.064280  1
  B  B5  1  0.500000  0.207031  0.435719  1
  B  B6  1  0.000000  0.792969  0.564279  1
  B  B7  1  0.500000  0.292970  0.935720  1
  Br  Br8  1  0.500000  0.367114  0.085951  1
  Br  Br9  1  0.229543  0.824843  0.085292  1
  Br  Br10  1  0.770457  0.824843  0.085292  1
  Br  Br11  1  0.000000  0.561412  0.177235  1
  Br  Br12  1  0.500000  0.061414  0.322764  1
  Br  Br13  1  0.270456  0.324843  0.414708  1
  Br  Br14  1  0.729547  0.324843  0.414708  1
  Br  Br15  1  0.000000  0.867115  0.414048  1
  Br  Br16  1  0.500000  0.132885  0.585950  1
  Br  Br17  1  0.229543  0.675157  0.585291  1
  Br  Br18  1  0.770457  0.675157  0.585291  1
  Br  Br19  1  0.000000  0.938586  0.677235  1
  Br  Br20  1  0.500000  0.438586  0.822765  1
  Br  Br21  1  0.270456  0.175155  0.914708  1
  Br  Br22  1  0.729547  0.175155  0.914708  1
  Br  Br23  1  0.000000  0.632885  0.914050  1
