# generated using pymatgen
data_Dy7LuHf6O24
_symmetry_space_group_name_H-M   'P 1'
_cell_length_a   6.34484761
_cell_length_b   6.43971263
_cell_length_c   12.82410361
_cell_angle_alpha   99.18363628
_cell_angle_beta   99.37885044
_cell_angle_gamma   99.31013623
_symmetry_Int_Tables_number   1
_chemical_formula_structural   Dy7LuHf6O24
_chemical_formula_sum   'Dy7 Lu1 Hf6 O24'
_cell_volume   500.77358082
_cell_formula_units_Z   1
loop_
 _symmetry_equiv_pos_site_id
 _symmetry_equiv_pos_as_xyz
  1  'x, y, z'
loop_
 _atom_site_type_symbol
 _atom_site_label
 _atom_site_symmetry_multiplicity
 _atom_site_fract_x
 _atom_site_fract_y
 _atom_site_fract_z
 _atom_site_occupancy
  Dy  Dy0  1  0.295418  0.610038  0.817105  1
  Dy  Dy1  1  0.385502  0.866045  0.596354  1
  Dy  Dy2  1  0.860573  0.695552  0.948278  1
  Dy  Dy3  1  0.309911  0.614997  0.318100  1
  Dy  Dy4  1  0.141411  0.304471  0.052726  1
  Dy  Dy5  1  0.704936  0.387485  0.182766  1
  Dy  Dy6  1  0.691012  0.388159  0.681771  1
  Lu  Lu7  1  0.611858  0.136424  0.405192  1
  Hf  Hf8  1  0.009887  0.008460  0.255537  1
  Hf  Hf9  1  0.396358  0.855101  0.091419  1
  Hf  Hf10  1  0.991170  0.992661  0.745846  1
  Hf  Hf11  1  0.850855  0.669275  0.447025  1
  Hf  Hf12  1  0.145865  0.328535  0.551078  1
  Hf  Hf13  1  0.606989  0.144918  0.906806  1
  O  O14  1  0.316085  0.968394  0.796604  1
  O  O15  1  0.083718  0.921664  0.097941  1
  O  O16  1  0.321540  0.955496  0.293378  1
  O  O17  1  0.023555  0.880234  0.589798  1
  O  O18  1  0.564856  0.833000  0.961464  1
  O  O19  1  0.593410  0.822083  0.460215  1
  O  O20  1  0.188737  0.594721  0.970985  1
  O  O21  1  0.928922  0.683151  0.778852  1
  O  O22  1  0.428719  0.588141  0.158433  1
  O  O23  1  0.170660  0.576288  0.465372  1
  O  O24  1  0.925505  0.700087  0.295119  1
  O  O25  1  0.571906  0.413338  0.842284  1
  O  O26  1  0.404645  0.565020  0.655909  1
  O  O27  1  0.071031  0.316843  0.221501  1
  O  O28  1  0.812435  0.403847  0.028726  1
  O  O29  1  0.594821  0.429778  0.344432  1
  O  O30  1  0.075042  0.298434  0.704086  1
  O  O31  1  0.826626  0.420942  0.533515  1
  O  O32  1  0.435736  0.166507  0.036926  1
  O  O33  1  0.408103  0.182543  0.535554  1
  O  O34  1  0.920769  0.076596  0.903934  1
  O  O35  1  0.683770  0.029842  0.201687  1
  O  O36  1  0.966996  0.117952  0.410061  1
  O  O37  1  0.680666  0.052978  0.713220  1
