# generated using pymatgen
data_KFe(CO3)2
_symmetry_space_group_name_H-M   'P 1'
_cell_length_a   12.54884702
_cell_length_b   12.54884705
_cell_length_c   12.54884740
_cell_angle_alpha   22.47864509
_cell_angle_beta   22.47864543
_cell_angle_gamma   22.47864162
_symmetry_Int_Tables_number   1
_chemical_formula_structural   KFe(CO3)2
_chemical_formula_sum   'K2 Fe2 C4 O12'
_cell_volume   253.37986499
_cell_formula_units_Z   2
loop_
 _symmetry_equiv_pos_site_id
 _symmetry_equiv_pos_as_xyz
  1  'x, y, z'
loop_
 _atom_site_type_symbol
 _atom_site_label
 _atom_site_symmetry_multiplicity
 _atom_site_fract_x
 _atom_site_fract_y
 _atom_site_fract_z
 _atom_site_occupancy
  K  K0  1  0.250000  0.250000  0.250000  1
  K  K1  1  0.750000  0.750000  0.750000  1
  Fe  Fe2  1  0.500000  0.500000  0.500000  1
  Fe  Fe3  1  0.000000  0.000000  0.000000  1
  C  C4  1  0.364562  0.364562  0.364562  1
  C  C5  1  0.864562  0.864562  0.864562  1
  C  C6  1  0.635438  0.635438  0.635438  1
  C  C7  1  0.135438  0.135438  0.135438  1
  O  O8  1  0.310723  0.653639  0.132060  1
  O  O9  1  0.132060  0.310723  0.653639  1
  O  O10  1  0.653639  0.132060  0.310723  1
  O  O11  1  0.632060  0.153639  0.810723  1
  O  O12  1  0.810723  0.632060  0.153639  1
  O  O13  1  0.153639  0.810723  0.632060  1
  O  O14  1  0.689277  0.346361  0.867940  1
  O  O15  1  0.867940  0.689277  0.346361  1
  O  O16  1  0.346361  0.867940  0.689277  1
  O  O17  1  0.367940  0.846361  0.189277  1
  O  O18  1  0.189277  0.367940  0.846361  1
  O  O19  1  0.846361  0.189277  0.367940  1
