# generated using pymatgen
data_Tb3DyBi3Sb
_symmetry_space_group_name_H-M   'P 1'
_cell_length_a   7.72942011
_cell_length_b   7.72941979
_cell_length_c   7.72942012
_cell_angle_alpha   131.80091746
_cell_angle_beta   131.80091462
_cell_angle_gamma   70.54364236
_symmetry_Int_Tables_number   1
_chemical_formula_structural   Tb3DyBi3Sb
_chemical_formula_sum   'Tb3 Dy1 Bi3 Sb1'
_cell_volume   251.43358063
_cell_formula_units_Z   1
loop_
 _symmetry_equiv_pos_site_id
 _symmetry_equiv_pos_as_xyz
  1  'x, y, z'
loop_
 _atom_site_type_symbol
 _atom_site_label
 _atom_site_symmetry_multiplicity
 _atom_site_fract_x
 _atom_site_fract_y
 _atom_site_fract_z
 _atom_site_occupancy
  Tb  Tb0  1  0.246726  0.246726  0.000000  1
  Tb  Tb1  1  0.499999  0.999999  0.500000  1
  Tb  Tb2  1  0.999999  0.499999  0.500000  1
  Dy  Dy3  1  0.753286  0.753286  0.000000  1
  Bi  Bi4  1  0.500065  0.500065  0.000000  1
  Bi  Bi5  1  0.750002  0.250002  0.500000  1
  Bi  Bi6  1  0.250002  0.750002  0.500000  1
  Sb  Sb7  1  0.999921  0.999921  0.000000  1
