# generated using pymatgen
data_Cs3Al2Sb3
_symmetry_space_group_name_H-M   'P 1'
_cell_length_a   6.68363200
_cell_length_b   8.71808426
_cell_length_c   11.91271152
_cell_angle_alpha   69.95773950
_cell_angle_beta   90.00000000
_cell_angle_gamma   90.00000000
_symmetry_Int_Tables_number   1
_chemical_formula_structural   Cs3Al2Sb3
_chemical_formula_sum   'Cs6 Al4 Sb6'
_cell_volume   652.09866195
_cell_formula_units_Z   2
loop_
 _symmetry_equiv_pos_site_id
 _symmetry_equiv_pos_as_xyz
  1  'x, y, z'
loop_
 _atom_site_type_symbol
 _atom_site_label
 _atom_site_symmetry_multiplicity
 _atom_site_fract_x
 _atom_site_fract_y
 _atom_site_fract_z
 _atom_site_occupancy
  Cs  Cs0  1  0.250000  0.432934  0.424868  1
  Cs  Cs1  1  0.750000  0.139047  0.915910  1
  Cs  Cs2  1  0.750000  0.467822  0.151295  1
  Cs  Cs3  1  0.250000  0.532178  0.848705  1
  Cs  Cs4  1  0.750000  0.567066  0.575132  1
  Cs  Cs5  1  0.250000  0.860953  0.084090  1
  Al  Al6  1  0.999401  0.027153  0.348240  1
  Al  Al7  1  0.499401  0.972847  0.651760  1
  Al  Al8  1  0.500599  0.027153  0.348240  1
  Al  Al9  1  0.000599  0.972847  0.651760  1
  Sb  Sb10  1  0.250000  0.821475  0.528445  1
  Sb  Sb11  1  0.750000  0.178525  0.471555  1
  Sb  Sb12  1  0.250000  0.235934  0.187182  1
  Sb  Sb13  1  0.750000  0.764066  0.812818  1
  Sb  Sb14  1  0.250000  0.144734  0.742301  1
  Sb  Sb15  1  0.750000  0.855266  0.257699  1
