# generated using pymatgen
data_Lu4TaRe2Os5
_symmetry_space_group_name_H-M   'P 1'
_cell_length_a   5.45180291
_cell_length_b   5.29515222
_cell_length_c   8.91756000
_cell_angle_alpha   90.00000000
_cell_angle_beta   90.00000000
_cell_angle_gamma   121.93186593
_symmetry_Int_Tables_number   1
_chemical_formula_structural   Lu4TaRe2Os5
_chemical_formula_sum   'Lu4 Ta1 Re2 Os5'
_cell_volume   218.47784603
_cell_formula_units_Z   1
loop_
 _symmetry_equiv_pos_site_id
 _symmetry_equiv_pos_as_xyz
  1  'x, y, z'
loop_
 _atom_site_type_symbol
 _atom_site_label
 _atom_site_symmetry_multiplicity
 _atom_site_fract_x
 _atom_site_fract_y
 _atom_site_fract_z
 _atom_site_occupancy
  Lu  Lu0  1  0.334548  0.663766  0.433509  1
  Lu  Lu1  1  0.668512  0.339489  0.560991  1
  Lu  Lu2  1  0.668512  0.339489  0.939009  1
  Lu  Lu3  1  0.334548  0.663766  0.066491  1
  Ta  Ta4  1  0.162895  0.329179  0.750000  1
  Re  Re5  1  0.340375  0.172677  0.250000  1
  Re  Re6  1  0.828536  0.664683  0.250000  1
  Os  Os7  1  0.175835  0.828700  0.750000  1
  Os  Os8  1  0.653149  0.828465  0.750000  1
  Os  Os9  1  0.005442  0.996852  0.002227  1
  Os  Os10  1  0.822204  0.176085  0.250000  1
  Os  Os11  1  0.005442  0.996852  0.497773  1
