# generated using pymatgen
data_Ce4HoEr3(ReC2)4
_symmetry_space_group_name_H-M   'P 1'
_cell_length_a   5.19153700
_cell_length_b   6.52637109
_cell_length_c   9.85663014
_cell_angle_alpha   90.01932688
_cell_angle_beta   90.00000000
_cell_angle_gamma   90.00000000
_symmetry_Int_Tables_number   1
_chemical_formula_structural   Ce4HoEr3(ReC2)4
_chemical_formula_sum   'Ce4 Ho1 Er3 Re4 C8'
_cell_volume   333.96130822
_cell_formula_units_Z   1
loop_
 _symmetry_equiv_pos_site_id
 _symmetry_equiv_pos_as_xyz
  1  'x, y, z'
loop_
 _atom_site_type_symbol
 _atom_site_label
 _atom_site_symmetry_multiplicity
 _atom_site_fract_x
 _atom_site_fract_y
 _atom_site_fract_z
 _atom_site_occupancy
  Ce  Ce0  1  0.250000  0.469069  0.782518  1
  Ce  Ce1  1  0.750000  0.030989  0.282635  1
  Ce  Ce2  1  0.250000  0.968950  0.717350  1
  Ce  Ce3  1  0.750000  0.530981  0.217402  1
  Ho  Ho4  1  0.750000  0.178824  0.947474  1
  Er  Er5  1  0.250000  0.821616  0.052855  1
  Er  Er6  1  0.750000  0.678379  0.552862  1
  Er  Er7  1  0.250000  0.321679  0.447181  1
  Re  Re8  1  0.250000  0.279137  0.134203  1
  Re  Re9  1  0.750000  0.220914  0.633934  1
  Re  Re10  1  0.250000  0.779087  0.365940  1
  Re  Re11  1  0.750000  0.720761  0.865896  1
  C  C12  1  0.250000  0.173615  0.947304  1
  C  C13  1  0.750000  0.826001  0.052814  1
  C  C14  1  0.250000  0.673571  0.552762  1
  C  C15  1  0.750000  0.326394  0.447229  1
  C  C16  1  0.250000  0.046411  0.259544  1
  C  C17  1  0.750000  0.453782  0.759319  1
  C  C18  1  0.250000  0.546411  0.240469  1
  C  C19  1  0.750000  0.953429  0.740309  1
