# generated using pymatgen
data_Ac5Sc(SnIr)6
_symmetry_space_group_name_H-M   'P 1'
_cell_length_a   7.61986681
_cell_length_b   7.66051076
_cell_length_c   8.59436900
_cell_angle_alpha   90.00000000
_cell_angle_beta   90.00000000
_cell_angle_gamma   120.18041237
_symmetry_Int_Tables_number   1
_chemical_formula_structural   Ac5Sc(SnIr)6
_chemical_formula_sum   'Ac5 Sc1 Sn6 Ir6'
_cell_volume   433.66795592
_cell_formula_units_Z   1
loop_
 _symmetry_equiv_pos_site_id
 _symmetry_equiv_pos_as_xyz
  1  'x, y, z'
loop_
 _atom_site_type_symbol
 _atom_site_label
 _atom_site_symmetry_multiplicity
 _atom_site_fract_x
 _atom_site_fract_y
 _atom_site_fract_z
 _atom_site_occupancy
  Ac  Ac0  1  0.420495  0.001497  0.250000  1
  Ac  Ac1  1  0.580684  0.581332  0.250000  1
  Ac  Ac2  1  0.413507  0.999701  0.750000  1
  Ac  Ac3  1  0.586360  0.586903  0.750000  1
  Ac  Ac4  1  0.999821  0.420763  0.750000  1
  Sc  Sc5  1  0.002959  0.397232  0.250000  1
  Sn  Sn6  1  0.760948  0.007392  0.002379  1
  Sn  Sn7  1  0.240804  0.246208  0.497966  1
  Sn  Sn8  1  0.999953  0.751367  0.485073  1
  Sn  Sn9  1  0.999953  0.751367  0.014927  1
  Sn  Sn10  1  0.240804  0.246208  0.002034  1
  Sn  Sn11  1  0.760948  0.007392  0.497621  1
  Ir  Ir12  1  0.309300  0.650209  0.014292  1
  Ir  Ir13  1  0.309300  0.650209  0.485708  1
  Ir  Ir14  1  0.686887  0.340290  0.011577  1
  Ir  Ir15  1  0.686887  0.340290  0.488423  1
  Ir  Ir16  1  0.000180  0.018009  0.250000  1
  Ir  Ir17  1  0.000210  0.003633  0.750000  1
