# generated using pymatgen
data_YTa2B2Ru5
_symmetry_space_group_name_H-M   'P 1'
_cell_length_a   9.56814039
_cell_length_b   9.56814052
_cell_length_c   3.09164600
_cell_angle_alpha   90.00000000
_cell_angle_beta   90.00000000
_cell_angle_gamma   89.33249342
_symmetry_Int_Tables_number   1
_chemical_formula_structural   YTa2B2Ru5
_chemical_formula_sum   'Y2 Ta4 B4 Ru10'
_cell_volume   283.01885576
_cell_formula_units_Z   2
loop_
 _symmetry_equiv_pos_site_id
 _symmetry_equiv_pos_as_xyz
  1  'x, y, z'
loop_
 _atom_site_type_symbol
 _atom_site_label
 _atom_site_symmetry_multiplicity
 _atom_site_fract_x
 _atom_site_fract_y
 _atom_site_fract_z
 _atom_site_occupancy
  Y  Y0  1  0.176370  0.176370  0.000000  1
  Y  Y1  1  0.823630  0.823630  0.000000  1
  Ta  Ta2  1  0.500000  0.000000  0.000000  1
  Ta  Ta3  1  0.000000  0.500000  0.000000  1
  Ta  Ta4  1  0.675831  0.324169  0.000000  1
  Ta  Ta5  1  0.324169  0.675831  0.000000  1
  B  B6  1  0.379756  0.379756  0.000000  1
  B  B7  1  0.620244  0.620244  0.000000  1
  B  B8  1  0.878753  0.121247  0.000000  1
  B  B9  1  0.121247  0.878753  0.000000  1
  Ru  Ru10  1  0.500000  0.500000  0.500000  1
  Ru  Ru11  1  0.000000  0.000000  0.500000  1
  Ru  Ru12  1  0.441449  0.223584  0.500000  1
  Ru  Ru13  1  0.558551  0.776416  0.500000  1
  Ru  Ru14  1  0.917408  0.285724  0.500000  1
  Ru  Ru15  1  0.082592  0.714276  0.500000  1
  Ru  Ru16  1  0.714276  0.082592  0.500000  1
  Ru  Ru17  1  0.285724  0.917408  0.500000  1
  Ru  Ru18  1  0.776416  0.558551  0.500000  1
  Ru  Ru19  1  0.223584  0.441449  0.500000  1
