# generated using pymatgen
data_Dy18Y2Cd6IrRu
_symmetry_space_group_name_H-M   'P 1'
_cell_length_a   9.62492600
_cell_length_b   9.62492507
_cell_length_c   9.86019800
_cell_angle_alpha   90.00000000
_cell_angle_beta   90.00000000
_cell_angle_gamma   119.99748927
_symmetry_Int_Tables_number   1
_chemical_formula_structural   Dy18Y2Cd6IrRu
_chemical_formula_sum   'Dy18 Y2 Cd6 Ir1 Ru1'
_cell_volume   791.08292568
_cell_formula_units_Z   1
loop_
 _symmetry_equiv_pos_site_id
 _symmetry_equiv_pos_as_xyz
  1  'x, y, z'
loop_
 _atom_site_type_symbol
 _atom_site_label
 _atom_site_symmetry_multiplicity
 _atom_site_fract_x
 _atom_site_fract_y
 _atom_site_fract_z
 _atom_site_occupancy
  Dy  Dy0  1  0.000002  0.999998  0.499644  1
  Dy  Dy1  1  0.000002  0.999998  0.000356  1
  Dy  Dy2  1  0.209575  0.790425  0.440610  1
  Dy  Dy3  1  0.209664  0.419128  0.440547  1
  Dy  Dy4  1  0.580872  0.790336  0.440547  1
  Dy  Dy5  1  0.790235  0.209765  0.560300  1
  Dy  Dy6  1  0.790118  0.580384  0.560192  1
  Dy  Dy7  1  0.419616  0.209882  0.560192  1
  Dy  Dy8  1  0.790235  0.209765  0.939700  1
  Dy  Dy9  1  0.790118  0.580384  0.939808  1
  Dy  Dy10  1  0.419616  0.209882  0.939808  1
  Dy  Dy11  1  0.209575  0.790425  0.059390  1
  Dy  Dy12  1  0.209664  0.419128  0.059453  1
  Dy  Dy13  1  0.580872  0.790336  0.059453  1
  Dy  Dy14  1  0.541219  0.458781  0.250000  1
  Dy  Dy15  1  0.458714  0.541286  0.750000  1
  Dy  Dy16  1  0.458690  0.917414  0.750000  1
  Dy  Dy17  1  0.082586  0.541310  0.750000  1
  Y  Y18  1  0.541368  0.082727  0.250000  1
  Y  Y19  1  0.917273  0.458632  0.250000  1
  Cd  Cd20  1  0.885429  0.114571  0.250000  1
  Cd  Cd21  1  0.885320  0.770755  0.250000  1
  Cd  Cd22  1  0.229245  0.114680  0.250000  1
  Cd  Cd23  1  0.114648  0.885352  0.750000  1
  Cd  Cd24  1  0.114621  0.229289  0.750000  1
  Cd  Cd25  1  0.770711  0.885379  0.750000  1
  Ir  Ir26  1  0.333367  0.666633  0.250000  1
  Ru  Ru27  1  0.666647  0.333353  0.750000  1
