# generated using pymatgen
data_Tb5Y2Tm13Pt16
_symmetry_space_group_name_H-M   'P 1'
_cell_length_a   7.43439203
_cell_length_b   7.50621753
_cell_length_c   14.60810705
_cell_angle_alpha   90.00400732
_cell_angle_beta   89.99357082
_cell_angle_gamma   89.96809861
_symmetry_Int_Tables_number   1
_chemical_formula_structural   Tb5Y2Tm13Pt16
_chemical_formula_sum   'Tb5 Y2 Tm13 Pt16'
_cell_volume   815.19306398
_cell_formula_units_Z   1
loop_
 _symmetry_equiv_pos_site_id
 _symmetry_equiv_pos_as_xyz
  1  'x, y, z'
loop_
 _atom_site_type_symbol
 _atom_site_label
 _atom_site_symmetry_multiplicity
 _atom_site_fract_x
 _atom_site_fract_y
 _atom_site_fract_z
 _atom_site_occupancy
  Tb  Tb0  1  0.498748  0.679424  0.093141  1
  Tb  Tb1  1  0.501520  0.320568  0.592907  1
  Tb  Tb2  1  0.001327  0.179371  0.907067  1
  Tb  Tb3  1  0.001025  0.178605  0.592661  1
  Tb  Tb4  1  0.501393  0.320672  0.907008  1
  Y  Y5  1  0.498682  0.679665  0.407055  1
  Y  Y6  1  0.998892  0.820518  0.092918  1
  Tm  Tm7  1  0.681199  0.989824  0.250350  1
  Tm  Tm8  1  0.180845  0.510389  0.250369  1
  Tm  Tm9  1  0.819040  0.489909  0.749864  1
  Tm  Tm10  1  0.319046  0.009985  0.749975  1
  Tm  Tm11  1  0.656162  0.832558  0.622450  1
  Tm  Tm12  1  0.156046  0.667609  0.877360  1
  Tm  Tm13  1  0.843939  0.332449  0.377469  1
  Tm  Tm14  1  0.343723  0.167436  0.122740  1
  Tm  Tm15  1  0.343243  0.167115  0.377607  1
  Tm  Tm16  1  0.844012  0.332346  0.122802  1
  Tm  Tm17  1  0.155542  0.668075  0.622231  1
  Tm  Tm18  1  0.656163  0.832362  0.877431  1
  Tm  Tm19  1  0.997589  0.819563  0.406711  1
  Pt  Pt20  1  0.817669  0.642514  0.251237  1
  Pt  Pt21  1  0.315699  0.858424  0.250434  1
  Pt  Pt22  1  0.683523  0.141659  0.749888  1
  Pt  Pt23  1  0.183549  0.358442  0.749865  1
  Pt  Pt24  1  0.546597  0.384527  0.250085  1
  Pt  Pt25  1  0.045955  0.114884  0.250602  1
  Pt  Pt26  1  0.953819  0.884191  0.749966  1
  Pt  Pt27  1  0.453750  0.615800  0.749906  1
  Pt  Pt28  1  0.818220  0.535145  0.541562  1
  Pt  Pt29  1  0.317907  0.965927  0.957983  1
  Pt  Pt30  1  0.684666  0.032400  0.457493  1
  Pt  Pt31  1  0.182058  0.466076  0.042085  1
  Pt  Pt32  1  0.181307  0.467957  0.457312  1
  Pt  Pt33  1  0.682040  0.034222  0.042014  1
  Pt  Pt34  1  0.317385  0.965393  0.541541  1
  Pt  Pt35  1  0.817720  0.533998  0.957912  1
