# generated using pymatgen
data_Ca4Sn3Sb3Rh7
_symmetry_space_group_name_H-M   'P 1'
_cell_length_a   7.63654157
_cell_length_b   7.64470064
_cell_length_c   7.63654105
_cell_angle_alpha   109.49287080
_cell_angle_beta   109.44956737
_cell_angle_gamma   109.49286808
_symmetry_Int_Tables_number   1
_chemical_formula_structural   Ca4Sn3Sb3Rh7
_chemical_formula_sum   'Ca4 Sn3 Sb3 Rh7'
_cell_volume   343.09617636
_cell_formula_units_Z   1
loop_
 _symmetry_equiv_pos_site_id
 _symmetry_equiv_pos_as_xyz
  1  'x, y, z'
loop_
 _atom_site_type_symbol
 _atom_site_label
 _atom_site_symmetry_multiplicity
 _atom_site_fract_x
 _atom_site_fract_y
 _atom_site_fract_z
 _atom_site_occupancy
  Ca  Ca0  1  0.505036  0.000819  0.000000  1
  Ca  Ca1  1  0.000000  0.485980  0.000000  1
  Ca  Ca2  1  0.000000  0.000819  0.505036  1
  Ca  Ca3  1  0.494964  0.495781  0.494964  1
  Sn  Sn4  1  0.308280  0.992944  0.308280  1
  Sn  Sn5  1  0.000000  0.684664  0.691720  1
  Sn  Sn6  1  0.691720  0.684664  0.000000  1
  Sb  Sb7  1  0.672051  0.994163  0.672051  1
  Sb  Sb8  1  0.000000  0.322111  0.327949  1
  Sb  Sb9  1  0.327949  0.322111  0.000000  1
  Rh  Rh10  1  0.254825  0.503694  0.754394  1
  Rh  Rh11  1  0.499568  0.248868  0.745175  1
  Rh  Rh12  1  0.745175  0.248868  0.499568  1
  Rh  Rh13  1  0.500432  0.749300  0.245606  1
  Rh  Rh14  1  0.000000  0.012222  0.000000  1
  Rh  Rh15  1  0.245606  0.749300  0.500432  1
  Rh  Rh16  1  0.754394  0.503694  0.254825  1
