# generated using pymatgen
data_Y5P12Ir9Ru10
_symmetry_space_group_name_H-M   'P 1'
_cell_length_a   12.62636311
_cell_length_b   12.58902032
_cell_length_c   3.96978500
_cell_angle_alpha   90.00000000
_cell_angle_beta   90.00000000
_cell_angle_gamma   119.82279658
_symmetry_Int_Tables_number   1
_chemical_formula_structural   Y5P12Ir9Ru10
_chemical_formula_sum   'Y5 P12 Ir9 Ru10'
_cell_volume   547.44506556
_cell_formula_units_Z   1
loop_
 _symmetry_equiv_pos_site_id
 _symmetry_equiv_pos_as_xyz
  1  'x, y, z'
loop_
 _atom_site_type_symbol
 _atom_site_label
 _atom_site_symmetry_multiplicity
 _atom_site_fract_x
 _atom_site_fract_y
 _atom_site_fract_z
 _atom_site_occupancy
  Y  Y0  1  0.667527  0.332484  0.000000  1
  Y  Y1  1  0.333327  0.666615  0.000000  1
  Y  Y2  1  0.812592  0.000951  0.500000  1
  Y  Y3  1  0.185430  0.187463  0.500000  1
  Y  Y4  1  0.000197  0.813681  0.500000  1
  P  P5  1  0.631441  0.997531  0.000000  1
  P  P6  1  0.365031  0.371092  0.000000  1
  P  P7  1  0.006204  0.635018  0.000000  1
  P  P8  1  0.689650  0.519425  0.500000  1
  P  P9  1  0.829684  0.306608  0.500000  1
  P  P10  1  0.312998  0.830168  0.500000  1
  P  P11  1  0.517184  0.686870  0.500000  1
  P  P12  1  0.181163  0.001540  0.000000  1
  P  P13  1  0.818710  0.818880  0.000000  1
  P  P14  1  0.996442  0.181441  0.000000  1
  P  P15  1  0.479992  0.168006  0.500000  1
  P  P16  1  0.170120  0.483263  0.500000  1
  Ir  Ir17  1  0.623903  0.804004  0.000000  1
  Ir  Ir18  1  0.180738  0.376513  0.000000  1
  Ir  Ir19  1  0.374735  0.184657  0.000000  1
  Ir  Ir20  1  0.195837  0.820924  0.000000  1
  Ir  Ir21  1  0.809872  0.625083  0.000000  1
  Ir  Ir22  1  0.868721  0.505216  0.500000  1
  Ir  Ir23  1  0.493886  0.361476  0.500000  1
  Ir  Ir24  1  0.636508  0.128050  0.500000  1
  Ir  Ir25  1  0.999444  0.000213  0.000000  1
  Ru  Ru26  1  0.127281  0.639888  0.500000  1
  Ru  Ru27  1  0.361563  0.488167  0.500000  1
  Ru  Ru28  1  0.510528  0.870972  0.500000  1
  Ru  Ru29  1  0.714773  0.713187  0.500000  1
  Ru  Ru30  1  0.000833  0.286353  0.500000  1
  Ru  Ru31  1  0.450702  0.001432  0.000000  1
  Ru  Ru32  1  0.551420  0.547256  0.000000  1
  Ru  Ru33  1  0.998854  0.450038  0.000000  1
  Ru  Ru34  1  0.816377  0.193737  0.000000  1
  Ru  Ru35  1  0.286332  0.001796  0.500000  1
