# generated using pymatgen
data_Th6Al24Fe5Ir3
_symmetry_space_group_name_H-M   'P 1'
_cell_length_a   8.89689400
_cell_length_b   8.89689344
_cell_length_c   9.42694800
_cell_angle_alpha   90.00000000
_cell_angle_beta   90.00000000
_cell_angle_gamma   120.00000950
_symmetry_Int_Tables_number   1
_chemical_formula_structural   Th6Al24Fe5Ir3
_chemical_formula_sum   'Th6 Al24 Fe5 Ir3'
_cell_volume   646.21719087
_cell_formula_units_Z   1
loop_
 _symmetry_equiv_pos_site_id
 _symmetry_equiv_pos_as_xyz
  1  'x, y, z'
loop_
 _atom_site_type_symbol
 _atom_site_label
 _atom_site_symmetry_multiplicity
 _atom_site_fract_x
 _atom_site_fract_y
 _atom_site_fract_z
 _atom_site_occupancy
  Th  Th0  1  0.805007  0.194993  0.745725  1
  Th  Th1  1  0.194993  0.805007  0.254275  1
  Th  Th2  1  0.389986  0.194993  0.745725  1
  Th  Th3  1  0.610014  0.805007  0.254275  1
  Th  Th4  1  0.805007  0.610014  0.745725  1
  Th  Th5  1  0.194993  0.389986  0.254275  1
  Al  Al6  1  0.666667  0.333333  0.989845  1
  Al  Al7  1  0.333333  0.666667  0.010155  1
  Al  Al8  1  0.333333  0.666667  0.492015  1
  Al  Al9  1  0.666667  0.333333  0.507985  1
  Al  Al10  1  0.839178  0.160822  0.423103  1
  Al  Al11  1  0.160822  0.839178  0.576897  1
  Al  Al12  1  0.321645  0.160822  0.423103  1
  Al  Al13  1  0.158674  0.841326  0.922124  1
  Al  Al14  1  0.678355  0.839178  0.576897  1
  Al  Al15  1  0.841326  0.158674  0.077876  1
  Al  Al16  1  0.839178  0.678355  0.423103  1
  Al  Al17  1  0.682651  0.841326  0.922124  1
  Al  Al18  1  0.160822  0.321645  0.576897  1
  Al  Al19  1  0.317349  0.158674  0.077876  1
  Al  Al20  1  0.158674  0.317349  0.922124  1
  Al  Al21  1  0.841326  0.682651  0.077876  1
  Al  Al22  1  0.437060  0.562940  0.744237  1
  Al  Al23  1  0.562940  0.437060  0.255763  1
  Al  Al24  1  0.125880  0.562940  0.744237  1
  Al  Al25  1  0.874120  0.437060  0.255763  1
  Al  Al26  1  0.437060  0.874120  0.744237  1
  Al  Al27  1  0.562940  0.125880  0.255763  1
  Al  Al28  1  0.000000  0.000000  0.749505  1
  Al  Al29  1  0.000000  0.000000  0.250495  1
  Fe  Fe30  1  0.500000  0.500000  0.500000  1
  Fe  Fe31  1  0.000000  0.500000  0.500000  1
  Fe  Fe32  1  0.500000  0.000000  0.500000  1
  Fe  Fe33  1  0.000000  0.000000  0.000000  1
  Fe  Fe34  1  0.000000  0.000000  0.500000  1
  Ir  Ir35  1  0.500000  0.500000  0.000000  1
  Ir  Ir36  1  0.000000  0.500000  0.000000  1
  Ir  Ir37  1  0.500000  0.000000  0.000000  1
