# generated using pymatgen
data_Lu8Tc3B24Ru
_symmetry_space_group_name_H-M   'P 1'
_cell_length_a   3.60957000
_cell_length_b   9.03877004
_cell_length_c   11.39710057
_cell_angle_alpha   89.92308499
_cell_angle_beta   90.00000000
_cell_angle_gamma   90.00000000
_symmetry_Int_Tables_number   1
_chemical_formula_structural   Lu8Tc3B24Ru
_chemical_formula_sum   'Lu8 Tc3 B24 Ru1'
_cell_volume   371.84230186
_cell_formula_units_Z   1
loop_
 _symmetry_equiv_pos_site_id
 _symmetry_equiv_pos_as_xyz
  1  'x, y, z'
loop_
 _atom_site_type_symbol
 _atom_site_label
 _atom_site_symmetry_multiplicity
 _atom_site_fract_x
 _atom_site_fract_y
 _atom_site_fract_z
 _atom_site_occupancy
  Lu  Lu0  1  0.000000  0.323367  0.413752  1
  Lu  Lu1  1  0.000000  0.675633  0.584239  1
  Lu  Lu2  1  0.000000  0.822530  0.087637  1
  Lu  Lu3  1  0.000000  0.178511  0.914184  1
  Lu  Lu4  1  0.000000  0.942983  0.370814  1
  Lu  Lu5  1  0.000000  0.057374  0.629925  1
  Lu  Lu6  1  0.000000  0.443503  0.129562  1
  Lu  Lu7  1  0.000000  0.557431  0.869828  1
  Tc  Tc8  1  0.000000  0.638728  0.320456  1
  Tc  Tc9  1  0.000000  0.361533  0.680341  1
  Tc  Tc10  1  0.000000  0.138325  0.178385  1
  B  B11  1  0.500000  0.552789  0.433629  1
  B  B12  1  0.500000  0.447024  0.566162  1
  B  B13  1  0.500000  0.052611  0.065848  1
  B  B14  1  0.500000  0.946135  0.933476  1
  B  B15  1  0.500000  0.749886  0.419842  1
  B  B16  1  0.500000  0.249522  0.580384  1
  B  B17  1  0.500000  0.250469  0.080056  1
  B  B18  1  0.500000  0.750071  0.919400  1
  B  B19  1  0.500000  0.793064  0.265181  1
  B  B20  1  0.500000  0.206983  0.735722  1
  B  B21  1  0.500000  0.293109  0.235044  1
  B  B22  1  0.500000  0.707974  0.764751  1
  B  B23  1  0.500000  0.630818  0.184522  1
  B  B24  1  0.500000  0.369153  0.816254  1
  B  B25  1  0.500000  0.130190  0.315125  1
  B  B26  1  0.500000  0.868973  0.684494  1
  B  B27  1  0.500000  0.980461  0.211777  1
  B  B28  1  0.500000  0.017829  0.788020  1
  B  B29  1  0.500000  0.480783  0.287909  1
  B  B30  1  0.500000  0.519141  0.711962  1
  B  B31  1  0.500000  0.601243  0.027803  1
  B  B32  1  0.500000  0.400783  0.972141  1
  B  B33  1  0.500000  0.100657  0.472218  1
  B  B34  1  0.500000  0.899342  0.528410  1
  Ru  Ru35  1  0.000000  0.861071  0.820749  1
