# generated using pymatgen
data_Tm2LuZrRu4
_symmetry_space_group_name_H-M   'P 1'
_cell_length_a   6.70419400
_cell_length_b   4.71028000
_cell_length_c   9.46796500
_cell_angle_alpha   90.00000000
_cell_angle_beta   90.00000000
_cell_angle_gamma   90.00000000
_symmetry_Int_Tables_number   1
_chemical_formula_structural   Tm2LuZrRu4
_chemical_formula_sum   'Tm4 Lu2 Zr2 Ru8'
_cell_volume   298.98537224
_cell_formula_units_Z   2
loop_
 _symmetry_equiv_pos_site_id
 _symmetry_equiv_pos_as_xyz
  1  'x, y, z'
loop_
 _atom_site_type_symbol
 _atom_site_label
 _atom_site_symmetry_multiplicity
 _atom_site_fract_x
 _atom_site_fract_y
 _atom_site_fract_z
 _atom_site_occupancy
  Tm  Tm0  1  0.249877  0.250000  0.125556  1
  Tm  Tm1  1  0.749878  0.750000  0.374444  1
  Tm  Tm2  1  0.250091  0.250000  0.624229  1
  Tm  Tm3  1  0.750090  0.750000  0.875772  1
  Lu  Lu4  1  0.750006  0.250000  0.124919  1
  Lu  Lu5  1  0.250007  0.750000  0.375080  1
  Zr  Zr6  1  0.750088  0.250000  0.625111  1
  Zr  Zr7  1  0.250087  0.750000  0.874888  1
  Ru  Ru8  1  0.495631  0.750000  0.120085  1
  Ru  Ru9  1  0.004181  0.750000  0.120146  1
  Ru  Ru10  1  0.504180  0.250000  0.379855  1
  Ru  Ru11  1  0.995631  0.250000  0.379915  1
  Ru  Ru12  1  0.996185  0.750000  0.628998  1
  Ru  Ru13  1  0.503942  0.750000  0.628987  1
  Ru  Ru14  1  0.003942  0.250000  0.871014  1
  Ru  Ru15  1  0.496184  0.250000  0.871002  1
