# generated using pymatgen
data_Sc5Tc4P12Ir2Rh13
_symmetry_space_group_name_H-M   'P 1'
_cell_length_a   12.59882840
_cell_length_b   12.48996494
_cell_length_c   3.88173300
_cell_angle_alpha   90.00000000
_cell_angle_beta   90.00000000
_cell_angle_gamma   119.83779252
_symmetry_Int_Tables_number   1
_chemical_formula_structural   Sc5Tc4P12Ir2Rh13
_chemical_formula_sum   'Sc5 Tc4 P12 Ir2 Rh13'
_cell_volume   529.85277364
_cell_formula_units_Z   1
loop_
 _symmetry_equiv_pos_site_id
 _symmetry_equiv_pos_as_xyz
  1  'x, y, z'
loop_
 _atom_site_type_symbol
 _atom_site_label
 _atom_site_symmetry_multiplicity
 _atom_site_fract_x
 _atom_site_fract_y
 _atom_site_fract_z
 _atom_site_occupancy
  Sc  Sc0  1  0.331669  0.663616  0.000000  1
  Sc  Sc1  1  0.667227  0.333543  0.000000  1
  Sc  Sc2  1  0.820158  0.001349  0.500000  1
  Sc  Sc3  1  0.000126  0.818423  0.500000  1
  Sc  Sc4  1  0.184452  0.187242  0.500000  1
  Tc  Tc5  1  0.451347  0.998043  0.000000  1
  Tc  Tc6  1  0.991970  0.448629  0.000000  1
  Tc  Tc7  1  0.550633  0.545655  0.000000  1
  Tc  Tc8  1  0.177700  0.378535  0.000000  1
  P  P9  1  0.177485  0.002191  0.000000  1
  P  P10  1  0.004984  0.181767  0.000000  1
  P  P11  1  0.823985  0.825953  0.000000  1
  P  P12  1  0.170004  0.481343  0.500000  1
  P  P13  1  0.516942  0.682624  0.500000  1
  P  P14  1  0.315967  0.831173  0.500000  1
  P  P15  1  0.682442  0.515540  0.500000  1
  P  P16  1  0.832463  0.317596  0.500000  1
  P  P17  1  0.483642  0.164794  0.500000  1
  P  P18  1  0.637458  0.999281  0.000000  1
  P  P19  1  0.000579  0.638720  0.000000  1
  P  P20  1  0.358000  0.362189  0.000000  1
  Ir  Ir21  1  0.717374  0.717732  0.500000  1
  Ir  Ir22  1  0.000703  0.000688  0.000000  1
  Rh  Rh23  1  0.362245  0.489524  0.500000  1
  Rh  Rh24  1  0.510181  0.866395  0.500000  1
  Rh  Rh25  1  0.130913  0.640804  0.500000  1
  Rh  Rh26  1  0.867223  0.513184  0.500000  1
  Rh  Rh27  1  0.642732  0.130936  0.500000  1
  Rh  Rh28  1  0.491216  0.354470  0.500000  1
  Rh  Rh29  1  0.626440  0.806256  0.000000  1
  Rh  Rh30  1  0.193894  0.820436  0.000000  1
  Rh  Rh31  1  0.809128  0.629824  0.000000  1
  Rh  Rh32  1  0.817062  0.190518  0.000000  1
  Rh  Rh33  1  0.373715  0.179818  0.000000  1
  Rh  Rh34  1  0.283749  0.999914  0.500000  1
  Rh  Rh35  1  0.994191  0.281297  0.500000  1
