# generated using pymatgen
data_Dy16In4NiOs3
_symmetry_space_group_name_H-M   'P 1'
_cell_length_a   9.68999316
_cell_length_b   9.58617650
_cell_length_c   9.68999300
_cell_angle_alpha   59.64109789
_cell_angle_beta   59.99999714
_cell_angle_gamma   59.64109885
_symmetry_Int_Tables_number   1
_chemical_formula_structural   Dy16In4NiOs3
_chemical_formula_sum   'Dy16 In4 Ni1 Os3'
_cell_volume   632.99453916
_cell_formula_units_Z   1
loop_
 _symmetry_equiv_pos_site_id
 _symmetry_equiv_pos_as_xyz
  1  'x, y, z'
loop_
 _atom_site_type_symbol
 _atom_site_label
 _atom_site_symmetry_multiplicity
 _atom_site_fract_x
 _atom_site_fract_y
 _atom_site_fract_z
 _atom_site_occupancy
  Dy  Dy0  1  0.690927  0.312026  0.306120  1
  Dy  Dy1  1  0.691759  0.689615  0.309313  1
  Dy  Dy2  1  0.309313  0.689615  0.309313  1
  Dy  Dy3  1  0.934176  0.945382  0.560222  1
  Dy  Dy4  1  0.152360  0.148770  0.546510  1
  Dy  Dy5  1  0.560222  0.945382  0.560222  1
  Dy  Dy6  1  0.152360  0.148770  0.152360  1
  Dy  Dy7  1  0.306120  0.312026  0.690927  1
  Dy  Dy8  1  0.941560  0.559705  0.557175  1
  Dy  Dy9  1  0.557175  0.559705  0.941560  1
  Dy  Dy10  1  0.560222  0.945382  0.934176  1
  Dy  Dy11  1  0.941560  0.559705  0.941560  1
  Dy  Dy12  1  0.152629  0.542110  0.152629  1
  Dy  Dy13  1  0.309313  0.689615  0.691759  1
  Dy  Dy14  1  0.690927  0.312026  0.690927  1
  Dy  Dy15  1  0.546510  0.148770  0.152360  1
  In  In16  1  0.917185  0.918712  0.246918  1
  In  In17  1  0.246918  0.918712  0.917185  1
  In  In18  1  0.917283  0.248153  0.917283  1
  In  In19  1  0.917185  0.918712  0.917185  1
  Ni  Ni20  1  0.359825  0.920525  0.359825  1
  Os  Os21  1  0.361374  0.355528  0.361374  1
  Os  Os22  1  0.921724  0.355528  0.361374  1
  Os  Os23  1  0.361374  0.355528  0.921724  1
