# generated using pymatgen
data_DyPa3Co3NiGe4
_symmetry_space_group_name_H-M   'P 1'
_cell_length_a   4.27574300
_cell_length_b   7.02352938
_cell_length_c   7.12877704
_cell_angle_alpha   89.64755362
_cell_angle_beta   90.00000000
_cell_angle_gamma   90.00000000
_symmetry_Int_Tables_number   1
_chemical_formula_structural   DyPa3Co3NiGe4
_chemical_formula_sum   'Dy1 Pa3 Co3 Ni1 Ge4'
_cell_volume   214.07887395
_cell_formula_units_Z   1
loop_
 _symmetry_equiv_pos_site_id
 _symmetry_equiv_pos_as_xyz
  1  'x, y, z'
loop_
 _atom_site_type_symbol
 _atom_site_label
 _atom_site_symmetry_multiplicity
 _atom_site_fract_x
 _atom_site_fract_y
 _atom_site_fract_z
 _atom_site_occupancy
  Dy  Dy0  1  0.750000  0.507099  0.287487  1
  Pa  Pa1  1  0.250000  0.989902  0.796616  1
  Pa  Pa2  1  0.250000  0.476039  0.714590  1
  Pa  Pa3  1  0.750000  0.009645  0.206377  1
  Co  Co4  1  0.250000  0.219100  0.431999  1
  Co  Co5  1  0.250000  0.748573  0.062111  1
  Co  Co6  1  0.750000  0.280549  0.917689  1
  Ni  Ni7  1  0.750000  0.804437  0.581121  1
  Ge  Ge8  1  0.250000  0.793176  0.409724  1
  Ge  Ge9  1  0.250000  0.293590  0.096025  1
  Ge  Ge10  1  0.750000  0.191069  0.585260  1
  Ge  Ge11  1  0.750000  0.686821  0.911001  1
