# generated using pymatgen
data_Sm15Ho(HgRh)4
_symmetry_space_group_name_H-M   'P 1'
_cell_length_a   9.77755341
_cell_length_b   9.77755245
_cell_length_c   9.76753900
_cell_angle_alpha   60.03386869
_cell_angle_beta   60.03387192
_cell_angle_gamma   59.85612704
_symmetry_Int_Tables_number   1
_chemical_formula_structural   Sm15Ho(HgRh)4
_chemical_formula_sum   'Sm15 Ho1 Hg4 Rh4'
_cell_volume   659.89939565
_cell_formula_units_Z   1
loop_
 _symmetry_equiv_pos_site_id
 _symmetry_equiv_pos_as_xyz
  1  'x, y, z'
loop_
 _atom_site_type_symbol
 _atom_site_label
 _atom_site_symmetry_multiplicity
 _atom_site_fract_x
 _atom_site_fract_y
 _atom_site_fract_z
 _atom_site_occupancy
  Sm  Sm0  1  0.937691  0.937691  0.562309  1
  Sm  Sm1  1  0.562367  0.562367  0.937633  1
  Sm  Sm2  1  0.691224  0.691224  0.308776  1
  Sm  Sm3  1  0.149280  0.552636  0.149041  1
  Sm  Sm4  1  0.689963  0.309672  0.690117  1
  Sm  Sm5  1  0.149855  0.149855  0.148031  1
  Sm  Sm6  1  0.552636  0.149280  0.149041  1
  Sm  Sm7  1  0.689963  0.309672  0.310247  1
  Sm  Sm8  1  0.149855  0.149855  0.552259  1
  Sm  Sm9  1  0.309672  0.689963  0.310247  1
  Sm  Sm10  1  0.309672  0.689963  0.690117  1
  Sm  Sm11  1  0.938775  0.560916  0.563428  1
  Sm  Sm12  1  0.938775  0.560916  0.936880  1
  Sm  Sm13  1  0.560916  0.938775  0.563428  1
  Sm  Sm14  1  0.560916  0.938775  0.936880  1
  Ho  Ho15  1  0.309207  0.309207  0.690793  1
  Hg  Hg16  1  0.915520  0.915520  0.252907  1
  Hg  Hg17  1  0.253881  0.916028  0.915045  1
  Hg  Hg18  1  0.915520  0.915520  0.916054  1
  Hg  Hg19  1  0.916028  0.253881  0.915045  1
  Rh  Rh20  1  0.356982  0.356982  0.924539  1
  Rh  Rh21  1  0.357398  0.926919  0.357840  1
  Rh  Rh22  1  0.926919  0.357398  0.357840  1
  Rh  Rh23  1  0.356982  0.356982  0.361496  1
