# generated using pymatgen
data_Dy3Tm17(Cd3Co)2
_symmetry_space_group_name_H-M   'P 1'
_cell_length_a   9.48980900
_cell_length_b   9.48980903
_cell_length_c   9.60998800
_cell_angle_alpha   90.00000000
_cell_angle_beta   90.00000000
_cell_angle_gamma   119.99999639
_symmetry_Int_Tables_number   1
_chemical_formula_structural   Dy3Tm17(Cd3Co)2
_chemical_formula_sum   'Dy3 Tm17 Cd6 Co2'
_cell_volume   749.49447806
_cell_formula_units_Z   1
loop_
 _symmetry_equiv_pos_site_id
 _symmetry_equiv_pos_as_xyz
  1  'x, y, z'
loop_
 _atom_site_type_symbol
 _atom_site_label
 _atom_site_symmetry_multiplicity
 _atom_site_fract_x
 _atom_site_fract_y
 _atom_site_fract_z
 _atom_site_occupancy
  Dy  Dy0  1  0.458189  0.541811  0.750000  1
  Dy  Dy1  1  0.458189  0.916377  0.750000  1
  Dy  Dy2  1  0.083623  0.541811  0.750000  1
  Tm  Tm3  1  0.000000  0.000000  0.499884  1
  Tm  Tm4  1  0.000000  0.000000  0.000116  1
  Tm  Tm5  1  0.542548  0.457452  0.250000  1
  Tm  Tm6  1  0.542548  0.085095  0.250000  1
  Tm  Tm7  1  0.914905  0.457452  0.250000  1
  Tm  Tm8  1  0.211562  0.788438  0.435598  1
  Tm  Tm9  1  0.211562  0.423125  0.435598  1
  Tm  Tm10  1  0.576875  0.788438  0.435598  1
  Tm  Tm11  1  0.787956  0.212044  0.562232  1
  Tm  Tm12  1  0.787956  0.575911  0.562232  1
  Tm  Tm13  1  0.424089  0.212044  0.562232  1
  Tm  Tm14  1  0.787956  0.212044  0.937768  1
  Tm  Tm15  1  0.787956  0.575911  0.937768  1
  Tm  Tm16  1  0.424089  0.212044  0.937768  1
  Tm  Tm17  1  0.211562  0.788438  0.064402  1
  Tm  Tm18  1  0.211562  0.423125  0.064402  1
  Tm  Tm19  1  0.576875  0.788438  0.064402  1
  Cd  Cd20  1  0.884663  0.115337  0.250000  1
  Cd  Cd21  1  0.884663  0.769325  0.250000  1
  Cd  Cd22  1  0.230675  0.115337  0.250000  1
  Cd  Cd23  1  0.114084  0.885916  0.750000  1
  Cd  Cd24  1  0.114084  0.228168  0.750000  1
  Cd  Cd25  1  0.771832  0.885916  0.750000  1
  Co  Co26  1  0.333333  0.666667  0.250000  1
  Co  Co27  1  0.666667  0.333333  0.750000  1
