# generated using pymatgen
data_Er3Th2Sn3C
_symmetry_space_group_name_H-M   'P 1'
_cell_length_a   9.14218500
_cell_length_b   9.07635267
_cell_length_c   6.51176600
_cell_angle_alpha   90.00000000
_cell_angle_beta   90.00000000
_cell_angle_gamma   120.24022075
_symmetry_Int_Tables_number   1
_chemical_formula_structural   Er3Th2Sn3C
_chemical_formula_sum   'Er6 Th4 Sn6 C2'
_cell_volume   466.80384438
_cell_formula_units_Z   2
loop_
 _symmetry_equiv_pos_site_id
 _symmetry_equiv_pos_as_xyz
  1  'x, y, z'
loop_
 _atom_site_type_symbol
 _atom_site_label
 _atom_site_symmetry_multiplicity
 _atom_site_fract_x
 _atom_site_fract_y
 _atom_site_fract_z
 _atom_site_occupancy
  Er  Er0  1  0.333274  0.666549  0.500000  1
  Er  Er1  1  0.666726  0.333451  0.500000  1
  Er  Er2  1  0.666726  0.333451  0.000000  1
  Er  Er3  1  0.333274  0.666549  0.000000  1
  Er  Er4  1  0.218241  0.000000  0.750000  1
  Er  Er5  1  0.781759  0.000000  0.250000  1
  Th  Th6  1  0.000490  0.220702  0.750000  1
  Th  Th7  1  0.999510  0.779298  0.250000  1
  Th  Th8  1  0.779787  0.779298  0.750000  1
  Th  Th9  1  0.220213  0.220702  0.250000  1
  Sn  Sn10  1  0.590278  0.000000  0.750000  1
  Sn  Sn11  1  0.409722  0.000000  0.250000  1
  Sn  Sn12  1  0.003104  0.597689  0.750000  1
  Sn  Sn13  1  0.996896  0.402311  0.250000  1
  Sn  Sn14  1  0.405416  0.402311  0.750000  1
  Sn  Sn15  1  0.594584  0.597689  0.250000  1
  C  C16  1  0.000000  0.000000  0.500000  1
  C  C17  1  0.000000  0.000000  0.000000  1
