# generated using pymatgen
data_Tb2Tm2Pd3PtF28
_symmetry_space_group_name_H-M   'P 1'
_cell_length_a   5.50783796
_cell_length_b   8.82379570
_cell_length_c   11.91217680
_cell_angle_alpha   62.49291925
_cell_angle_beta   90.10875236
_cell_angle_gamma   90.03653567
_symmetry_Int_Tables_number   1
_chemical_formula_structural   Tb2Tm2Pd3PtF28
_chemical_formula_sum   'Tb2 Tm2 Pd3 Pt1 F28'
_cell_volume   513.48517798
_cell_formula_units_Z   1
loop_
 _symmetry_equiv_pos_site_id
 _symmetry_equiv_pos_as_xyz
  1  'x, y, z'
loop_
 _atom_site_type_symbol
 _atom_site_label
 _atom_site_symmetry_multiplicity
 _atom_site_fract_x
 _atom_site_fract_y
 _atom_site_fract_z
 _atom_site_occupancy
  Tb  Tb0  1  0.761673  0.185635  0.235570  1
  Tb  Tb1  1  0.238122  0.814855  0.765379  1
  Tm  Tm2  1  0.261760  0.812613  0.263715  1
  Tm  Tm3  1  0.737240  0.186443  0.736199  1
  Pd  Pd4  1  0.758912  0.729254  0.044104  1
  Pd  Pd5  1  0.240613  0.270573  0.956037  1
  Pd  Pd6  1  0.259609  0.274530  0.457826  1
  Pt  Pt7  1  0.741292  0.725563  0.541997  1
  F  F8  1  0.937451  0.701655  0.413461  1
  F  F9  1  0.064578  0.298229  0.584856  1
  F  F10  1  0.434660  0.295997  0.082686  1
  F  F11  1  0.565308  0.703906  0.917251  1
  F  F12  1  0.465709  0.727421  0.135980  1
  F  F13  1  0.533686  0.272991  0.863553  1
  F  F14  1  0.967217  0.276365  0.365486  1
  F  F15  1  0.036952  0.725268  0.634345  1
  F  F16  1  0.949691  0.746896  0.175976  1
  F  F17  1  0.049501  0.252869  0.823988  1
  F  F18  1  0.446682  0.256846  0.325164  1
  F  F19  1  0.552376  0.743855  0.675471  1
  F  F20  1  0.773025  0.481099  0.142123  1
  F  F21  1  0.226089  0.518836  0.858168  1
  F  F22  1  0.276272  0.522830  0.357767  1
  F  F23  1  0.728018  0.474919  0.641981  1
  F  F24  1  0.941699  0.278955  0.040445  1
  F  F25  1  0.058282  0.720698  0.960020  1
  F  F26  1  0.437174  0.720125  0.455979  1
  F  F27  1  0.560712  0.279502  0.543679  1
  F  F28  1  0.744161  0.975697  0.449617  1
  F  F29  1  0.254861  0.026697  0.549915  1
  F  F30  1  0.243913  0.022790  0.049669  1
  F  F31  1  0.756215  0.977037  0.950292  1
  F  F32  1  0.581921  0.966075  0.232747  1
  F  F33  1  0.416481  0.034105  0.768393  1
  F  F34  1  0.088797  0.025600  0.268145  1
  F  F35  1  0.909348  0.973270  0.732017  1
