# generated using pymatgen
data_GdGa2Au5
_symmetry_space_group_name_H-M   'P 1'
_cell_length_a   7.35026500
_cell_length_b   8.77101300
_cell_length_c   9.84943000
_cell_angle_alpha   90.00000000
_cell_angle_beta   90.00000000
_cell_angle_gamma   90.00000000
_symmetry_Int_Tables_number   1
_chemical_formula_structural   GdGa2Au5
_chemical_formula_sum   'Gd4 Ga8 Au20'
_cell_volume   634.98556072
_cell_formula_units_Z   4
loop_
 _symmetry_equiv_pos_site_id
 _symmetry_equiv_pos_as_xyz
  1  'x, y, z'
loop_
 _atom_site_type_symbol
 _atom_site_label
 _atom_site_symmetry_multiplicity
 _atom_site_fract_x
 _atom_site_fract_y
 _atom_site_fract_z
 _atom_site_occupancy
  Gd  Gd0  1  0.250000  0.253514  0.125020  1
  Gd  Gd1  1  0.250000  0.753514  0.374980  1
  Gd  Gd2  1  0.750000  0.746486  0.874980  1
  Gd  Gd3  1  0.750000  0.246486  0.625020  1
  Ga  Ga4  1  0.250000  0.040098  0.609217  1
  Ga  Ga5  1  0.250000  0.540098  0.890783  1
  Ga  Ga6  1  0.750000  0.959902  0.390783  1
  Ga  Ga7  1  0.750000  0.459902  0.109217  1
  Ga  Ga8  1  0.250000  0.355749  0.480562  1
  Ga  Ga9  1  0.250000  0.855749  0.019438  1
  Ga  Ga10  1  0.750000  0.644251  0.519438  1
  Ga  Ga11  1  0.750000  0.144251  0.980562  1
  Au  Au12  1  0.060067  0.106078  0.388313  1
  Au  Au13  1  0.439933  0.606078  0.111687  1
  Au  Au14  1  0.560067  0.893922  0.611687  1
  Au  Au15  1  0.939933  0.393922  0.888313  1
  Au  Au16  1  0.939933  0.893922  0.611687  1
  Au  Au17  1  0.560067  0.393922  0.888313  1
  Au  Au18  1  0.439933  0.106078  0.388313  1
  Au  Au19  1  0.060067  0.606078  0.111687  1
  Au  Au20  1  0.033524  0.053480  0.861229  1
  Au  Au21  1  0.466476  0.553480  0.638771  1
  Au  Au22  1  0.533524  0.946520  0.138771  1
  Au  Au23  1  0.966476  0.446520  0.361229  1
  Au  Au24  1  0.966476  0.946520  0.138771  1
  Au  Au25  1  0.533524  0.446520  0.361229  1
  Au  Au26  1  0.466476  0.053480  0.861229  1
  Au  Au27  1  0.033524  0.553480  0.638771  1
  Au  Au28  1  0.250000  0.290238  0.737279  1
  Au  Au29  1  0.250000  0.790238  0.762721  1
  Au  Au30  1  0.750000  0.709762  0.262721  1
  Au  Au31  1  0.750000  0.209762  0.237279  1
