# generated using pymatgen
data_Tb5Nd5In8Pd3Ru
_symmetry_space_group_name_H-M   'P 1'
_cell_length_a   8.26959775
_cell_length_b   18.55312573
_cell_length_c   3.70370900
_cell_angle_alpha   90.00000000
_cell_angle_beta   90.00000000
_cell_angle_gamma   89.92247167
_symmetry_Int_Tables_number   1
_chemical_formula_structural   Tb5Nd5In8Pd3Ru
_chemical_formula_sum   'Tb5 Nd5 In8 Pd3 Ru1'
_cell_volume   568.24802139
_cell_formula_units_Z   1
loop_
 _symmetry_equiv_pos_site_id
 _symmetry_equiv_pos_as_xyz
  1  'x, y, z'
loop_
 _atom_site_type_symbol
 _atom_site_label
 _atom_site_symmetry_multiplicity
 _atom_site_fract_x
 _atom_site_fract_y
 _atom_site_fract_z
 _atom_site_occupancy
  Tb  Tb0  1  0.254182  0.218824  0.000000  1
  Tb  Tb1  1  0.615983  0.090048  0.000000  1
  Tb  Tb2  1  0.379925  0.917221  0.000000  1
  Tb  Tb3  1  0.879431  0.582883  0.000000  1
  Tb  Tb4  1  0.121837  0.413174  0.000000  1
  Nd  Nd5  1  0.500677  0.498209  0.000000  1
  Nd  Nd6  1  0.998231  0.001542  0.000000  1
  Nd  Nd7  1  0.729342  0.279464  0.000000  1
  Nd  Nd8  1  0.259856  0.716134  0.000000  1
  Nd  Nd9  1  0.759224  0.782888  0.000000  1
  In  In10  1  0.699657  0.935150  0.500000  1
  In  In11  1  0.299446  0.069637  0.500000  1
  In  In12  1  0.802515  0.433211  0.500000  1
  In  In13  1  0.198196  0.563647  0.500000  1
  In  In14  1  0.582401  0.650917  0.500000  1
  In  In15  1  0.419907  0.347537  0.500000  1
  In  In16  1  0.927435  0.152386  0.500000  1
  In  In17  1  0.082412  0.849142  0.500000  1
  Pd  Pd18  1  0.473253  0.807026  0.500000  1
  Pd  Pd19  1  0.974106  0.692814  0.500000  1
  Pd  Pd20  1  0.028981  0.303250  0.500000  1
  Ru  Ru21  1  0.513003  0.194894  0.500000  1
