# generated using pymatgen
data_HoZr2PtF15
_symmetry_space_group_name_H-M   'P 1'
_cell_length_a   8.14036263
_cell_length_b   8.14036152
_cell_length_c   8.12805134
_cell_angle_alpha   79.84058911
_cell_angle_beta   79.84058581
_cell_angle_gamma   99.96988132
_symmetry_Int_Tables_number   1
_chemical_formula_structural   HoZr2PtF15
_chemical_formula_sum   'Ho2 Zr4 Pt2 F30'
_cell_volume   510.12522984
_cell_formula_units_Z   2
loop_
 _symmetry_equiv_pos_site_id
 _symmetry_equiv_pos_as_xyz
  1  'x, y, z'
loop_
 _atom_site_type_symbol
 _atom_site_label
 _atom_site_symmetry_multiplicity
 _atom_site_fract_x
 _atom_site_fract_y
 _atom_site_fract_z
 _atom_site_occupancy
  Ho  Ho0  1  0.677374  0.322626  0.750000  1
  Ho  Ho1  1  0.322626  0.677374  0.250000  1
  Zr  Zr2  1  0.822776  0.752324  0.327446  1
  Zr  Zr3  1  0.247676  0.177224  0.172554  1
  Zr  Zr4  1  0.177224  0.247676  0.672554  1
  Zr  Zr5  1  0.752324  0.822776  0.827446  1
  Pt  Pt6  1  0.250039  0.749961  0.750000  1
  Pt  Pt7  1  0.749961  0.250039  0.250000  1
  F  F8  1  0.150327  0.186019  0.944679  1
  F  F9  1  0.688542  0.564737  0.846117  1
  F  F10  1  0.040754  0.656649  0.314081  1
  F  F11  1  0.656649  0.040754  0.814081  1
  F  F12  1  0.564737  0.688542  0.346117  1
  F  F13  1  0.186019  0.150327  0.444679  1
  F  F14  1  0.849673  0.813981  0.055321  1
  F  F15  1  0.311458  0.435263  0.153883  1
  F  F16  1  0.959246  0.343351  0.685919  1
  F  F17  1  0.343351  0.959246  0.185919  1
  F  F18  1  0.435263  0.311458  0.653883  1
  F  F19  1  0.813981  0.849673  0.555321  1
  F  F20  1  0.970445  0.029555  0.750000  1
  F  F21  1  0.542770  0.753180  0.026955  1
  F  F22  1  0.246820  0.457230  0.473045  1
  F  F23  1  0.457230  0.246820  0.973045  1
  F  F24  1  0.753180  0.542770  0.526955  1
  F  F25  1  0.029555  0.970445  0.250000  1
  F  F26  1  0.214121  0.725885  0.999863  1
  F  F27  1  0.226170  0.499462  0.789543  1
  F  F28  1  0.997894  0.713299  0.776534  1
  F  F29  1  0.713299  0.997894  0.276534  1
  F  F30  1  0.499462  0.226170  0.289543  1
  F  F31  1  0.725885  0.214121  0.499863  1
  F  F32  1  0.785879  0.274115  0.000137  1
  F  F33  1  0.773830  0.500538  0.210457  1
  F  F34  1  0.002106  0.286701  0.223466  1
  F  F35  1  0.286701  0.002106  0.723466  1
  F  F36  1  0.500538  0.773830  0.710457  1
  F  F37  1  0.274115  0.785879  0.500137  1
