# generated using pymatgen
data_NaPr5DyIrI12
_symmetry_space_group_name_H-M   'P 1'
_cell_length_a   10.04295469
_cell_length_b   10.13457745
_cell_length_c   10.03393370
_cell_angle_alpha   107.33074088
_cell_angle_beta   107.14251183
_cell_angle_gamma   106.75183374
_symmetry_Int_Tables_number   1
_chemical_formula_structural   NaPr5DyIrI12
_chemical_formula_sum   'Na1 Pr5 Dy1 Ir1 I12'
_cell_volume   848.75493712
_cell_formula_units_Z   1
loop_
 _symmetry_equiv_pos_site_id
 _symmetry_equiv_pos_as_xyz
  1  'x, y, z'
loop_
 _atom_site_type_symbol
 _atom_site_label
 _atom_site_symmetry_multiplicity
 _atom_site_fract_x
 _atom_site_fract_y
 _atom_site_fract_z
 _atom_site_occupancy
  Na  Na0  1  0.500059  0.500132  0.500004  1
  Pr  Pr1  1  0.305443  0.030787  0.102500  1
  Pr  Pr2  1  0.031575  0.104830  0.307157  1
  Pr  Pr3  1  0.969740  0.899441  0.694025  1
  Pr  Pr4  1  0.695185  0.970695  0.897599  1
  Pr  Pr5  1  0.893703  0.682325  0.968150  1
  Dy  Dy6  1  0.104092  0.308500  0.032018  1
  Ir  Ir7  1  0.000941  0.002094  0.001048  1
  I  I8  1  0.225285  0.677791  0.075134  1
  I  I9  1  0.447167  0.377626  0.145386  1
  I  I10  1  0.683065  0.076392  0.227646  1
  I  I11  1  0.924831  0.775707  0.317961  1
  I  I12  1  0.148793  0.456283  0.368915  1
  I  I13  1  0.379379  0.150337  0.459138  1
  I  I14  1  0.620486  0.849610  0.540974  1
  I  I15  1  0.850680  0.543184  0.620667  1
  I  I16  1  0.077067  0.230029  0.691650  1
  I  I17  1  0.316990  0.923727  0.772516  1
  I  I18  1  0.541798  0.622914  0.850160  1
  I  I19  1  0.783727  0.317596  0.927356  1
