# generated using pymatgen
data_Na2U(Co3As2)3
_symmetry_space_group_name_H-M   'P 1'
_cell_length_a   3.74275500
_cell_length_b   11.06446000
_cell_length_c   12.41888500
_cell_angle_alpha   90.00000000
_cell_angle_beta   90.00000000
_cell_angle_gamma   90.00000000
_symmetry_Int_Tables_number   1
_chemical_formula_structural   Na2U(Co3As2)3
_chemical_formula_sum   'Na4 U2 Co18 As12'
_cell_volume   514.28543841
_cell_formula_units_Z   2
loop_
 _symmetry_equiv_pos_site_id
 _symmetry_equiv_pos_as_xyz
  1  'x, y, z'
loop_
 _atom_site_type_symbol
 _atom_site_label
 _atom_site_symmetry_multiplicity
 _atom_site_fract_x
 _atom_site_fract_y
 _atom_site_fract_z
 _atom_site_occupancy
  Na  Na0  1  0.250000  0.929635  0.796725  1
  Na  Na1  1  0.250000  0.570365  0.796725  1
  Na  Na2  1  0.750000  0.070365  0.203275  1
  Na  Na3  1  0.750000  0.429635  0.203275  1
  U  U4  1  0.750000  0.250000  0.462226  1
  U  U5  1  0.250000  0.750000  0.537774  1
  Co  Co6  1  0.250000  0.250000  0.844251  1
  Co  Co7  1  0.750000  0.750000  0.155749  1
  Co  Co8  1  0.250000  0.250000  0.313234  1
  Co  Co9  1  0.750000  0.750000  0.686766  1
  Co  Co10  1  0.750000  0.250000  0.010461  1
  Co  Co11  1  0.250000  0.750000  0.989539  1
  Co  Co12  1  0.250000  0.417255  0.005124  1
  Co  Co13  1  0.250000  0.082745  0.005124  1
  Co  Co14  1  0.750000  0.582745  0.994876  1
  Co  Co15  1  0.750000  0.917255  0.994876  1
  Co  Co16  1  0.250000  0.445468  0.564437  1
  Co  Co17  1  0.250000  0.054532  0.564437  1
  Co  Co18  1  0.750000  0.554532  0.435563  1
  Co  Co19  1  0.750000  0.945468  0.435563  1
  Co  Co20  1  0.250000  0.866509  0.294419  1
  Co  Co21  1  0.250000  0.633491  0.294419  1
  Co  Co22  1  0.750000  0.133491  0.705581  1
  Co  Co23  1  0.750000  0.366509  0.705581  1
  As  As24  1  0.250000  0.250000  0.120991  1
  As  As25  1  0.750000  0.750000  0.879009  1
  As  As26  1  0.250000  0.250000  0.651539  1
  As  As27  1  0.750000  0.750000  0.348461  1
  As  As28  1  0.250000  0.445954  0.377450  1
  As  As29  1  0.250000  0.054046  0.377450  1
  As  As30  1  0.750000  0.554046  0.622550  1
  As  As31  1  0.750000  0.945954  0.622550  1
  As  As32  1  0.250000  0.905139  0.110990  1
  As  As33  1  0.250000  0.594861  0.110990  1
  As  As34  1  0.750000  0.094861  0.889010  1
  As  As35  1  0.750000  0.405139  0.889010  1
