# generated using pymatgen
data_Nd16Mg3Hg(OsPt)2
_symmetry_space_group_name_H-M   'P 1'
_cell_length_a   10.01387204
_cell_length_b   10.01387217
_cell_length_c   10.09720060
_cell_angle_alpha   59.90453703
_cell_angle_beta   59.90453599
_cell_angle_gamma   59.84457519
_symmetry_Int_Tables_number   1
_chemical_formula_structural   Nd16Mg3Hg(OsPt)2
_chemical_formula_sum   'Nd16 Mg3 Hg1 Os2 Pt2'
_cell_volume   714.08620702
_cell_formula_units_Z   1
loop_
 _symmetry_equiv_pos_site_id
 _symmetry_equiv_pos_as_xyz
  1  'x, y, z'
loop_
 _atom_site_type_symbol
 _atom_site_label
 _atom_site_symmetry_multiplicity
 _atom_site_fract_x
 _atom_site_fract_y
 _atom_site_fract_z
 _atom_site_occupancy
  Nd  Nd0  1  0.346676  0.346676  0.351499  1
  Nd  Nd1  1  0.347941  0.347941  0.952561  1
  Nd  Nd2  1  0.343149  0.960543  0.348282  1
  Nd  Nd3  1  0.960543  0.343149  0.348282  1
  Nd  Nd4  1  0.815963  0.187747  0.188962  1
  Nd  Nd5  1  0.187993  0.814601  0.803991  1
  Nd  Nd6  1  0.187747  0.815963  0.188962  1
  Nd  Nd7  1  0.814601  0.187993  0.803991  1
  Nd  Nd8  1  0.188028  0.188028  0.811397  1
  Nd  Nd9  1  0.806526  0.806526  0.192704  1
  Nd  Nd10  1  0.936371  0.556050  0.565585  1
  Nd  Nd11  1  0.555576  0.937612  0.940050  1
  Nd  Nd12  1  0.556050  0.936371  0.565585  1
  Nd  Nd13  1  0.937612  0.555576  0.940050  1
  Nd  Nd14  1  0.561537  0.561537  0.936428  1
  Nd  Nd15  1  0.937920  0.937920  0.559976  1
  Mg  Mg16  1  0.578684  0.578684  0.267347  1
  Mg  Mg17  1  0.579942  0.265334  0.579519  1
  Mg  Mg18  1  0.265334  0.579942  0.579519  1
  Hg  Hg19  1  0.581907  0.581907  0.582216  1
  Os  Os20  1  0.143434  0.143434  0.137643  1
  Os  Os21  1  0.145154  0.145154  0.575625  1
  Pt  Pt22  1  0.145923  0.575391  0.139915  1
  Pt  Pt23  1  0.575391  0.145923  0.139915  1
