# generated using pymatgen
data_Sc4ReB12Ir
_symmetry_space_group_name_H-M   'P 1'
_cell_length_a   3.51165600
_cell_length_b   8.88872263
_cell_length_c   11.22597477
_cell_angle_alpha   90.19262737
_cell_angle_beta   90.00000000
_cell_angle_gamma   90.00000000
_symmetry_Int_Tables_number   1
_chemical_formula_structural   Sc4ReB12Ir
_chemical_formula_sum   'Sc8 Re2 B24 Ir2'
_cell_volume   350.40712466
_cell_formula_units_Z   2
loop_
 _symmetry_equiv_pos_site_id
 _symmetry_equiv_pos_as_xyz
  1  'x, y, z'
loop_
 _atom_site_type_symbol
 _atom_site_label
 _atom_site_symmetry_multiplicity
 _atom_site_fract_x
 _atom_site_fract_y
 _atom_site_fract_z
 _atom_site_occupancy
  Sc  Sc0  1  0.500000  0.311553  0.409166  1
  Sc  Sc1  1  0.500000  0.688447  0.590834  1
  Sc  Sc2  1  0.500000  0.175761  0.919109  1
  Sc  Sc3  1  0.500000  0.824239  0.080891  1
  Sc  Sc4  1  0.500000  0.442832  0.125229  1
  Sc  Sc5  1  0.500000  0.557168  0.874771  1
  Sc  Sc6  1  0.500000  0.053430  0.626841  1
  Sc  Sc7  1  0.500000  0.946570  0.373159  1
  Re  Re8  1  0.500000  0.139356  0.180766  1
  Re  Re9  1  0.500000  0.860644  0.819234  1
  B  B10  1  0.000000  0.101953  0.472329  1
  B  B11  1  0.000000  0.898047  0.527671  1
  B  B12  1  0.000000  0.398184  0.971856  1
  B  B13  1  0.000000  0.601816  0.028144  1
  B  B14  1  0.000000  0.129948  0.317704  1
  B  B15  1  0.000000  0.870052  0.682296  1
  B  B16  1  0.000000  0.369562  0.818629  1
  B  B17  1  0.000000  0.630438  0.181371  1
  B  B18  1  0.000000  0.052794  0.065229  1
  B  B19  1  0.000000  0.947206  0.934771  1
  B  B20  1  0.000000  0.446003  0.564014  1
  B  B21  1  0.000000  0.553997  0.435986  1
  B  B22  1  0.000000  0.479705  0.287322  1
  B  B23  1  0.000000  0.520295  0.712678  1
  B  B24  1  0.000000  0.021146  0.786845  1
  B  B25  1  0.000000  0.978854  0.213155  1
  B  B26  1  0.000000  0.251709  0.078342  1
  B  B27  1  0.000000  0.748291  0.921658  1
  B  B28  1  0.000000  0.247336  0.577294  1
  B  B29  1  0.000000  0.752664  0.422706  1
  B  B30  1  0.000000  0.295366  0.236112  1
  B  B31  1  0.000000  0.704634  0.763888  1
  B  B32  1  0.000000  0.206273  0.735364  1
  B  B33  1  0.000000  0.793727  0.264636  1
  Ir  Ir34  1  0.500000  0.361401  0.678825  1
  Ir  Ir35  1  0.500000  0.638599  0.321175  1
