# generated using pymatgen
data_Hf18FeRe5Mo3S
_symmetry_space_group_name_H-M   'P 1'
_cell_length_a   8.50182200
_cell_length_b   8.58555735
_cell_length_c   8.60365195
_cell_angle_alpha   119.91301352
_cell_angle_beta   90.00000000
_cell_angle_gamma   90.00000000
_symmetry_Int_Tables_number   1
_chemical_formula_structural   Hf18FeRe5Mo3S
_chemical_formula_sum   'Hf18 Fe1 Re5 Mo3 S1'
_cell_volume   544.34466803
_cell_formula_units_Z   1
loop_
 _symmetry_equiv_pos_site_id
 _symmetry_equiv_pos_as_xyz
  1  'x, y, z'
loop_
 _atom_site_type_symbol
 _atom_site_label
 _atom_site_symmetry_multiplicity
 _atom_site_fract_x
 _atom_site_fract_y
 _atom_site_fract_z
 _atom_site_occupancy
  Hf  Hf0  1  0.548887  0.804792  0.609522  1
  Hf  Hf1  1  0.548567  0.801950  0.195279  1
  Hf  Hf2  1  0.548564  0.393211  0.195215  1
  Hf  Hf3  1  0.441111  0.201375  0.402738  1
  Hf  Hf4  1  0.441712  0.200950  0.798733  1
  Hf  Hf5  1  0.441791  0.597790  0.798709  1
  Hf  Hf6  1  0.058889  0.201375  0.402738  1
  Hf  Hf7  1  0.058288  0.200950  0.798733  1
  Hf  Hf8  1  0.058209  0.597790  0.798709  1
  Hf  Hf9  1  0.951113  0.804792  0.609522  1
  Hf  Hf10  1  0.951433  0.801950  0.195279  1
  Hf  Hf11  1  0.951436  0.393211  0.195215  1
  Hf  Hf12  1  0.750000  0.454759  0.909536  1
  Hf  Hf13  1  0.750000  0.457505  0.542481  1
  Hf  Hf14  1  0.750000  0.085111  0.542559  1
  Hf  Hf15  1  0.250000  0.539656  0.079309  1
  Hf  Hf16  1  0.250000  0.541265  0.459590  1
  Hf  Hf17  1  0.250000  0.918257  0.459539  1
  Fe  Fe18  1  0.250000  0.334201  0.668108  1
  Re  Re19  1  0.750000  0.111601  0.887747  1
  Re  Re20  1  0.750000  0.776177  0.887797  1
  Re  Re21  1  0.250000  0.889291  0.778503  1
  Re  Re22  1  0.250000  0.888504  0.112074  1
  Re  Re23  1  0.250000  0.223527  0.112034  1
  Mo  Mo24  1  0.750000  0.110594  0.221249  1
  Mo  Mo25  1  0.499455  0.000026  0.000063  1
  Mo  Mo26  1  0.000545  0.000026  0.000063  1
  S  S27  1  0.750000  0.669360  0.338958  1
