# generated using pymatgen
data_Er4Pu(FeB3)2
_symmetry_space_group_name_H-M   'P 1'
_cell_length_a   5.40795242
_cell_length_b   5.40795028
_cell_length_c   7.87596200
_cell_angle_alpha   69.92071825
_cell_angle_beta   69.92072651
_cell_angle_gamma   59.99997626
_symmetry_Int_Tables_number   1
_chemical_formula_structural   Er4Pu(FeB3)2
_chemical_formula_sum   'Er4 Pu1 Fe2 B6'
_cell_volume   183.13558407
_cell_formula_units_Z   1
loop_
 _symmetry_equiv_pos_site_id
 _symmetry_equiv_pos_as_xyz
  1  'x, y, z'
loop_
 _atom_site_type_symbol
 _atom_site_label
 _atom_site_symmetry_multiplicity
 _atom_site_fract_x
 _atom_site_fract_y
 _atom_site_fract_z
 _atom_site_occupancy
  Er  Er0  1  0.254024  0.254024  0.237932  1
  Er  Er1  1  0.745976  0.745976  0.762068  1
  Er  Er2  1  0.413181  0.413181  0.760454  1
  Er  Er3  1  0.586819  0.586819  0.239546  1
  Pu  Pu4  1  0.000000  0.000000  0.000000  1
  Fe  Fe5  1  0.109577  0.109577  0.671272  1
  Fe  Fe6  1  0.890423  0.890423  0.328728  1
  B  B7  1  0.167569  0.832431  0.500000  1
  B  B8  1  0.832431  0.500000  0.500000  1
  B  B9  1  0.500000  0.167569  0.500000  1
  B  B10  1  0.167569  0.500000  0.500000  1
  B  B11  1  0.500000  0.832431  0.500000  1
  B  B12  1  0.832431  0.167569  0.500000  1
