# generated using pymatgen
data_CeHo2CoSn3Ru2
_symmetry_space_group_name_H-M   'P 1'
_cell_length_a   7.29745994
_cell_length_b   7.61982582
_cell_length_c   3.91215000
_cell_angle_alpha   90.00000000
_cell_angle_beta   90.00000000
_cell_angle_gamma   121.47238765
_symmetry_Int_Tables_number   1
_chemical_formula_structural   CeHo2CoSn3Ru2
_chemical_formula_sum   'Ce1 Ho2 Co1 Sn3 Ru2'
_cell_volume   185.53516591
_cell_formula_units_Z   1
loop_
 _symmetry_equiv_pos_site_id
 _symmetry_equiv_pos_as_xyz
  1  'x, y, z'
loop_
 _atom_site_type_symbol
 _atom_site_label
 _atom_site_symmetry_multiplicity
 _atom_site_fract_x
 _atom_site_fract_y
 _atom_site_fract_z
 _atom_site_occupancy
  Ce  Ce0  1  0.000000  0.583567  0.500000  1
  Ho  Ho1  1  0.408833  0.406515  0.500000  1
  Ho  Ho2  1  0.591167  0.997682  0.500000  1
  Co  Co3  1  0.000000  0.994534  0.500000  1
  Sn  Sn4  1  0.737110  0.750267  0.000000  1
  Sn  Sn5  1  0.000000  0.235795  0.000000  1
  Sn  Sn6  1  0.262890  0.013157  0.000000  1
  Ru  Ru7  1  0.300756  0.659619  0.000000  1
  Ru  Ru8  1  0.699244  0.358861  0.000000  1
