# generated using pymatgen
data_YbHo3Tm2(Si3Ru)8
_symmetry_space_group_name_H-M   'P 1'
_cell_length_a   10.11179919
_cell_length_b   10.11177029
_cell_length_c   8.12053708
_cell_angle_alpha   89.92063527
_cell_angle_beta   90.07872090
_cell_angle_gamma   132.64641966
_symmetry_Int_Tables_number   1
_chemical_formula_structural   YbHo3Tm2(Si3Ru)8
_chemical_formula_sum   'Yb1 Ho3 Tm2 Si24 Ru8'
_cell_volume   610.73271105
_cell_formula_units_Z   1
loop_
 _symmetry_equiv_pos_site_id
 _symmetry_equiv_pos_as_xyz
  1  'x, y, z'
loop_
 _atom_site_type_symbol
 _atom_site_label
 _atom_site_symmetry_multiplicity
 _atom_site_fract_x
 _atom_site_fract_y
 _atom_site_fract_z
 _atom_site_occupancy
  Yb  Yb0  1  0.502039  0.002041  0.750000  1
  Ho  Ho1  1  0.998480  0.498473  0.250017  1
  Ho  Ho2  1  0.497079  0.997084  0.250014  1
  Ho  Ho3  1  0.002838  0.502845  0.749984  1
  Tm  Tm4  1  0.500273  0.500453  0.500470  1
  Tm  Tm5  1  0.000433  0.000261  0.999532  1
  Si  Si6  1  0.794022  0.204296  0.500062  1
  Si  Si7  1  0.295400  0.705941  0.998806  1
  Si  Si8  1  0.205958  0.795402  0.501195  1
  Si  Si9  1  0.704292  0.294030  0.999938  1
  Si  Si10  1  0.332353  0.333777  0.833047  1
  Si  Si11  1  0.667334  0.668542  0.166866  1
  Si  Si12  1  0.168527  0.167326  0.333119  1
  Si  Si13  1  0.833789  0.832367  0.666964  1
  Si  Si14  1  0.120821  0.886284  0.728599  1
  Si  Si15  1  0.111399  0.877828  0.272124  1
  Si  Si16  1  0.611270  0.377848  0.228908  1
  Si  Si17  1  0.624048  0.389941  0.771501  1
  Si  Si18  1  0.877874  0.111299  0.271101  1
  Si  Si19  1  0.889911  0.124030  0.728498  1
  Si  Si20  1  0.386314  0.620849  0.771391  1
  Si  Si21  1  0.377812  0.611370  0.227871  1
  Si  Si22  1  0.344959  0.111741  0.502915  1
  Si  Si23  1  0.887967  0.654847  0.494797  1
  Si  Si24  1  0.387885  0.154212  0.006303  1
  Si  Si25  1  0.844858  0.612134  0.994375  1
  Si  Si26  1  0.654225  0.887908  0.493710  1
  Si  Si27  1  0.112113  0.344843  0.505604  1
  Si  Si28  1  0.611748  0.844962  0.997075  1
  Si  Si29  1  0.154825  0.387938  0.005221  1
  Ru  Ru30  1  0.669932  0.330888  0.499646  1
  Ru  Ru31  1  0.167926  0.829425  0.001578  1
  Ru  Ru32  1  0.329440  0.667924  0.498423  1
  Ru  Ru33  1  0.830879  0.169926  0.000351  1
  Ru  Ru34  1  0.126889  0.126660  0.627459  1
  Ru  Ru35  1  0.873473  0.873944  0.372828  1
  Ru  Ru36  1  0.373948  0.373470  0.127195  1
  Ru  Ru37  1  0.626664  0.626891  0.872510  1
