# generated using pymatgen
data_Dy12Y8CoBi8Os3
_symmetry_space_group_name_H-M   'P 1'
_cell_length_a   7.98861198
_cell_length_b   8.99609900
_cell_length_c   12.49808444
_cell_angle_alpha   90.00000000
_cell_angle_beta   90.23133278
_cell_angle_gamma   90.00000000
_symmetry_Int_Tables_number   1
_chemical_formula_structural   Dy12Y8CoBi8Os3
_chemical_formula_sum   'Dy12 Y8 Co1 Bi8 Os3'
_cell_volume   898.18431796
_cell_formula_units_Z   1
loop_
 _symmetry_equiv_pos_site_id
 _symmetry_equiv_pos_as_xyz
  1  'x, y, z'
loop_
 _atom_site_type_symbol
 _atom_site_label
 _atom_site_symmetry_multiplicity
 _atom_site_fract_x
 _atom_site_fract_y
 _atom_site_fract_z
 _atom_site_occupancy
  Dy  Dy0  1  0.622850  0.250000  0.306156  1
  Dy  Dy1  1  0.875519  0.250000  0.807043  1
  Dy  Dy2  1  0.058190  0.250000  0.496046  1
  Dy  Dy3  1  0.445286  0.250000  0.996865  1
  Dy  Dy4  1  0.673978  0.041790  0.563783  1
  Dy  Dy5  1  0.324979  0.957207  0.435755  1
  Dy  Dy6  1  0.175382  0.958481  0.935870  1
  Dy  Dy7  1  0.324979  0.542793  0.435755  1
  Dy  Dy8  1  0.825893  0.038659  0.062881  1
  Dy  Dy9  1  0.673978  0.458210  0.563783  1
  Dy  Dy10  1  0.825893  0.461341  0.062881  1
  Dy  Dy11  1  0.175382  0.541519  0.935870  1
  Y  Y12  1  0.843620  0.750000  0.797880  1
  Y  Y13  1  0.159019  0.250000  0.207750  1
  Y  Y14  1  0.341240  0.250000  0.709153  1
  Y  Y15  1  0.657038  0.750000  0.292989  1
  Y  Y16  1  0.375276  0.750000  0.695130  1
  Y  Y17  1  0.121437  0.750000  0.188870  1
  Y  Y18  1  0.943000  0.750000  0.504654  1
  Y  Y19  1  0.553156  0.750000  0.003456  1
  Co  Co20  1  0.931148  0.750000  0.009347  1
  Bi  Bi21  1  0.570268  0.492463  0.828246  1
  Bi  Bi22  1  0.430850  0.508053  0.171692  1
  Bi  Bi23  1  0.068291  0.507731  0.672981  1
  Bi  Bi24  1  0.430850  0.991947  0.171692  1
  Bi  Bi25  1  0.931179  0.492801  0.326738  1
  Bi  Bi26  1  0.570268  0.007537  0.828246  1
  Bi  Bi27  1  0.931179  0.007199  0.326738  1
  Bi  Bi28  1  0.068291  0.992269  0.672981  1
  Os  Os29  1  0.574292  0.750000  0.511456  1
  Os  Os30  1  0.423819  0.250000  0.488557  1
  Os  Os31  1  0.073470  0.250000  0.988753  1
