# generated using pymatgen
data_Sr2Pr3Si3O12F
_symmetry_space_group_name_H-M   'P 1'
_cell_length_a   9.80234283
_cell_length_b   9.79994842
_cell_length_c   14.46250633
_cell_angle_alpha   89.99458069
_cell_angle_beta   89.98525989
_cell_angle_gamma   119.79026909
_symmetry_Int_Tables_number   1
_chemical_formula_structural   Sr2Pr3Si3O12F
_chemical_formula_sum   'Sr8 Pr12 Si12 O48 F4'
_cell_volume   1205.70705175
_cell_formula_units_Z   4
loop_
 _symmetry_equiv_pos_site_id
 _symmetry_equiv_pos_as_xyz
  1  'x, y, z'
loop_
 _atom_site_type_symbol
 _atom_site_label
 _atom_site_symmetry_multiplicity
 _atom_site_fract_x
 _atom_site_fract_y
 _atom_site_fract_z
 _atom_site_occupancy
  Sr  Sr0  1  0.252093  0.007208  0.875083  1
  Sr  Sr1  1  0.668751  0.328621  0.497954  1
  Sr  Sr2  1  0.667524  0.332705  0.253380  1
  Sr  Sr3  1  0.992066  0.243359  0.873751  1
  Sr  Sr4  1  0.333113  0.666819  0.248920  1
  Sr  Sr5  1  0.329092  0.665467  0.000699  1
  Sr  Sr6  1  0.336602  0.669526  0.499653  1
  Sr  Sr7  1  0.747507  0.991669  0.624560  1
  Pr  Pr8  1  0.257539  0.007866  0.375289  1
  Pr  Pr9  1  0.749357  0.743813  0.874247  1
  Pr  Pr10  1  0.748180  0.742930  0.375586  1
  Pr  Pr11  1  0.665960  0.328291  0.000829  1
  Pr  Pr12  1  0.670260  0.326231  0.747126  1
  Pr  Pr13  1  0.008020  0.753169  0.625655  1
  Pr  Pr14  1  0.008188  0.748965  0.123301  1
  Pr  Pr15  1  0.994018  0.253314  0.376740  1
  Pr  Pr16  1  0.330687  0.665766  0.752143  1
  Pr  Pr17  1  0.256182  0.261950  0.626004  1
  Pr  Pr18  1  0.254181  0.261271  0.123084  1
  Pr  Pr19  1  0.741856  0.991972  0.124437  1
  Si  Si20  1  0.633152  0.604591  0.628009  1
  Si  Si21  1  0.636571  0.609415  0.123487  1
  Si  Si22  1  0.393833  0.030068  0.626983  1
  Si  Si23  1  0.391529  0.029345  0.124983  1
  Si  Si24  1  0.027564  0.627000  0.874153  1
  Si  Si25  1  0.024414  0.637162  0.375206  1
  Si  Si26  1  0.970675  0.369546  0.626793  1
  Si  Si27  1  0.969085  0.361991  0.124526  1
  Si  Si28  1  0.599090  0.966623  0.875450  1
  Si  Si29  1  0.610429  0.973287  0.373357  1
  Si  Si30  1  0.364908  0.387983  0.374803  1
  Si  Si31  1  0.375399  0.400968  0.874218  1
  O  O32  1  0.328974  0.083530  0.535796  1
  O  O33  1  0.352540  0.107136  0.034753  1
  O  O34  1  0.346476  0.104601  0.715452  1
  O  O35  1  0.331957  0.091069  0.214457  1
  O  O36  1  0.506243  0.342249  0.874253  1
  O  O37  1  0.468559  0.299207  0.375633  1
  O  O38  1  0.538177  0.409968  0.625497  1
  O  O39  1  0.534342  0.414815  0.124370  1
  O  O40  1  0.751707  0.655339  0.718920  1
  O  O41  1  0.760200  0.673042  0.211577  1
  O  O42  1  0.754953  0.676612  0.539415  1
  O  O43  1  0.752034  0.655072  0.031228  1
  O  O44  1  0.585988  0.115204  0.125784  1
  O  O45  1  0.586531  0.120805  0.625987  1
  O  O46  1  0.835943  0.503676  0.875270  1
  O  O47  1  0.832495  0.532944  0.376043  1
  O  O48  1  0.662129  0.157071  0.876149  1
  O  O49  1  0.700434  0.165348  0.374584  1
  O  O50  1  0.880244  0.475005  0.623737  1
  O  O51  1  0.881289  0.469797  0.124596  1
  O  O52  1  0.080684  0.740622  0.781537  1
  O  O53  1  0.077668  0.740928  0.966091  1
  O  O54  1  0.087662  0.757973  0.285289  1
  O  O55  1  0.090589  0.756538  0.465726  1
  O  O56  1  0.921341  0.257511  0.534203  1
  O  O57  1  0.894476  0.257169  0.717980  1
  O  O58  1  0.892048  0.244088  0.034694  1
  O  O59  1  0.909070  0.242641  0.214777  1
  O  O60  1  0.128277  0.534252  0.871195  1
  O  O61  1  0.110361  0.529269  0.373495  1
  O  O62  1  0.311485  0.837245  0.631296  1
  O  O63  1  0.303628  0.837821  0.123794  1
  O  O64  1  0.160370  0.467092  0.123273  1
  O  O65  1  0.162705  0.480945  0.631635  1
  O  O66  1  0.406213  0.869074  0.871114  1
  O  O67  1  0.417076  0.892122  0.372498  1
  O  O68  1  0.261121  0.337480  0.965495  1
  O  O69  1  0.246903  0.336974  0.465851  1
  O  O70  1  0.263122  0.346449  0.781424  1
  O  O71  1  0.243433  0.331555  0.285366  1
  O  O72  1  0.469274  0.595773  0.872615  1
  O  O73  1  0.473652  0.580902  0.372949  1
  O  O74  1  0.508202  0.668466  0.632113  1
  O  O75  1  0.527366  0.691276  0.123306  1
  O  O76  1  0.663315  0.906473  0.788078  1
  O  O77  1  0.661645  0.912500  0.967335  1
  O  O78  1  0.663914  0.908358  0.282123  1
  O  O79  1  0.660758  0.901584  0.461381  1
  F  F80  1  0.988076  0.986681  0.875319  1
  F  F81  1  0.002449  0.002004  0.119997  1
  F  F82  1  0.014833  0.005972  0.628848  1
  F  F83  1  0.999240  0.000885  0.375297  1
