# generated using pymatgen
data_Tb3In3Ag2Ru
_symmetry_space_group_name_H-M   'P 1'
_cell_length_a   8.00400200
_cell_length_b   8.00400331
_cell_length_c   3.76579800
_cell_angle_alpha   90.00000000
_cell_angle_beta   90.00000000
_cell_angle_gamma   120.00000285
_symmetry_Int_Tables_number   1
_chemical_formula_structural   Tb3In3Ag2Ru
_chemical_formula_sum   'Tb3 In3 Ag2 Ru1'
_cell_volume   208.93061746
_cell_formula_units_Z   1
loop_
 _symmetry_equiv_pos_site_id
 _symmetry_equiv_pos_as_xyz
  1  'x, y, z'
loop_
 _atom_site_type_symbol
 _atom_site_label
 _atom_site_symmetry_multiplicity
 _atom_site_fract_x
 _atom_site_fract_y
 _atom_site_fract_z
 _atom_site_occupancy
  Tb  Tb0  1  0.422194  0.388969  0.000000  1
  Tb  Tb1  1  0.611031  0.033225  0.000000  1
  Tb  Tb2  1  0.966775  0.577806  0.000000  1
  In  In3  1  0.001928  0.273497  0.500000  1
  In  In4  1  0.726503  0.728431  0.500000  1
  In  In5  1  0.271569  0.998072  0.500000  1
  Ag  Ag6  1  0.000000  0.000000  0.000000  1
  Ag  Ag7  1  0.333333  0.666667  0.500000  1
  Ru  Ru8  1  0.666667  0.333333  0.500000  1
