# generated using pymatgen
data_ZrScB(IrRh2)2
_symmetry_space_group_name_H-M   'P 1'
_cell_length_a   5.70161720
_cell_length_b   5.70161745
_cell_length_c   5.70158966
_cell_angle_alpha   60.26964798
_cell_angle_beta   60.26963989
_cell_angle_gamma   60.23294819
_symmetry_Int_Tables_number   1
_chemical_formula_structural   ZrScB(IrRh2)2
_chemical_formula_sum   'Zr1 Sc1 B1 Ir2 Rh4'
_cell_volume   131.82570477
_cell_formula_units_Z   1
loop_
 _symmetry_equiv_pos_site_id
 _symmetry_equiv_pos_as_xyz
  1  'x, y, z'
loop_
 _atom_site_type_symbol
 _atom_site_label
 _atom_site_symmetry_multiplicity
 _atom_site_fract_x
 _atom_site_fract_y
 _atom_site_fract_z
 _atom_site_occupancy
  Zr  Zr0  1  0.249818  0.249818  0.249986  1
  Sc  Sc1  1  0.750159  0.750159  0.750073  1
  B  B2  1  0.000117  0.000117  0.000235  1
  Ir  Ir3  1  0.741425  0.258675  0.741808  1
  Ir  Ir4  1  0.258675  0.741425  0.741808  1
  Rh  Rh5  1  0.741704  0.741704  0.258542  1
  Rh  Rh6  1  0.257600  0.742276  0.257870  1
  Rh  Rh7  1  0.742276  0.257600  0.257870  1
  Rh  Rh8  1  0.258225  0.258225  0.741809  1
