# generated using pymatgen
data_CeHo7(CdCo)2
_symmetry_space_group_name_H-M   'P 1'
_cell_length_a   9.34139306
_cell_length_b   9.55434213
_cell_length_c   9.55434192
_cell_angle_alpha   58.53082728
_cell_angle_beta   60.73458898
_cell_angle_gamma   60.73458827
_symmetry_Int_Tables_number   1
_chemical_formula_structural   CeHo7(CdCo)2
_chemical_formula_sum   'Ce2 Ho14 Cd4 Co4'
_cell_volume   602.38743325
_cell_formula_units_Z   2
loop_
 _symmetry_equiv_pos_site_id
 _symmetry_equiv_pos_as_xyz
  1  'x, y, z'
loop_
 _atom_site_type_symbol
 _atom_site_label
 _atom_site_symmetry_multiplicity
 _atom_site_fract_x
 _atom_site_fract_y
 _atom_site_fract_z
 _atom_site_occupancy
  Ce  Ce0  1  0.183538  0.816462  0.816462  1
  Ce  Ce1  1  0.816462  0.183538  0.183538  1
  Ho  Ho2  1  0.809551  0.190449  0.809551  1
  Ho  Ho3  1  0.809551  0.809551  0.190449  1
  Ho  Ho4  1  0.190449  0.809551  0.190449  1
  Ho  Ho5  1  0.190449  0.190449  0.809551  1
  Ho  Ho6  1  0.667079  0.648480  0.648480  1
  Ho  Ho7  1  0.648480  0.667079  0.035962  1
  Ho  Ho8  1  0.035962  0.648480  0.648480  1
  Ho  Ho9  1  0.648480  0.035962  0.667079  1
  Ho  Ho10  1  0.075797  0.424203  0.424203  1
  Ho  Ho11  1  0.424205  0.075796  0.075796  1
  Ho  Ho12  1  0.442872  0.057128  0.442872  1
  Ho  Ho13  1  0.442872  0.442872  0.057128  1
  Ho  Ho14  1  0.057127  0.442874  0.057127  1
  Ho  Ho15  1  0.057127  0.057127  0.442874  1
  Cd  Cd16  1  0.416769  0.420347  0.420347  1
  Cd  Cd17  1  0.420347  0.416769  0.742539  1
  Cd  Cd18  1  0.742539  0.420347  0.420347  1
  Cd  Cd19  1  0.420347  0.742539  0.416769  1
  Co  Co20  1  0.904781  0.844229  0.844229  1
  Co  Co21  1  0.844229  0.904781  0.406760  1
  Co  Co22  1  0.406760  0.844229  0.844229  1
  Co  Co23  1  0.844229  0.406760  0.904781  1
