# generated using pymatgen
data_Dy2TmLuC7
_symmetry_space_group_name_H-M   'P 1'
_cell_length_a   13.70334200
_cell_length_b   3.66558383
_cell_length_c   6.42274402
_cell_angle_alpha   74.29384265
_cell_angle_beta   90.00000000
_cell_angle_gamma   90.00000000
_symmetry_Int_Tables_number   1
_chemical_formula_structural   Dy2TmLuC7
_chemical_formula_sum   'Dy4 Tm2 Lu2 C14'
_cell_volume   310.57349753
_cell_formula_units_Z   2
loop_
 _symmetry_equiv_pos_site_id
 _symmetry_equiv_pos_as_xyz
  1  'x, y, z'
loop_
 _atom_site_type_symbol
 _atom_site_label
 _atom_site_symmetry_multiplicity
 _atom_site_fract_x
 _atom_site_fract_y
 _atom_site_fract_z
 _atom_site_occupancy
  Dy  Dy0  1  0.943422  0.366613  0.261381  1
  Dy  Dy1  1  0.443422  0.633387  0.238619  1
  Dy  Dy2  1  0.056255  0.635411  0.737990  1
  Dy  Dy3  1  0.556255  0.364589  0.762010  1
  Tm  Tm4  1  0.660201  0.059983  0.337452  1
  Tm  Tm5  1  0.160201  0.940017  0.162548  1
  Lu  Lu6  1  0.341065  0.938406  0.662001  1
  Lu  Lu7  1  0.841065  0.061594  0.837999  1
  C  C8  1  0.499289  0.999969  0.500201  1
  C  C9  1  0.999289  0.000031  0.999799  1
  C  C10  1  0.783714  0.466304  0.063367  1
  C  C11  1  0.283714  0.533696  0.436633  1
  C  C12  1  0.216558  0.540675  0.931840  1
  C  C13  1  0.716558  0.459325  0.568160  1
  C  C14  1  0.196610  0.373413  0.459018  1
  C  C15  1  0.696610  0.626587  0.040982  1
  C  C16  1  0.395284  0.266109  0.942217  1
  C  C17  1  0.895284  0.733891  0.557783  1
  C  C18  1  0.604239  0.731575  0.056609  1
  C  C19  1  0.104239  0.268425  0.443391  1
  C  C20  1  0.303363  0.377183  0.955502  1
  C  C21  1  0.803363  0.622817  0.544498  1
