# generated using pymatgen
data_TbNd6Lu(MoO6)4
_symmetry_space_group_name_H-M   'P 1'
_cell_length_a   5.50686860
_cell_length_b   10.17571508
_cell_length_c   10.17813052
_cell_angle_alpha   68.61767782
_cell_angle_beta   75.05127883
_cell_angle_gamma   75.06924950
_symmetry_Int_Tables_number   1
_chemical_formula_structural   TbNd6Lu(MoO6)4
_chemical_formula_sum   'Tb1 Nd6 Lu1 Mo4 O24'
_cell_volume   504.55801415
_cell_formula_units_Z   1
loop_
 _symmetry_equiv_pos_site_id
 _symmetry_equiv_pos_as_xyz
  1  'x, y, z'
loop_
 _atom_site_type_symbol
 _atom_site_label
 _atom_site_symmetry_multiplicity
 _atom_site_fract_x
 _atom_site_fract_y
 _atom_site_fract_z
 _atom_site_occupancy
  Tb  Tb0  1  0.250009  0.602381  0.397652  1
  Nd  Nd1  1  0.620014  0.786452  0.554100  1
  Nd  Nd2  1  0.122929  0.551318  0.786120  1
  Nd  Nd3  1  0.377034  0.213877  0.448672  1
  Nd  Nd4  1  0.880033  0.445921  0.213565  1
  Nd  Nd5  1  0.750002  0.863771  0.136247  1
  Nd  Nd6  1  0.249996  0.137885  0.862106  1
  Lu  Lu7  1  0.749983  0.401620  0.598340  1
  Mo  Mo8  1  0.064955  0.007484  0.297721  1
  Mo  Mo9  1  0.435067  0.702267  0.992476  1
  Mo  Mo10  1  0.931809  0.993775  0.702166  1
  Mo  Mo11  1  0.568204  0.297880  0.006230  1
  O  O12  1  0.922413  0.567279  0.607767  1
  O  O13  1  0.577592  0.392229  0.432699  1
  O  O14  1  0.071487  0.429295  0.395754  1
  O  O15  1  0.428523  0.604255  0.570710  1
  O  O16  1  0.935519  0.806858  0.338543  1
  O  O17  1  0.564487  0.661490  0.193148  1
  O  O18  1  0.049602  0.197971  0.661453  1
  O  O19  1  0.450374  0.338537  0.801993  1
  O  O20  1  0.374980  0.888037  0.329982  1
  O  O21  1  0.124937  0.670013  0.111981  1
  O  O22  1  0.617581  0.108219  0.671536  1
  O  O23  1  0.882464  0.328506  0.891725  1
  O  O24  1  0.631094  0.290229  0.177926  1
  O  O25  1  0.868902  0.822046  0.709813  1
  O  O26  1  0.366019  0.710651  0.822390  1
  O  O27  1  0.133987  0.177603  0.289353  1
  O  O28  1  0.522077  0.116591  0.043236  1
  O  O29  1  0.977942  0.956762  0.883376  1
  O  O30  1  0.763354  0.024173  0.427696  1
  O  O31  1  0.022315  0.043937  0.115954  1
  O  O32  1  0.263729  0.426363  0.022074  1
  O  O33  1  0.236284  0.977927  0.573636  1
  O  O34  1  0.736592  0.572300  0.975819  1
  O  O35  1  0.477717  0.884092  0.956048  1
