# generated using pymatgen
data_Ba20V12Cl(O16F)3
_symmetry_space_group_name_H-M   'P 1'
_cell_length_a   7.94002311
_cell_length_b   10.68309015
_cell_length_c   18.50554116
_cell_angle_alpha   90.00208999
_cell_angle_beta   90.01453728
_cell_angle_gamma   90.01397479
_symmetry_Int_Tables_number   1
_chemical_formula_structural   Ba20V12Cl(O16F)3
_chemical_formula_sum   'Ba20 V12 Cl1 O48 F3'
_cell_volume   1569.71360486
_cell_formula_units_Z   1
loop_
 _symmetry_equiv_pos_site_id
 _symmetry_equiv_pos_as_xyz
  1  'x, y, z'
loop_
 _atom_site_type_symbol
 _atom_site_label
 _atom_site_symmetry_multiplicity
 _atom_site_fract_x
 _atom_site_fract_y
 _atom_site_fract_z
 _atom_site_occupancy
  Ba  Ba0  1  0.754816  0.265390  0.005697  1
  Ba  Ba1  1  0.751879  0.384785  0.374138  1
  Ba  Ba2  1  0.499451  0.498778  0.166662  1
  Ba  Ba3  1  0.000389  0.498588  0.166675  1
  Ba  Ba4  1  0.251347  0.630759  0.379806  1
  Ba  Ba5  1  0.750723  0.745701  0.506548  1
  Ba  Ba6  1  0.752851  0.858705  0.130945  1
  Ba  Ba7  1  0.752529  0.877000  0.863423  1
  Ba  Ba8  1  0.501626  0.004368  0.333642  1
  Ba  Ba9  1  0.000479  0.001874  0.666745  1
  Ba  Ba10  1  0.003851  0.000936  0.335313  1
  Ba  Ba11  1  0.499898  0.001388  0.666469  1
  Ba  Ba12  1  0.254276  0.114793  0.124812  1
  Ba  Ba13  1  0.254887  0.129484  0.880449  1
  Ba  Ba14  1  0.251621  0.251682  0.494672  1
  Ba  Ba15  1  0.751960  0.366460  0.619664  1
  Ba  Ba16  1  0.007537  0.498462  0.830971  1
  Ba  Ba17  1  0.503486  0.497459  0.833902  1
  Ba  Ba18  1  0.251830  0.615165  0.625091  1
  Ba  Ba19  1  0.253925  0.758643  0.995342  1
  V  V20  1  0.250530  0.331873  0.299872  1
  V  V21  1  0.250907  0.388425  0.016856  1
  V  V22  1  0.751156  0.714867  0.318365  1
  V  V23  1  0.250515  0.780905  0.186137  1
  V  V24  1  0.250718  0.831506  0.797157  1
  V  V25  1  0.251290  0.884221  0.516024  1
  V  V26  1  0.751075  0.114942  0.484273  1
  V  V27  1  0.751413  0.166651  0.201714  1
  V  V28  1  0.751753  0.218596  0.815608  1
  V  V29  1  0.252133  0.283364  0.683701  1
  V  V30  1  0.751693  0.618859  0.982092  1
  V  V31  1  0.751756  0.665879  0.697944  1
  Cl  Cl32  1  0.606191  0.000127  0.000311  1
  O  O33  1  0.427864  0.308122  0.047261  1
  O  O34  1  0.077708  0.304125  0.047866  1
  O  O35  1  0.248861  0.327306  0.205334  1
  O  O36  1  0.748366  0.316333  0.162238  1
  O  O37  1  0.426890  0.417172  0.326286  1
  O  O38  1  0.076365  0.418305  0.327442  1
  O  O39  1  0.248294  0.532591  0.061577  1
  O  O40  1  0.751187  0.588784  0.257676  1
  O  O41  1  0.747855  0.594928  0.076014  1
  O  O42  1  0.249570  0.640232  0.234595  1
  O  O43  1  0.576786  0.711934  0.374817  1
  O  O44  1  0.925571  0.712341  0.374875  1
  O  O45  1  0.076099  0.778091  0.129297  1
  O  O46  1  0.426440  0.778027  0.130168  1
  O  O47  1  0.076142  0.799712  0.544367  1
  O  O48  1  0.426306  0.800636  0.545447  1
  O  O49  1  0.249619  0.828301  0.702667  1
  O  O50  1  0.750875  0.819457  0.664811  1
  O  O51  1  0.751757  0.858698  0.272699  1
  O  O52  1  0.252885  0.902901  0.421990  1
  O  O53  1  0.426545  0.917769  0.823183  1
  O  O54  1  0.076510  0.918787  0.823803  1
  O  O55  1  0.249716  0.913209  0.242032  1
  O  O56  1  0.751783  0.971277  0.438914  1
  O  O57  1  0.249893  0.027647  0.561910  1
  O  O58  1  0.747571  0.084679  0.760657  1
  O  O59  1  0.922411  0.079008  0.171457  1
  O  O60  1  0.571619  0.080373  0.182367  1
  O  O61  1  0.750241  0.097365  0.578395  1
  O  O62  1  0.249620  0.144412  0.733738  1
  O  O63  1  0.250739  0.182482  0.339004  1
  O  O64  1  0.761626  0.173171  0.296147  1
  O  O65  1  0.926141  0.199272  0.455521  1
  O  O66  1  0.576447  0.198678  0.454252  1
  O  O67  1  0.923810  0.216480  0.874075  1
  O  O68  1  0.573011  0.233247  0.869114  1
  O  O69  1  0.427406  0.278320  0.627390  1
  O  O70  1  0.077356  0.281143  0.626983  1
  O  O71  1  0.761940  0.356886  0.764976  1
  O  O72  1  0.250259  0.402606  0.922567  1
  O  O73  1  0.254354  0.417166  0.738475  1
  O  O74  1  0.765558  0.476496  0.935175  1
  O  O75  1  0.926321  0.582755  0.668263  1
  O  O76  1  0.577245  0.581718  0.669080  1
  O  O77  1  0.250739  0.681980  0.835786  1
  O  O78  1  0.753687  0.663459  0.792732  1
  O  O79  1  0.921153  0.711748  0.956108  1
  O  O80  1  0.570978  0.690180  0.949549  1
  F  F81  1  0.190254  0.001964  0.000257  1
  F  F82  1  0.750710  0.498864  0.499857  1
  F  F83  1  0.251826  0.498228  0.499786  1
