# generated using pymatgen
data_KSnSb11Rh4
_symmetry_space_group_name_H-M   'P 1'
_cell_length_a   8.16954123
_cell_length_b   8.16954194
_cell_length_c   8.17185897
_cell_angle_alpha   109.56067945
_cell_angle_beta   109.61767910
_cell_angle_gamma   109.22403449
_symmetry_Int_Tables_number   1
_chemical_formula_structural   KSnSb11Rh4
_chemical_formula_sum   'K1 Sn1 Sb11 Rh4'
_cell_volume   419.90422565
_cell_formula_units_Z   1
loop_
 _symmetry_equiv_pos_site_id
 _symmetry_equiv_pos_as_xyz
  1  'x, y, z'
loop_
 _atom_site_type_symbol
 _atom_site_label
 _atom_site_symmetry_multiplicity
 _atom_site_fract_x
 _atom_site_fract_y
 _atom_site_fract_z
 _atom_site_occupancy
  K  K0  1  0.999987  0.000270  0.000256  1
  Sn  Sn1  1  0.842109  0.657819  0.499928  1
  Sb  Sb2  1  0.155588  0.343283  0.498872  1
  Sb  Sb3  1  0.154733  0.657493  0.812227  1
  Sb  Sb4  1  0.843373  0.344038  0.187410  1
  Sb  Sb5  1  0.658377  0.500897  0.842759  1
  Sb  Sb6  1  0.344412  0.499755  0.158036  1
  Sb  Sb7  1  0.658281  0.813625  0.158036  1
  Sb  Sb8  1  0.341862  0.184381  0.842759  1
  Sb  Sb9  1  0.501708  0.842786  0.657822  1
  Sb  Sb10  1  0.499867  0.158231  0.342493  1
  Sb  Sb11  1  0.184261  0.842626  0.342493  1
  Sb  Sb12  1  0.815037  0.156114  0.657822  1
  Rh  Rh13  1  0.496600  0.498431  0.499642  1
  Rh  Rh14  1  0.500927  0.998235  0.999900  1
  Rh  Rh15  1  0.001665  0.498973  0.999900  1
  Rh  Rh16  1  0.001211  0.003042  0.499642  1
