# generated using pymatgen
data_Tm4AlTc4Os3
_symmetry_space_group_name_H-M   'P 1'
_cell_length_a   5.25142806
_cell_length_b   5.29376437
_cell_length_c   8.90540300
_cell_angle_alpha   90.00000000
_cell_angle_beta   90.00000000
_cell_angle_gamma   119.49923990
_symmetry_Int_Tables_number   1
_chemical_formula_structural   Tm4AlTc4Os3
_chemical_formula_sum   'Tm4 Al1 Tc4 Os3'
_cell_volume   215.47438030
_cell_formula_units_Z   1
loop_
 _symmetry_equiv_pos_site_id
 _symmetry_equiv_pos_as_xyz
  1  'x, y, z'
loop_
 _atom_site_type_symbol
 _atom_site_label
 _atom_site_symmetry_multiplicity
 _atom_site_fract_x
 _atom_site_fract_y
 _atom_site_fract_z
 _atom_site_occupancy
  Tm  Tm0  1  0.665251  0.331742  0.563168  1
  Tm  Tm1  1  0.334139  0.669491  0.440116  1
  Tm  Tm2  1  0.334139  0.669491  0.059884  1
  Tm  Tm3  1  0.665251  0.331742  0.936832  1
  Al  Al4  1  0.830862  0.660348  0.250000  1
  Tc  Tc5  1  0.165976  0.334894  0.750000  1
  Tc  Tc6  1  0.171286  0.825528  0.750000  1
  Tc  Tc7  1  0.657878  0.825740  0.750000  1
  Tc  Tc8  1  0.827283  0.164408  0.250000  1
  Os  Os9  1  0.000964  0.010610  0.497156  1
  Os  Os10  1  0.000964  0.010610  0.002844  1
  Os  Os11  1  0.346005  0.165394  0.250000  1
