# generated using pymatgen
data_Y2Ho5Sn23Ir6
_symmetry_space_group_name_H-M   'P 1'
_cell_length_a   9.85872001
_cell_length_b   9.85871382
_cell_length_c   10.12191400
_cell_angle_alpha   89.99763838
_cell_angle_beta   90.00235134
_cell_angle_gamma   119.99705481
_symmetry_Int_Tables_number   1
_chemical_formula_structural   Y2Ho5Sn23Ir6
_chemical_formula_sum   'Y2 Ho5 Sn23 Ir6'
_cell_volume   852.01443964
_cell_formula_units_Z   1
loop_
 _symmetry_equiv_pos_site_id
 _symmetry_equiv_pos_as_xyz
  1  'x, y, z'
loop_
 _atom_site_type_symbol
 _atom_site_label
 _atom_site_symmetry_multiplicity
 _atom_site_fract_x
 _atom_site_fract_y
 _atom_site_fract_z
 _atom_site_occupancy
  Y  Y0  1  0.999998  0.000000  0.000001  1
  Y  Y1  1  0.520010  0.479990  0.692946  1
  Ho  Ho2  1  0.519866  0.039724  0.693029  1
  Ho  Ho3  1  0.960277  0.480134  0.693029  1
  Ho  Ho4  1  0.039721  0.519865  0.306972  1
  Ho  Ho5  1  0.480134  0.960278  0.306972  1
  Ho  Ho6  1  0.480135  0.519865  0.306920  1
  Sn  Sn7  1  0.666669  0.333331  0.174267  1
  Sn  Sn8  1  0.666771  0.333229  0.877005  1
  Sn  Sn9  1  0.333334  0.666666  0.123113  1
  Sn  Sn10  1  0.352483  0.352507  0.000040  1
  Sn  Sn11  1  0.000003  0.647463  0.000003  1
  Sn  Sn12  1  0.647467  0.000004  0.000008  1
  Sn  Sn13  1  0.647493  0.647517  0.000041  1
  Sn  Sn14  1  0.333311  0.666690  0.825739  1
  Sn  Sn15  1  0.445126  0.222480  0.455922  1
  Sn  Sn16  1  0.222573  0.777428  0.543978  1
  Sn  Sn17  1  0.222429  0.445126  0.543937  1
  Sn  Sn18  1  0.554874  0.777571  0.543936  1
  Sn  Sn19  1  0.119378  0.880621  0.283884  1
  Sn  Sn20  1  0.777520  0.554874  0.455921  1
  Sn  Sn21  1  0.777429  0.222571  0.456010  1
  Sn  Sn22  1  0.352537  0.999997  0.000004  1
  Sn  Sn23  1  0.119372  0.238755  0.283879  1
  Sn  Sn24  1  0.761245  0.880628  0.283879  1
  Sn  Sn25  1  0.238635  0.119259  0.716144  1
  Sn  Sn26  1  0.880741  0.761365  0.716144  1
  Sn  Sn27  1  0.880622  0.119378  0.716122  1
  Sn  Sn28  1  0.000003  0.999998  0.499999  1
  Sn  Sn29  1  0.999995  0.352533  0.000009  1
  Ir  Ir30  1  0.168809  0.831191  0.801791  1
  Ir  Ir31  1  0.168556  0.337517  0.801860  1
  Ir  Ir32  1  0.662484  0.831444  0.801860  1
  Ir  Ir33  1  0.337614  0.168807  0.198208  1
  Ir  Ir34  1  0.831193  0.662385  0.198208  1
  Ir  Ir35  1  0.831193  0.168807  0.198219  1
