# generated using pymatgen
data_YbHfTh2Bi5
_symmetry_space_group_name_H-M   'P 1'
_cell_length_a   9.56127100
_cell_length_b   9.59412383
_cell_length_c   6.46486200
_cell_angle_alpha   90.00000000
_cell_angle_beta   90.00000000
_cell_angle_gamma   119.88678035
_symmetry_Int_Tables_number   1
_chemical_formula_structural   YbHfTh2Bi5
_chemical_formula_sum   'Yb2 Hf2 Th4 Bi10'
_cell_volume   514.16816618
_cell_formula_units_Z   2
loop_
 _symmetry_equiv_pos_site_id
 _symmetry_equiv_pos_as_xyz
  1  'x, y, z'
loop_
 _atom_site_type_symbol
 _atom_site_label
 _atom_site_symmetry_multiplicity
 _atom_site_fract_x
 _atom_site_fract_y
 _atom_site_fract_z
 _atom_site_occupancy
  Yb  Yb0  1  0.614605  0.000000  0.250000  1
  Yb  Yb1  1  0.385395  0.000000  0.750000  1
  Hf  Hf2  1  0.000000  0.000000  0.000000  1
  Hf  Hf3  1  0.000000  0.000000  0.500000  1
  Th  Th4  1  0.002382  0.620397  0.250000  1
  Th  Th5  1  0.997618  0.379603  0.750000  1
  Th  Th6  1  0.381986  0.379603  0.250000  1
  Th  Th7  1  0.618014  0.620397  0.750000  1
  Bi  Bi8  1  0.267798  0.000000  0.250000  1
  Bi  Bi9  1  0.732202  0.000000  0.750000  1
  Bi  Bi10  1  0.995880  0.264843  0.250000  1
  Bi  Bi11  1  0.004120  0.735157  0.750000  1
  Bi  Bi12  1  0.731037  0.735157  0.250000  1
  Bi  Bi13  1  0.268963  0.264843  0.750000  1
  Bi  Bi14  1  0.332435  0.664869  0.000000  1
  Bi  Bi15  1  0.667565  0.335131  0.000000  1
  Bi  Bi16  1  0.667565  0.335131  0.500000  1
  Bi  Bi17  1  0.332435  0.664869  0.500000  1
