# generated using pymatgen
data_ErU3Ga12Tc
_symmetry_space_group_name_H-M   'P 1'
_cell_length_a   7.45370721
_cell_length_b   7.45370762
_cell_length_c   7.45370778
_cell_angle_alpha   109.40624986
_cell_angle_beta   109.40625105
_cell_angle_gamma   109.40624789
_symmetry_Int_Tables_number   1
_chemical_formula_structural   ErU3Ga12Tc
_chemical_formula_sum   'Er1 U3 Ga12 Tc1'
_cell_volume   319.54752889
_cell_formula_units_Z   1
loop_
 _symmetry_equiv_pos_site_id
 _symmetry_equiv_pos_as_xyz
  1  'x, y, z'
loop_
 _atom_site_type_symbol
 _atom_site_label
 _atom_site_symmetry_multiplicity
 _atom_site_fract_x
 _atom_site_fract_y
 _atom_site_fract_z
 _atom_site_occupancy
  Er  Er0  1  0.500000  0.500000  0.500000  1
  U  U1  1  0.000000  0.000000  0.500000  1
  U  U2  1  0.000000  0.500000  0.000000  1
  U  U3  1  0.500000  0.000000  0.000000  1
  Ga  Ga4  1  0.749943  0.250057  0.500000  1
  Ga  Ga5  1  0.749943  0.500000  0.250057  1
  Ga  Ga6  1  0.500000  0.250057  0.749943  1
  Ga  Ga7  1  0.250057  0.500000  0.749943  1
  Ga  Ga8  1  0.250057  0.749943  0.500000  1
  Ga  Ga9  1  0.500000  0.749943  0.250057  1
  Ga  Ga10  1  0.709178  0.709178  0.000244  1
  Ga  Ga11  1  0.290822  0.999756  0.290822  1
  Ga  Ga12  1  0.999756  0.290822  0.290822  1
  Ga  Ga13  1  0.290822  0.290822  0.999756  1
  Ga  Ga14  1  0.709178  0.000244  0.709178  1
  Ga  Ga15  1  0.000244  0.709178  0.709178  1
  Tc  Tc16  1  0.000000  0.000000  0.000000  1
