# generated using pymatgen
data_TmLu(AgPb)2
_symmetry_space_group_name_H-M   'P 1'
_cell_length_a   4.79383300
_cell_length_b   4.79383175
_cell_length_c   7.41860100
_cell_angle_alpha   90.00000000
_cell_angle_beta   90.00000000
_cell_angle_gamma   120.00000175
_symmetry_Int_Tables_number   1
_chemical_formula_structural   TmLu(AgPb)2
_chemical_formula_sum   'Tm1 Lu1 Ag2 Pb2'
_cell_volume   147.64485768
_cell_formula_units_Z   1
loop_
 _symmetry_equiv_pos_site_id
 _symmetry_equiv_pos_as_xyz
  1  'x, y, z'
loop_
 _atom_site_type_symbol
 _atom_site_label
 _atom_site_symmetry_multiplicity
 _atom_site_fract_x
 _atom_site_fract_y
 _atom_site_fract_z
 _atom_site_occupancy
  Tm  Tm0  1  0.000000  0.000000  0.513318  1
  Lu  Lu1  1  0.000000  0.000000  0.012635  1
  Ag  Ag2  1  0.666667  0.333333  0.331205  1
  Ag  Ag3  1  0.333333  0.666667  0.833095  1
  Pb  Pb4  1  0.333333  0.666667  0.233605  1
  Pb  Pb5  1  0.666667  0.333333  0.735944  1
