# generated using pymatgen
data_K2YbZr3Se8
_symmetry_space_group_name_H-M   'P 1'
_cell_length_a   6.82002100
_cell_length_b   7.90865000
_cell_length_c   16.30696200
_cell_angle_alpha   90.00000000
_cell_angle_beta   90.00000000
_cell_angle_gamma   90.00000000
_symmetry_Int_Tables_number   1
_chemical_formula_structural   K2YbZr3Se8
_chemical_formula_sum   'K4 Yb2 Zr6 Se16'
_cell_volume   879.55120353
_cell_formula_units_Z   2
loop_
 _symmetry_equiv_pos_site_id
 _symmetry_equiv_pos_as_xyz
  1  'x, y, z'
loop_
 _atom_site_type_symbol
 _atom_site_label
 _atom_site_symmetry_multiplicity
 _atom_site_fract_x
 _atom_site_fract_y
 _atom_site_fract_z
 _atom_site_occupancy
  K  K0  1  0.336824  0.000000  0.000000  1
  K  K1  1  0.655094  0.500000  0.500000  1
  K  K2  1  0.024302  0.000000  0.500000  1
  K  K3  1  0.976411  0.500000  0.000000  1
  Yb  Yb4  1  0.001147  0.000000  0.247854  1
  Yb  Yb5  1  0.001147  0.000000  0.752146  1
  Zr  Zr6  1  0.998949  0.500000  0.252140  1
  Zr  Zr7  1  0.998949  0.500000  0.747860  1
  Zr  Zr8  1  0.498699  0.245849  0.249944  1
  Zr  Zr9  1  0.498699  0.754151  0.750056  1
  Zr  Zr10  1  0.498699  0.754151  0.249944  1
  Zr  Zr11  1  0.498699  0.245849  0.750056  1
  Se  Se12  1  0.825318  0.262072  0.346723  1
  Se  Se13  1  0.825318  0.737928  0.653277  1
  Se  Se14  1  0.177077  0.733360  0.153136  1
  Se  Se15  1  0.177077  0.266640  0.846864  1
  Se  Se16  1  0.177077  0.266640  0.153136  1
  Se  Se17  1  0.177077  0.733360  0.846864  1
  Se  Se18  1  0.825318  0.737928  0.346723  1
  Se  Se19  1  0.825318  0.262072  0.653277  1
  Se  Se20  1  0.644878  0.000000  0.152919  1
  Se  Se21  1  0.644878  0.000000  0.847081  1
  Se  Se22  1  0.329748  0.500000  0.344546  1
  Se  Se23  1  0.329748  0.500000  0.655454  1
  Se  Se24  1  0.358384  0.000000  0.347588  1
  Se  Se25  1  0.358384  0.000000  0.652412  1
  Se  Se26  1  0.668393  0.500000  0.157282  1
  Se  Se27  1  0.668393  0.500000  0.842718  1
