# generated using pymatgen
data_Er3Lu9Co5Sn
_symmetry_space_group_name_H-M   'P 1'
_cell_length_a   8.13354512
_cell_length_b   8.13067991
_cell_length_c   8.13067900
_cell_angle_alpha   106.66178770
_cell_angle_beta   111.03222384
_cell_angle_gamma   110.74038118
_symmetry_Int_Tables_number   1
_chemical_formula_structural   Er3Lu9Co5Sn
_chemical_formula_sum   'Er3 Lu9 Co5 Sn1'
_cell_volume   413.25158442
_cell_formula_units_Z   1
loop_
 _symmetry_equiv_pos_site_id
 _symmetry_equiv_pos_as_xyz
  1  'x, y, z'
loop_
 _atom_site_type_symbol
 _atom_site_label
 _atom_site_symmetry_multiplicity
 _atom_site_fract_x
 _atom_site_fract_y
 _atom_site_fract_z
 _atom_site_occupancy
  Er  Er0  1  0.475330  0.287806  0.187523  1
  Er  Er1  1  0.100866  0.287920  0.812946  1
  Er  Er2  1  0.899201  0.713294  0.185906  1
  Lu  Lu3  1  0.526820  0.713182  0.813639  1
  Lu  Lu4  1  0.307588  0.620763  0.315162  1
  Lu  Lu5  1  0.307588  0.992427  0.686826  1
  Lu  Lu6  1  0.692766  0.379904  0.686382  1
  Lu  Lu7  1  0.692766  0.006383  0.312861  1
  Lu  Lu8  1  0.194577  0.214121  0.407425  1
  Lu  Lu9  1  0.806416  0.787590  0.595720  1
  Lu  Lu10  1  0.194577  0.787153  0.980454  1
  Lu  Lu11  1  0.806416  0.210696  0.018828  1
  Co  Co12  1  0.498801  0.614386  0.111002  1
  Co  Co13  1  0.498801  0.387799  0.884415  1
  Co  Co14  1  0.374233  0.999701  0.374533  1
  Co  Co15  1  0.624846  0.998894  0.625953  1
  Co  Co16  1  0.998887  0.998157  0.000731  1
  Sn  Sn17  1  0.999516  0.499822  0.499694  1
