# generated using pymatgen
data_Sr2LiInO4
_symmetry_space_group_name_H-M   'P 1'
_cell_length_a   11.45429300
_cell_length_b   3.42736900
_cell_length_c   11.34803400
_cell_angle_alpha   90.00000000
_cell_angle_beta   90.00000000
_cell_angle_gamma   90.00000000
_symmetry_Int_Tables_number   1
_chemical_formula_structural   Sr2LiInO4
_chemical_formula_sum   'Sr8 Li4 In4 O16'
_cell_volume   445.50212585
_cell_formula_units_Z   4
loop_
 _symmetry_equiv_pos_site_id
 _symmetry_equiv_pos_as_xyz
  1  'x, y, z'
loop_
 _atom_site_type_symbol
 _atom_site_label
 _atom_site_symmetry_multiplicity
 _atom_site_fract_x
 _atom_site_fract_y
 _atom_site_fract_z
 _atom_site_occupancy
  Sr  Sr0  1  0.634766  0.499999  0.071393  1
  Sr  Sr1  1  0.098716  0.000000  0.121243  1
  Sr  Sr2  1  0.598716  0.000000  0.378757  1
  Sr  Sr3  1  0.134767  0.499999  0.428607  1
  Sr  Sr4  1  0.865233  0.000000  0.571393  1
  Sr  Sr5  1  0.401283  0.499999  0.621242  1
  Sr  Sr6  1  0.901283  0.499999  0.878757  1
  Sr  Sr7  1  0.365232  0.000000  0.928606  1
  Li  Li8  1  0.848255  0.000000  0.092285  1
  Li  Li9  1  0.348255  0.000000  0.407715  1
  Li  Li10  1  0.651745  0.499999  0.592284  1
  Li  Li11  1  0.151744  0.499999  0.907715  1
  In  In12  1  0.356925  0.499999  0.206801  1
  In  In13  1  0.856926  0.499999  0.293198  1
  In  In14  1  0.143074  0.000000  0.706802  1
  In  In15  1  0.643074  0.000000  0.793197  1
  O  O16  1  0.247778  0.499999  0.048475  1
  O  O17  1  0.936154  0.499999  0.113745  1
  O  O18  1  0.471089  0.000000  0.136300  1
  O  O19  1  0.742471  0.000000  0.218678  1
  O  O20  1  0.242471  0.000000  0.281321  1
  O  O21  1  0.971089  0.000000  0.363699  1
  O  O22  1  0.436153  0.499999  0.386254  1
  O  O23  1  0.747778  0.499999  0.451524  1
  O  O24  1  0.252221  0.000000  0.548475  1
  O  O25  1  0.563846  0.000000  0.613746  1
  O  O26  1  0.028910  0.499999  0.636300  1
  O  O27  1  0.757528  0.499999  0.718679  1
  O  O28  1  0.257529  0.499999  0.781321  1
  O  O29  1  0.528909  0.499999  0.863699  1
  O  O30  1  0.063846  0.000000  0.886254  1
  O  O31  1  0.752221  0.000000  0.951524  1
