# generated using pymatgen
data_Dy4Ho4ReTc3C8
_symmetry_space_group_name_H-M   'P 1'
_cell_length_a   5.09274400
_cell_length_b   6.56410487
_cell_length_c   9.85603101
_cell_angle_alpha   90.03184562
_cell_angle_beta   90.00000000
_cell_angle_gamma   90.00000000
_symmetry_Int_Tables_number   1
_chemical_formula_structural   Dy4Ho4ReTc3C8
_chemical_formula_sum   'Dy4 Ho4 Re1 Tc3 C8'
_cell_volume   329.48022270
_cell_formula_units_Z   1
loop_
 _symmetry_equiv_pos_site_id
 _symmetry_equiv_pos_as_xyz
  1  'x, y, z'
loop_
 _atom_site_type_symbol
 _atom_site_label
 _atom_site_symmetry_multiplicity
 _atom_site_fract_x
 _atom_site_fract_y
 _atom_site_fract_z
 _atom_site_occupancy
  Dy  Dy0  1  0.250000  0.465745  0.783688  1
  Dy  Dy1  1  0.750000  0.033094  0.284205  1
  Dy  Dy2  1  0.250000  0.966357  0.715578  1
  Dy  Dy3  1  0.750000  0.532842  0.215528  1
  Ho  Ho4  1  0.250000  0.823297  0.057562  1
  Ho  Ho5  1  0.750000  0.675843  0.557396  1
  Ho  Ho6  1  0.250000  0.323897  0.441937  1
  Ho  Ho7  1  0.750000  0.177461  0.941955  1
  Re  Re8  1  0.750000  0.717990  0.866685  1
  Tc  Tc9  1  0.250000  0.282177  0.133329  1
  Tc  Tc10  1  0.750000  0.218393  0.633490  1
  Tc  Tc11  1  0.250000  0.782453  0.366282  1
  C  C12  1  0.250000  0.176508  0.951166  1
  C  C13  1  0.750000  0.822647  0.049977  1
  C  C14  1  0.250000  0.677080  0.548596  1
  C  C15  1  0.750000  0.322800  0.451356  1
  C  C16  1  0.250000  0.049656  0.258226  1
  C  C17  1  0.750000  0.451798  0.759645  1
  C  C18  1  0.250000  0.549914  0.241381  1
  C  C19  1  0.750000  0.950045  0.742020  1
