# generated using pymatgen
data_Sc2U(SnRu)3
_symmetry_space_group_name_H-M   'P 1'
_cell_length_a   7.80217400
_cell_length_b   7.41223202
_cell_length_c   3.61034300
_cell_angle_alpha   90.00000000
_cell_angle_beta   90.00000000
_cell_angle_gamma   121.75606616
_symmetry_Int_Tables_number   1
_chemical_formula_structural   Sc2U(SnRu)3
_chemical_formula_sum   'Sc2 U1 Sn3 Ru3'
_cell_volume   177.53480032
_cell_formula_units_Z   1
loop_
 _symmetry_equiv_pos_site_id
 _symmetry_equiv_pos_as_xyz
  1  'x, y, z'
loop_
 _atom_site_type_symbol
 _atom_site_label
 _atom_site_symmetry_multiplicity
 _atom_site_fract_x
 _atom_site_fract_y
 _atom_site_fract_z
 _atom_site_occupancy
  Sc  Sc0  1  0.003148  0.397341  0.500000  1
  Sc  Sc1  1  0.605806  0.602659  0.500000  1
  U  U2  1  0.413292  0.000000  0.500000  1
  Sn  Sn3  1  0.978634  0.709223  0.000000  1
  Sn  Sn4  1  0.269411  0.290777  0.000000  1
  Sn  Sn5  1  0.754301  0.000000  0.000000  1
  Ru  Ru6  1  0.335259  0.707840  0.000000  1
  Ru  Ru7  1  0.627420  0.292160  0.000000  1
  Ru  Ru8  1  0.012729  0.000000  0.500000  1
