# generated using pymatgen
data_Tb3Y3(Ho2Sn3)2
_symmetry_space_group_name_H-M   'P 1'
_cell_length_a   8.98286817
_cell_length_b   8.97654706
_cell_length_c   6.54571900
_cell_angle_alpha   90.00000000
_cell_angle_beta   90.00000000
_cell_angle_gamma   120.00126667
_symmetry_Int_Tables_number   1
_chemical_formula_structural   Tb3Y3(Ho2Sn3)2
_chemical_formula_sum   'Tb3 Y3 Ho4 Sn6'
_cell_volume   457.09532985
_cell_formula_units_Z   1
loop_
 _symmetry_equiv_pos_site_id
 _symmetry_equiv_pos_as_xyz
  1  'x, y, z'
loop_
 _atom_site_type_symbol
 _atom_site_label
 _atom_site_symmetry_multiplicity
 _atom_site_fract_x
 _atom_site_fract_y
 _atom_site_fract_z
 _atom_site_occupancy
  Tb  Tb0  1  0.999987  0.760387  0.750000  1
  Tb  Tb1  1  0.000022  0.239578  0.250000  1
  Tb  Tb2  1  0.760360  0.760336  0.250000  1
  Y  Y3  1  0.760218  0.000025  0.750000  1
  Y  Y4  1  0.239658  0.239687  0.750000  1
  Y  Y5  1  0.239771  0.000002  0.250000  1
  Ho  Ho6  1  0.333374  0.666709  0.500027  1
  Ho  Ho7  1  0.666603  0.333270  0.999974  1
  Ho  Ho8  1  0.666603  0.333270  0.500026  1
  Ho  Ho9  1  0.333374  0.666709  0.999973  1
  Sn  Sn10  1  0.395805  0.000097  0.750000  1
  Sn  Sn11  1  0.395699  0.395601  0.250000  1
  Sn  Sn12  1  0.000115  0.604507  0.250000  1
  Sn  Sn13  1  0.000002  0.395438  0.750000  1
  Sn  Sn14  1  0.604276  0.604374  0.750000  1
  Sn  Sn15  1  0.604133  0.000009  0.250000  1
