# generated using pymatgen
data_SrCo2(Sb6Ru)2
_symmetry_space_group_name_H-M   'P 1'
_cell_length_a   8.08234962
_cell_length_b   8.03131253
_cell_length_c   8.03131193
_cell_angle_alpha   109.09489034
_cell_angle_beta   109.49159900
_cell_angle_gamma   109.56941491
_symmetry_Int_Tables_number   1
_chemical_formula_structural   SrCo2(Sb6Ru)2
_chemical_formula_sum   'Sr1 Co2 Sb12 Ru2'
_cell_volume   402.58371932
_cell_formula_units_Z   1
loop_
 _symmetry_equiv_pos_site_id
 _symmetry_equiv_pos_as_xyz
  1  'x, y, z'
loop_
 _atom_site_type_symbol
 _atom_site_label
 _atom_site_symmetry_multiplicity
 _atom_site_fract_x
 _atom_site_fract_y
 _atom_site_fract_z
 _atom_site_occupancy
  Sr  Sr0  1  0.000000  0.000000  0.000000  1
  Co  Co1  1  0.500000  0.500000  0.500000  1
  Co  Co2  1  0.500000  0.000000  0.000000  1
  Sb  Sb3  1  0.164474  0.499178  0.343916  1
  Sb  Sb4  1  0.501184  0.662364  0.838820  1
  Sb  Sb5  1  0.343399  0.844433  0.179282  1
  Sb  Sb6  1  0.817071  0.658964  0.158107  1
  Sb  Sb7  1  0.656601  0.835882  0.501034  1
  Sb  Sb8  1  0.182929  0.341036  0.841893  1
  Sb  Sb9  1  0.656601  0.155567  0.820718  1
  Sb  Sb10  1  0.343399  0.164118  0.498966  1
  Sb  Sb11  1  0.498816  0.337636  0.161180  1
  Sb  Sb12  1  0.835526  0.500822  0.656084  1
  Sb  Sb13  1  0.835526  0.179444  0.334704  1
  Sb  Sb14  1  0.164474  0.820556  0.665296  1
  Ru  Ru15  1  0.000000  0.500000  0.000000  1
  Ru  Ru16  1  0.000000  0.000000  0.500000  1
