# generated using pymatgen
data_La2Pr3Th(ScBi5)2
_symmetry_space_group_name_H-M   'P 1'
_cell_length_a   9.78720800
_cell_length_b   9.79480744
_cell_length_c   6.61467500
_cell_angle_alpha   90.00000000
_cell_angle_beta   90.00000000
_cell_angle_gamma   120.02567693
_symmetry_Int_Tables_number   1
_chemical_formula_structural   La2Pr3Th(ScBi5)2
_chemical_formula_sum   'La2 Pr3 Th1 Sc2 Bi10'
_cell_volume   549.01149343
_cell_formula_units_Z   1
loop_
 _symmetry_equiv_pos_site_id
 _symmetry_equiv_pos_as_xyz
  1  'x, y, z'
loop_
 _atom_site_type_symbol
 _atom_site_label
 _atom_site_symmetry_multiplicity
 _atom_site_fract_x
 _atom_site_fract_y
 _atom_site_fract_z
 _atom_site_occupancy
  La  La0  1  0.380579  0.380631  0.250000  1
  La  La1  1  0.619421  0.000051  0.250000  1
  Pr  Pr2  1  0.381379  0.001046  0.750000  1
  Pr  Pr3  1  0.618621  0.619666  0.750000  1
  Pr  Pr4  1  0.000000  0.378556  0.750000  1
  Th  Th5  1  0.000000  0.617405  0.250000  1
  Sc  Sc6  1  0.000000  0.000222  0.998110  1
  Sc  Sc7  1  0.000000  0.000222  0.501890  1
  Bi  Bi8  1  0.000000  0.262443  0.250000  1
  Bi  Bi9  1  0.330138  0.666940  0.500905  1
  Bi  Bi10  1  0.669862  0.336801  0.999095  1
  Bi  Bi11  1  0.330138  0.666940  0.999095  1
  Bi  Bi12  1  0.262249  0.261480  0.750000  1
  Bi  Bi13  1  0.737751  0.999232  0.750000  1
  Bi  Bi14  1  0.000000  0.736130  0.750000  1
  Bi  Bi15  1  0.740947  0.738189  0.250000  1
  Bi  Bi16  1  0.259053  0.997242  0.250000  1
  Bi  Bi17  1  0.669862  0.336801  0.500905  1
