# generated using pymatgen
data_V3Pd(SeO3)8
_symmetry_space_group_name_H-M   'P 1'
_cell_length_a   8.08397235
_cell_length_b   8.08397175
_cell_length_c   8.08397277
_cell_angle_alpha   89.55906799
_cell_angle_beta   90.44092846
_cell_angle_gamma   90.44093038
_symmetry_Int_Tables_number   1
_chemical_formula_structural   V3Pd(SeO3)8
_chemical_formula_sum   'V3 Pd1 Se8 O24'
_cell_volume   528.24581237
_cell_formula_units_Z   1
loop_
 _symmetry_equiv_pos_site_id
 _symmetry_equiv_pos_as_xyz
  1  'x, y, z'
loop_
 _atom_site_type_symbol
 _atom_site_label
 _atom_site_symmetry_multiplicity
 _atom_site_fract_x
 _atom_site_fract_y
 _atom_site_fract_z
 _atom_site_occupancy
  V  V0  1  0.500000  0.500000  0.500000  1
  V  V1  1  0.500000  0.000000  0.000000  1
  V  V2  1  0.000000  0.500000  0.000000  1
  Pd  Pd3  1  0.000000  0.000000  0.500000  1
  Se  Se4  1  0.837932  0.682149  0.322065  1
  Se  Se5  1  0.177935  0.162068  0.182149  1
  Se  Se6  1  0.675299  0.324701  0.824701  1
  Se  Se7  1  0.317851  0.822065  0.662068  1
  Se  Se8  1  0.162068  0.317851  0.677935  1
  Se  Se9  1  0.822065  0.837932  0.817851  1
  Se  Se10  1  0.324701  0.675299  0.175299  1
  Se  Se11  1  0.682149  0.177935  0.337932  1
  O  O12  1  0.730864  0.538317  0.438919  1
  O  O13  1  0.264332  0.022870  0.044017  1
  O  O14  1  0.767521  0.429959  0.988884  1
  O  O15  1  0.247611  0.979201  0.527846  1
  O  O16  1  0.455983  0.735668  0.522870  1
  O  O17  1  0.061081  0.269136  0.038317  1
  O  O18  1  0.972154  0.752389  0.479201  1
  O  O19  1  0.511116  0.232479  0.929959  1
  O  O20  1  0.570041  0.488884  0.732479  1
  O  O21  1  0.020799  0.027846  0.252389  1
  O  O22  1  0.461683  0.938919  0.769136  1
  O  O23  1  0.977130  0.544017  0.235668  1
  O  O24  1  0.269136  0.461683  0.561081  1
  O  O25  1  0.735668  0.977130  0.955983  1
  O  O26  1  0.232479  0.570041  0.011116  1
  O  O27  1  0.752389  0.020799  0.472154  1
  O  O28  1  0.544017  0.264332  0.477130  1
  O  O29  1  0.938919  0.730864  0.961683  1
  O  O30  1  0.027846  0.247611  0.520799  1
  O  O31  1  0.488884  0.767521  0.070041  1
  O  O32  1  0.429959  0.511116  0.267521  1
  O  O33  1  0.979201  0.972154  0.747611  1
  O  O34  1  0.538317  0.061081  0.230864  1
  O  O35  1  0.022870  0.455983  0.764332  1
