# generated using pymatgen
data_Lu2Mn11TcP7
_symmetry_space_group_name_H-M   'P 1'
_cell_length_a   9.18358004
_cell_length_b   9.23262401
_cell_length_c   3.63810000
_cell_angle_alpha   90.00000000
_cell_angle_beta   90.00000000
_cell_angle_gamma   120.19065309
_symmetry_Int_Tables_number   1
_chemical_formula_structural   Lu2Mn11TcP7
_chemical_formula_sum   'Lu2 Mn11 Tc1 P7'
_cell_volume   266.62746035
_cell_formula_units_Z   1
loop_
 _symmetry_equiv_pos_site_id
 _symmetry_equiv_pos_as_xyz
  1  'x, y, z'
loop_
 _atom_site_type_symbol
 _atom_site_label
 _atom_site_symmetry_multiplicity
 _atom_site_fract_x
 _atom_site_fract_y
 _atom_site_fract_z
 _atom_site_occupancy
  Lu  Lu0  1  0.334160  0.668897  0.000000  1
  Lu  Lu1  1  0.663792  0.331308  0.500000  1
  Mn  Mn2  1  0.428276  0.047648  0.000000  1
  Mn  Mn3  1  0.157260  0.280031  0.000000  1
  Mn  Mn4  1  0.952383  0.377097  0.000000  1
  Mn  Mn5  1  0.620485  0.573990  0.000000  1
  Mn  Mn6  1  0.114192  0.834797  0.000000  1
  Mn  Mn7  1  0.724694  0.880748  0.000000  1
  Mn  Mn8  1  0.904807  0.124526  0.500000  1
  Mn  Mn9  1  0.393279  0.438839  0.500000  1
  Mn  Mn10  1  0.042090  0.606201  0.500000  1
  Mn  Mn11  1  0.879119  0.777183  0.500000  1
  Mn  Mn12  1  0.564346  0.956756  0.500000  1
  Tc  Tc13  1  0.220008  0.098713  0.500000  1
  P  P14  1  0.002567  0.999999  0.000000  1
  P  P15  1  0.711646  0.121731  0.000000  1
  P  P16  1  0.411475  0.289507  0.000000  1
  P  P17  1  0.874142  0.583013  0.000000  1
  P  P18  1  0.130268  0.414162  0.500000  1
  P  P19  1  0.590703  0.721301  0.500000  1
  P  P20  1  0.280306  0.873556  0.500000  1
