# generated using pymatgen
data_PmAsO4
_symmetry_space_group_name_H-M   'P 1'
_cell_length_a   6.11236912
_cell_length_b   6.11236822
_cell_length_c   6.11236860
_cell_angle_alpha   106.39781670
_cell_angle_beta   115.81013563
_cell_angle_gamma   106.39781337
_symmetry_Int_Tables_number   1
_chemical_formula_structural   PmAsO4
_chemical_formula_sum   'Pm2 As2 O8'
_cell_volume   174.16374598
_cell_formula_units_Z   2
loop_
 _symmetry_equiv_pos_site_id
 _symmetry_equiv_pos_as_xyz
  1  'x, y, z'
loop_
 _atom_site_type_symbol
 _atom_site_label
 _atom_site_symmetry_multiplicity
 _atom_site_fract_x
 _atom_site_fract_y
 _atom_site_fract_z
 _atom_site_occupancy
  Pm  Pm0  1  0.875000  0.250001  0.125000  1
  Pm  Pm1  1  0.125000  0.750000  0.875000  1
  As  As2  1  0.625000  0.750000  0.374999  1
  As  As3  1  0.375000  0.250000  0.624999  1
  O  O4  1  0.274274  0.570898  0.203375  1
  O  O5  1  0.632477  0.929101  0.203375  1
  O  O6  1  0.203375  0.070898  0.274274  1
  O  O7  1  0.796626  0.570899  0.367524  1
  O  O8  1  0.203375  0.429101  0.632476  1
  O  O9  1  0.796626  0.929101  0.725726  1
  O  O10  1  0.367524  0.070898  0.796625  1
  O  O11  1  0.725726  0.429101  0.796625  1
