# generated using pymatgen
data_EuHf3(NiP2)2
_symmetry_space_group_name_H-M   'P 1'
_cell_length_a   3.83305800
_cell_length_b   3.83305748
_cell_length_c   13.45357800
_cell_angle_alpha   90.00000000
_cell_angle_beta   90.00000000
_cell_angle_gamma   120.00000450
_symmetry_Int_Tables_number   1
_chemical_formula_structural   EuHf3(NiP2)2
_chemical_formula_sum   'Eu1 Hf3 Ni2 P4'
_cell_volume   171.18240971
_cell_formula_units_Z   1
loop_
 _symmetry_equiv_pos_site_id
 _symmetry_equiv_pos_as_xyz
  1  'x, y, z'
loop_
 _atom_site_type_symbol
 _atom_site_label
 _atom_site_symmetry_multiplicity
 _atom_site_fract_x
 _atom_site_fract_y
 _atom_site_fract_z
 _atom_site_occupancy
  Eu  Eu0  1  0.333333  0.666667  0.848748  1
  Hf  Hf1  1  0.666667  0.333333  0.607530  1
  Hf  Hf2  1  0.333333  0.666667  0.137018  1
  Hf  Hf3  1  0.666667  0.333333  0.342394  1
  Ni  Ni4  1  0.000000  0.000000  0.024347  1
  Ni  Ni5  1  0.000000  0.000000  0.471302  1
  P  P6  1  0.666667  0.333333  0.005187  1
  P  P7  1  0.333333  0.666667  0.478049  1
  P  P8  1  0.000000  0.000000  0.713298  1
  P  P9  1  0.000000  0.000000  0.240789  1
