# generated using pymatgen
data_YTm5P13Rh20
_symmetry_space_group_name_H-M   'P 1'
_cell_length_a   13.30209206
_cell_length_b   13.29930010
_cell_length_c   3.90350700
_cell_angle_alpha   89.99968857
_cell_angle_beta   90.00383964
_cell_angle_gamma   119.99650056
_symmetry_Int_Tables_number   1
_chemical_formula_structural   YTm5P13Rh20
_chemical_formula_sum   'Y1 Tm5 P13 Rh20'
_cell_volume   598.06672765
_cell_formula_units_Z   1
loop_
 _symmetry_equiv_pos_site_id
 _symmetry_equiv_pos_as_xyz
  1  'x, y, z'
loop_
 _atom_site_type_symbol
 _atom_site_label
 _atom_site_symmetry_multiplicity
 _atom_site_fract_x
 _atom_site_fract_y
 _atom_site_fract_z
 _atom_site_occupancy
  Y  Y0  1  0.529035  0.717362  0.248611  1
  Tm  Tm1  1  0.282497  0.811674  0.248606  1
  Tm  Tm2  1  0.188332  0.470836  0.248652  1
  Tm  Tm3  1  0.470912  0.282593  0.751372  1
  Tm  Tm4  1  0.717458  0.188351  0.751416  1
  Tm  Tm5  1  0.811610  0.529097  0.751352  1
  P  P6  1  0.527001  0.139963  0.250351  1
  P  P7  1  0.860066  0.387054  0.250274  1
  P  P8  1  0.612923  0.473012  0.250284  1
  P  P9  1  0.944328  0.713909  0.254559  1
  P  P10  1  0.286104  0.230390  0.254570  1
  P  P11  1  0.769498  0.055632  0.254455  1
  P  P12  1  0.386538  0.526379  0.749734  1
  P  P13  1  0.472856  0.860386  0.749699  1
  P  P14  1  0.139818  0.612900  0.749760  1
  P  P15  1  0.714611  0.769820  0.745498  1
  P  P16  1  0.230427  0.944314  0.745535  1
  P  P17  1  0.055700  0.286088  0.745445  1
  P  P18  1  0.000037  0.000012  0.000036  1
  Rh  Rh19  1  0.332389  0.666431  0.752224  1
  Rh  Rh20  1  0.920354  0.250545  0.253235  1
  Rh  Rh21  1  0.749686  0.669746  0.253304  1
  Rh  Rh22  1  0.330208  0.079657  0.253217  1
  Rh  Rh23  1  0.438059  0.021686  0.751294  1
  Rh  Rh24  1  0.978271  0.416396  0.751343  1
  Rh  Rh25  1  0.583738  0.561328  0.751307  1
  Rh  Rh26  1  0.666686  0.333331  0.247727  1
  Rh  Rh27  1  0.094654  0.187522  0.247750  1
  Rh  Rh28  1  0.812605  0.907222  0.247812  1
  Rh  Rh29  1  0.092888  0.905292  0.247730  1
  Rh  Rh30  1  0.021702  0.583601  0.248608  1
  Rh  Rh31  1  0.416262  0.437768  0.248607  1
  Rh  Rh32  1  0.561943  0.978659  0.248708  1
  Rh  Rh33  1  0.670450  0.921394  0.746763  1
  Rh  Rh34  1  0.079636  0.749415  0.746741  1
  Rh  Rh35  1  0.250419  0.330082  0.746737  1
  Rh  Rh36  1  0.905593  0.812549  0.752211  1
  Rh  Rh37  1  0.187554  0.092912  0.752211  1
  Rh  Rh38  1  0.907151  0.094694  0.752259  1
