# generated using pymatgen
data_Tb10In8IrPd2Rh
_symmetry_space_group_name_H-M   'P 1'
_cell_length_a   8.17838172
_cell_length_b   18.38787748
_cell_length_c   3.65149200
_cell_angle_alpha   90.00000000
_cell_angle_beta   90.00000000
_cell_angle_gamma   90.08136073
_symmetry_Int_Tables_number   1
_chemical_formula_structural   Tb10In8IrPd2Rh
_chemical_formula_sum   'Tb10 In8 Ir1 Pd2 Rh1'
_cell_volume   549.12206356
_cell_formula_units_Z   1
loop_
 _symmetry_equiv_pos_site_id
 _symmetry_equiv_pos_as_xyz
  1  'x, y, z'
loop_
 _atom_site_type_symbol
 _atom_site_label
 _atom_site_symmetry_multiplicity
 _atom_site_fract_x
 _atom_site_fract_y
 _atom_site_fract_z
 _atom_site_occupancy
  Tb  Tb0  1  0.500172  0.499857  0.000000  1
  Tb  Tb1  1  0.000337  0.000342  0.000000  1
  Tb  Tb2  1  0.730460  0.278225  0.000000  1
  Tb  Tb3  1  0.266878  0.721276  0.000000  1
  Tb  Tb4  1  0.745607  0.779664  0.000000  1
  Tb  Tb5  1  0.255580  0.220309  0.000000  1
  Tb  Tb6  1  0.615973  0.087243  0.000000  1
  Tb  Tb7  1  0.384489  0.912638  0.000000  1
  Tb  Tb8  1  0.882743  0.584826  0.000000  1
  Tb  Tb9  1  0.117414  0.415134  0.000000  1
  In  In10  1  0.708457  0.931070  0.500000  1
  In  In11  1  0.292373  0.068067  0.500000  1
  In  In12  1  0.792294  0.432255  0.500000  1
  In  In13  1  0.208024  0.567950  0.500000  1
  In  In14  1  0.574885  0.649079  0.500000  1
  In  In15  1  0.424782  0.351422  0.500000  1
  In  In16  1  0.925661  0.150381  0.500000  1
  In  In17  1  0.075132  0.849868  0.500000  1
  Ir  Ir18  1  0.520666  0.195682  0.500000  1
  Pd  Pd19  1  0.979614  0.696443  0.500000  1
  Pd  Pd20  1  0.020194  0.303660  0.500000  1
  Rh  Rh21  1  0.478265  0.804607  0.500000  1
