# generated using pymatgen
data_SmCrFe3Tc8
_symmetry_space_group_name_H-M   'P 1'
_cell_length_a   4.81208088
_cell_length_b   6.77340188
_cell_length_c   6.73413507
_cell_angle_alpha   82.45536163
_cell_angle_beta   69.06614612
_cell_angle_gamma   68.43944841
_symmetry_Int_Tables_number   1
_chemical_formula_structural   SmCrFe3Tc8
_chemical_formula_sum   'Sm1 Cr1 Fe3 Tc8'
_cell_volume   190.66118149
_cell_formula_units_Z   1
loop_
 _symmetry_equiv_pos_site_id
 _symmetry_equiv_pos_as_xyz
  1  'x, y, z'
loop_
 _atom_site_type_symbol
 _atom_site_label
 _atom_site_symmetry_multiplicity
 _atom_site_fract_x
 _atom_site_fract_y
 _atom_site_fract_z
 _atom_site_occupancy
  Sm  Sm0  1  0.000000  0.000000  0.000000  1
  Cr  Cr1  1  0.000000  0.500000  0.000000  1
  Fe  Fe2  1  0.000000  0.000000  0.500000  1
  Fe  Fe3  1  0.500000  0.000000  0.500000  1
  Fe  Fe4  1  0.500000  0.500000  0.000000  1
  Tc  Tc5  1  0.000411  0.357035  0.641523  1
  Tc  Tc6  1  0.999589  0.642965  0.358477  1
  Tc  Tc7  1  0.641933  0.357035  0.358477  1
  Tc  Tc8  1  0.358067  0.642965  0.641523  1
  Tc  Tc9  1  0.500868  0.781579  0.218179  1
  Tc  Tc10  1  0.499132  0.218421  0.781821  1
  Tc  Tc11  1  0.719047  0.781579  0.781821  1
  Tc  Tc12  1  0.280953  0.218421  0.218179  1
