# generated using pymatgen
data_Dy7Er3In8Pt3Rh
_symmetry_space_group_name_H-M   'P 1'
_cell_length_a   3.62716200
_cell_length_b   8.13943167
_cell_length_c   18.24671837
_cell_angle_alpha   90.04829041
_cell_angle_beta   90.00000000
_cell_angle_gamma   90.00000000
_symmetry_Int_Tables_number   1
_chemical_formula_structural   Dy7Er3In8Pt3Rh
_chemical_formula_sum   'Dy7 Er3 In8 Pt3 Rh1'
_cell_volume   538.69835501
_cell_formula_units_Z   1
loop_
 _symmetry_equiv_pos_site_id
 _symmetry_equiv_pos_as_xyz
  1  'x, y, z'
loop_
 _atom_site_type_symbol
 _atom_site_label
 _atom_site_symmetry_multiplicity
 _atom_site_fract_x
 _atom_site_fract_y
 _atom_site_fract_z
 _atom_site_occupancy
  Dy  Dy0  1  0.000000  0.617153  0.085564  1
  Dy  Dy1  1  0.000000  0.239696  0.221756  1
  Dy  Dy2  1  0.000000  0.757146  0.779560  1
  Dy  Dy3  1  0.000000  0.256708  0.720851  1
  Dy  Dy4  1  0.000000  0.750689  0.279328  1
  Dy  Dy5  1  0.000000  0.000019  0.000040  1
  Dy  Dy6  1  0.000000  0.500224  0.499820  1
  Er  Er7  1  0.000000  0.114582  0.412090  1
  Er  Er8  1  0.000000  0.882818  0.585350  1
  Er  Er9  1  0.000000  0.383304  0.914658  1
  In  In10  1  0.500000  0.423228  0.351518  1
  In  In11  1  0.500000  0.575519  0.648522  1
  In  In12  1  0.500000  0.075636  0.851565  1
  In  In13  1  0.500000  0.927651  0.149556  1
  In  In14  1  0.500000  0.291905  0.066789  1
  In  In15  1  0.500000  0.707230  0.933287  1
  In  In16  1  0.500000  0.206902  0.566355  1
  In  In17  1  0.500000  0.793825  0.431770  1
  Pt  Pt18  1  0.500000  0.974595  0.695948  1
  Pt  Pt19  1  0.500000  0.474743  0.803914  1
  Pt  Pt20  1  0.500000  0.523252  0.197030  1
  Rh  Rh21  1  0.500000  0.023174  0.304728  1
