# generated using pymatgen
data_Sc8Cu4OsPt3
_symmetry_space_group_name_H-M   'P 1'
_cell_length_a   6.46349451
_cell_length_b   4.64348700
_cell_length_c   9.27753667
_cell_angle_alpha   90.00000000
_cell_angle_beta   90.19662722
_cell_angle_gamma   90.00000000
_symmetry_Int_Tables_number   1
_chemical_formula_structural   Sc8Cu4OsPt3
_chemical_formula_sum   'Sc8 Cu4 Os1 Pt3'
_cell_volume   278.44648525
_cell_formula_units_Z   1
loop_
 _symmetry_equiv_pos_site_id
 _symmetry_equiv_pos_as_xyz
  1  'x, y, z'
loop_
 _atom_site_type_symbol
 _atom_site_label
 _atom_site_symmetry_multiplicity
 _atom_site_fract_x
 _atom_site_fract_y
 _atom_site_fract_z
 _atom_site_occupancy
  Sc  Sc0  1  0.502669  0.750000  0.120215  1
  Sc  Sc1  1  0.997117  0.750000  0.120226  1
  Sc  Sc2  1  0.500885  0.250000  0.375038  1
  Sc  Sc3  1  0.999059  0.250000  0.374949  1
  Sc  Sc4  1  0.997128  0.750000  0.629741  1
  Sc  Sc5  1  0.502970  0.750000  0.629843  1
  Sc  Sc6  1  0.995412  0.250000  0.875121  1
  Sc  Sc7  1  0.504598  0.250000  0.874987  1
  Cu  Cu8  1  0.749997  0.250000  0.118115  1
  Cu  Cu9  1  0.250078  0.750000  0.375198  1
  Cu  Cu10  1  0.750274  0.250000  0.631475  1
  Cu  Cu11  1  0.250247  0.750000  0.874912  1
  Os  Os12  1  0.750000  0.750000  0.875073  1
  Pt  Pt13  1  0.249932  0.250000  0.127955  1
  Pt  Pt14  1  0.749790  0.750000  0.375029  1
  Pt  Pt15  1  0.249845  0.250000  0.622121  1
