# generated using pymatgen
data_Ta13FeCo7Os3C4
_symmetry_space_group_name_H-M   'P 1'
_cell_length_a   8.11137548
_cell_length_b   8.17989379
_cell_length_c   8.17904600
_cell_angle_alpha   60.00342842
_cell_angle_beta   59.72364087
_cell_angle_gamma   59.73769232
_symmetry_Int_Tables_number   1
_chemical_formula_structural   Ta13FeCo7Os3C4
_chemical_formula_sum   'Ta13 Fe1 Co7 Os3 C4'
_cell_volume   382.17380787
_cell_formula_units_Z   1
loop_
 _symmetry_equiv_pos_site_id
 _symmetry_equiv_pos_as_xyz
  1  'x, y, z'
loop_
 _atom_site_type_symbol
 _atom_site_label
 _atom_site_symmetry_multiplicity
 _atom_site_fract_x
 _atom_site_fract_y
 _atom_site_fract_z
 _atom_site_occupancy
  Ta  Ta0  1  0.123095  0.625636  0.625635  1
  Ta  Ta1  1  0.805021  0.804703  0.195138  1
  Ta  Ta2  1  0.195485  0.186548  0.808984  1
  Ta  Ta3  1  0.804994  0.195150  0.804761  1
  Ta  Ta4  1  0.195496  0.809038  0.186537  1
  Ta  Ta5  1  0.195496  0.809038  0.808928  1
  Ta  Ta6  1  0.804994  0.195150  0.195093  1
  Ta  Ta7  1  0.446475  0.444810  0.054357  1
  Ta  Ta8  1  0.055662  0.064606  0.439866  1
  Ta  Ta9  1  0.446356  0.054395  0.444879  1
  Ta  Ta10  1  0.055566  0.439931  0.064606  1
  Ta  Ta11  1  0.055566  0.439931  0.439897  1
  Ta  Ta12  1  0.446356  0.054395  0.054371  1
  Fe  Fe13  1  0.718512  0.427136  0.427177  1
  Co  Co14  1  0.420864  0.738088  0.420524  1
  Co  Co15  1  0.420807  0.420551  0.738087  1
  Co  Co16  1  0.420807  0.420551  0.420556  1
  Co  Co17  1  0.520390  0.826503  0.826553  1
  Co  Co18  1  0.826960  0.512753  0.830143  1
  Co  Co19  1  0.826987  0.830131  0.512720  1
  Co  Co20  1  0.826987  0.830131  0.830163  1
  Os  Os21  1  0.628343  0.125865  0.622896  1
  Os  Os22  1  0.628334  0.622869  0.125921  1
  Os  Os23  1  0.628334  0.622869  0.622877  1
  C  C24  1  0.624560  0.125186  0.125127  1
  C  C25  1  0.125781  0.624766  0.124727  1
  C  C26  1  0.125887  0.124636  0.624803  1
  C  C27  1  0.125887  0.124636  0.124675  1
