# generated using pymatgen
data_NbTcF10
_symmetry_space_group_name_H-M   'P 1'
_cell_length_a   5.76853938
_cell_length_b   7.58546197
_cell_length_c   9.98782830
_cell_angle_alpha   88.25711090
_cell_angle_beta   105.82377096
_cell_angle_gamma   99.06941632
_symmetry_Int_Tables_number   1
_chemical_formula_structural   NbTcF10
_chemical_formula_sum   'Nb2 Tc2 F20'
_cell_volume   415.18310544
_cell_formula_units_Z   2
loop_
 _symmetry_equiv_pos_site_id
 _symmetry_equiv_pos_as_xyz
  1  'x, y, z'
loop_
 _atom_site_type_symbol
 _atom_site_label
 _atom_site_symmetry_multiplicity
 _atom_site_fract_x
 _atom_site_fract_y
 _atom_site_fract_z
 _atom_site_occupancy
  Nb  Nb0  1  0.340386  0.386905  0.222300  1
  Nb  Nb1  1  0.659614  0.613095  0.777700  1
  Tc  Tc2  1  0.963634  0.765928  0.315083  1
  Tc  Tc3  1  0.036366  0.234072  0.684917  1
  F  F4  1  0.028441  0.253953  0.169278  1
  F  F5  1  0.971559  0.746047  0.830722  1
  F  F6  1  0.495298  0.222971  0.158177  1
  F  F7  1  0.504702  0.777029  0.841823  1
  F  F8  1  0.108475  0.239216  0.877928  1
  F  F9  1  0.891525  0.760784  0.122072  1
  F  F10  1  0.961373  0.300551  0.499923  1
  F  F11  1  0.038627  0.699449  0.500077  1
  F  F12  1  0.776453  0.047716  0.661089  1
  F  F13  1  0.223547  0.952284  0.338911  1
  F  F14  1  0.238626  0.073404  0.672076  1
  F  F15  1  0.761374  0.926596  0.327924  1
  F  F16  1  0.320205  0.441442  0.711334  1
  F  F17  1  0.679795  0.558558  0.288666  1
  F  F18  1  0.817878  0.415154  0.699695  1
  F  F19  1  0.182122  0.584846  0.300305  1
  F  F20  1  0.695298  0.453592  0.928801  1
  F  F21  1  0.304702  0.546408  0.071199  1
  F  F22  1  0.577441  0.671208  0.587270  1
  F  F23  1  0.422559  0.328792  0.412730  1
