# generated using pymatgen
data_LaNd2(ZnSb3)2
_symmetry_space_group_name_H-M   'P 1'
_cell_length_a   4.29228200
_cell_length_b   10.51814800
_cell_length_c   13.46542100
_cell_angle_alpha   90.00000000
_cell_angle_beta   90.00000000
_cell_angle_gamma   90.00000000
_symmetry_Int_Tables_number   1
_chemical_formula_structural   LaNd2(ZnSb3)2
_chemical_formula_sum   'La2 Nd4 Zn4 Sb12'
_cell_volume   607.92144083
_cell_formula_units_Z   2
loop_
 _symmetry_equiv_pos_site_id
 _symmetry_equiv_pos_as_xyz
  1  'x, y, z'
loop_
 _atom_site_type_symbol
 _atom_site_label
 _atom_site_symmetry_multiplicity
 _atom_site_fract_x
 _atom_site_fract_y
 _atom_site_fract_z
 _atom_site_occupancy
  La  La0  1  0.750000  0.246169  0.750000  1
  La  La1  1  0.250000  0.753831  0.250000  1
  Nd  Nd2  1  0.750000  0.264815  0.408979  1
  Nd  Nd3  1  0.250000  0.735185  0.908979  1
  Nd  Nd4  1  0.250000  0.735185  0.591021  1
  Nd  Nd5  1  0.750000  0.264815  0.091021  1
  Zn  Zn6  1  0.250000  0.001146  0.088960  1
  Zn  Zn7  1  0.250000  0.001146  0.411040  1
  Zn  Zn8  1  0.750000  0.998854  0.588960  1
  Zn  Zn9  1  0.750000  0.998854  0.911040  1
  Sb  Sb10  1  0.750000  0.504949  0.250000  1
  Sb  Sb11  1  0.750000  0.491958  0.916789  1
  Sb  Sb12  1  0.750000  0.846188  0.750000  1
  Sb  Sb13  1  0.750000  0.838224  0.423391  1
  Sb  Sb14  1  0.250000  0.161776  0.923391  1
  Sb  Sb15  1  0.250000  0.161776  0.576609  1
  Sb  Sb16  1  0.250000  0.153812  0.250000  1
  Sb  Sb17  1  0.250000  0.508042  0.083211  1
  Sb  Sb18  1  0.250000  0.495051  0.750000  1
  Sb  Sb19  1  0.250000  0.508042  0.416789  1
  Sb  Sb20  1  0.750000  0.491958  0.583211  1
  Sb  Sb21  1  0.750000  0.838224  0.076609  1
