# generated using pymatgen
data_Y6Ho13Er(Cd3Ru)2
_symmetry_space_group_name_H-M   'P 1'
_cell_length_a   9.58047800
_cell_length_b   9.58047222
_cell_length_c   9.81837400
_cell_angle_alpha   90.00000869
_cell_angle_beta   90.00007090
_cell_angle_gamma   119.99986626
_symmetry_Int_Tables_number   1
_chemical_formula_structural   Y6Ho13Er(Cd3Ru)2
_chemical_formula_sum   'Y6 Ho13 Er1 Cd6 Ru2'
_cell_volume   780.44963485
_cell_formula_units_Z   1
loop_
 _symmetry_equiv_pos_site_id
 _symmetry_equiv_pos_as_xyz
  1  'x, y, z'
loop_
 _atom_site_type_symbol
 _atom_site_label
 _atom_site_symmetry_multiplicity
 _atom_site_fract_x
 _atom_site_fract_y
 _atom_site_fract_z
 _atom_site_occupancy
  Y  Y0  1  0.541164  0.458835  0.249991  1
  Y  Y1  1  0.541165  0.082327  0.249995  1
  Y  Y2  1  0.917672  0.458834  0.249992  1
  Y  Y3  1  0.458836  0.541165  0.750009  1
  Y  Y4  1  0.458835  0.917673  0.750005  1
  Y  Y5  1  0.082328  0.541166  0.750008  1
  Ho  Ho6  1  0.000000  0.000000  0.500000  1
  Ho  Ho7  1  0.209700  0.790299  0.440215  1
  Ho  Ho8  1  0.209700  0.419402  0.440215  1
  Ho  Ho9  1  0.580598  0.790300  0.440214  1
  Ho  Ho10  1  0.790300  0.209701  0.559785  1
  Ho  Ho11  1  0.790300  0.580598  0.559785  1
  Ho  Ho12  1  0.419402  0.209700  0.559786  1
  Ho  Ho13  1  0.790339  0.209661  0.940213  1
  Ho  Ho14  1  0.790339  0.580675  0.940214  1
  Ho  Ho15  1  0.419324  0.209661  0.940213  1
  Ho  Ho16  1  0.209661  0.790339  0.059787  1
  Ho  Ho17  1  0.209661  0.419325  0.059786  1
  Ho  Ho18  1  0.580676  0.790339  0.059787  1
  Er  Er19  1  0.000000  0.000000  0.000000  1
  Cd  Cd20  1  0.885572  0.114425  0.249923  1
  Cd  Cd21  1  0.885574  0.771151  0.249922  1
  Cd  Cd22  1  0.228852  0.114426  0.249922  1
  Cd  Cd23  1  0.114428  0.885575  0.750077  1
  Cd  Cd24  1  0.114426  0.228849  0.750078  1
  Cd  Cd25  1  0.771148  0.885574  0.750078  1
  Ru  Ru26  1  0.333332  0.666667  0.249996  1
  Ru  Ru27  1  0.666668  0.333333  0.750004  1
