# generated using pymatgen
data_Lu3Th2Ru3
_symmetry_space_group_name_H-M   'P 1'
_cell_length_a   6.30583300
_cell_length_b   8.07076753
_cell_length_c   8.22557759
_cell_angle_alpha   119.37935934
_cell_angle_beta   90.00000000
_cell_angle_gamma   90.00000000
_symmetry_Int_Tables_number   1
_chemical_formula_structural   Lu3Th2Ru3
_chemical_formula_sum   'Lu6 Th4 Ru6'
_cell_volume   364.78466941
_cell_formula_units_Z   2
loop_
 _symmetry_equiv_pos_site_id
 _symmetry_equiv_pos_as_xyz
  1  'x, y, z'
loop_
 _atom_site_type_symbol
 _atom_site_label
 _atom_site_symmetry_multiplicity
 _atom_site_fract_x
 _atom_site_fract_y
 _atom_site_fract_z
 _atom_site_occupancy
  Lu  Lu0  1  0.000000  0.665184  0.330367  1
  Lu  Lu1  1  0.000000  0.334816  0.669633  1
  Lu  Lu2  1  0.500000  0.334816  0.669633  1
  Lu  Lu3  1  0.500000  0.665184  0.330367  1
  Lu  Lu4  1  0.750000  0.256962  0.000000  1
  Lu  Lu5  1  0.250000  0.743038  0.000000  1
  Th  Th6  1  0.750000  0.753912  0.753058  1
  Th  Th7  1  0.250000  0.246088  0.246942  1
  Th  Th8  1  0.750000  0.000854  0.246942  1
  Th  Th9  1  0.250000  0.999146  0.753058  1
  Ru  Ru10  1  0.750000  0.386941  0.394700  1
  Ru  Ru11  1  0.250000  0.613059  0.605300  1
  Ru  Ru12  1  0.750000  0.992241  0.605300  1
  Ru  Ru13  1  0.250000  0.007759  0.394700  1
  Ru  Ru14  1  0.750000  0.610961  0.000000  1
  Ru  Ru15  1  0.250000  0.389039  0.000000  1
