# generated using pymatgen
data_PrFe2(CoB2)2
_symmetry_space_group_name_H-M   'P 1'
_cell_length_a   7.07622900
_cell_length_b   7.07622900
_cell_length_c   3.79833100
_cell_angle_alpha   90.00000000
_cell_angle_beta   90.00000000
_cell_angle_gamma   90.00000000
_symmetry_Int_Tables_number   1
_chemical_formula_structural   PrFe2(CoB2)2
_chemical_formula_sum   'Pr2 Fe4 Co4 B8'
_cell_volume   190.19389220
_cell_formula_units_Z   2
loop_
 _symmetry_equiv_pos_site_id
 _symmetry_equiv_pos_as_xyz
  1  'x, y, z'
loop_
 _atom_site_type_symbol
 _atom_site_label
 _atom_site_symmetry_multiplicity
 _atom_site_fract_x
 _atom_site_fract_y
 _atom_site_fract_z
 _atom_site_occupancy
  Pr  Pr0  1  0.000000  0.000000  0.000180  1
  Pr  Pr1  1  0.500000  0.500000  0.500180  1
  Fe  Fe2  1  0.866685  0.387403  0.104822  1
  Fe  Fe3  1  0.133315  0.612597  0.104822  1
  Fe  Fe4  1  0.887403  0.633315  0.604822  1
  Fe  Fe5  1  0.112597  0.366685  0.604822  1
  Co  Co6  1  0.638943  0.113939  0.393014  1
  Co  Co7  1  0.361057  0.886061  0.393014  1
  Co  Co8  1  0.613939  0.861057  0.893014  1
  Co  Co9  1  0.386061  0.138943  0.893014  1
  B  B10  1  0.336613  0.795808  0.896846  1
  B  B11  1  0.663387  0.204192  0.896846  1
  B  B12  1  0.295808  0.163387  0.396846  1
  B  B13  1  0.704192  0.836613  0.396846  1
  B  B14  1  0.163975  0.700937  0.605228  1
  B  B15  1  0.836025  0.299063  0.605228  1
  B  B16  1  0.200937  0.336025  0.105228  1
  B  B17  1  0.799063  0.663975  0.105228  1
