# generated using pymatgen
data_Nd4Fe3NiO12
_symmetry_space_group_name_H-M   'P 1'
_cell_length_a   5.46181762
_cell_length_b   5.69006396
_cell_length_c   7.82591194
_cell_angle_alpha   90.12732787
_cell_angle_beta   90.07911442
_cell_angle_gamma   90.10021810
_symmetry_Int_Tables_number   1
_chemical_formula_structural   Nd4Fe3NiO12
_chemical_formula_sum   'Nd4 Fe3 Ni1 O12'
_cell_volume   243.21320217
_cell_formula_units_Z   1
loop_
 _symmetry_equiv_pos_site_id
 _symmetry_equiv_pos_as_xyz
  1  'x, y, z'
loop_
 _atom_site_type_symbol
 _atom_site_label
 _atom_site_symmetry_multiplicity
 _atom_site_fract_x
 _atom_site_fract_y
 _atom_site_fract_z
 _atom_site_occupancy
  Nd  Nd0  1  0.486095  0.441778  0.246523  1
  Nd  Nd1  1  0.014372  0.936966  0.246204  1
  Nd  Nd2  1  0.513905  0.558222  0.753477  1
  Nd  Nd3  1  0.985628  0.063034  0.753796  1
  Fe  Fe4  1  0.500000  0.000000  0.500000  1
  Fe  Fe5  1  0.000000  0.500000  0.500000  1
  Fe  Fe6  1  0.500000  0.000000  0.000000  1
  Ni  Ni7  1  0.000000  0.500000  0.000000  1
  O  O8  1  0.207345  0.196466  0.044909  1
  O  O9  1  0.298900  0.702663  0.450750  1
  O  O10  1  0.797291  0.798765  0.549548  1
  O  O11  1  0.697768  0.293383  0.954127  1
  O  O12  1  0.792655  0.803534  0.955091  1
  O  O13  1  0.701100  0.297337  0.549250  1
  O  O14  1  0.202709  0.201235  0.450452  1
  O  O15  1  0.302232  0.706617  0.045873  1
  O  O16  1  0.590385  0.024888  0.251540  1
  O  O17  1  0.910291  0.523945  0.254252  1
  O  O18  1  0.409615  0.975112  0.748460  1
  O  O19  1  0.089709  0.476055  0.745748  1
