# generated using pymatgen
data_HoAl8Cu3SiAu
_symmetry_space_group_name_H-M   'P 1'
_cell_length_a   5.84794281
_cell_length_b   5.84794160
_cell_length_c   14.50259551
_cell_angle_alpha   101.63153837
_cell_angle_beta   101.63153592
_cell_angle_gamma   90.00001123
_symmetry_Int_Tables_number   1
_chemical_formula_structural   HoAl8Cu3SiAu
_chemical_formula_sum   'Ho2 Al16 Cu6 Si2 Au2'
_cell_volume   475.37790714
_cell_formula_units_Z   2
loop_
 _symmetry_equiv_pos_site_id
 _symmetry_equiv_pos_as_xyz
  1  'x, y, z'
loop_
 _atom_site_type_symbol
 _atom_site_label
 _atom_site_symmetry_multiplicity
 _atom_site_fract_x
 _atom_site_fract_y
 _atom_site_fract_z
 _atom_site_occupancy
  Ho  Ho0  1  0.750001  0.250000  0.500000  1
  Ho  Ho1  1  0.250000  0.750001  0.500000  1
  Al  Al2  1  0.306670  0.306670  0.113231  1
  Al  Al3  1  0.806562  0.306670  0.113231  1
  Al  Al4  1  0.306670  0.806562  0.113231  1
  Al  Al5  1  0.806562  0.806562  0.113231  1
  Al  Al6  1  0.412289  0.412289  0.314978  1
  Al  Al7  1  0.902688  0.412289  0.314978  1
  Al  Al8  1  0.412289  0.902688  0.314978  1
  Al  Al9  1  0.902688  0.902688  0.314978  1
  Al  Al10  1  0.097311  0.097311  0.685022  1
  Al  Al11  1  0.587711  0.097311  0.685022  1
  Al  Al12  1  0.097311  0.587711  0.685022  1
  Al  Al13  1  0.587711  0.587711  0.685022  1
  Al  Al14  1  0.193439  0.193439  0.886769  1
  Al  Al15  1  0.693329  0.193439  0.886769  1
  Al  Al16  1  0.193439  0.693329  0.886769  1
  Al  Al17  1  0.693329  0.693329  0.886769  1
  Cu  Cu18  1  0.607386  0.107386  0.214771  1
  Cu  Cu19  1  0.107386  0.607386  0.214771  1
  Cu  Cu20  1  0.708161  0.708161  0.416320  1
  Cu  Cu21  1  0.291840  0.291840  0.583680  1
  Cu  Cu22  1  0.892615  0.392614  0.785228  1
  Cu  Cu23  1  0.392614  0.892615  0.785228  1
  Si  Si24  1  0.211135  0.211135  0.422272  1
  Si  Si25  1  0.788865  0.788865  0.577729  1
  Au  Au26  1  0.000000  0.000000  0.000000  1
  Au  Au27  1  0.500001  0.500001  0.000000  1
