# generated using pymatgen
data_Nd3Y7Cd3Os
_symmetry_space_group_name_H-M   'P 1'
_cell_length_a   9.73892600
_cell_length_b   9.73892659
_cell_length_c   9.97926500
_cell_angle_alpha   90.00000000
_cell_angle_beta   90.00000000
_cell_angle_gamma   119.99999800
_symmetry_Int_Tables_number   1
_chemical_formula_structural   Nd3Y7Cd3Os
_chemical_formula_sum   'Nd6 Y14 Cd6 Os2'
_cell_volume   819.69324089
_cell_formula_units_Z   2
loop_
 _symmetry_equiv_pos_site_id
 _symmetry_equiv_pos_as_xyz
  1  'x, y, z'
loop_
 _atom_site_type_symbol
 _atom_site_label
 _atom_site_symmetry_multiplicity
 _atom_site_fract_x
 _atom_site_fract_y
 _atom_site_fract_z
 _atom_site_occupancy
  Nd  Nd0  1  0.540132  0.459868  0.250000  1
  Nd  Nd1  1  0.540132  0.080264  0.250000  1
  Nd  Nd2  1  0.919736  0.459868  0.250000  1
  Nd  Nd3  1  0.459868  0.540132  0.750000  1
  Nd  Nd4  1  0.459868  0.919736  0.750000  1
  Nd  Nd5  1  0.080264  0.540132  0.750000  1
  Y  Y6  1  0.000000  0.000000  0.500000  1
  Y  Y7  1  0.000000  0.000000  0.000000  1
  Y  Y8  1  0.209773  0.790227  0.438421  1
  Y  Y9  1  0.209773  0.419545  0.438421  1
  Y  Y10  1  0.580455  0.790227  0.438421  1
  Y  Y11  1  0.790227  0.209773  0.561579  1
  Y  Y12  1  0.790227  0.580455  0.561579  1
  Y  Y13  1  0.419545  0.209773  0.561579  1
  Y  Y14  1  0.790227  0.209773  0.938421  1
  Y  Y15  1  0.790227  0.580455  0.938421  1
  Y  Y16  1  0.419545  0.209773  0.938421  1
  Y  Y17  1  0.209773  0.790227  0.061579  1
  Y  Y18  1  0.209773  0.419545  0.061579  1
  Y  Y19  1  0.580455  0.790227  0.061579  1
  Cd  Cd20  1  0.887365  0.112635  0.250000  1
  Cd  Cd21  1  0.887365  0.774730  0.250000  1
  Cd  Cd22  1  0.225270  0.112635  0.250000  1
  Cd  Cd23  1  0.112635  0.887365  0.750000  1
  Cd  Cd24  1  0.112635  0.225270  0.750000  1
  Cd  Cd25  1  0.774730  0.887365  0.750000  1
  Os  Os26  1  0.333333  0.666667  0.250000  1
  Os  Os27  1  0.666667  0.333333  0.750000  1
