# generated using pymatgen
data_Ca3EuNb2O9
_symmetry_space_group_name_H-M   'P 1'
_cell_length_a   5.75238400
_cell_length_b   5.75238441
_cell_length_c   15.21540300
_cell_angle_alpha   90.00001992
_cell_angle_beta   90.00001992
_cell_angle_gamma   120.00006046
_symmetry_Int_Tables_number   1
_chemical_formula_structural   Ca3EuNb2O9
_chemical_formula_sum   'Ca6 Eu2 Nb4 O18'
_cell_volume   436.02319947
_cell_formula_units_Z   2
loop_
 _symmetry_equiv_pos_site_id
 _symmetry_equiv_pos_as_xyz
  1  'x, y, z'
loop_
 _atom_site_type_symbol
 _atom_site_label
 _atom_site_symmetry_multiplicity
 _atom_site_fract_x
 _atom_site_fract_y
 _atom_site_fract_z
 _atom_site_occupancy
  Ca  Ca0  1  0.666665  0.333333  0.142624  1
  Ca  Ca1  1  0.333334  0.666667  0.643087  1
  Ca  Ca2  1  0.333335  0.666667  0.857376  1
  Ca  Ca3  1  0.666666  0.333333  0.356913  1
  Ca  Ca4  1  0.000000  0.000000  0.000000  1
  Ca  Ca5  1  0.000000  0.000000  0.500000  1
  Eu  Eu6  1  0.999999  0.999999  0.249749  1
  Eu  Eu7  1  0.000001  0.000001  0.750251  1
  Nb  Nb8  1  0.666667  0.333334  0.649517  1
  Nb  Nb9  1  0.666668  0.333334  0.850776  1
  Nb  Nb10  1  0.333333  0.666666  0.350483  1
  Nb  Nb11  1  0.333332  0.666666  0.149224  1
  O  O12  1  0.056950  0.342921  0.097642  1
  O  O13  1  0.342922  0.285970  0.597847  1
  O  O14  1  0.657078  0.714030  0.402153  1
  O  O15  1  0.436285  0.026523  0.750143  1
  O  O16  1  0.409761  0.436283  0.249857  1
  O  O17  1  0.342922  0.285971  0.902358  1
  O  O18  1  0.285969  0.943048  0.097642  1
  O  O19  1  0.590239  0.563717  0.750143  1
  O  O20  1  0.943050  0.657079  0.902358  1
  O  O21  1  0.973475  0.409761  0.750143  1
  O  O22  1  0.026525  0.590239  0.249857  1
  O  O23  1  0.563715  0.973477  0.249857  1
  O  O24  1  0.285969  0.943047  0.402153  1
  O  O25  1  0.056951  0.342922  0.402153  1
  O  O26  1  0.714031  0.056953  0.597847  1
  O  O27  1  0.714031  0.056952  0.902358  1
  O  O28  1  0.943049  0.657078  0.597847  1
  O  O29  1  0.657078  0.714029  0.097642  1
