# generated using pymatgen
data_Er16Sc4Bi11Sb
_symmetry_space_group_name_H-M   'P 1'
_cell_length_a   8.03743803
_cell_length_b   9.34177400
_cell_length_c   11.79960500
_cell_angle_alpha   90.00000000
_cell_angle_beta   89.99494581
_cell_angle_gamma   90.00000000
_symmetry_Int_Tables_number   1
_chemical_formula_structural   Er16Sc4Bi11Sb
_chemical_formula_sum   'Er16 Sc4 Bi11 Sb1'
_cell_volume   885.96070800
_cell_formula_units_Z   1
loop_
 _symmetry_equiv_pos_site_id
 _symmetry_equiv_pos_as_xyz
  1  'x, y, z'
loop_
 _atom_site_type_symbol
 _atom_site_label
 _atom_site_symmetry_multiplicity
 _atom_site_fract_x
 _atom_site_fract_y
 _atom_site_fract_z
 _atom_site_occupancy
  Er  Er0  1  0.355278  0.250000  0.286793  1
  Er  Er1  1  0.645607  0.750000  0.716435  1
  Er  Er2  1  0.145592  0.750000  0.782962  1
  Er  Er3  1  0.854632  0.250000  0.216462  1
  Er  Er4  1  0.188074  0.250000  0.778808  1
  Er  Er5  1  0.813686  0.750000  0.218991  1
  Er  Er6  1  0.313982  0.750000  0.281106  1
  Er  Er7  1  0.681202  0.250000  0.716301  1
  Er  Er8  1  0.196084  0.065870  0.059239  1
  Er  Er9  1  0.803765  0.934394  0.941060  1
  Er  Er10  1  0.305538  0.937921  0.558582  1
  Er  Er11  1  0.803765  0.565606  0.941060  1
  Er  Er12  1  0.692964  0.067539  0.442712  1
  Er  Er13  1  0.196084  0.434130  0.059239  1
  Er  Er14  1  0.692964  0.432461  0.442712  1
  Er  Er15  1  0.305538  0.562079  0.558582  1
  Sc  Sc16  1  0.028163  0.250000  0.512323  1
  Sc  Sc17  1  0.976971  0.750000  0.488112  1
  Sc  Sc18  1  0.475299  0.750000  0.012564  1
  Sc  Sc19  1  0.525239  0.250000  0.987466  1
  Bi  Bi20  1  0.599168  0.750000  0.457317  1
  Bi  Bi21  1  0.098453  0.750000  0.042551  1
  Bi  Bi22  1  0.902605  0.250000  0.956337  1
  Bi  Bi23  1  0.064895  0.003535  0.329739  1
  Bi  Bi24  1  0.934080  0.996895  0.670468  1
  Bi  Bi25  1  0.434290  0.995879  0.829707  1
  Bi  Bi26  1  0.934080  0.503105  0.670468  1
  Bi  Bi27  1  0.565610  0.004122  0.170512  1
  Bi  Bi28  1  0.064895  0.496465  0.329739  1
  Bi  Bi29  1  0.565610  0.495878  0.170512  1
  Bi  Bi30  1  0.434290  0.504121  0.829707  1
  Sb  Sb31  1  0.401596  0.250000  0.541433  1
