# generated using pymatgen
data_DyEr5Al24Co5Ru3
_symmetry_space_group_name_H-M   'P 1'
_cell_length_a   8.69595413
_cell_length_b   8.69853140
_cell_length_c   9.39350401
_cell_angle_alpha   89.99999896
_cell_angle_beta   90.00452924
_cell_angle_gamma   120.00980635
_symmetry_Int_Tables_number   1
_chemical_formula_structural   DyEr5Al24Co5Ru3
_chemical_formula_sum   'Dy1 Er5 Al24 Co5 Ru3'
_cell_volume   615.28808876
_cell_formula_units_Z   1
loop_
 _symmetry_equiv_pos_site_id
 _symmetry_equiv_pos_as_xyz
  1  'x, y, z'
loop_
 _atom_site_type_symbol
 _atom_site_label
 _atom_site_symmetry_multiplicity
 _atom_site_fract_x
 _atom_site_fract_y
 _atom_site_fract_z
 _atom_site_occupancy
  Dy  Dy0  1  0.388911  0.194455  0.747534  1
  Er  Er1  1  0.195254  0.804881  0.252230  1
  Er  Er2  1  0.195254  0.390374  0.252230  1
  Er  Er3  1  0.609758  0.804880  0.252233  1
  Er  Er4  1  0.804962  0.195143  0.747792  1
  Er  Er5  1  0.804962  0.609819  0.747792  1
  Al  Al6  1  0.560371  0.439774  0.256817  1
  Al  Al7  1  0.560371  0.120598  0.256817  1
  Al  Al8  1  0.879477  0.439739  0.256882  1
  Al  Al9  1  0.439782  0.560806  0.743208  1
  Al  Al10  1  0.439782  0.878975  0.743208  1
  Al  Al11  1  0.120542  0.560271  0.743173  1
  Al  Al12  1  0.324615  0.162307  0.424820  1
  Al  Al13  1  0.837697  0.162312  0.425264  1
  Al  Al14  1  0.837697  0.675385  0.425264  1
  Al  Al15  1  0.675378  0.837689  0.574596  1
  Al  Al16  1  0.162128  0.837258  0.574465  1
  Al  Al17  1  0.162128  0.324871  0.574465  1
  Al  Al18  1  0.679942  0.839971  0.921966  1
  Al  Al19  1  0.159932  0.839607  0.922102  1
  Al  Al20  1  0.159932  0.320325  0.922102  1
  Al  Al21  1  0.320167  0.160084  0.078477  1
  Al  Al22  1  0.839929  0.160043  0.078208  1
  Al  Al23  1  0.839929  0.679886  0.078208  1
  Al  Al24  1  0.667062  0.333531  0.519122  1
  Al  Al25  1  0.333377  0.666689  0.480536  1
  Al  Al26  1  0.333372  0.666686  0.017224  1
  Al  Al27  1  0.666840  0.333419  0.983006  1
  Al  Al28  1  0.000060  0.000030  0.250121  1
  Al  Al29  1  0.999177  0.999589  0.749923  1
  Co  Co30  1  0.000110  0.000055  0.500054  1
  Co  Co31  1  0.000132  0.000066  0.999981  1
  Co  Co32  1  0.500145  0.500309  0.499786  1
  Co  Co33  1  0.500145  0.999836  0.499786  1
  Co  Co34  1  0.000219  0.500110  0.499925  1
  Ru  Ru35  1  0.500158  0.500346  0.000278  1
  Ru  Ru36  1  0.500158  0.999813  0.000278  1
  Ru  Ru37  1  0.000141  0.500071  0.000129  1
