# generated using pymatgen
data_La2Cd3InPd2
_symmetry_space_group_name_H-M   'P 1'
_cell_length_a   5.57313512
_cell_length_b   5.57313428
_cell_length_c   8.50287874
_cell_angle_alpha   90.13913736
_cell_angle_beta   89.86086255
_cell_angle_gamma   133.41402027
_symmetry_Int_Tables_number   1
_chemical_formula_structural   La2Cd3InPd2
_chemical_formula_sum   'La2 Cd3 In1 Pd2'
_cell_volume   191.84181760
_cell_formula_units_Z   1
loop_
 _symmetry_equiv_pos_site_id
 _symmetry_equiv_pos_as_xyz
  1  'x, y, z'
loop_
 _atom_site_type_symbol
 _atom_site_label
 _atom_site_symmetry_multiplicity
 _atom_site_fract_x
 _atom_site_fract_y
 _atom_site_fract_z
 _atom_site_occupancy
  La  La0  1  0.064602  0.935398  0.245723  1
  La  La1  1  0.935109  0.064891  0.756261  1
  Cd  Cd2  1  0.357053  0.642947  0.446286  1
  Cd  Cd3  1  0.645513  0.354487  0.952743  1
  Cd  Cd4  1  0.354225  0.645775  0.049191  1
  In  In5  1  0.647765  0.352235  0.550617  1
  Pd  Pd6  1  0.219100  0.780900  0.746127  1
  Pd  Pd7  1  0.776631  0.223369  0.253052  1
