# generated using pymatgen
data_TmZn2InIr2
_symmetry_space_group_name_H-M   'P 1'
_cell_length_a   5.22961195
_cell_length_b   5.13980829
_cell_length_c   5.22961203
_cell_angle_alpha   60.56643778
_cell_angle_beta   65.50491788
_cell_angle_gamma   60.56643526
_symmetry_Int_Tables_number   1
_chemical_formula_structural   TmZn2InIr2
_chemical_formula_sum   'Tm1 Zn2 In1 Ir2'
_cell_volume   103.80794245
_cell_formula_units_Z   1
loop_
 _symmetry_equiv_pos_site_id
 _symmetry_equiv_pos_as_xyz
  1  'x, y, z'
loop_
 _atom_site_type_symbol
 _atom_site_label
 _atom_site_symmetry_multiplicity
 _atom_site_fract_x
 _atom_site_fract_y
 _atom_site_fract_z
 _atom_site_occupancy
  Tm  Tm0  1  0.755897  0.744103  0.755897  1
  Zn  Zn1  1  0.374733  0.870260  0.374733  1
  Zn  Zn2  1  0.374733  0.380273  0.374733  1
  In  In3  1  0.995711  0.004289  0.995711  1
  Ir  Ir4  1  0.880363  0.375538  0.368562  1
  Ir  Ir5  1  0.368562  0.375538  0.880363  1
