# generated using pymatgen
data_Ac2FeCoO6
_symmetry_space_group_name_H-M   'P 1'
_cell_length_a   5.54370296
_cell_length_b   5.54370252
_cell_length_c   5.54370300
_cell_angle_alpha   61.07241594
_cell_angle_beta   61.07241844
_cell_angle_gamma   61.07242194
_symmetry_Int_Tables_number   1
_chemical_formula_structural   Ac2FeCoO6
_chemical_formula_sum   'Ac2 Fe1 Co1 O6'
_cell_volume   123.38033632
_cell_formula_units_Z   1
loop_
 _symmetry_equiv_pos_site_id
 _symmetry_equiv_pos_as_xyz
  1  'x, y, z'
loop_
 _atom_site_type_symbol
 _atom_site_label
 _atom_site_symmetry_multiplicity
 _atom_site_fract_x
 _atom_site_fract_y
 _atom_site_fract_z
 _atom_site_occupancy
  Ac  Ac0  1  0.250723  0.250723  0.250723  1
  Ac  Ac1  1  0.749277  0.749277  0.749277  1
  Fe  Fe2  1  0.000000  0.000000  0.000000  1
  Co  Co3  1  0.500000  0.500000  0.500000  1
  O  O4  1  0.745717  0.295974  0.211318  1
  O  O5  1  0.704026  0.788682  0.254282  1
  O  O6  1  0.211318  0.745717  0.295974  1
  O  O7  1  0.788682  0.254283  0.704026  1
  O  O8  1  0.295974  0.211318  0.745718  1
  O  O9  1  0.254282  0.704026  0.788682  1
