# generated using pymatgen
data_SrAcTl(AsO4)2
_symmetry_space_group_name_H-M   'P 1'
_cell_length_a   7.48097200
_cell_length_b   7.48097218
_cell_length_c   13.81304600
_cell_angle_alpha   90.00000000
_cell_angle_beta   90.00000000
_cell_angle_gamma   119.99999922
_symmetry_Int_Tables_number   1
_chemical_formula_structural   SrAcTl(AsO4)2
_chemical_formula_sum   'Sr3 Ac3 Tl3 As6 O24'
_cell_volume   669.47777164
_cell_formula_units_Z   3
loop_
 _symmetry_equiv_pos_site_id
 _symmetry_equiv_pos_as_xyz
  1  'x, y, z'
loop_
 _atom_site_type_symbol
 _atom_site_label
 _atom_site_symmetry_multiplicity
 _atom_site_fract_x
 _atom_site_fract_y
 _atom_site_fract_z
 _atom_site_occupancy
  Sr  Sr0  1  0.499025  0.000007  0.414846  1
  Sr  Sr1  1  0.500983  0.500975  0.748179  1
  Sr  Sr2  1  0.999993  0.499017  0.081512  1
  Ac  Ac3  1  0.495326  0.000149  0.917477  1
  Ac  Ac4  1  0.504823  0.504674  0.250810  1
  Ac  Ac5  1  0.999851  0.495177  0.584143  1
  Tl  Tl6  1  0.001999  0.008886  0.142799  1
  Tl  Tl7  1  0.006885  0.998001  0.476132  1
  Tl  Tl8  1  0.991114  0.993115  0.809466  1
  As  As9  1  0.491071  0.001320  0.165060  1
  As  As10  1  0.489220  0.999178  0.668001  1
  As  As11  1  0.509958  0.510780  0.001334  1
  As  As12  1  0.510250  0.508929  0.498393  1
  As  As13  1  0.000822  0.490042  0.334667  1
  As  As14  1  0.998680  0.489750  0.831726  1
  O  O15  1  0.137541  0.694767  0.412139  1
  O  O16  1  0.135853  0.695346  0.907552  1
  O  O17  1  0.289235  0.866447  0.085929  1
  O  O18  1  0.284522  0.863197  0.591095  1
  O  O19  1  0.136803  0.421325  0.257762  1
  O  O20  1  0.133553  0.422789  0.752596  1
  O  O21  1  0.304654  0.440507  0.574219  1
  O  O22  1  0.305233  0.442773  0.078806  1
  O  O23  1  0.559493  0.864147  0.240885  1
  O  O24  1  0.557227  0.862459  0.745472  1
  O  O25  1  0.577211  0.710765  0.419263  1
  O  O26  1  0.578675  0.715478  0.924429  1
  O  O27  1  0.444025  0.304746  0.421249  1
  O  O28  1  0.446752  0.307212  0.924846  1
  O  O29  1  0.416896  0.134334  0.240901  1
  O  O30  1  0.421793  0.132473  0.748006  1
  O  O31  1  0.710679  0.578207  0.081339  1
  O  O32  1  0.717438  0.583104  0.574234  1
  O  O33  1  0.860459  0.553248  0.258180  1
  O  O34  1  0.860722  0.555975  0.754583  1
  O  O35  1  0.695254  0.139278  0.087916  1
  O  O36  1  0.692788  0.139541  0.591513  1
  O  O37  1  0.867527  0.289321  0.414673  1
  O  O38  1  0.865666  0.282562  0.907568  1
