# generated using pymatgen
data_Dy4ErHf5(Si5Ir2)4
_symmetry_space_group_name_H-M   'P 1'
_cell_length_a   12.48657600
_cell_length_b   12.48657600
_cell_length_c   4.16541900
_cell_angle_alpha   90.00000000
_cell_angle_beta   90.00000000
_cell_angle_gamma   90.00000000
_symmetry_Int_Tables_number   1
_chemical_formula_structural   Dy4ErHf5(Si5Ir2)4
_chemical_formula_sum   'Dy4 Er1 Hf5 Si20 Ir8'
_cell_volume   649.44955476
_cell_formula_units_Z   1
loop_
 _symmetry_equiv_pos_site_id
 _symmetry_equiv_pos_as_xyz
  1  'x, y, z'
loop_
 _atom_site_type_symbol
 _atom_site_label
 _atom_site_symmetry_multiplicity
 _atom_site_fract_x
 _atom_site_fract_y
 _atom_site_fract_z
 _atom_site_occupancy
  Dy  Dy0  1  0.884121  0.384455  0.500000  1
  Dy  Dy1  1  0.115879  0.615545  0.500000  1
  Dy  Dy2  1  0.384455  0.115879  0.500000  1
  Dy  Dy3  1  0.615545  0.884121  0.500000  1
  Er  Er4  1  0.000000  0.000000  0.000000  1
  Hf  Hf5  1  0.500000  0.500000  0.000000  1
  Hf  Hf6  1  0.673458  0.174993  0.500000  1
  Hf  Hf7  1  0.326542  0.825007  0.500000  1
  Hf  Hf8  1  0.174993  0.326542  0.500000  1
  Hf  Hf9  1  0.825007  0.673458  0.500000  1
  Si  Si10  1  0.565833  0.067699  0.000000  1
  Si  Si11  1  0.434167  0.932301  0.000000  1
  Si  Si12  1  0.067699  0.434167  0.000000  1
  Si  Si13  1  0.932301  0.565833  0.000000  1
  Si  Si14  1  0.665768  0.701207  0.000000  1
  Si  Si15  1  0.334232  0.298793  0.000000  1
  Si  Si16  1  0.164155  0.800888  0.000000  1
  Si  Si17  1  0.835845  0.199112  0.000000  1
  Si  Si18  1  0.298793  0.665768  0.000000  1
  Si  Si19  1  0.701207  0.334232  0.000000  1
  Si  Si20  1  0.199112  0.164155  0.000000  1
  Si  Si21  1  0.800888  0.835845  0.000000  1
  Si  Si22  1  0.651192  0.507642  0.500000  1
  Si  Si23  1  0.348808  0.492358  0.500000  1
  Si  Si24  1  0.156121  0.992787  0.500000  1
  Si  Si25  1  0.843879  0.007213  0.500000  1
  Si  Si26  1  0.492358  0.651192  0.500000  1
  Si  Si27  1  0.507642  0.348808  0.500000  1
  Si  Si28  1  0.007213  0.156121  0.500000  1
  Si  Si29  1  0.992787  0.843879  0.500000  1
  Ir  Ir30  1  0.741974  0.521573  0.000000  1
  Ir  Ir31  1  0.258026  0.478427  0.000000  1
  Ir  Ir32  1  0.246118  0.978011  0.000000  1
  Ir  Ir33  1  0.753882  0.021989  0.000000  1
  Ir  Ir34  1  0.478427  0.741974  0.000000  1
  Ir  Ir35  1  0.521573  0.258026  0.000000  1
  Ir  Ir36  1  0.021989  0.246118  0.000000  1
  Ir  Ir37  1  0.978011  0.753882  0.000000  1
