# generated using pymatgen
data_Pa2SiNi3
_symmetry_space_group_name_H-M   'P 1'
_cell_length_a   5.25673400
_cell_length_b   5.25679312
_cell_length_c   7.75088300
_cell_angle_alpha   90.00222444
_cell_angle_beta   89.99757135
_cell_angle_gamma   120.00107660
_symmetry_Int_Tables_number   1
_chemical_formula_structural   Pa2SiNi3
_chemical_formula_sum   'Pa4 Si2 Ni6'
_cell_volume   185.48721859
_cell_formula_units_Z   2
loop_
 _symmetry_equiv_pos_site_id
 _symmetry_equiv_pos_as_xyz
  1  'x, y, z'
loop_
 _atom_site_type_symbol
 _atom_site_label
 _atom_site_symmetry_multiplicity
 _atom_site_fract_x
 _atom_site_fract_y
 _atom_site_fract_z
 _atom_site_occupancy
  Pa  Pa0  1  0.666704  0.333347  0.933050  1
  Pa  Pa1  1  0.333310  0.666645  0.432791  1
  Pa  Pa2  1  0.666690  0.333355  0.567209  1
  Pa  Pa3  1  0.333296  0.666653  0.066950  1
  Si  Si4  1  0.000000  0.000000  0.500000  1
  Si  Si5  1  0.000000  0.000000  0.000000  1
  Ni  Ni6  1  0.166338  0.833698  0.750019  1
  Ni  Ni7  1  0.667381  0.833687  0.750040  1
  Ni  Ni8  1  0.833662  0.166302  0.249981  1
  Ni  Ni9  1  0.166342  0.332643  0.750041  1
  Ni  Ni10  1  0.833658  0.667357  0.249959  1
  Ni  Ni11  1  0.332619  0.166313  0.249960  1
