# generated using pymatgen
data_Pr6Al5Ga4Si3
_symmetry_space_group_name_H-M   'P 1'
_cell_length_a   4.33246664
_cell_length_b   4.24612743
_cell_length_c   22.48588840
_cell_angle_alpha   84.59504131
_cell_angle_beta   95.51651417
_cell_angle_gamma   90.01260567
_symmetry_Int_Tables_number   1
_chemical_formula_structural   Pr6Al5Ga4Si3
_chemical_formula_sum   'Pr6 Al5 Ga4 Si3'
_cell_volume   409.89223169
_cell_formula_units_Z   1
loop_
 _symmetry_equiv_pos_site_id
 _symmetry_equiv_pos_as_xyz
  1  'x, y, z'
loop_
 _atom_site_type_symbol
 _atom_site_label
 _atom_site_symmetry_multiplicity
 _atom_site_fract_x
 _atom_site_fract_y
 _atom_site_fract_z
 _atom_site_occupancy
  Pr  Pr0  1  0.373879  0.875889  0.247447  1
  Pr  Pr1  1  0.040695  0.208912  0.581285  1
  Pr  Pr2  1  0.707916  0.541572  0.915968  1
  Pr  Pr3  1  0.292097  0.457953  0.084386  1
  Pr  Pr4  1  0.959178  0.791040  0.418501  1
  Pr  Pr5  1  0.626128  0.123991  0.752392  1
  Al  Al6  1  0.430646  0.319024  0.361173  1
  Al  Al7  1  0.097221  0.652757  0.694625  1
  Al  Al8  1  0.848206  0.402834  0.194570  1
  Al  Al9  1  0.514740  0.735818  0.528367  1
  Al  Al10  1  0.181404  0.068805  0.862092  1
  Ga  Ga11  1  0.902968  0.347656  0.305621  1
  Ga  Ga12  1  0.569738  0.681257  0.639264  1
  Ga  Ga13  1  0.236767  0.014132  0.973203  1
  Ga  Ga14  1  0.764038  0.985666  0.028128  1
  Si  Si15  1  0.817616  0.931155  0.137295  1
  Si  Si16  1  0.484922  0.264195  0.471047  1
  Si  Si17  1  0.151841  0.597343  0.804635  1
