# generated using pymatgen
data_SmU3(NiAs)4
_symmetry_space_group_name_H-M   'P 1'
_cell_length_a   4.09535800
_cell_length_b   4.09535758
_cell_length_c   15.30925600
_cell_angle_alpha   90.00000000
_cell_angle_beta   90.00000000
_cell_angle_gamma   120.00001957
_symmetry_Int_Tables_number   1
_chemical_formula_structural   SmU3(NiAs)4
_chemical_formula_sum   'Sm1 U3 Ni4 As4'
_cell_volume   222.36597276
_cell_formula_units_Z   1
loop_
 _symmetry_equiv_pos_site_id
 _symmetry_equiv_pos_as_xyz
  1  'x, y, z'
loop_
 _atom_site_type_symbol
 _atom_site_label
 _atom_site_symmetry_multiplicity
 _atom_site_fract_x
 _atom_site_fract_y
 _atom_site_fract_z
 _atom_site_occupancy
  Sm  Sm0  1  0.000000  0.000000  0.000000  1
  U  U1  1  0.000000  0.000000  0.251634  1
  U  U2  1  0.000000  0.000000  0.748366  1
  U  U3  1  0.000000  0.000000  0.500000  1
  Ni  Ni4  1  0.333333  0.666667  0.157913  1
  Ni  Ni5  1  0.666667  0.333333  0.842087  1
  Ni  Ni6  1  0.666667  0.333333  0.650482  1
  Ni  Ni7  1  0.333333  0.666667  0.349518  1
  As  As8  1  0.333333  0.666667  0.618327  1
  As  As9  1  0.666667  0.333333  0.381673  1
  As  As10  1  0.666667  0.333333  0.123012  1
  As  As11  1  0.333333  0.666667  0.876988  1
