# generated using pymatgen
data_Er3AuO6
_symmetry_space_group_name_H-M   'P 1'
_cell_length_a   3.55569326
_cell_length_b   5.52730076
_cell_length_c   7.02311031
_cell_angle_alpha   89.85204077
_cell_angle_beta   102.54040955
_cell_angle_gamma   91.12619217
_symmetry_Int_Tables_number   1
_chemical_formula_structural   Er3AuO6
_chemical_formula_sum   'Er3 Au1 O6'
_cell_volume   134.70875506
_cell_formula_units_Z   1
loop_
 _symmetry_equiv_pos_site_id
 _symmetry_equiv_pos_as_xyz
  1  'x, y, z'
loop_
 _atom_site_type_symbol
 _atom_site_label
 _atom_site_symmetry_multiplicity
 _atom_site_fract_x
 _atom_site_fract_y
 _atom_site_fract_z
 _atom_site_occupancy
  Er  Er0  1  0.611120  0.529931  0.762175  1
  Er  Er1  1  0.388880  0.470069  0.237825  1
  Er  Er2  1  0.000000  0.000000  0.500000  1
  Au  Au3  1  0.000000  0.000000  0.000000  1
  O  O4  1  0.836499  0.680888  0.108748  1
  O  O5  1  0.163501  0.319112  0.891252  1
  O  O6  1  0.522178  0.256120  0.529392  1
  O  O7  1  0.477822  0.743880  0.470608  1
  O  O8  1  0.125576  0.796364  0.784049  1
  O  O9  1  0.874424  0.203636  0.215951  1
