# generated using pymatgen
data_KNd2GdB24
_symmetry_space_group_name_H-M   'P 1'
_cell_length_a   7.15071602
_cell_length_b   7.15071595
_cell_length_c   5.88363600
_cell_angle_alpha   90.00000000
_cell_angle_beta   90.00000000
_cell_angle_gamma   109.22397337
_symmetry_Int_Tables_number   1
_chemical_formula_structural   KNd2GdB24
_chemical_formula_sum   'K1 Nd2 Gd1 B24'
_cell_volume   284.07083262
_cell_formula_units_Z   1
loop_
 _symmetry_equiv_pos_site_id
 _symmetry_equiv_pos_as_xyz
  1  'x, y, z'
loop_
 _atom_site_type_symbol
 _atom_site_label
 _atom_site_symmetry_multiplicity
 _atom_site_fract_x
 _atom_site_fract_y
 _atom_site_fract_z
 _atom_site_occupancy
  K  K0  1  0.000000  0.000000  0.000000  1
  Nd  Nd1  1  0.752361  0.247639  0.500000  1
  Nd  Nd2  1  0.247639  0.752361  0.500000  1
  Gd  Gd3  1  0.500000  0.500000  0.000000  1
  B  B4  1  0.176478  0.326255  0.649688  1
  B  B5  1  0.923709  0.574519  0.148390  1
  B  B6  1  0.673745  0.823522  0.649688  1
  B  B7  1  0.425481  0.076291  0.148390  1
  B  B8  1  0.176478  0.326255  0.350312  1
  B  B9  1  0.923709  0.574519  0.851610  1
  B  B10  1  0.673745  0.823522  0.350312  1
  B  B11  1  0.425481  0.076291  0.851610  1
  B  B12  1  0.400439  0.400439  0.500000  1
  B  B13  1  0.148437  0.650940  0.000000  1
  B  B14  1  0.898773  0.898773  0.500000  1
  B  B15  1  0.650940  0.148437  0.000000  1
  B  B16  1  0.326255  0.176478  0.649688  1
  B  B17  1  0.076291  0.425481  0.148390  1
  B  B18  1  0.823522  0.673745  0.649688  1
  B  B19  1  0.574519  0.923709  0.148390  1
  B  B20  1  0.101227  0.101227  0.500000  1
  B  B21  1  0.851563  0.349060  0.000000  1
  B  B22  1  0.599561  0.599561  0.500000  1
  B  B23  1  0.349060  0.851563  0.000000  1
  B  B24  1  0.326255  0.176478  0.350312  1
  B  B25  1  0.076291  0.425481  0.851610  1
  B  B26  1  0.823522  0.673745  0.350312  1
  B  B27  1  0.574519  0.923709  0.851610  1
