# generated using pymatgen
data_Nd2Sc3Se7
_symmetry_space_group_name_H-M   'P 1'
_cell_length_a   6.72623356
_cell_length_b   6.72623395
_cell_length_c   11.98521222
_cell_angle_alpha   75.82923040
_cell_angle_beta   75.82923022
_cell_angle_gamma   34.02150833
_symmetry_Int_Tables_number   1
_chemical_formula_structural   Nd2Sc3Se7
_chemical_formula_sum   'Nd2 Sc3 Se7'
_cell_volume   293.27334362
_cell_formula_units_Z   1
loop_
 _symmetry_equiv_pos_site_id
 _symmetry_equiv_pos_as_xyz
  1  'x, y, z'
loop_
 _atom_site_type_symbol
 _atom_site_label
 _atom_site_symmetry_multiplicity
 _atom_site_fract_x
 _atom_site_fract_y
 _atom_site_fract_z
 _atom_site_occupancy
  Nd  Nd0  1  0.300894  0.300894  0.803795  1
  Nd  Nd1  1  0.699106  0.699106  0.196205  1
  Sc  Sc2  1  0.111116  0.111116  0.573024  1
  Sc  Sc3  1  0.888884  0.888884  0.426976  1
  Sc  Sc4  1  0.000000  0.000000  0.000000  1
  Se  Se5  1  0.263451  0.263451  0.364503  1
  Se  Se6  1  0.736549  0.736549  0.635497  1
  Se  Se7  1  0.977014  0.977014  0.782954  1
  Se  Se8  1  0.022986  0.022986  0.217046  1
  Se  Se9  1  0.651811  0.651811  0.953213  1
  Se  Se10  1  0.500000  0.500000  0.500000  1
  Se  Se11  1  0.348189  0.348189  0.046787  1
