# generated using pymatgen
data_Yb7Th(Ge4Mo3)4
_symmetry_space_group_name_H-M   'P 1'
_cell_length_a   6.87213627
_cell_length_b   7.04476378
_cell_length_c   13.24434069
_cell_angle_alpha   89.95817885
_cell_angle_beta   90.08251342
_cell_angle_gamma   90.06633862
_symmetry_Int_Tables_number   1
_chemical_formula_structural   Yb7Th(Ge4Mo3)4
_chemical_formula_sum   'Yb7 Th1 Ge16 Mo12'
_cell_volume   641.19139409
_cell_formula_units_Z   1
loop_
 _symmetry_equiv_pos_site_id
 _symmetry_equiv_pos_as_xyz
  1  'x, y, z'
loop_
 _atom_site_type_symbol
 _atom_site_label
 _atom_site_symmetry_multiplicity
 _atom_site_fract_x
 _atom_site_fract_y
 _atom_site_fract_z
 _atom_site_occupancy
  Yb  Yb0  1  0.492537  0.670596  0.589299  1
  Yb  Yb1  1  0.991564  0.829410  0.911101  1
  Yb  Yb2  1  0.506987  0.328775  0.089684  1
  Yb  Yb3  1  0.007884  0.172074  0.406913  1
  Yb  Yb4  1  0.508146  0.329207  0.407058  1
  Yb  Yb5  1  0.006828  0.171952  0.089711  1
  Yb  Yb6  1  0.492498  0.668825  0.914089  1
  Th  Th7  1  0.993381  0.829571  0.590598  1
  Ge  Ge8  1  0.666257  0.956746  0.450054  1
  Ge  Ge9  1  0.169856  0.544907  0.046212  1
  Ge  Ge10  1  0.329212  0.043948  0.954894  1
  Ge  Ge11  1  0.826162  0.445037  0.543981  1
  Ge  Ge12  1  0.337421  0.052112  0.544588  1
  Ge  Ge13  1  0.830679  0.455706  0.953963  1
  Ge  Ge14  1  0.669789  0.955787  0.045836  1
  Ge  Ge15  1  0.173480  0.539093  0.451467  1
  Ge  Ge16  1  0.468727  0.376622  0.749016  1
  Ge  Ge17  1  0.966052  0.128868  0.754522  1
  Ge  Ge18  1  0.532921  0.622016  0.249589  1
  Ge  Ge19  1  0.032351  0.880008  0.248817  1
  Ge  Ge20  1  0.682316  0.852120  0.754779  1
  Ge  Ge21  1  0.197493  0.642471  0.756106  1
  Ge  Ge22  1  0.309059  0.146645  0.248883  1
  Ge  Ge23  1  0.808191  0.354369  0.248640  1
  Mo  Mo24  1  0.666857  0.155731  0.629452  1
  Mo  Mo25  1  0.165038  0.338446  0.872497  1
  Mo  Mo26  1  0.336890  0.837775  0.129218  1
  Mo  Mo27  1  0.840220  0.662671  0.371363  1
  Mo  Mo28  1  0.335065  0.837894  0.370511  1
  Mo  Mo29  1  0.838157  0.662942  0.129195  1
  Mo  Mo30  1  0.660730  0.163460  0.871557  1
  Mo  Mo31  1  0.161566  0.339588  0.629565  1
  Mo  Mo32  1  0.837742  0.491199  0.748095  1
  Mo  Mo33  1  0.335731  0.013114  0.750377  1
  Mo  Mo34  1  0.161431  0.514572  0.249599  1
  Mo  Mo35  1  0.660775  0.985740  0.248767  1
