# generated using pymatgen
data_Tb2Lu2MnFeB12
_symmetry_space_group_name_H-M   'P 1'
_cell_length_a   3.52653800
_cell_length_b   9.03803744
_cell_length_c   11.43607137
_cell_angle_alpha   90.14685085
_cell_angle_beta   90.00000000
_cell_angle_gamma   90.00000000
_symmetry_Int_Tables_number   1
_chemical_formula_structural   Tb2Lu2MnFeB12
_chemical_formula_sum   'Tb4 Lu4 Mn2 Fe2 B24'
_cell_volume   364.50050507
_cell_formula_units_Z   2
loop_
 _symmetry_equiv_pos_site_id
 _symmetry_equiv_pos_as_xyz
  1  'x, y, z'
loop_
 _atom_site_type_symbol
 _atom_site_label
 _atom_site_symmetry_multiplicity
 _atom_site_fract_x
 _atom_site_fract_y
 _atom_site_fract_z
 _atom_site_occupancy
  Tb  Tb0  1  0.000000  0.825489  0.084390  1
  Tb  Tb1  1  0.000000  0.174511  0.915610  1
  Tb  Tb2  1  0.000000  0.322841  0.413523  1
  Tb  Tb3  1  0.000000  0.677159  0.586477  1
  Lu  Lu4  1  0.000000  0.442008  0.130770  1
  Lu  Lu5  1  0.000000  0.557992  0.869230  1
  Lu  Lu6  1  0.000000  0.943400  0.368511  1
  Lu  Lu7  1  0.000000  0.056600  0.631489  1
  Mn  Mn8  1  0.000000  0.139442  0.181134  1
  Mn  Mn9  1  0.000000  0.860558  0.818866  1
  Fe  Fe10  1  0.000000  0.639335  0.319660  1
  Fe  Fe11  1  0.000000  0.360665  0.680340  1
  B  B12  1  0.500000  0.054764  0.068802  1
  B  B13  1  0.500000  0.945236  0.931198  1
  B  B14  1  0.500000  0.555389  0.431245  1
  B  B15  1  0.500000  0.444611  0.568755  1
  B  B16  1  0.500000  0.248138  0.083241  1
  B  B17  1  0.500000  0.751862  0.916759  1
  B  B18  1  0.500000  0.748457  0.416819  1
  B  B19  1  0.500000  0.251543  0.583181  1
  B  B20  1  0.500000  0.290913  0.234375  1
  B  B21  1  0.500000  0.709087  0.765625  1
  B  B22  1  0.500000  0.790294  0.265736  1
  B  B23  1  0.500000  0.209706  0.734264  1
  B  B24  1  0.500000  0.131162  0.314245  1
  B  B25  1  0.500000  0.868838  0.685755  1
  B  B26  1  0.500000  0.630824  0.185940  1
  B  B27  1  0.500000  0.369176  0.814060  1
  B  B28  1  0.500000  0.485551  0.287767  1
  B  B29  1  0.500000  0.514449  0.712233  1
  B  B30  1  0.500000  0.985322  0.212415  1
  B  B31  1  0.500000  0.014678  0.787585  1
  B  B32  1  0.500000  0.101156  0.472547  1
  B  B33  1  0.500000  0.898844  0.527453  1
  B  B34  1  0.500000  0.601147  0.027815  1
  B  B35  1  0.500000  0.398853  0.972185  1
