# generated using pymatgen
data_Nd8Be3Si12B
_symmetry_space_group_name_H-M   'P 1'
_cell_length_a   7.87991900
_cell_length_b   7.87991872
_cell_length_c   8.58972200
_cell_angle_alpha   90.00000000
_cell_angle_beta   90.00000000
_cell_angle_gamma   119.99999697
_symmetry_Int_Tables_number   1
_chemical_formula_structural   Nd8Be3Si12B
_chemical_formula_sum   'Nd8 Be3 Si12 B1'
_cell_volume   461.90561808
_cell_formula_units_Z   1
loop_
 _symmetry_equiv_pos_site_id
 _symmetry_equiv_pos_as_xyz
  1  'x, y, z'
loop_
 _atom_site_type_symbol
 _atom_site_label
 _atom_site_symmetry_multiplicity
 _atom_site_fract_x
 _atom_site_fract_y
 _atom_site_fract_z
 _atom_site_occupancy
  Nd  Nd0  1  0.000000  0.000000  0.750889  1
  Nd  Nd1  1  0.000000  0.000000  0.249021  1
  Nd  Nd2  1  0.497919  0.502081  0.751637  1
  Nd  Nd3  1  0.497919  0.995840  0.751637  1
  Nd  Nd4  1  0.004160  0.502081  0.751637  1
  Nd  Nd5  1  0.498184  0.501816  0.248306  1
  Nd  Nd6  1  0.003633  0.501816  0.248306  1
  Nd  Nd7  1  0.498184  0.996367  0.248306  1
  Be  Be8  1  0.666667  0.333333  0.999162  1
  Be  Be9  1  0.666667  0.333333  0.501227  1
  Be  Be10  1  0.333333  0.666667  0.498755  1
  Si  Si11  1  0.828556  0.171444  0.999762  1
  Si  Si12  1  0.828556  0.657110  0.999762  1
  Si  Si13  1  0.342890  0.171444  0.999762  1
  Si  Si14  1  0.827776  0.172224  0.500078  1
  Si  Si15  1  0.827776  0.655552  0.500078  1
  Si  Si16  1  0.344448  0.172224  0.500078  1
  Si  Si17  1  0.172894  0.827106  0.499964  1
  Si  Si18  1  0.654213  0.827106  0.499964  1
  Si  Si19  1  0.172894  0.345787  0.499964  1
  Si  Si20  1  0.178781  0.821219  0.000241  1
  Si  Si21  1  0.642437  0.821219  0.000241  1
  Si  Si22  1  0.178781  0.357563  0.000241  1
  B  B23  1  0.333333  0.666667  0.000984  1
