# generated using pymatgen
data_Ti8Mo2Os
_symmetry_space_group_name_H-M   'P 1'
_cell_length_a   5.28330890
_cell_length_b   5.28330867
_cell_length_c   11.76690675
_cell_angle_alpha   105.68899002
_cell_angle_beta   105.68898956
_cell_angle_gamma   34.86352558
_symmetry_Int_Tables_number   1
_chemical_formula_structural   Ti8Mo2Os
_chemical_formula_sum   'Ti8 Mo2 Os1'
_cell_volume   180.05268103
_cell_formula_units_Z   1
loop_
 _symmetry_equiv_pos_site_id
 _symmetry_equiv_pos_as_xyz
  1  'x, y, z'
loop_
 _atom_site_type_symbol
 _atom_site_label
 _atom_site_symmetry_multiplicity
 _atom_site_fract_x
 _atom_site_fract_y
 _atom_site_fract_z
 _atom_site_occupancy
  Ti  Ti0  1  0.712494  0.712494  0.083561  1
  Ti  Ti1  1  0.459447  0.459447  0.174186  1
  Ti  Ti2  1  0.206044  0.206044  0.280362  1
  Ti  Ti3  1  0.623244  0.623244  0.455092  1
  Ti  Ti4  1  0.376757  0.376757  0.544907  1
  Ti  Ti5  1  0.793956  0.793956  0.719638  1
  Ti  Ti6  1  0.540553  0.540553  0.825814  1
  Ti  Ti7  1  0.287507  0.287507  0.916440  1
  Mo  Mo8  1  0.919944  0.919944  0.357603  1
  Mo  Mo9  1  0.080056  0.080056  0.642398  1
  Os  Os10  1  0.000000  0.000000  0.000000  1
