# generated using pymatgen
data_Tb3Zr(SnRh5)2
_symmetry_space_group_name_H-M   'P 1'
_cell_length_a   5.73095885
_cell_length_b   5.73095901
_cell_length_c   8.50036506
_cell_angle_alpha   89.99104914
_cell_angle_beta   89.99105132
_cell_angle_gamma   97.01733907
_symmetry_Int_Tables_number   1
_chemical_formula_structural   Tb3Zr(SnRh5)2
_chemical_formula_sum   'Tb3 Zr1 Sn2 Rh10'
_cell_volume   277.09373718
_cell_formula_units_Z   1
loop_
 _symmetry_equiv_pos_site_id
 _symmetry_equiv_pos_as_xyz
  1  'x, y, z'
loop_
 _atom_site_type_symbol
 _atom_site_label
 _atom_site_symmetry_multiplicity
 _atom_site_fract_x
 _atom_site_fract_y
 _atom_site_fract_z
 _atom_site_occupancy
  Tb  Tb0  1  0.779255  0.220745  0.500000  1
  Tb  Tb1  1  0.220806  0.779194  0.000000  1
  Tb  Tb2  1  0.221229  0.778771  0.500000  1
  Zr  Zr3  1  0.783599  0.216401  0.000000  1
  Sn  Sn4  1  0.503851  0.500584  0.751436  1
  Sn  Sn5  1  0.499416  0.496149  0.248564  1
  Rh  Rh6  1  0.726076  0.727485  0.001126  1
  Rh  Rh7  1  0.725860  0.726509  0.498745  1
  Rh  Rh8  1  0.272515  0.273924  0.998874  1
  Rh  Rh9  1  0.273491  0.274140  0.501255  1
  Rh  Rh10  1  0.503827  0.004348  0.755166  1
  Rh  Rh11  1  0.503940  0.003348  0.244870  1
  Rh  Rh12  1  0.997237  0.003405  0.244725  1
  Rh  Rh13  1  0.996595  0.002763  0.755275  1
  Rh  Rh14  1  0.996652  0.496060  0.755130  1
  Rh  Rh15  1  0.995652  0.496173  0.244834  1
