# generated using pymatgen
data_CaLa2(GaRh2)3
_symmetry_space_group_name_H-M   'P 1'
_cell_length_a   5.71587200
_cell_length_b   5.71587256
_cell_length_c   15.90490100
_cell_angle_alpha   90.00000000
_cell_angle_beta   90.00000000
_cell_angle_gamma   119.99999678
_symmetry_Int_Tables_number   1
_chemical_formula_structural   CaLa2(GaRh2)3
_chemical_formula_sum   'Ca2 La4 Ga6 Rh12'
_cell_volume   450.01464537
_cell_formula_units_Z   2
loop_
 _symmetry_equiv_pos_site_id
 _symmetry_equiv_pos_as_xyz
  1  'x, y, z'
loop_
 _atom_site_type_symbol
 _atom_site_label
 _atom_site_symmetry_multiplicity
 _atom_site_fract_x
 _atom_site_fract_y
 _atom_site_fract_z
 _atom_site_occupancy
  Ca  Ca0  1  0.333333  0.666667  0.750000  1
  Ca  Ca1  1  0.666667  0.333333  0.250000  1
  La  La2  1  0.333333  0.666667  0.543915  1
  La  La3  1  0.666667  0.333333  0.456085  1
  La  La4  1  0.666667  0.333333  0.043915  1
  La  La5  1  0.333333  0.666667  0.956085  1
  Ga  Ga6  1  0.000000  0.000000  0.250000  1
  Ga  Ga7  1  0.000000  0.000000  0.750000  1
  Ga  Ga8  1  0.333333  0.666667  0.250000  1
  Ga  Ga9  1  0.666667  0.333333  0.750000  1
  Ga  Ga10  1  0.000000  0.000000  0.000000  1
  Ga  Ga11  1  0.000000  0.000000  0.500000  1
  Rh  Rh12  1  0.167267  0.334533  0.127174  1
  Rh  Rh13  1  0.832733  0.665467  0.872826  1
  Rh  Rh14  1  0.665467  0.832733  0.127174  1
  Rh  Rh15  1  0.832733  0.665467  0.627174  1
  Rh  Rh16  1  0.334533  0.167267  0.872826  1
  Rh  Rh17  1  0.167267  0.334533  0.372826  1
  Rh  Rh18  1  0.167267  0.832733  0.127174  1
  Rh  Rh19  1  0.334533  0.167267  0.627174  1
  Rh  Rh20  1  0.832733  0.167267  0.872826  1
  Rh  Rh21  1  0.665467  0.832733  0.372826  1
  Rh  Rh22  1  0.832733  0.167267  0.627174  1
  Rh  Rh23  1  0.167267  0.832733  0.372826  1
