# generated using pymatgen
data_TmInNi3Pt
_symmetry_space_group_name_H-M   'P 1'
_cell_length_a   5.00031987
_cell_length_b   5.16076566
_cell_length_c   5.00032000
_cell_angle_alpha   61.02321218
_cell_angle_beta   59.99999916
_cell_angle_gamma   61.02321245
_symmetry_Int_Tables_number   1
_chemical_formula_structural   TmInNi3Pt
_chemical_formula_sum   'Tm1 In1 Ni3 Pt1'
_cell_volume   92.62774809
_cell_formula_units_Z   1
loop_
 _symmetry_equiv_pos_site_id
 _symmetry_equiv_pos_as_xyz
  1  'x, y, z'
loop_
 _atom_site_type_symbol
 _atom_site_label
 _atom_site_symmetry_multiplicity
 _atom_site_fract_x
 _atom_site_fract_y
 _atom_site_fract_z
 _atom_site_occupancy
  Tm  Tm0  1  0.751575  0.745274  0.751575  1
  In  In1  1  0.994233  0.017301  0.994233  1
  Ni  Ni2  1  0.375474  0.371365  0.375474  1
  Ni  Ni3  1  0.877687  0.371365  0.375474  1
  Ni  Ni4  1  0.375474  0.371365  0.877687  1
  Pt  Pt5  1  0.375557  0.873329  0.375557  1
