# generated using pymatgen
data_Cs2Mn(HgTe2)2
_symmetry_space_group_name_H-M   'P 1'
_cell_length_a   10.77537775
_cell_length_b   10.85634552
_cell_length_c   10.77537756
_cell_angle_alpha   142.90324855
_cell_angle_beta   103.81700397
_cell_angle_gamma   87.58617870
_symmetry_Int_Tables_number   1
_chemical_formula_structural   Cs2Mn(HgTe2)2
_chemical_formula_sum   'Cs4 Mn2 Hg4 Te8'
_cell_volume   714.21512980
_cell_formula_units_Z   2
loop_
 _symmetry_equiv_pos_site_id
 _symmetry_equiv_pos_as_xyz
  1  'x, y, z'
loop_
 _atom_site_type_symbol
 _atom_site_label
 _atom_site_symmetry_multiplicity
 _atom_site_fract_x
 _atom_site_fract_y
 _atom_site_fract_z
 _atom_site_occupancy
  Cs  Cs0  1  0.123418  0.222286  0.349573  1
  Cs  Cs1  1  0.380260  0.740323  0.114267  1
  Cs  Cs2  1  0.627287  0.277714  0.901132  1
  Cs  Cs3  1  0.873944  0.759677  0.639937  1
  Mn  Mn4  1  0.246003  0.750000  0.496003  1
  Mn  Mn5  1  0.017834  0.250000  0.767834  1
  Hg  Hg6  1  0.530268  0.750000  0.780268  1
  Hg  Hg7  1  0.983874  0.750000  0.233874  1
  Hg  Hg8  1  0.456003  0.250000  0.206003  1
  Hg  Hg9  1  0.751022  0.250000  0.501022  1
  Te  Te10  1  0.226522  0.085708  0.612680  1
  Te  Te11  1  0.265287  0.858657  0.836648  1
  Te  Te12  1  0.026971  0.414292  0.140814  1
  Te  Te13  1  0.477991  0.641343  0.406629  1
  Te  Te14  1  0.782824  0.930337  0.427152  1
  Te  Te15  1  0.725575  0.135604  0.143704  1
  Te  Te16  1  0.996816  0.569663  0.852487  1
  Te  Te17  1  0.508100  0.364396  0.589971  1
