# generated using pymatgen
data_La12Ir(PtBr4)3
_symmetry_space_group_name_H-M   'P 1'
_cell_length_a   10.65373124
_cell_length_b   10.65373058
_cell_length_c   10.65373140
_cell_angle_alpha   109.30343900
_cell_angle_beta   109.30343718
_cell_angle_gamma   109.30343889
_symmetry_Int_Tables_number   1
_chemical_formula_structural   La12Ir(PtBr4)3
_chemical_formula_sum   'La12 Ir1 Pt3 Br12'
_cell_volume   936.59554145
_cell_formula_units_Z   1
loop_
 _symmetry_equiv_pos_site_id
 _symmetry_equiv_pos_as_xyz
  1  'x, y, z'
loop_
 _atom_site_type_symbol
 _atom_site_label
 _atom_site_symmetry_multiplicity
 _atom_site_fract_x
 _atom_site_fract_y
 _atom_site_fract_z
 _atom_site_occupancy
  La  La0  1  0.263519  0.750000  0.236481  1
  La  La1  1  0.486572  0.750000  0.013428  1
  La  La2  1  0.237965  0.471039  0.482662  1
  La  La3  1  0.017338  0.028961  0.262035  1
  La  La4  1  0.236481  0.263519  0.750000  1
  La  La5  1  0.013428  0.486572  0.750000  1
  La  La6  1  0.482662  0.237965  0.471039  1
  La  La7  1  0.262035  0.017338  0.028961  1
  La  La8  1  0.750000  0.236481  0.263519  1
  La  La9  1  0.750000  0.013428  0.486572  1
  La  La10  1  0.471039  0.482662  0.237965  1
  La  La11  1  0.028961  0.262035  0.017338  1
  Ir  Ir12  1  0.250000  0.250000  0.250000  1
  Pt  Pt13  1  0.500063  0.999937  0.250000  1
  Pt  Pt14  1  0.250000  0.500063  0.999937  1
  Pt  Pt15  1  0.999937  0.250000  0.500063  1
  Br  Br16  1  0.250000  0.994578  0.505422  1
  Br  Br17  1  0.510773  0.505728  0.755912  1
  Br  Br18  1  0.250000  0.755074  0.744926  1
  Br  Br19  1  0.989227  0.744088  0.994272  1
  Br  Br20  1  0.994578  0.505422  0.250000  1
  Br  Br21  1  0.744088  0.994272  0.989227  1
  Br  Br22  1  0.755074  0.744926  0.250000  1
  Br  Br23  1  0.505728  0.755912  0.510773  1
  Br  Br24  1  0.505422  0.250000  0.994578  1
  Br  Br25  1  0.755912  0.510773  0.505728  1
  Br  Br26  1  0.744926  0.250000  0.755074  1
  Br  Br27  1  0.994272  0.989227  0.744088  1
