# generated using pymatgen
data_TaMn2AsRu4
_symmetry_space_group_name_H-M   'P 1'
_cell_length_a   6.12831114
_cell_length_b   4.33632600
_cell_length_c   8.66077920
_cell_angle_alpha   90.00000000
_cell_angle_beta   90.02452885
_cell_angle_gamma   90.00000000
_symmetry_Int_Tables_number   1
_chemical_formula_structural   TaMn2AsRu4
_chemical_formula_sum   'Ta2 Mn4 As2 Ru8'
_cell_volume   230.15459933
_cell_formula_units_Z   2
loop_
 _symmetry_equiv_pos_site_id
 _symmetry_equiv_pos_as_xyz
  1  'x, y, z'
loop_
 _atom_site_type_symbol
 _atom_site_label
 _atom_site_symmetry_multiplicity
 _atom_site_fract_x
 _atom_site_fract_y
 _atom_site_fract_z
 _atom_site_occupancy
  Ta  Ta0  1  0.749987  0.249999  0.624906  1
  Ta  Ta1  1  0.249994  0.749999  0.875090  1
  Mn  Mn2  1  0.250026  0.249999  0.123180  1
  Mn  Mn3  1  0.750005  0.749999  0.376660  1
  Mn  Mn4  1  0.250011  0.249999  0.631442  1
  Mn  Mn5  1  0.750056  0.749999  0.868612  1
  As  As6  1  0.749990  0.249999  0.130041  1
  As  As7  1  0.249990  0.749999  0.370018  1
  Ru  Ru8  1  0.995349  0.749999  0.127626  1
  Ru  Ru9  1  0.504644  0.749999  0.127621  1
  Ru  Ru10  1  0.004683  0.249999  0.372386  1
  Ru  Ru11  1  0.495301  0.249999  0.372397  1
  Ru  Ru12  1  0.493117  0.749999  0.617268  1
  Ru  Ru13  1  0.006860  0.749999  0.617268  1
  Ru  Ru14  1  0.506909  0.249999  0.882735  1
  Ru  Ru15  1  0.993077  0.249999  0.882746  1
