# generated using pymatgen
data_Dy4YMg3(P3Ir4)4
_symmetry_space_group_name_H-M   'P 1'
_cell_length_a   12.80744000
_cell_length_b   12.80743966
_cell_length_c   3.98294600
_cell_angle_alpha   90.00000000
_cell_angle_beta   90.00000000
_cell_angle_gamma   120.00000089
_symmetry_Int_Tables_number   1
_chemical_formula_structural   Dy4YMg3(P3Ir4)4
_chemical_formula_sum   'Dy4 Y1 Mg3 P12 Ir16'
_cell_volume   565.79576766
_cell_formula_units_Z   1
loop_
 _symmetry_equiv_pos_site_id
 _symmetry_equiv_pos_as_xyz
  1  'x, y, z'
loop_
 _atom_site_type_symbol
 _atom_site_label
 _atom_site_symmetry_multiplicity
 _atom_site_fract_x
 _atom_site_fract_y
 _atom_site_fract_z
 _atom_site_occupancy
  Dy  Dy0  1  0.666667  0.333333  0.500000  1
  Dy  Dy1  1  0.999994  0.809339  0.000000  1
  Dy  Dy2  1  0.190661  0.190655  0.000000  1
  Dy  Dy3  1  0.809345  0.000006  0.000000  1
  Y  Y4  1  0.333333  0.666667  0.500000  1
  Mg  Mg5  1  0.999872  0.444389  0.500000  1
  Mg  Mg6  1  0.555611  0.555483  0.500000  1
  Mg  Mg7  1  0.444517  0.000128  0.500000  1
  P  P8  1  0.000028  0.640988  0.500000  1
  P  P9  1  0.359012  0.359040  0.500000  1
  P  P10  1  0.640960  0.999972  0.500000  1
  P  P11  1  0.516428  0.688542  0.000000  1
  P  P12  1  0.311458  0.827886  0.000000  1
  P  P13  1  0.172114  0.483572  0.000000  1
  P  P14  1  0.483710  0.172302  0.000000  1
  P  P15  1  0.688591  0.516290  0.000000  1
  P  P16  1  0.827698  0.311409  0.000000  1
  P  P17  1  0.999966  0.177205  0.500000  1
  P  P18  1  0.822795  0.822761  0.500000  1
  P  P19  1  0.177239  0.000034  0.500000  1
  Ir  Ir20  1  0.508831  0.868319  0.000000  1
  Ir  Ir21  1  0.131681  0.640513  0.000000  1
  Ir  Ir22  1  0.359487  0.491169  0.000000  1
  Ir  Ir23  1  0.491461  0.359487  0.000000  1
  Ir  Ir24  1  0.868027  0.508539  0.000000  1
  Ir  Ir25  1  0.640513  0.131973  0.000000  1
  Ir  Ir26  1  0.999958  0.279015  0.000000  1
  Ir  Ir27  1  0.720985  0.720943  0.000000  1
  Ir  Ir28  1  0.279057  0.000042  0.000000  1
  Ir  Ir29  1  0.627967  0.806422  0.500000  1
  Ir  Ir30  1  0.193578  0.821545  0.500000  1
  Ir  Ir31  1  0.178455  0.372033  0.500000  1
  Ir  Ir32  1  0.372173  0.178565  0.500000  1
  Ir  Ir33  1  0.806392  0.627827  0.500000  1
  Ir  Ir34  1  0.821435  0.193608  0.500000  1
  Ir  Ir35  1  0.000000  0.000000  0.500000  1
