# generated using pymatgen
data_Pr3SiAuS7
_symmetry_space_group_name_H-M   'P 1'
_cell_length_a   10.36148700
_cell_length_b   10.36140786
_cell_length_c   5.83959500
_cell_angle_alpha   90.00000000
_cell_angle_beta   90.00000000
_cell_angle_gamma   119.99992173
_symmetry_Int_Tables_number   1
_chemical_formula_structural   Pr3SiAuS7
_chemical_formula_sum   'Pr6 Si2 Au2 S14'
_cell_volume   542.94339960
_cell_formula_units_Z   2
loop_
 _symmetry_equiv_pos_site_id
 _symmetry_equiv_pos_as_xyz
  1  'x, y, z'
loop_
 _atom_site_type_symbol
 _atom_site_label
 _atom_site_symmetry_multiplicity
 _atom_site_fract_x
 _atom_site_fract_y
 _atom_site_fract_z
 _atom_site_occupancy
  Pr  Pr0  1  0.123923  0.358567  0.251355  1
  Pr  Pr1  1  0.234646  0.876079  0.251356  1
  Pr  Pr2  1  0.641440  0.765358  0.251358  1
  Pr  Pr3  1  0.876077  0.641432  0.751355  1
  Pr  Pr4  1  0.765355  0.123921  0.751356  1
  Pr  Pr5  1  0.358560  0.234641  0.751358  1
  Si  Si6  1  0.666661  0.333331  0.164057  1
  Si  Si7  1  0.333339  0.666670  0.664057  1
  Au  Au8  1  0.000001  0.999999  0.274046  1
  Au  Au9  1  0.999999  0.000001  0.774046  1
  S  S10  1  0.525953  0.116031  0.019734  1
  S  S11  1  0.590074  0.474043  0.019735  1
  S  S12  1  0.883961  0.409922  0.019741  1
  S  S13  1  0.333339  0.666670  0.026634  1
  S  S14  1  0.909003  0.732481  0.263327  1
  S  S15  1  0.267516  0.176518  0.263329  1
  S  S16  1  0.823486  0.091001  0.263328  1
  S  S17  1  0.474047  0.883969  0.519734  1
  S  S18  1  0.409926  0.525958  0.519735  1
  S  S19  1  0.116038  0.590077  0.519741  1
  S  S20  1  0.666661  0.333331  0.526634  1
  S  S21  1  0.090997  0.267519  0.763327  1
  S  S22  1  0.732484  0.823481  0.763329  1
  S  S23  1  0.176514  0.908998  0.763328  1
