# generated using pymatgen
data_SmDy3Al16(SiIr3)2
_symmetry_space_group_name_H-M   'P 1'
_cell_length_a   7.54535500
_cell_length_b   7.54865725
_cell_length_c   9.36868200
_cell_angle_alpha   90.00000000
_cell_angle_beta   90.00000000
_cell_angle_gamma   119.66967748
_symmetry_Int_Tables_number   1
_chemical_formula_structural   SmDy3Al16(SiIr3)2
_chemical_formula_sum   'Sm1 Dy3 Al16 Si2 Ir6'
_cell_volume   463.65450328
_cell_formula_units_Z   1
loop_
 _symmetry_equiv_pos_site_id
 _symmetry_equiv_pos_as_xyz
  1  'x, y, z'
loop_
 _atom_site_type_symbol
 _atom_site_label
 _atom_site_symmetry_multiplicity
 _atom_site_fract_x
 _atom_site_fract_y
 _atom_site_fract_z
 _atom_site_occupancy
  Sm  Sm0  1  0.994608  0.675004  0.750000  1
  Dy  Dy1  1  0.005077  0.325027  0.250000  1
  Dy  Dy2  1  0.675587  0.994990  0.750000  1
  Dy  Dy3  1  0.324843  0.004781  0.250000  1
  Al  Al4  1  0.001367  0.335836  0.575977  1
  Al  Al5  1  0.998584  0.663480  0.423290  1
  Al  Al6  1  0.998584  0.663480  0.076710  1
  Al  Al7  1  0.337143  0.001948  0.924160  1
  Al  Al8  1  0.001367  0.335836  0.924023  1
  Al  Al9  1  0.663412  0.998624  0.076504  1
  Al  Al10  1  0.663412  0.998624  0.423496  1
  Al  Al11  1  0.337143  0.001948  0.575840  1
  Al  Al12  1  0.335347  0.335353  0.056530  1
  Al  Al13  1  0.663547  0.664420  0.944687  1
  Al  Al14  1  0.663547  0.664420  0.555313  1
  Al  Al15  1  0.335347  0.335353  0.443470  1
  Al  Al16  1  0.337518  0.549214  0.750000  1
  Al  Al17  1  0.664043  0.450795  0.250000  1
  Al  Al18  1  0.547793  0.334572  0.750000  1
  Al  Al19  1  0.451275  0.663874  0.250000  1
  Si  Si20  1  0.129656  0.130711  0.750000  1
  Si  Si21  1  0.871270  0.871043  0.250000  1
  Ir  Ir22  1  0.671172  0.327812  0.499281  1
  Ir  Ir23  1  0.328562  0.671689  0.499297  1
  Ir  Ir24  1  0.328562  0.671689  0.000703  1
  Ir  Ir25  1  0.671172  0.327812  0.000719  1
  Ir  Ir26  1  0.000029  0.000832  0.499066  1
  Ir  Ir27  1  0.000029  0.000832  0.000934  1
