# generated using pymatgen
data_Sc8SiAsBr12
_symmetry_space_group_name_H-M   'P 1'
_cell_length_a   3.83826300
_cell_length_b   12.52829730
_cell_length_c   13.27502200
_cell_angle_alpha   89.92121346
_cell_angle_beta   90.00000000
_cell_angle_gamma   90.00000000
_symmetry_Int_Tables_number   1
_chemical_formula_structural   Sc8SiAsBr12
_chemical_formula_sum   'Sc8 Si1 As1 Br12'
_cell_volume   638.35405173
_cell_formula_units_Z   1
loop_
 _symmetry_equiv_pos_site_id
 _symmetry_equiv_pos_as_xyz
  1  'x, y, z'
loop_
 _atom_site_type_symbol
 _atom_site_label
 _atom_site_symmetry_multiplicity
 _atom_site_fract_x
 _atom_site_fract_y
 _atom_site_fract_z
 _atom_site_occupancy
  Sc  Sc0  1  0.500000  0.118733  0.340899  1
  Sc  Sc1  1  0.500000  0.881267  0.659101  1
  Sc  Sc2  1  0.500000  0.617562  0.157510  1
  Sc  Sc3  1  0.500000  0.382438  0.842490  1
  Sc  Sc4  1  0.000000  0.117760  0.578187  1
  Sc  Sc5  1  0.000000  0.882240  0.421813  1
  Sc  Sc6  1  0.000000  0.617460  0.921880  1
  Sc  Sc7  1  0.000000  0.382540  0.078120  1
  Si  Si8  1  0.500000  0.500000  0.000000  1
  As  As9  1  0.500000  0.000000  0.500000  1
  Br  Br10  1  0.500000  0.244158  0.162096  1
  Br  Br11  1  0.500000  0.755842  0.837904  1
  Br  Br12  1  0.500000  0.744815  0.338555  1
  Br  Br13  1  0.500000  0.255185  0.661445  1
  Br  Br14  1  0.000000  0.255044  0.412395  1
  Br  Br15  1  0.000000  0.744956  0.587605  1
  Br  Br16  1  0.000000  0.755550  0.088013  1
  Br  Br17  1  0.000000  0.244450  0.911987  1
  Br  Br18  1  0.000000  0.001058  0.243611  1
  Br  Br19  1  0.000000  0.998942  0.756389  1
  Br  Br20  1  0.000000  0.501277  0.257070  1
  Br  Br21  1  0.000000  0.498723  0.742930  1
