# generated using pymatgen
data_Na11Ca(MnN2)8
_symmetry_space_group_name_H-M   'P 1'
_cell_length_a   5.54810037
_cell_length_b   9.39785832
_cell_length_c   9.44509640
_cell_angle_alpha   90.62586949
_cell_angle_beta   90.56136172
_cell_angle_gamma   90.55116934
_symmetry_Int_Tables_number   1
_chemical_formula_structural   Na11Ca(MnN2)8
_chemical_formula_sum   'Na11 Ca1 Mn8 N16'
_cell_volume   492.39347901
_cell_formula_units_Z   1
loop_
 _symmetry_equiv_pos_site_id
 _symmetry_equiv_pos_as_xyz
  1  'x, y, z'
loop_
 _atom_site_type_symbol
 _atom_site_label
 _atom_site_symmetry_multiplicity
 _atom_site_fract_x
 _atom_site_fract_y
 _atom_site_fract_z
 _atom_site_occupancy
  Na  Na0  1  0.861852  0.836810  0.415729  1
  Na  Na1  1  0.638313  0.347462  0.081602  1
  Na  Na2  1  0.864424  0.652040  0.083336  1
  Na  Na3  1  0.355403  0.840704  0.583078  1
  Na  Na4  1  0.138125  0.151795  0.592375  1
  Na  Na5  1  0.361170  0.655227  0.919175  1
  Na  Na6  1  0.139816  0.347819  0.919134  1
  Na  Na7  1  0.750016  0.509038  0.412932  1
  Na  Na8  1  0.749138  0.997004  0.080701  1
  Na  Na9  1  0.247634  0.498757  0.583407  1
  Na  Na10  1  0.247943  0.999068  0.918411  1
  Ca  Ca11  1  0.634771  0.153304  0.412795  1
  Mn  Mn12  1  0.749833  0.499524  0.735656  1
  Mn  Mn13  1  0.748155  0.999187  0.757871  1
  Mn  Mn14  1  0.257147  0.501548  0.263962  1
  Mn  Mn15  1  0.245175  0.000700  0.240941  1
  Mn  Mn16  1  0.703338  0.249784  0.746749  1
  Mn  Mn17  1  0.795047  0.749573  0.749404  1
  Mn  Mn18  1  0.304444  0.752011  0.253559  1
  Mn  Mn19  1  0.197026  0.251406  0.251477  1
  N  N20  1  0.884872  0.357476  0.632493  1
  N  N21  1  0.607048  0.638983  0.637673  1
  N  N22  1  0.890889  0.141729  0.857974  1
  N  N23  1  0.605909  0.860626  0.857658  1
  N  N24  1  0.119622  0.641670  0.364537  1
  N  N25  1  0.396367  0.358979  0.363484  1
  N  N26  1  0.111917  0.856836  0.140901  1
  N  N27  1  0.394372  0.141206  0.145776  1
  N  N28  1  0.545309  0.392137  0.836269  1
  N  N29  1  0.956587  0.607053  0.837463  1
  N  N30  1  0.545192  0.104702  0.652837  1
  N  N31  1  0.954684  0.892665  0.660148  1
  N  N32  1  0.461986  0.607939  0.163743  1
  N  N33  1  0.044677  0.395761  0.162747  1
  N  N34  1  0.458596  0.902749  0.344079  1
  N  N35  1  0.033203  0.106724  0.339924  1
