# generated using pymatgen
data_Dy4Ho4Sc12Si15Bi
_symmetry_space_group_name_H-M   'P 1'
_cell_length_a   7.15399824
_cell_length_b   7.39705845
_cell_length_c   14.03837204
_cell_angle_alpha   90.07333040
_cell_angle_beta   88.70351453
_cell_angle_gamma   90.19024735
_symmetry_Int_Tables_number   1
_chemical_formula_structural   Dy4Ho4Sc12Si15Bi
_chemical_formula_sum   'Dy4 Ho4 Sc12 Si15 Bi1'
_cell_volume   742.69538171
_cell_formula_units_Z   1
loop_
 _symmetry_equiv_pos_site_id
 _symmetry_equiv_pos_as_xyz
  1  'x, y, z'
loop_
 _atom_site_type_symbol
 _atom_site_label
 _atom_site_symmetry_multiplicity
 _atom_site_fract_x
 _atom_site_fract_y
 _atom_site_fract_z
 _atom_site_occupancy
  Dy  Dy0  1  0.011897  0.176624  0.096601  1
  Dy  Dy1  1  0.988399  0.824815  0.904181  1
  Dy  Dy2  1  0.489223  0.675574  0.904213  1
  Dy  Dy3  1  0.993548  0.831381  0.598317  1
  Ho  Ho4  1  0.511402  0.324299  0.097480  1
  Ho  Ho5  1  0.999087  0.170126  0.398824  1
  Ho  Ho6  1  0.511286  0.316940  0.397497  1
  Ho  Ho7  1  0.512287  0.686549  0.601159  1
  Sc  Sc8  1  0.165211  0.500877  0.756098  1
  Sc  Sc9  1  0.834001  0.498878  0.251509  1
  Sc  Sc10  1  0.334205  0.001775  0.250405  1
  Sc  Sc11  1  0.667662  0.998827  0.751174  1
  Sc  Sc12  1  0.349926  0.155790  0.631614  1
  Sc  Sc13  1  0.657791  0.827541  0.372575  1
  Sc  Sc14  1  0.153574  0.682899  0.368973  1
  Sc  Sc15  1  0.666811  0.822641  0.123871  1
  Sc  Sc16  1  0.827177  0.326583  0.625805  1
  Sc  Sc17  1  0.331286  0.175617  0.875519  1
  Sc  Sc18  1  0.831809  0.323590  0.875734  1
  Sc  Sc19  1  0.168092  0.676504  0.124900  1
  Si  Si20  1  0.037384  0.119604  0.751176  1
  Si  Si21  1  0.960003  0.884999  0.246055  1
  Si  Si22  1  0.460503  0.616207  0.247546  1
  Si  Si23  1  0.536468  0.384423  0.752854  1
  Si  Si24  1  0.290090  0.867357  0.752998  1
  Si  Si25  1  0.710143  0.126672  0.246496  1
  Si  Si26  1  0.209334  0.373215  0.248923  1
  Si  Si27  1  0.793779  0.628371  0.751724  1
  Si  Si28  1  0.811669  0.541036  0.456408  1
  Si  Si29  1  0.329041  0.963356  0.459691  1
  Si  Si30  1  0.843274  0.534117  0.039902  1
  Si  Si31  1  0.672170  0.039062  0.538505  1
  Si  Si32  1  0.155639  0.465367  0.961451  1
  Si  Si33  1  0.655398  0.034961  0.960469  1
  Si  Si34  1  0.343348  0.966357  0.040206  1
  Bi  Bi35  1  0.187084  0.457062  0.539151  1
