# generated using pymatgen
data_Ho16MgIn3(IrRh)2
_symmetry_space_group_name_H-M   'P 1'
_cell_length_a   9.61714514
_cell_length_b   9.63165708
_cell_length_c   9.61714475
_cell_angle_alpha   59.94933037
_cell_angle_beta   59.89743656
_cell_angle_gamma   59.94933670
_symmetry_Int_Tables_number   1
_chemical_formula_structural   Ho16MgIn3(IrRh)2
_chemical_formula_sum   'Ho16 Mg1 In3 Ir2 Rh2'
_cell_volume   628.93834284
_cell_formula_units_Z   1
loop_
 _symmetry_equiv_pos_site_id
 _symmetry_equiv_pos_as_xyz
  1  'x, y, z'
loop_
 _atom_site_type_symbol
 _atom_site_label
 _atom_site_symmetry_multiplicity
 _atom_site_fract_x
 _atom_site_fract_y
 _atom_site_fract_z
 _atom_site_occupancy
  Ho  Ho0  1  0.188732  0.188872  0.810608  1
  Ho  Ho1  1  0.599479  0.600024  0.202325  1
  Ho  Ho2  1  0.440103  0.059592  0.440103  1
  Ho  Ho3  1  0.439772  0.440068  0.060164  1
  Ho  Ho4  1  0.813894  0.186476  0.813894  1
  Ho  Ho5  1  0.189406  0.810547  0.189406  1
  Ho  Ho6  1  0.436787  0.062062  0.062708  1
  Ho  Ho7  1  0.186952  0.813937  0.812824  1
  Ho  Ho8  1  0.062538  0.436790  0.062538  1
  Ho  Ho9  1  0.812824  0.813937  0.186952  1
  Ho  Ho10  1  0.202325  0.600024  0.599479  1
  Ho  Ho11  1  0.060164  0.440068  0.439772  1
  Ho  Ho12  1  0.062708  0.062062  0.436787  1
  Ho  Ho13  1  0.810608  0.188872  0.188732  1
  Ho  Ho14  1  0.599808  0.201924  0.599808  1
  Ho  Ho15  1  0.598392  0.599270  0.598392  1
  Mg  Mg16  1  0.827721  0.827829  0.827721  1
  In  In17  1  0.832435  0.832525  0.502065  1
  In  In18  1  0.502065  0.832525  0.832435  1
  In  In19  1  0.832435  0.502119  0.832435  1
  Ir  Ir20  1  0.391797  0.824536  0.391797  1
  Ir  Ir21  1  0.392740  0.392660  0.392740  1
  Rh  Rh22  1  0.824599  0.391642  0.391718  1
  Rh  Rh23  1  0.391718  0.391642  0.824599  1
