# generated using pymatgen
data_Dy2Zn(BRh2)3
_symmetry_space_group_name_H-M   'P 1'
_cell_length_a   5.50506717
_cell_length_b   5.50760939
_cell_length_c   13.20695700
_cell_angle_alpha   90.00000000
_cell_angle_beta   89.99997918
_cell_angle_gamma   119.97425882
_symmetry_Int_Tables_number   1
_chemical_formula_structural   Dy2Zn(BRh2)3
_chemical_formula_sum   'Dy4 Zn2 B6 Rh12'
_cell_volume   346.87399342
_cell_formula_units_Z   2
loop_
 _symmetry_equiv_pos_site_id
 _symmetry_equiv_pos_as_xyz
  1  'x, y, z'
loop_
 _atom_site_type_symbol
 _atom_site_label
 _atom_site_symmetry_multiplicity
 _atom_site_fract_x
 _atom_site_fract_y
 _atom_site_fract_z
 _atom_site_occupancy
  Dy  Dy0  1  0.000000  0.000000  0.258039  1
  Dy  Dy1  1  0.000000  0.000000  0.500007  1
  Dy  Dy2  1  0.000000  0.000000  0.999986  1
  Dy  Dy3  1  0.000000  0.000000  0.741949  1
  Zn  Zn4  1  0.333307  0.666692  0.999975  1
  Zn  Zn5  1  0.666693  0.333308  0.999975  1
  B  B6  1  0.666685  0.333344  0.734309  1
  B  B7  1  0.333315  0.666656  0.734309  1
  B  B8  1  0.333343  0.666676  0.265686  1
  B  B9  1  0.666692  0.333308  0.500028  1
  B  B10  1  0.666656  0.333324  0.265686  1
  B  B11  1  0.333308  0.666691  0.500028  1
  Rh  Rh12  1  0.500000  0.000001  0.612923  1
  Rh  Rh13  1  0.500000  0.000000  0.838729  1
  Rh  Rh14  1  0.500000  0.500000  0.838772  1
  Rh  Rh15  1  0.500000  0.500000  0.387073  1
  Rh  Rh16  1  0.000000  0.500000  0.612911  1
  Rh  Rh17  1  0.000000  0.500000  0.161247  1
  Rh  Rh18  1  0.000000  0.500000  0.838739  1
  Rh  Rh19  1  0.500000  0.500000  0.161211  1
  Rh  Rh20  1  0.500000  0.000000  0.387108  1
  Rh  Rh21  1  0.500000  0.000000  0.161253  1
  Rh  Rh22  1  0.500000  0.500000  0.612942  1
  Rh  Rh23  1  0.000000  0.500000  0.387114  1
