# generated using pymatgen
data_Sr4NbOs3O16
_symmetry_space_group_name_H-M   'P 1'
_cell_length_a   5.14937806
_cell_length_b   5.56972357
_cell_length_c   13.07734500
_cell_angle_alpha   90.00000000
_cell_angle_beta   90.00000000
_cell_angle_gamma   90.31313985
_symmetry_Int_Tables_number   1
_chemical_formula_structural   Sr4NbOs3O16
_chemical_formula_sum   'Sr4 Nb1 Os3 O16'
_cell_volume   375.06066055
_cell_formula_units_Z   1
loop_
 _symmetry_equiv_pos_site_id
 _symmetry_equiv_pos_as_xyz
  1  'x, y, z'
loop_
 _atom_site_type_symbol
 _atom_site_label
 _atom_site_symmetry_multiplicity
 _atom_site_fract_x
 _atom_site_fract_y
 _atom_site_fract_z
 _atom_site_occupancy
  Sr  Sr0  1  0.750000  0.000000  0.660433  1
  Sr  Sr1  1  0.250000  0.500000  0.845062  1
  Sr  Sr2  1  0.250000  0.000000  0.341305  1
  Sr  Sr3  1  0.750000  0.500000  0.158262  1
  Nb  Nb4  1  0.750000  0.000000  0.917555  1
  Os  Os5  1  0.750000  0.500000  0.426736  1
  Os  Os6  1  0.250000  0.000000  0.076247  1
  Os  Os7  1  0.250000  0.500000  0.570700  1
  O  O8  1  0.137504  0.282947  0.666750  1
  O  O9  1  0.620480  0.215168  0.821915  1
  O  O10  1  0.879520  0.784832  0.821915  1
  O  O11  1  0.362496  0.717053  0.666750  1
  O  O12  1  0.867684  0.713289  0.328397  1
  O  O13  1  0.384587  0.800617  0.175840  1
  O  O14  1  0.115413  0.199383  0.175840  1
  O  O15  1  0.632316  0.286711  0.328397  1
  O  O16  1  0.557815  0.319125  0.539836  1
  O  O17  1  0.054616  0.196234  0.964909  1
  O  O18  1  0.445384  0.803766  0.964909  1
  O  O19  1  0.942185  0.680875  0.539836  1
  O  O20  1  0.442270  0.680316  0.457139  1
  O  O21  1  0.970064  0.801130  0.047062  1
  O  O22  1  0.529936  0.198870  0.047062  1
  O  O23  1  0.057730  0.319684  0.457139  1
