# generated using pymatgen
data_Dy3Y(Lu3Sn4)2
_symmetry_space_group_name_H-M   'P 1'
_cell_length_a   7.94112800
_cell_length_b   8.06889303
_cell_length_c   15.24177305
_cell_angle_alpha   90.00950196
_cell_angle_beta   89.99840956
_cell_angle_gamma   89.99643564
_symmetry_Int_Tables_number   1
_chemical_formula_structural   Dy3Y(Lu3Sn4)2
_chemical_formula_sum   'Dy6 Y2 Lu12 Sn16'
_cell_volume   976.63354798
_cell_formula_units_Z   2
loop_
 _symmetry_equiv_pos_site_id
 _symmetry_equiv_pos_as_xyz
  1  'x, y, z'
loop_
 _atom_site_type_symbol
 _atom_site_label
 _atom_site_symmetry_multiplicity
 _atom_site_fract_x
 _atom_site_fract_y
 _atom_site_fract_z
 _atom_site_occupancy
  Dy  Dy0  1  0.478115  0.679344  0.402962  1
  Dy  Dy1  1  0.978114  0.820660  0.097037  1
  Dy  Dy2  1  0.478125  0.679368  0.097035  1
  Dy  Dy3  1  0.978133  0.820632  0.402966  1
  Dy  Dy4  1  0.521861  0.320598  0.597023  1
  Dy  Dy5  1  0.021867  0.179413  0.902986  1
  Y  Y6  1  0.522000  0.320716  0.902931  1
  Y  Y7  1  0.022011  0.179287  0.597076  1
  Lu  Lu8  1  0.367353  0.836493  0.877163  1
  Lu  Lu9  1  0.867346  0.663498  0.622845  1
  Lu  Lu10  1  0.632796  0.163448  0.377163  1
  Lu  Lu11  1  0.132802  0.336540  0.122832  1
  Lu  Lu12  1  0.632780  0.163402  0.122895  1
  Lu  Lu13  1  0.132781  0.336588  0.377095  1
  Lu  Lu14  1  0.367244  0.836548  0.622863  1
  Lu  Lu15  1  0.867242  0.663447  0.877137  1
  Lu  Lu16  1  0.197597  0.504771  0.750011  1
  Lu  Lu17  1  0.697619  0.995237  0.749999  1
  Lu  Lu18  1  0.802306  0.495322  0.250013  1
  Lu  Lu19  1  0.302302  0.004699  0.249982  1
  Sn  Sn20  1  0.294703  0.037597  0.041624  1
  Sn  Sn21  1  0.794697  0.462414  0.458391  1
  Sn  Sn22  1  0.705216  0.962387  0.541650  1
  Sn  Sn23  1  0.205211  0.537592  0.958354  1
  Sn  Sn24  1  0.705307  0.962421  0.958390  1
  Sn  Sn25  1  0.205302  0.537563  0.541619  1
  Sn  Sn26  1  0.294533  0.037599  0.458381  1
  Sn  Sn27  1  0.794535  0.462401  0.041607  1
  Sn  Sn28  1  0.563913  0.621327  0.750009  1
  Sn  Sn29  1  0.063898  0.878654  0.749984  1
  Sn  Sn30  1  0.436137  0.378652  0.249998  1
  Sn  Sn31  1  0.936153  0.121345  0.249989  1
  Sn  Sn32  1  0.330839  0.147881  0.749989  1
  Sn  Sn33  1  0.830842  0.352141  0.750002  1
  Sn  Sn34  1  0.669154  0.852055  0.250020  1
  Sn  Sn35  1  0.169166  0.647956  0.249979  1
