# generated using pymatgen
data_Nd8SiRhBr12
_symmetry_space_group_name_H-M   'P 1'
_cell_length_a   4.21303600
_cell_length_b   13.77634378
_cell_length_c   14.53540424
_cell_angle_alpha   89.72418289
_cell_angle_beta   90.00000000
_cell_angle_gamma   90.00000000
_symmetry_Int_Tables_number   1
_chemical_formula_structural   Nd8SiRhBr12
_chemical_formula_sum   'Nd8 Si1 Rh1 Br12'
_cell_volume   843.62846335
_cell_formula_units_Z   1
loop_
 _symmetry_equiv_pos_site_id
 _symmetry_equiv_pos_as_xyz
  1  'x, y, z'
loop_
 _atom_site_type_symbol
 _atom_site_label
 _atom_site_symmetry_multiplicity
 _atom_site_fract_x
 _atom_site_fract_y
 _atom_site_fract_z
 _atom_site_occupancy
  Nd  Nd0  1  0.500000  0.117500  0.342282  1
  Nd  Nd1  1  0.500000  0.882500  0.657718  1
  Nd  Nd2  1  0.500000  0.618698  0.159640  1
  Nd  Nd3  1  0.500000  0.381302  0.840360  1
  Nd  Nd4  1  0.000000  0.117991  0.578572  1
  Nd  Nd5  1  0.000000  0.882009  0.421428  1
  Nd  Nd6  1  0.000000  0.619496  0.920553  1
  Nd  Nd7  1  0.000000  0.380504  0.079447  1
  Si  Si8  1  0.500000  0.500000  0.000000  1
  Rh  Rh9  1  0.500000  0.000000  0.500000  1
  Br  Br10  1  0.500000  0.243526  0.162385  1
  Br  Br11  1  0.500000  0.756474  0.837615  1
  Br  Br12  1  0.500000  0.742492  0.336968  1
  Br  Br13  1  0.500000  0.257508  0.663032  1
  Br  Br14  1  0.000000  0.254645  0.411015  1
  Br  Br15  1  0.000000  0.745355  0.588985  1
  Br  Br16  1  0.000000  0.754073  0.088509  1
  Br  Br17  1  0.000000  0.245927  0.911491  1
  Br  Br18  1  0.000000  0.001933  0.243915  1
  Br  Br19  1  0.000000  0.998067  0.756085  1
  Br  Br20  1  0.000000  0.501602  0.255475  1
  Br  Br21  1  0.000000  0.498398  0.744525  1
