# generated using pymatgen
data_Sr2YU(NiP)4
_symmetry_space_group_name_H-M   'P 1'
_cell_length_a   3.94704900
_cell_length_b   3.94705001
_cell_length_c   16.39238500
_cell_angle_alpha   90.00000000
_cell_angle_beta   90.00000000
_cell_angle_gamma   120.00001671
_symmetry_Int_Tables_number   1
_chemical_formula_structural   Sr2YU(NiP)4
_chemical_formula_sum   'Sr2 Y1 U1 Ni4 P4'
_cell_volume   221.16573892
_cell_formula_units_Z   1
loop_
 _symmetry_equiv_pos_site_id
 _symmetry_equiv_pos_as_xyz
  1  'x, y, z'
loop_
 _atom_site_type_symbol
 _atom_site_label
 _atom_site_symmetry_multiplicity
 _atom_site_fract_x
 _atom_site_fract_y
 _atom_site_fract_z
 _atom_site_occupancy
  Sr  Sr0  1  0.000000  0.000000  0.251450  1
  Sr  Sr1  1  0.000000  0.000000  0.748550  1
  Y  Y2  1  0.000000  0.000000  0.000000  1
  U  U3  1  0.000000  0.000000  0.500000  1
  Ni  Ni4  1  0.333333  0.666667  0.398345  1
  Ni  Ni5  1  0.666667  0.333333  0.601655  1
  Ni  Ni6  1  0.666667  0.333333  0.882856  1
  Ni  Ni7  1  0.333333  0.666667  0.117144  1
  P  P8  1  0.333333  0.666667  0.883692  1
  P  P9  1  0.666667  0.333333  0.116308  1
  P  P10  1  0.666667  0.333333  0.387650  1
  P  P11  1  0.333333  0.666667  0.612350  1
