# generated using pymatgen
data_YbTe19
_symmetry_space_group_name_H-M   'P 1'
_cell_length_a   8.01800484
_cell_length_b   9.02478963
_cell_length_c   10.16484400
_cell_angle_alpha   104.08862850
_cell_angle_beta   97.23290686
_cell_angle_gamma   106.97193268
_symmetry_Int_Tables_number   1
_chemical_formula_structural   YbTe19
_chemical_formula_sum   'Yb1 Te19'
_cell_volume   666.78472118
_cell_formula_units_Z   1
loop_
 _symmetry_equiv_pos_site_id
 _symmetry_equiv_pos_as_xyz
  1  'x, y, z'
loop_
 _atom_site_type_symbol
 _atom_site_label
 _atom_site_symmetry_multiplicity
 _atom_site_fract_x
 _atom_site_fract_y
 _atom_site_fract_z
 _atom_site_occupancy
  Yb  Yb0  1  0.000000  0.500000  0.000000  1
  Te  Te1  1  0.780708  0.581570  0.620013  1
  Te  Te2  1  0.650494  0.210949  0.206747  1
  Te  Te3  1  0.349506  0.789051  0.793253  1
  Te  Te4  1  0.596890  0.687973  0.193936  1
  Te  Te5  1  0.219292  0.418430  0.379987  1
  Te  Te6  1  0.403110  0.312027  0.806064  1
  Te  Te7  1  0.000000  0.000000  0.000000  1
  Te  Te8  1  0.197817  0.909219  0.392728  1
  Te  Te9  1  0.802183  0.090781  0.607272  1
  Te  Te10  1  0.689957  0.634289  0.903717  1
  Te  Te11  1  0.521579  0.260456  0.501020  1
  Te  Te12  1  0.709919  0.144167  0.907179  1
  Te  Te13  1  0.290081  0.855833  0.092821  1
  Te  Te14  1  0.478421  0.739544  0.498980  1
  Te  Te15  1  0.095813  0.463822  0.704665  1
  Te  Te16  1  0.310043  0.365711  0.096283  1
  Te  Te17  1  0.914475  0.038339  0.299310  1
  Te  Te18  1  0.085525  0.961661  0.700690  1
  Te  Te19  1  0.904187  0.536178  0.295335  1
