# generated using pymatgen
data_HfZr2Re3Si2P
_symmetry_space_group_name_H-M   'P 1'
_cell_length_a   6.93850236
_cell_length_b   6.91998160
_cell_length_c   3.45385400
_cell_angle_alpha   90.00000000
_cell_angle_beta   90.00000000
_cell_angle_gamma   119.91042505
_symmetry_Int_Tables_number   1
_chemical_formula_structural   HfZr2Re3Si2P
_chemical_formula_sum   'Hf1 Zr2 Re3 Si2 P1'
_cell_volume   143.74626888
_cell_formula_units_Z   1
loop_
 _symmetry_equiv_pos_site_id
 _symmetry_equiv_pos_as_xyz
  1  'x, y, z'
loop_
 _atom_site_type_symbol
 _atom_site_label
 _atom_site_symmetry_multiplicity
 _atom_site_fract_x
 _atom_site_fract_y
 _atom_site_fract_z
 _atom_site_occupancy
  Hf  Hf0  1  0.998274  0.594938  0.500000  1
  Zr  Zr1  1  0.406861  0.404059  0.500000  1
  Zr  Zr2  1  0.595003  0.001217  0.500000  1
  Re  Re3  1  0.748455  0.745238  0.000000  1
  Re  Re4  1  0.252519  0.999172  0.000000  1
  Re  Re5  1  0.998415  0.254178  0.000000  1
  Si  Si6  1  0.331700  0.666026  0.000000  1
  Si  Si7  1  0.999867  0.000309  0.500000  1
  P  P8  1  0.668906  0.334865  0.000000  1
