# generated using pymatgen
data_Li5Nd8MgAg20
_symmetry_space_group_name_H-M   'P 1'
_cell_length_a   8.72865680
_cell_length_b   8.72863109
_cell_length_c   10.35999045
_cell_angle_alpha   89.82564953
_cell_angle_beta   90.17414567
_cell_angle_gamma   108.45105850
_symmetry_Int_Tables_number   1
_chemical_formula_structural   Li5Nd8MgAg20
_chemical_formula_sum   'Li5 Nd8 Mg1 Ag20'
_cell_volume   748.73889305
_cell_formula_units_Z   1
loop_
 _symmetry_equiv_pos_site_id
 _symmetry_equiv_pos_as_xyz
  1  'x, y, z'
loop_
 _atom_site_type_symbol
 _atom_site_label
 _atom_site_symmetry_multiplicity
 _atom_site_fract_x
 _atom_site_fract_y
 _atom_site_fract_z
 _atom_site_occupancy
  Li  Li0  1  0.017869  0.517864  0.250000  1
  Li  Li1  1  0.982539  0.482538  0.750003  1
  Li  Li2  1  0.482906  0.982906  0.750002  1
  Li  Li3  1  0.000122  0.000040  0.999072  1
  Li  Li4  1  0.500043  0.500124  0.500929  1
  Nd  Nd5  1  0.698646  0.301686  0.000763  1
  Nd  Nd6  1  0.301551  0.698376  0.000609  1
  Nd  Nd7  1  0.801687  0.198645  0.499237  1
  Nd  Nd8  1  0.198377  0.801553  0.499389  1
  Nd  Nd9  1  0.300892  0.301279  0.197617  1
  Nd  Nd10  1  0.698008  0.697080  0.800952  1
  Nd  Nd11  1  0.197081  0.198006  0.699046  1
  Nd  Nd12  1  0.801281  0.800893  0.302384  1
  Mg  Mg13  1  0.519513  0.019513  0.249999  1
  Ag  Ag14  1  0.098955  0.098903  0.404761  1
  Ag  Ag15  1  0.901764  0.901325  0.596317  1
  Ag  Ag16  1  0.401328  0.401766  0.903681  1
  Ag  Ag17  1  0.598904  0.598954  0.095240  1
  Ag  Ag18  1  0.896975  0.172259  0.203185  1
  Ag  Ag19  1  0.103171  0.826403  0.797927  1
  Ag  Ag20  1  0.603175  0.325802  0.703081  1
  Ag  Ag21  1  0.672260  0.396976  0.296816  1
  Ag  Ag22  1  0.395519  0.671308  0.297421  1
  Ag  Ag23  1  0.326395  0.603167  0.702071  1
  Ag  Ag24  1  0.825802  0.103170  0.796919  1
  Ag  Ag25  1  0.171307  0.895521  0.202577  1
  Ag  Ag26  1  0.937002  0.661128  0.029227  1
  Ag  Ag27  1  0.063307  0.339334  0.971296  1
  Ag  Ag28  1  0.564558  0.840824  0.528107  1
  Ag  Ag29  1  0.161123  0.437001  0.470774  1
  Ag  Ag30  1  0.435545  0.162249  0.474229  1
  Ag  Ag31  1  0.839332  0.563304  0.528707  1
  Ag  Ag32  1  0.340819  0.064560  0.971893  1
  Ag  Ag33  1  0.662243  0.935543  0.025768  1
