# generated using pymatgen
data_TmFe2(PIr)3
_symmetry_space_group_name_H-M   'P 1'
_cell_length_a   3.84511500
_cell_length_b   10.48388900
_cell_length_c   12.28660900
_cell_angle_alpha   90.00000000
_cell_angle_beta   90.00000000
_cell_angle_gamma   90.00000000
_symmetry_Int_Tables_number   1
_chemical_formula_structural   TmFe2(PIr)3
_chemical_formula_sum   'Tm4 Fe8 P12 Ir12'
_cell_volume   495.29481912
_cell_formula_units_Z   4
loop_
 _symmetry_equiv_pos_site_id
 _symmetry_equiv_pos_as_xyz
  1  'x, y, z'
loop_
 _atom_site_type_symbol
 _atom_site_label
 _atom_site_symmetry_multiplicity
 _atom_site_fract_x
 _atom_site_fract_y
 _atom_site_fract_z
 _atom_site_occupancy
  Tm  Tm0  1  0.250000  0.578959  0.712855  1
  Tm  Tm1  1  0.250000  0.921041  0.212855  1
  Tm  Tm2  1  0.750000  0.421041  0.287145  1
  Tm  Tm3  1  0.750000  0.078959  0.787145  1
  Fe  Fe4  1  0.250000  0.875109  0.697658  1
  Fe  Fe5  1  0.250000  0.624891  0.197658  1
  Fe  Fe6  1  0.750000  0.124891  0.302342  1
  Fe  Fe7  1  0.750000  0.375109  0.802342  1
  Fe  Fe8  1  0.250000  0.457391  0.935857  1
  Fe  Fe9  1  0.250000  0.042609  0.435857  1
  Fe  Fe10  1  0.750000  0.542609  0.064143  1
  Fe  Fe11  1  0.750000  0.957391  0.564143  1
  P  P12  1  0.250000  0.441754  0.112351  1
  P  P13  1  0.250000  0.058246  0.612351  1
  P  P14  1  0.750000  0.558246  0.887649  1
  P  P15  1  0.750000  0.941754  0.387649  1
  P  P16  1  0.250000  0.271211  0.862872  1
  P  P17  1  0.250000  0.228789  0.362872  1
  P  P18  1  0.750000  0.728789  0.137128  1
  P  P19  1  0.750000  0.771211  0.637128  1
  P  P20  1  0.250000  0.599868  0.376507  1
  P  P21  1  0.250000  0.900132  0.876507  1
  P  P22  1  0.750000  0.400132  0.623493  1
  P  P23  1  0.750000  0.099868  0.123493  1
  Ir  Ir24  1  0.250000  0.718968  0.990504  1
  Ir  Ir25  1  0.250000  0.781032  0.490504  1
  Ir  Ir26  1  0.750000  0.281032  0.009496  1
  Ir  Ir27  1  0.750000  0.218968  0.509496  1
  Ir  Ir28  1  0.250000  0.409557  0.473745  1
  Ir  Ir29  1  0.250000  0.090443  0.973745  1
  Ir  Ir30  1  0.750000  0.590443  0.526255  1
  Ir  Ir31  1  0.750000  0.909557  0.026255  1
  Ir  Ir32  1  0.250000  0.232704  0.173710  1
  Ir  Ir33  1  0.250000  0.267296  0.673710  1
  Ir  Ir34  1  0.750000  0.767296  0.826290  1
  Ir  Ir35  1  0.750000  0.732704  0.326290  1
