# generated using pymatgen
data_Y2P4Ir5Rh
_symmetry_space_group_name_H-M   'P 1'
_cell_length_a   3.97926200
_cell_length_b   11.23026088
_cell_length_c   12.70954100
_cell_angle_alpha   89.62008859
_cell_angle_beta   90.00000000
_cell_angle_gamma   90.00000000
_symmetry_Int_Tables_number   1
_chemical_formula_structural   Y2P4Ir5Rh
_chemical_formula_sum   'Y6 P12 Ir15 Rh3'
_cell_volume   567.95339348
_cell_formula_units_Z   3
loop_
 _symmetry_equiv_pos_site_id
 _symmetry_equiv_pos_as_xyz
  1  'x, y, z'
loop_
 _atom_site_type_symbol
 _atom_site_label
 _atom_site_symmetry_multiplicity
 _atom_site_fract_x
 _atom_site_fract_y
 _atom_site_fract_z
 _atom_site_occupancy
  Y  Y0  1  0.000000  0.498895  0.522106  1
  Y  Y1  1  0.500000  0.001023  0.477883  1
  Y  Y2  1  0.500000  0.815971  0.204437  1
  Y  Y3  1  0.500000  0.182929  0.203980  1
  Y  Y4  1  0.000000  0.683740  0.795602  1
  Y  Y5  1  0.000000  0.317453  0.795660  1
  P  P6  1  0.500000  0.499303  0.878285  1
  P  P7  1  0.000000  0.000713  0.121601  1
  P  P8  1  0.500000  0.500146  0.356077  1
  P  P9  1  0.000000  0.000167  0.644118  1
  P  P10  1  0.500000  0.314587  0.618683  1
  P  P11  1  0.500000  0.684227  0.618665  1
  P  P12  1  0.000000  0.185266  0.381229  1
  P  P13  1  0.000000  0.815751  0.381283  1
  P  P14  1  0.500000  0.845712  0.892420  1
  P  P15  1  0.500000  0.158465  0.893379  1
  P  P16  1  0.000000  0.653944  0.107761  1
  P  P17  1  0.000000  0.342327  0.106495  1
  Ir  Ir18  1  0.500000  0.499100  0.700161  1
  Ir  Ir19  1  0.000000  0.000788  0.299440  1
  Ir  Ir20  1  0.000000  0.500215  0.979100  1
  Ir  Ir21  1  0.500000  0.999738  0.021285  1
  Ir  Ir22  1  0.500000  0.666208  0.989655  1
  Ir  Ir23  1  0.000000  0.165403  0.000942  1
  Ir  Ir24  1  0.000000  0.833397  0.010385  1
  Ir  Ir25  1  0.500000  0.295944  0.430336  1
  Ir  Ir26  1  0.500000  0.704148  0.431217  1
  Ir  Ir27  1  0.000000  0.204302  0.569478  1
  Ir  Ir28  1  0.000000  0.796184  0.568745  1
  Ir  Ir29  1  0.500000  0.870001  0.710847  1
  Ir  Ir30  1  0.500000  0.127297  0.713779  1
  Ir  Ir31  1  0.000000  0.629430  0.289267  1
  Ir  Ir32  1  0.000000  0.372007  0.286220  1
  Rh  Rh33  1  0.500000  0.505899  0.176346  1
  Rh  Rh34  1  0.000000  0.993258  0.823863  1
  Rh  Rh35  1  0.500000  0.336061  0.999271  1
