# generated using pymatgen
data_Tb16Cd3InRu4
_symmetry_space_group_name_H-M   'P 1'
_cell_length_a   9.67310456
_cell_length_b   9.67310430
_cell_length_c   9.65876882
_cell_angle_alpha   59.95088873
_cell_angle_beta   59.95089009
_cell_angle_gamma   60.00000061
_symmetry_Int_Tables_number   1
_chemical_formula_structural   Tb16Cd3InRu4
_chemical_formula_sum   'Tb16 Cd3 In1 Ru4'
_cell_volume   638.58064350
_cell_formula_units_Z   1
loop_
 _symmetry_equiv_pos_site_id
 _symmetry_equiv_pos_as_xyz
  1  'x, y, z'
loop_
 _atom_site_type_symbol
 _atom_site_label
 _atom_site_symmetry_multiplicity
 _atom_site_fract_x
 _atom_site_fract_y
 _atom_site_fract_z
 _atom_site_occupancy
  Tb  Tb0  1  0.098029  0.706430  0.097512  1
  Tb  Tb1  1  0.939235  0.939235  0.561012  1
  Tb  Tb2  1  0.941659  0.559182  0.939977  1
  Tb  Tb3  1  0.310981  0.690000  0.309017  1
  Tb  Tb4  1  0.939235  0.560519  0.561012  1
  Tb  Tb5  1  0.310610  0.310610  0.688011  1
  Tb  Tb6  1  0.098029  0.098029  0.097512  1
  Tb  Tb7  1  0.559182  0.559182  0.939977  1
  Tb  Tb8  1  0.098205  0.098205  0.705387  1
  Tb  Tb9  1  0.690770  0.310610  0.688011  1
  Tb  Tb10  1  0.690000  0.690000  0.309017  1
  Tb  Tb11  1  0.690000  0.310981  0.309017  1
  Tb  Tb12  1  0.310610  0.690770  0.688011  1
  Tb  Tb13  1  0.560519  0.939235  0.561012  1
  Tb  Tb14  1  0.706430  0.098029  0.097512  1
  Tb  Tb15  1  0.559182  0.941659  0.939977  1
  Cd  Cd16  1  0.330004  0.330004  0.331702  1
  Cd  Cd17  1  0.008291  0.330004  0.331702  1
  Cd  Cd18  1  0.330004  0.008291  0.331702  1
  In  In19  1  0.329839  0.329839  0.010482  1
  Ru  Ru20  1  0.888946  0.888946  0.890099  1
  Ru  Ru21  1  0.889286  0.889286  0.332142  1
  Ru  Ru22  1  0.332008  0.888946  0.890099  1
  Ru  Ru23  1  0.888946  0.332008  0.890099  1
