# generated using pymatgen
data_Er4Ti2Sn5
_symmetry_space_group_name_H-M   'P 1'
_cell_length_a   11.16411948
_cell_length_b   11.16411875
_cell_length_c   11.16411900
_cell_angle_alpha   148.59150547
_cell_angle_beta   131.27578415
_cell_angle_gamma   59.12561064
_symmetry_Int_Tables_number   1
_chemical_formula_structural   Er4Ti2Sn5
_chemical_formula_sum   'Er8 Ti4 Sn10'
_cell_volume   540.54221438
_cell_formula_units_Z   2
loop_
 _symmetry_equiv_pos_site_id
 _symmetry_equiv_pos_as_xyz
  1  'x, y, z'
loop_
 _atom_site_type_symbol
 _atom_site_label
 _atom_site_symmetry_multiplicity
 _atom_site_fract_x
 _atom_site_fract_y
 _atom_site_fract_z
 _atom_site_occupancy
  Er  Er0  1  0.669264  0.441883  0.227380  1
  Er  Er1  1  0.330736  0.558117  0.772620  1
  Er  Er2  1  0.214501  0.941883  0.272620  1
  Er  Er3  1  0.785499  0.058117  0.727380  1
  Er  Er4  1  0.253158  0.146164  0.106994  1
  Er  Er5  1  0.746842  0.853836  0.893006  1
  Er  Er6  1  0.039170  0.646164  0.393006  1
  Er  Er7  1  0.960830  0.353836  0.606994  1
  Ti  Ti8  1  0.301512  0.551512  0.250000  1
  Ti  Ti9  1  0.698488  0.448488  0.750000  1
  Ti  Ti10  1  0.698488  0.948488  0.250000  1
  Ti  Ti11  1  0.301512  0.051512  0.750000  1
  Sn  Sn12  1  0.584381  0.288512  0.295869  1
  Sn  Sn13  1  0.415619  0.711488  0.704131  1
  Sn  Sn14  1  0.992643  0.788512  0.204131  1
  Sn  Sn15  1  0.007357  0.211488  0.795869  1
  Sn  Sn16  1  0.000000  0.250000  0.250000  1
  Sn  Sn17  1  0.000000  0.750000  0.750000  1
  Sn  Sn18  1  0.487299  0.084969  0.402329  1
  Sn  Sn19  1  0.512701  0.915031  0.597671  1
  Sn  Sn20  1  0.682639  0.584969  0.097671  1
  Sn  Sn21  1  0.317361  0.415031  0.902329  1
