# generated using pymatgen
data_Ba4Al3(SiAu4)5
_symmetry_space_group_name_H-M   'P 1'
_cell_length_a   7.15864500
_cell_length_b   9.23529825
_cell_length_c   10.20934151
_cell_angle_alpha   89.25458001
_cell_angle_beta   90.00000000
_cell_angle_gamma   90.00000000
_symmetry_Int_Tables_number   1
_chemical_formula_structural   Ba4Al3(SiAu4)5
_chemical_formula_sum   'Ba4 Al3 Si5 Au20'
_cell_volume   674.90512720
_cell_formula_units_Z   1
loop_
 _symmetry_equiv_pos_site_id
 _symmetry_equiv_pos_as_xyz
  1  'x, y, z'
loop_
 _atom_site_type_symbol
 _atom_site_label
 _atom_site_symmetry_multiplicity
 _atom_site_fract_x
 _atom_site_fract_y
 _atom_site_fract_z
 _atom_site_occupancy
  Ba  Ba0  1  0.250000  0.241370  0.116917  1
  Ba  Ba1  1  0.250000  0.744371  0.381634  1
  Ba  Ba2  1  0.750000  0.755976  0.882947  1
  Ba  Ba3  1  0.750000  0.257935  0.618089  1
  Al  Al4  1  0.250000  0.055841  0.624142  1
  Al  Al5  1  0.250000  0.552976  0.874444  1
  Al  Al6  1  0.750000  0.947033  0.374577  1
  Si  Si7  1  0.750000  0.451415  0.132354  1
  Si  Si8  1  0.250000  0.329401  0.463907  1
  Si  Si9  1  0.250000  0.823555  0.039831  1
  Si  Si10  1  0.750000  0.671715  0.538586  1
  Si  Si11  1  0.750000  0.165581  0.957181  1
  Au  Au12  1  0.048080  0.101341  0.395934  1
  Au  Au13  1  0.452178  0.595220  0.103531  1
  Au  Au14  1  0.548933  0.900361  0.603643  1
  Au  Au15  1  0.949143  0.398376  0.896420  1
  Au  Au16  1  0.951067  0.900361  0.603643  1
  Au  Au17  1  0.550857  0.398376  0.896420  1
  Au  Au18  1  0.451920  0.101341  0.395934  1
  Au  Au19  1  0.047822  0.595220  0.103531  1
  Au  Au20  1  0.033222  0.073636  0.852569  1
  Au  Au21  1  0.467811  0.576734  0.647200  1
  Au  Au22  1  0.530497  0.926840  0.145610  1
  Au  Au23  1  0.971183  0.424870  0.353498  1
  Au  Au24  1  0.969503  0.926840  0.145610  1
  Au  Au25  1  0.528817  0.424870  0.353498  1
  Au  Au26  1  0.466778  0.073636  0.852569  1
  Au  Au27  1  0.032189  0.576734  0.647200  1
  Au  Au28  1  0.250000  0.316664  0.705725  1
  Au  Au29  1  0.250000  0.816169  0.796616  1
  Au  Au30  1  0.750000  0.686066  0.297914  1
  Au  Au31  1  0.750000  0.189176  0.198329  1
