# generated using pymatgen
data_Th(Fe2Ge3)2
_symmetry_space_group_name_H-M   'P 1'
_cell_length_a   6.23795472
_cell_length_b   6.23795542
_cell_length_c   6.23795465
_cell_angle_alpha   119.13164448
_cell_angle_beta   119.13164505
_cell_angle_gamma   91.51073538
_symmetry_Int_Tables_number   1
_chemical_formula_structural   Th(Fe2Ge3)2
_chemical_formula_sum   'Th1 Fe4 Ge6'
_cell_volume   173.82468677
_cell_formula_units_Z   1
loop_
 _symmetry_equiv_pos_site_id
 _symmetry_equiv_pos_as_xyz
  1  'x, y, z'
loop_
 _atom_site_type_symbol
 _atom_site_label
 _atom_site_symmetry_multiplicity
 _atom_site_fract_x
 _atom_site_fract_y
 _atom_site_fract_z
 _atom_site_occupancy
  Th  Th0  1  0.000000  0.000000  0.000000  1
  Fe  Fe1  1  0.583058  0.249274  0.000000  1
  Fe  Fe2  1  0.249274  0.583058  0.000000  1
  Fe  Fe3  1  0.750725  0.750725  0.333783  1
  Fe  Fe4  1  0.416942  0.416942  0.666216  1
  Ge  Ge5  1  0.882177  0.512671  0.000000  1
  Ge  Ge6  1  0.512671  0.882177  0.000000  1
  Ge  Ge7  1  0.487329  0.487329  0.369506  1
  Ge  Ge8  1  0.499999  0.000000  0.499999  1
  Ge  Ge9  1  0.000000  0.499999  0.499999  1
  Ge  Ge10  1  0.117823  0.117823  0.630493  1
