# generated using pymatgen
data_Ac(Zn2Pt)2
_symmetry_space_group_name_H-M   'P 1'
_cell_length_a   7.91766500
_cell_length_b   7.91766500
_cell_length_c   4.21845800
_cell_angle_alpha   90.00000000
_cell_angle_beta   90.00000000
_cell_angle_gamma   90.00000000
_symmetry_Int_Tables_number   1
_chemical_formula_structural   Ac(Zn2Pt)2
_chemical_formula_sum   'Ac2 Zn8 Pt4'
_cell_volume   264.45268132
_cell_formula_units_Z   2
loop_
 _symmetry_equiv_pos_site_id
 _symmetry_equiv_pos_as_xyz
  1  'x, y, z'
loop_
 _atom_site_type_symbol
 _atom_site_label
 _atom_site_symmetry_multiplicity
 _atom_site_fract_x
 _atom_site_fract_y
 _atom_site_fract_z
 _atom_site_occupancy
  Ac  Ac0  1  0.500000  0.500000  0.500000  1
  Ac  Ac1  1  0.000000  0.000000  0.000000  1
  Zn  Zn2  1  0.347472  0.088880  0.500000  1
  Zn  Zn3  1  0.652528  0.911120  0.500000  1
  Zn  Zn4  1  0.847472  0.411120  0.000000  1
  Zn  Zn5  1  0.152528  0.588880  0.000000  1
  Zn  Zn6  1  0.088880  0.347472  0.500000  1
  Zn  Zn7  1  0.911120  0.652528  0.500000  1
  Zn  Zn8  1  0.411120  0.847472  0.000000  1
  Zn  Zn9  1  0.588880  0.152528  0.000000  1
  Pt  Pt10  1  0.781192  0.218808  0.500000  1
  Pt  Pt11  1  0.218808  0.781192  0.500000  1
  Pt  Pt12  1  0.281192  0.281192  0.000000  1
  Pt  Pt13  1  0.718808  0.718808  0.000000  1
