# generated using pymatgen
data_Tb6Ho3TmSb6
_symmetry_space_group_name_H-M   'P 1'
_cell_length_a   9.01220800
_cell_length_b   9.01220794
_cell_length_c   6.28673700
_cell_angle_alpha   90.00000000
_cell_angle_beta   90.00000000
_cell_angle_gamma   120.00000023
_symmetry_Int_Tables_number   1
_chemical_formula_structural   Tb6Ho3TmSb6
_chemical_formula_sum   'Tb6 Ho3 Tm1 Sb6'
_cell_volume   442.19958767
_cell_formula_units_Z   1
loop_
 _symmetry_equiv_pos_site_id
 _symmetry_equiv_pos_as_xyz
  1  'x, y, z'
loop_
 _atom_site_type_symbol
 _atom_site_label
 _atom_site_symmetry_multiplicity
 _atom_site_fract_x
 _atom_site_fract_y
 _atom_site_fract_z
 _atom_site_occupancy
  Tb  Tb0  1  0.999979  0.752673  0.750002  1
  Tb  Tb1  1  0.999979  0.247306  0.249998  1
  Tb  Tb2  1  0.752694  0.752673  0.249998  1
  Tb  Tb3  1  0.752694  0.000021  0.750002  1
  Tb  Tb4  1  0.247327  0.247306  0.750002  1
  Tb  Tb5  1  0.247327  0.000021  0.249998  1
  Ho  Ho6  1  0.333333  0.666667  0.500000  1
  Ho  Ho7  1  0.666667  0.333333  0.000000  1
  Ho  Ho8  1  0.666667  0.333333  0.500000  1
  Tm  Tm9  1  0.333333  0.666667  0.000000  1
  Sb  Sb10  1  0.389702  0.999661  0.750273  1
  Sb  Sb11  1  0.389702  0.390041  0.249727  1
  Sb  Sb12  1  0.000339  0.610298  0.249727  1
  Sb  Sb13  1  0.000339  0.390041  0.750273  1
  Sb  Sb14  1  0.609959  0.610298  0.750273  1
  Sb  Sb15  1  0.609959  0.999661  0.249727  1
