# generated using pymatgen
data_Sr2Tb2YbSn4
_symmetry_space_group_name_H-M   'P 1'
_cell_length_a   8.06464600
_cell_length_b   8.57552200
_cell_length_c   16.43262100
_cell_angle_alpha   90.00000000
_cell_angle_beta   90.00000000
_cell_angle_gamma   90.00000000
_symmetry_Int_Tables_number   1
_chemical_formula_structural   Sr2Tb2YbSn4
_chemical_formula_sum   'Sr8 Tb8 Yb4 Sn16'
_cell_volume   1136.45622783
_cell_formula_units_Z   4
loop_
 _symmetry_equiv_pos_site_id
 _symmetry_equiv_pos_as_xyz
  1  'x, y, z'
loop_
 _atom_site_type_symbol
 _atom_site_label
 _atom_site_symmetry_multiplicity
 _atom_site_fract_x
 _atom_site_fract_y
 _atom_site_fract_z
 _atom_site_occupancy
  Sr  Sr0  1  0.504501  0.681303  0.594013  1
  Sr  Sr1  1  0.004501  0.818697  0.905987  1
  Sr  Sr2  1  0.495499  0.318697  0.094013  1
  Sr  Sr3  1  0.995499  0.181303  0.405987  1
  Sr  Sr4  1  0.495499  0.318697  0.405987  1
  Sr  Sr5  1  0.995499  0.181303  0.094013  1
  Sr  Sr6  1  0.504501  0.681303  0.905987  1
  Sr  Sr7  1  0.004501  0.818697  0.594013  1
  Tb  Tb8  1  0.671744  0.168710  0.622477  1
  Tb  Tb9  1  0.171744  0.331290  0.877523  1
  Tb  Tb10  1  0.328256  0.831290  0.122477  1
  Tb  Tb11  1  0.828256  0.668710  0.377523  1
  Tb  Tb12  1  0.328256  0.831290  0.377523  1
  Tb  Tb13  1  0.828256  0.668710  0.122477  1
  Tb  Tb14  1  0.671744  0.168710  0.877523  1
  Tb  Tb15  1  0.171744  0.331290  0.622477  1
  Yb  Yb16  1  0.834533  0.508267  0.750000  1
  Yb  Yb17  1  0.334533  0.991733  0.750000  1
  Yb  Yb18  1  0.165467  0.491733  0.250000  1
  Yb  Yb19  1  0.665467  0.008267  0.250000  1
  Sn  Sn20  1  0.663019  0.960046  0.459483  1
  Sn  Sn21  1  0.163019  0.539954  0.040517  1
  Sn  Sn22  1  0.336981  0.039954  0.959483  1
  Sn  Sn23  1  0.836981  0.460046  0.540517  1
  Sn  Sn24  1  0.336981  0.039954  0.540517  1
  Sn  Sn25  1  0.836981  0.460046  0.959483  1
  Sn  Sn26  1  0.663019  0.960046  0.040517  1
  Sn  Sn27  1  0.163019  0.539954  0.459483  1
  Sn  Sn28  1  0.468547  0.370685  0.750000  1
  Sn  Sn29  1  0.968547  0.129315  0.750000  1
  Sn  Sn30  1  0.531453  0.629315  0.250000  1
  Sn  Sn31  1  0.031453  0.870685  0.250000  1
  Sn  Sn32  1  0.714652  0.881976  0.750000  1
  Sn  Sn33  1  0.214652  0.618024  0.750000  1
  Sn  Sn34  1  0.285348  0.118024  0.250000  1
  Sn  Sn35  1  0.785348  0.381976  0.250000  1
