# generated using pymatgen
data_Pr2Ho6Si12IrRh3
_symmetry_space_group_name_H-M   'P 1'
_cell_length_a   8.19923500
_cell_length_b   8.19923456
_cell_length_c   8.02838100
_cell_angle_alpha   90.00000000
_cell_angle_beta   90.00000000
_cell_angle_gamma   120.00000583
_symmetry_Int_Tables_number   1
_chemical_formula_structural   Pr2Ho6Si12IrRh3
_chemical_formula_sum   'Pr2 Ho6 Si12 Ir1 Rh3'
_cell_volume   467.41777647
_cell_formula_units_Z   1
loop_
 _symmetry_equiv_pos_site_id
 _symmetry_equiv_pos_as_xyz
  1  'x, y, z'
loop_
 _atom_site_type_symbol
 _atom_site_label
 _atom_site_symmetry_multiplicity
 _atom_site_fract_x
 _atom_site_fract_y
 _atom_site_fract_z
 _atom_site_occupancy
  Pr  Pr0  1  0.000000  0.000000  0.249220  1
  Pr  Pr1  1  0.000000  0.000000  0.750199  1
  Ho  Ho2  1  0.508399  0.491601  0.250256  1
  Ho  Ho3  1  0.508399  0.016796  0.250256  1
  Ho  Ho4  1  0.983204  0.491601  0.250256  1
  Ho  Ho5  1  0.491061  0.508939  0.749823  1
  Ho  Ho6  1  0.491061  0.982122  0.749823  1
  Ho  Ho7  1  0.017878  0.508939  0.749823  1
  Si  Si8  1  0.168226  0.831774  0.500984  1
  Si  Si9  1  0.168226  0.336452  0.500984  1
  Si  Si10  1  0.663548  0.831774  0.500984  1
  Si  Si11  1  0.831088  0.168912  0.498652  1
  Si  Si12  1  0.831088  0.662175  0.498652  1
  Si  Si13  1  0.337825  0.168912  0.498652  1
  Si  Si14  1  0.831297  0.168703  0.001151  1
  Si  Si15  1  0.831297  0.662593  0.001151  1
  Si  Si16  1  0.337407  0.168703  0.001151  1
  Si  Si17  1  0.168674  0.831326  0.998383  1
  Si  Si18  1  0.168674  0.337347  0.998383  1
  Si  Si19  1  0.662653  0.831326  0.998383  1
  Ir  Ir20  1  0.333333  0.666667  0.466567  1
  Rh  Rh21  1  0.666667  0.333333  0.534856  1
  Rh  Rh22  1  0.666667  0.333333  0.964884  1
  Rh  Rh23  1  0.333333  0.666667  0.036528  1
