# generated using pymatgen
data_Pa4Sn2PdPt3
_symmetry_space_group_name_H-M   'P 1'
_cell_length_a   7.70223933
_cell_length_b   7.70223883
_cell_length_c   3.81340800
_cell_angle_alpha   90.00000000
_cell_angle_beta   90.00000000
_cell_angle_gamma   90.02664595
_symmetry_Int_Tables_number   1
_chemical_formula_structural   Pa4Sn2PdPt3
_chemical_formula_sum   'Pa4 Sn2 Pd1 Pt3'
_cell_volume   226.22844836
_cell_formula_units_Z   1
loop_
 _symmetry_equiv_pos_site_id
 _symmetry_equiv_pos_as_xyz
  1  'x, y, z'
loop_
 _atom_site_type_symbol
 _atom_site_label
 _atom_site_symmetry_multiplicity
 _atom_site_fract_x
 _atom_site_fract_y
 _atom_site_fract_z
 _atom_site_occupancy
  Pa  Pa0  1  0.677422  0.172300  0.500000  1
  Pa  Pa1  1  0.327700  0.822578  0.500000  1
  Pa  Pa2  1  0.171303  0.328697  0.500000  1
  Pa  Pa3  1  0.824752  0.675248  0.500000  1
  Sn  Sn4  1  0.004268  0.999902  0.000000  1
  Sn  Sn5  1  0.500098  0.495732  0.000000  1
  Pd  Pd6  1  0.367771  0.132229  0.000000  1
  Pt  Pt7  1  0.129942  0.630189  0.000000  1
  Pt  Pt8  1  0.869811  0.370058  0.000000  1
  Pt  Pt9  1  0.626932  0.873068  0.000000  1
