# generated using pymatgen
data_Ta3Si3Ru2W
_symmetry_space_group_name_H-M   'P 1'
_cell_length_a   7.51177870
_cell_length_b   7.51177843
_cell_length_c   7.51177890
_cell_angle_alpha   126.82120403
_cell_angle_beta   123.87198294
_cell_angle_gamma   80.98696725
_symmetry_Int_Tables_number   1
_chemical_formula_structural   Ta3Si3Ru2W
_chemical_formula_sum   'Ta6 Si6 Ru4 W2'
_cell_volume   271.50665447
_cell_formula_units_Z   2
loop_
 _symmetry_equiv_pos_site_id
 _symmetry_equiv_pos_as_xyz
  1  'x, y, z'
loop_
 _atom_site_type_symbol
 _atom_site_label
 _atom_site_symmetry_multiplicity
 _atom_site_fract_x
 _atom_site_fract_y
 _atom_site_fract_z
 _atom_site_occupancy
  Ta  Ta0  1  0.941727  0.906533  0.464807  1
  Ta  Ta1  1  0.058273  0.523081  0.964807  1
  Ta  Ta2  1  0.539289  0.511649  0.472359  1
  Ta  Ta3  1  0.460711  0.933069  0.972359  1
  Ta  Ta4  1  0.747484  0.078857  0.831373  1
  Ta  Ta5  1  0.252516  0.083890  0.331373  1
  Si  Si6  1  0.720023  0.446374  0.226352  1
  Si  Si7  1  0.279977  0.506329  0.726352  1
  Si  Si8  1  0.674300  0.182110  0.516898  1
  Si  Si9  1  0.325700  0.842598  0.507809  1
  Si  Si10  1  0.165211  0.182110  0.007809  1
  Si  Si11  1  0.834789  0.842598  0.016898  1
  Ru  Ru12  1  0.907223  0.252664  0.413389  1
  Ru  Ru13  1  0.092777  0.506166  0.345440  1
  Ru  Ru14  1  0.339275  0.252664  0.845440  1
  Ru  Ru15  1  0.660725  0.506166  0.913389  1
  W  W16  1  0.500000  0.750472  0.250472  1
  W  W17  1  0.000000  0.750472  0.750472  1
