# generated using pymatgen
data_NdHo19(Sn7Sb)2
_symmetry_space_group_name_H-M   'P 1'
_cell_length_a   8.07744060
_cell_length_b   8.14531579
_cell_length_c   15.37578200
_cell_angle_alpha   90.29526888
_cell_angle_beta   89.49512013
_cell_angle_gamma   89.92418757
_symmetry_Int_Tables_number   1
_chemical_formula_structural   NdHo19(Sn7Sb)2
_chemical_formula_sum   'Nd1 Ho19 Sn14 Sb2'
_cell_volume   1011.56985081
_cell_formula_units_Z   1
loop_
 _symmetry_equiv_pos_site_id
 _symmetry_equiv_pos_as_xyz
  1  'x, y, z'
loop_
 _atom_site_type_symbol
 _atom_site_label
 _atom_site_symmetry_multiplicity
 _atom_site_fract_x
 _atom_site_fract_y
 _atom_site_fract_z
 _atom_site_occupancy
  Nd  Nd0  1  0.021044  0.180699  0.902411  1
  Ho  Ho1  1  0.371349  0.837195  0.878656  1
  Ho  Ho2  1  0.875151  0.662461  0.619583  1
  Ho  Ho3  1  0.626222  0.161130  0.377803  1
  Ho  Ho4  1  0.129536  0.338552  0.123565  1
  Ho  Ho5  1  0.629490  0.162245  0.122201  1
  Ho  Ho6  1  0.125290  0.338755  0.378980  1
  Ho  Ho7  1  0.374670  0.838281  0.621525  1
  Ho  Ho8  1  0.871567  0.661466  0.877200  1
  Ho  Ho9  1  0.531165  0.328296  0.899584  1
  Ho  Ho10  1  0.036366  0.170361  0.603115  1
  Ho  Ho11  1  0.465343  0.678300  0.398148  1
  Ho  Ho12  1  0.969798  0.821711  0.100497  1
  Ho  Ho13  1  0.474535  0.674777  0.099148  1
  Ho  Ho14  1  0.970755  0.827370  0.399485  1
  Ho  Ho15  1  0.527721  0.321376  0.599312  1
  Ho  Ho16  1  0.202749  0.501381  0.748520  1
  Ho  Ho17  1  0.702174  0.997040  0.750030  1
  Ho  Ho18  1  0.797044  0.498915  0.248728  1
  Ho  Ho19  1  0.297576  0.002099  0.251827  1
  Sn  Sn20  1  0.716598  0.969320  0.542088  1
  Sn  Sn21  1  0.213520  0.535869  0.958823  1
  Sn  Sn22  1  0.708810  0.959542  0.959166  1
  Sn  Sn23  1  0.217306  0.532546  0.542180  1
  Sn  Sn24  1  0.287841  0.034307  0.457725  1
  Sn  Sn25  1  0.791197  0.464003  0.042124  1
  Sn  Sn26  1  0.569630  0.622049  0.748390  1
  Sn  Sn27  1  0.070145  0.876104  0.750062  1
  Sn  Sn28  1  0.430935  0.378669  0.250902  1
  Sn  Sn29  1  0.930881  0.121488  0.250404  1
  Sn  Sn30  1  0.339388  0.147435  0.750914  1
  Sn  Sn31  1  0.834120  0.354576  0.746916  1
  Sn  Sn32  1  0.661883  0.852130  0.249308  1
  Sn  Sn33  1  0.161032  0.648140  0.249786  1
  Sb  Sb34  1  0.287250  0.029383  0.046198  1
  Sb  Sb35  1  0.779923  0.472027  0.454701  1
