# generated using pymatgen
data_Sr6LaSc(BO3)6
_symmetry_space_group_name_H-M   'P 1'
_cell_length_a   7.90107818
_cell_length_b   7.90107822
_cell_length_c   7.90107866
_cell_angle_alpha   105.20489003
_cell_angle_beta   105.20488665
_cell_angle_gamma   105.20489128
_symmetry_Int_Tables_number   1
_chemical_formula_structural   Sr6LaSc(BO3)6
_chemical_formula_sum   'Sr6 La1 Sc1 B6 O18'
_cell_volume   429.30652587
_cell_formula_units_Z   1
loop_
 _symmetry_equiv_pos_site_id
 _symmetry_equiv_pos_as_xyz
  1  'x, y, z'
loop_
 _atom_site_type_symbol
 _atom_site_label
 _atom_site_symmetry_multiplicity
 _atom_site_fract_x
 _atom_site_fract_y
 _atom_site_fract_z
 _atom_site_occupancy
  Sr  Sr0  1  0.358502  0.732278  0.846564  1
  Sr  Sr1  1  0.846564  0.358502  0.732278  1
  Sr  Sr2  1  0.732278  0.846564  0.358502  1
  Sr  Sr3  1  0.641498  0.267722  0.153436  1
  Sr  Sr4  1  0.153436  0.641498  0.267722  1
  Sr  Sr5  1  0.267722  0.153436  0.641498  1
  La  La6  1  0.000000  0.000000  0.000000  1
  Sc  Sc7  1  0.500000  0.500000  0.500000  1
  B  B8  1  0.388073  0.044082  0.297833  1
  B  B9  1  0.297833  0.388073  0.044082  1
  B  B10  1  0.044082  0.297833  0.388073  1
  B  B11  1  0.702167  0.611927  0.955918  1
  B  B12  1  0.955918  0.702167  0.611927  1
  B  B13  1  0.611927  0.955918  0.702167  1
  O  O14  1  0.431911  0.498858  0.222589  1
  O  O15  1  0.222589  0.431911  0.498858  1
  O  O16  1  0.800589  0.025304  0.721834  1
  O  O17  1  0.025304  0.721834  0.800589  1
  O  O18  1  0.721834  0.800589  0.025304  1
  O  O19  1  0.278166  0.199411  0.974696  1
  O  O20  1  0.199411  0.974696  0.278166  1
  O  O21  1  0.974696  0.278166  0.199411  1
  O  O22  1  0.535843  0.057471  0.808832  1
  O  O23  1  0.057471  0.808832  0.535843  1
  O  O24  1  0.808832  0.535843  0.057471  1
  O  O25  1  0.464157  0.942529  0.191168  1
  O  O26  1  0.942529  0.191168  0.464157  1
  O  O27  1  0.191168  0.464157  0.942529  1
  O  O28  1  0.501142  0.777411  0.568089  1
  O  O29  1  0.777411  0.568089  0.501142  1
  O  O30  1  0.568089  0.501142  0.777411  1
  O  O31  1  0.498858  0.222589  0.431911  1
