# generated using pymatgen
data_Y10Ru3Rh
_symmetry_space_group_name_H-M   'P 1'
_cell_length_a   6.40065752
_cell_length_b   7.33577005
_cell_length_c   8.55006663
_cell_angle_alpha   96.75340088
_cell_angle_beta   112.04489919
_cell_angle_gamma   90.09849936
_symmetry_Int_Tables_number   1
_chemical_formula_structural   Y10Ru3Rh
_chemical_formula_sum   'Y10 Ru3 Rh1'
_cell_volume   369.06639992
_cell_formula_units_Z   1
loop_
 _symmetry_equiv_pos_site_id
 _symmetry_equiv_pos_as_xyz
  1  'x, y, z'
loop_
 _atom_site_type_symbol
 _atom_site_label
 _atom_site_symmetry_multiplicity
 _atom_site_fract_x
 _atom_site_fract_y
 _atom_site_fract_z
 _atom_site_occupancy
  Y  Y0  1  0.980490  0.917721  0.185522  1
  Y  Y1  1  0.792592  0.585660  0.810585  1
  Y  Y2  1  0.020282  0.085489  0.813521  1
  Y  Y3  1  0.208644  0.413071  0.185578  1
  Y  Y4  1  0.640381  0.817311  0.436101  1
  Y  Y5  1  0.210979  0.685363  0.568681  1
  Y  Y6  1  0.357287  0.184864  0.565679  1
  Y  Y7  1  0.792626  0.312972  0.435982  1
  Y  Y8  1  0.419587  0.750916  0.999278  1
  Y  Y9  1  0.577163  0.247420  0.997891  1
  Ru  Ru10  1  0.604641  0.922335  0.779507  1
  Ru  Ru11  1  0.174719  0.424958  0.778485  1
  Ru  Ru12  1  0.398006  0.076281  0.221132  1
  Rh  Rh13  1  0.822602  0.575639  0.222058  1
