# generated using pymatgen
data_TbDy7(GeI6)2
_symmetry_space_group_name_H-M   'P 1'
_cell_length_a   4.23370800
_cell_length_b   14.00923220
_cell_length_c   14.80638827
_cell_angle_alpha   89.95259800
_cell_angle_beta   90.00000000
_cell_angle_gamma   90.00000000
_symmetry_Int_Tables_number   1
_chemical_formula_structural   TbDy7(GeI6)2
_chemical_formula_sum   'Tb1 Dy7 Ge2 I12'
_cell_volume   878.18137075
_cell_formula_units_Z   1
loop_
 _symmetry_equiv_pos_site_id
 _symmetry_equiv_pos_as_xyz
  1  'x, y, z'
loop_
 _atom_site_type_symbol
 _atom_site_label
 _atom_site_symmetry_multiplicity
 _atom_site_fract_x
 _atom_site_fract_y
 _atom_site_fract_z
 _atom_site_occupancy
  Tb  Tb0  1  0.500000  0.384519  0.846454  1
  Dy  Dy1  1  0.500000  0.115434  0.346521  1
  Dy  Dy2  1  0.500000  0.884634  0.653344  1
  Dy  Dy3  1  0.500000  0.615488  0.153675  1
  Dy  Dy4  1  0.000000  0.111688  0.574850  1
  Dy  Dy5  1  0.000000  0.888218  0.424797  1
  Dy  Dy6  1  0.000000  0.611914  0.924878  1
  Dy  Dy7  1  0.000000  0.388037  0.075035  1
  Ge  Ge8  1  0.500000  0.999906  0.499930  1
  Ge  Ge9  1  0.500000  0.500423  0.000330  1
  I  I10  1  0.500000  0.245540  0.161897  1
  I  I11  1  0.500000  0.754605  0.838424  1
  I  I12  1  0.500000  0.745838  0.338181  1
  I  I13  1  0.500000  0.254125  0.661478  1
  I  I14  1  0.000000  0.258269  0.414215  1
  I  I15  1  0.000000  0.741802  0.585761  1
  I  I16  1  0.000000  0.758178  0.085588  1
  I  I17  1  0.000000  0.240768  0.915172  1
  I  I18  1  0.000000  0.000041  0.241129  1
  I  I19  1  0.000000  0.999865  0.758809  1
  I  I20  1  0.000000  0.499721  0.258840  1
  I  I21  1  0.000000  0.500988  0.740695  1
