# generated using pymatgen
data_LiTm2Ag3O8
_symmetry_space_group_name_H-M   'P 1'
_cell_length_a   6.44796871
_cell_length_b   6.53415071
_cell_length_c   6.46183200
_cell_angle_alpha   126.67496177
_cell_angle_beta   126.35288079
_cell_angle_gamma   80.70842924
_symmetry_Int_Tables_number   1
_chemical_formula_structural   LiTm2Ag3O8
_chemical_formula_sum   'Li1 Tm2 Ag3 O8'
_cell_volume   167.86113877
_cell_formula_units_Z   1
loop_
 _symmetry_equiv_pos_site_id
 _symmetry_equiv_pos_as_xyz
  1  'x, y, z'
loop_
 _atom_site_type_symbol
 _atom_site_label
 _atom_site_symmetry_multiplicity
 _atom_site_fract_x
 _atom_site_fract_y
 _atom_site_fract_z
 _atom_site_occupancy
  Li  Li0  1  0.875000  0.125000  0.250000  1
  Tm  Tm1  1  0.512057  0.484265  0.998254  1
  Tm  Tm2  1  0.237943  0.765735  0.501746  1
  Ag  Ag3  1  0.375000  0.125000  0.250000  1
  Ag  Ag4  1  0.875000  0.125000  0.750000  1
  Ag  Ag5  1  0.875000  0.625000  0.750000  1
  O  O6  1  0.902907  0.376696  0.159069  1
  O  O7  1  0.214888  0.734159  0.838986  1
  O  O8  1  0.847093  0.873304  0.340931  1
  O  O9  1  0.535112  0.515841  0.661014  1
  O  O10  1  0.496903  0.155814  0.039066  1
  O  O11  1  0.118693  0.461459  0.959716  1
  O  O12  1  0.631307  0.788541  0.540284  1
  O  O13  1  0.253097  0.094186  0.460934  1
