# generated using pymatgen
data_SmDy3C2Cl3
_symmetry_space_group_name_H-M   'P 1'
_cell_length_a   3.67039200
_cell_length_b   10.56998800
_cell_length_c   19.96225400
_cell_angle_alpha   90.00000000
_cell_angle_beta   90.00000000
_cell_angle_gamma   90.00000000
_symmetry_Int_Tables_number   1
_chemical_formula_structural   SmDy3C2Cl3
_chemical_formula_sum   'Sm4 Dy12 C8 Cl12'
_cell_volume   774.45559411
_cell_formula_units_Z   4
loop_
 _symmetry_equiv_pos_site_id
 _symmetry_equiv_pos_as_xyz
  1  'x, y, z'
loop_
 _atom_site_type_symbol
 _atom_site_label
 _atom_site_symmetry_multiplicity
 _atom_site_fract_x
 _atom_site_fract_y
 _atom_site_fract_z
 _atom_site_occupancy
  Sm  Sm0  1  0.250000  0.862501  0.573579  1
  Sm  Sm1  1  0.750000  0.137499  0.426421  1
  Sm  Sm2  1  0.750000  0.637499  0.073579  1
  Sm  Sm3  1  0.250000  0.362501  0.926421  1
  Dy  Dy4  1  0.250000  0.864079  0.744800  1
  Dy  Dy5  1  0.750000  0.135921  0.255200  1
  Dy  Dy6  1  0.750000  0.635921  0.244800  1
  Dy  Dy7  1  0.250000  0.364079  0.755200  1
  Dy  Dy8  1  0.250000  0.874169  0.166378  1
  Dy  Dy9  1  0.750000  0.125831  0.833622  1
  Dy  Dy10  1  0.750000  0.625831  0.666378  1
  Dy  Dy11  1  0.250000  0.374169  0.333622  1
  Dy  Dy12  1  0.250000  0.898192  0.331068  1
  Dy  Dy13  1  0.750000  0.101808  0.668932  1
  Dy  Dy14  1  0.750000  0.601808  0.831068  1
  Dy  Dy15  1  0.250000  0.398192  0.168932  1
  C  C16  1  0.250000  0.613257  0.750491  1
  C  C17  1  0.750000  0.386743  0.249509  1
  C  C18  1  0.750000  0.886743  0.250491  1
  C  C19  1  0.250000  0.113257  0.749509  1
  C  C20  1  0.250000  0.635062  0.155362  1
  C  C21  1  0.750000  0.364938  0.844638  1
  C  C22  1  0.750000  0.864938  0.655362  1
  C  C23  1  0.250000  0.135062  0.344638  1
  Cl  Cl24  1  0.250000  0.608449  0.559316  1
  Cl  Cl25  1  0.750000  0.391551  0.440684  1
  Cl  Cl26  1  0.750000  0.891551  0.059316  1
  Cl  Cl27  1  0.250000  0.108449  0.940684  1
  Cl  Cl28  1  0.250000  0.626823  0.949722  1
  Cl  Cl29  1  0.750000  0.373177  0.050278  1
  Cl  Cl30  1  0.750000  0.873177  0.449722  1
  Cl  Cl31  1  0.250000  0.126823  0.550278  1
  Cl  Cl32  1  0.250000  0.637964  0.353133  1
  Cl  Cl33  1  0.750000  0.362036  0.646867  1
  Cl  Cl34  1  0.750000  0.862036  0.853133  1
  Cl  Cl35  1  0.250000  0.137964  0.146867  1
