# generated using pymatgen
data_SrTb4Y2RuI12
_symmetry_space_group_name_H-M   'P 1'
_cell_length_a   9.83709335
_cell_length_b   9.81771701
_cell_length_c   9.92265337
_cell_angle_alpha   106.57107327
_cell_angle_beta   106.43274743
_cell_angle_gamma   106.08071493
_symmetry_Int_Tables_number   1
_chemical_formula_structural   SrTb4Y2RuI12
_chemical_formula_sum   'Sr1 Tb4 Y2 Ru1 I12'
_cell_volume   811.57518896
_cell_formula_units_Z   1
loop_
 _symmetry_equiv_pos_site_id
 _symmetry_equiv_pos_as_xyz
  1  'x, y, z'
loop_
 _atom_site_type_symbol
 _atom_site_label
 _atom_site_symmetry_multiplicity
 _atom_site_fract_x
 _atom_site_fract_y
 _atom_site_fract_z
 _atom_site_occupancy
  Sr  Sr0  1  0.500171  0.499992  0.500076  1
  Tb  Tb1  1  0.710036  0.980072  0.908733  1
  Tb  Tb2  1  0.092494  0.290963  0.019524  1
  Tb  Tb3  1  0.020078  0.094999  0.301318  1
  Tb  Tb4  1  0.289747  0.019883  0.091137  1
  Y  Y5  1  0.907496  0.708600  0.980334  1
  Y  Y6  1  0.979670  0.904640  0.697390  1
  Ru  Ru7  1  0.999921  0.000323  0.999927  1
  I  I8  1  0.632077  0.864693  0.553715  1
  I  I9  1  0.552324  0.631728  0.862756  1
  I  I10  1  0.865134  0.552586  0.634760  1
  I  I11  1  0.368452  0.135326  0.446376  1
  I  I12  1  0.448423  0.368210  0.137705  1
  I  I13  1  0.135618  0.448412  0.366050  1
  I  I14  1  0.678374  0.074313  0.222198  1
  I  I15  1  0.223054  0.680019  0.074578  1
  I  I16  1  0.075117  0.225712  0.679101  1
  I  I17  1  0.320732  0.925167  0.777243  1
  I  I18  1  0.776322  0.320733  0.925384  1
  I  I19  1  0.924759  0.773631  0.321695  1
