# generated using pymatgen
data_Ho4SiBr6
_symmetry_space_group_name_H-M   'P 1'
_cell_length_a   4.03447700
_cell_length_b   13.15869900
_cell_length_c   13.93736500
_cell_angle_alpha   90.00000000
_cell_angle_beta   90.00000000
_cell_angle_gamma   90.00000000
_symmetry_Int_Tables_number   1
_chemical_formula_structural   Ho4SiBr6
_chemical_formula_sum   'Ho8 Si2 Br12'
_cell_volume   739.91336229
_cell_formula_units_Z   2
loop_
 _symmetry_equiv_pos_site_id
 _symmetry_equiv_pos_as_xyz
  1  'x, y, z'
loop_
 _atom_site_type_symbol
 _atom_site_label
 _atom_site_symmetry_multiplicity
 _atom_site_fract_x
 _atom_site_fract_y
 _atom_site_fract_z
 _atom_site_occupancy
  Ho  Ho0  1  0.500000  0.118224  0.341003  1
  Ho  Ho1  1  0.500000  0.881776  0.658997  1
  Ho  Ho2  1  0.500000  0.618224  0.158997  1
  Ho  Ho3  1  0.500000  0.381776  0.841003  1
  Ho  Ho4  1  0.000000  0.117875  0.578181  1
  Ho  Ho5  1  0.000000  0.882125  0.421819  1
  Ho  Ho6  1  0.000000  0.617875  0.921819  1
  Ho  Ho7  1  0.000000  0.382125  0.078181  1
  Si  Si8  1  0.500000  0.000000  0.500000  1
  Si  Si9  1  0.500000  0.500000  0.000000  1
  Br  Br10  1  0.500000  0.243576  0.162450  1
  Br  Br11  1  0.500000  0.756424  0.837550  1
  Br  Br12  1  0.500000  0.743576  0.337550  1
  Br  Br13  1  0.500000  0.256424  0.662450  1
  Br  Br14  1  0.000000  0.255970  0.411354  1
  Br  Br15  1  0.000000  0.744030  0.588646  1
  Br  Br16  1  0.000000  0.755970  0.088646  1
  Br  Br17  1  0.000000  0.244030  0.911354  1
  Br  Br18  1  0.000000  0.001415  0.242638  1
  Br  Br19  1  0.000000  0.998585  0.757362  1
  Br  Br20  1  0.000000  0.501415  0.257362  1
  Br  Br21  1  0.000000  0.498585  0.742638  1
