# generated using pymatgen
data_Cs2BiCl3F2
_symmetry_space_group_name_H-M   'P 1'
_cell_length_a   7.86331341
_cell_length_b   7.86925311
_cell_length_c   14.51639730
_cell_angle_alpha   84.62361109
_cell_angle_beta   79.85658565
_cell_angle_gamma   60.23032885
_symmetry_Int_Tables_number   1
_chemical_formula_structural   Cs2BiCl3F2
_chemical_formula_sum   'Cs6 Bi3 Cl9 F6'
_cell_volume   767.50041370
_cell_formula_units_Z   3
loop_
 _symmetry_equiv_pos_site_id
 _symmetry_equiv_pos_as_xyz
  1  'x, y, z'
loop_
 _atom_site_type_symbol
 _atom_site_label
 _atom_site_symmetry_multiplicity
 _atom_site_fract_x
 _atom_site_fract_y
 _atom_site_fract_z
 _atom_site_occupancy
  Cs  Cs0  1  0.305570  0.331350  0.093217  1
  Cs  Cs1  1  0.431935  0.334580  0.705610  1
  Cs  Cs2  1  0.102005  0.997242  0.691946  1
  Cs  Cs3  1  0.694430  0.668650  0.906783  1
  Cs  Cs4  1  0.568065  0.665420  0.294390  1
  Cs  Cs5  1  0.897995  0.002758  0.308054  1
  Bi  Bi6  1  0.210061  0.324733  0.395550  1
  Bi  Bi7  1  0.789939  0.675267  0.604450  1
  Bi  Bi8  1  0.000000  0.000000  0.000000  1
  Cl  Cl9  1  0.285911  0.790224  0.111217  1
  Cl  Cl10  1  0.156941  0.655808  0.500443  1
  Cl  Cl11  1  0.843059  0.344192  0.499557  1
  Cl  Cl12  1  0.851875  0.323274  0.109025  1
  Cl  Cl13  1  0.246386  0.113476  0.889080  1
  Cl  Cl14  1  0.714089  0.209776  0.888783  1
  Cl  Cl15  1  0.500000  0.000000  0.500000  1
  Cl  Cl16  1  0.753614  0.886524  0.110920  1
  Cl  Cl17  1  0.148125  0.676726  0.890975  1
  F  F18  1  0.547341  0.663802  0.694922  1
  F  F19  1  0.767741  0.890044  0.694488  1
  F  F20  1  0.009212  0.551272  0.312110  1
  F  F21  1  0.990788  0.448728  0.687890  1
  F  F22  1  0.232259  0.109956  0.305512  1
  F  F23  1  0.452659  0.336198  0.305078  1
