# generated using pymatgen
data_Tb4Al14Ga4Ir5Pt
_symmetry_space_group_name_H-M   'P 1'
_cell_length_a   7.54900875
_cell_length_b   7.55310755
_cell_length_c   9.54479832
_cell_angle_alpha   90.02907384
_cell_angle_beta   89.99021638
_cell_angle_gamma   119.63434918
_symmetry_Int_Tables_number   1
_chemical_formula_structural   Tb4Al14Ga4Ir5Pt
_chemical_formula_sum   'Tb4 Al14 Ga4 Ir5 Pt1'
_cell_volume   473.04378353
_cell_formula_units_Z   1
loop_
 _symmetry_equiv_pos_site_id
 _symmetry_equiv_pos_as_xyz
  1  'x, y, z'
loop_
 _atom_site_type_symbol
 _atom_site_label
 _atom_site_symmetry_multiplicity
 _atom_site_fract_x
 _atom_site_fract_y
 _atom_site_fract_z
 _atom_site_occupancy
  Tb  Tb0  1  0.998175  0.672823  0.250750  1
  Tb  Tb1  1  0.001825  0.327177  0.749250  1
  Tb  Tb2  1  0.669090  0.994067  0.250758  1
  Tb  Tb3  1  0.330910  0.005933  0.749242  1
  Al  Al4  1  0.001305  0.337674  0.075011  1
  Al  Al5  1  0.998695  0.662326  0.924989  1
  Al  Al6  1  0.999463  0.665599  0.572983  1
  Al  Al7  1  0.334976  0.001378  0.427021  1
  Al  Al8  1  0.000537  0.334401  0.427017  1
  Al  Al9  1  0.665024  0.998622  0.572979  1
  Al  Al10  1  0.661748  0.998134  0.924977  1
  Al  Al11  1  0.338252  0.001866  0.075023  1
  Al  Al12  1  0.333984  0.334425  0.554614  1
  Al  Al13  1  0.666016  0.665575  0.445386  1
  Al  Al14  1  0.663213  0.662821  0.056089  1
  Al  Al15  1  0.336787  0.337179  0.943911  1
  Al  Al16  1  0.549288  0.338856  0.250321  1
  Al  Al17  1  0.450712  0.661144  0.749679  1
  Ga  Ga18  1  0.131394  0.132267  0.252257  1
  Ga  Ga19  1  0.868606  0.867733  0.747743  1
  Ga  Ga20  1  0.338235  0.546043  0.250290  1
  Ga  Ga21  1  0.661765  0.453957  0.749710  1
  Ir  Ir22  1  0.671083  0.328255  0.002337  1
  Ir  Ir23  1  0.328917  0.671745  0.997663  1
  Ir  Ir24  1  0.328893  0.671798  0.502342  1
  Ir  Ir25  1  0.671107  0.328202  0.497658  1
  Ir  Ir26  1  0.000000  0.000000  0.500000  1
  Pt  Pt27  1  0.000000  0.000000  0.000000  1
