# generated using pymatgen
data_NdTm7Sc12(GaSi3)4
_symmetry_space_group_name_H-M   'P 1'
_cell_length_a   7.11047974
_cell_length_b   7.38178111
_cell_length_c   14.10179659
_cell_angle_alpha   90.14432945
_cell_angle_beta   89.86022784
_cell_angle_gamma   90.20330817
_symmetry_Int_Tables_number   1
_chemical_formula_structural   NdTm7Sc12(GaSi3)4
_chemical_formula_sum   'Nd1 Tm7 Sc12 Ga4 Si12'
_cell_volume   740.16597609
_cell_formula_units_Z   1
loop_
 _symmetry_equiv_pos_site_id
 _symmetry_equiv_pos_as_xyz
  1  'x, y, z'
loop_
 _atom_site_type_symbol
 _atom_site_label
 _atom_site_symmetry_multiplicity
 _atom_site_fract_x
 _atom_site_fract_y
 _atom_site_fract_z
 _atom_site_occupancy
  Nd  Nd0  1  0.012707  0.172672  0.094646  1
  Tm  Tm1  1  0.988088  0.824407  0.900348  1
  Tm  Tm2  1  0.488158  0.677876  0.900658  1
  Tm  Tm3  1  0.987958  0.826713  0.600666  1
  Tm  Tm4  1  0.510310  0.321096  0.096991  1
  Tm  Tm5  1  0.008972  0.175661  0.399988  1
  Tm  Tm6  1  0.510708  0.324088  0.401749  1
  Tm  Tm7  1  0.490638  0.676612  0.601011  1
  Sc  Sc8  1  0.163247  0.501679  0.751228  1
  Sc  Sc9  1  0.836019  0.498083  0.251011  1
  Sc  Sc10  1  0.335888  0.001531  0.249183  1
  Sc  Sc11  1  0.663681  0.997838  0.750106  1
  Sc  Sc12  1  0.333969  0.173967  0.628387  1
  Sc  Sc13  1  0.668172  0.826139  0.374446  1
  Sc  Sc14  1  0.170004  0.672940  0.373920  1
  Sc  Sc15  1  0.667809  0.826040  0.126210  1
  Sc  Sc16  1  0.829322  0.324992  0.627120  1
  Sc  Sc17  1  0.330964  0.175666  0.873977  1
  Sc  Sc18  1  0.828637  0.324970  0.873616  1
  Sc  Sc19  1  0.173768  0.674559  0.124179  1
  Ga  Ga20  1  0.163079  0.461090  0.540010  1
  Ga  Ga21  1  0.838019  0.537688  0.461941  1
  Ga  Ga22  1  0.337717  0.961970  0.461954  1
  Ga  Ga23  1  0.837385  0.542479  0.037100  1
  Si  Si24  1  0.032874  0.114676  0.751190  1
  Si  Si25  1  0.966462  0.881148  0.250626  1
  Si  Si26  1  0.467600  0.613113  0.248822  1
  Si  Si27  1  0.532900  0.387530  0.751222  1
  Si  Si28  1  0.286188  0.870018  0.751095  1
  Si  Si29  1  0.711604  0.129047  0.250593  1
  Si  Si30  1  0.216188  0.372357  0.250054  1
  Si  Si31  1  0.787004  0.631006  0.751484  1
  Si  Si32  1  0.659074  0.035900  0.539588  1
  Si  Si33  1  0.159733  0.468131  0.958758  1
  Si  Si34  1  0.656297  0.035059  0.959970  1
  Si  Si35  1  0.348856  0.961262  0.036157  1
