# generated using pymatgen
data_Pr2Ho2Zn10SnGe
_symmetry_space_group_name_H-M   'P 1'
_cell_length_a   8.39727572
_cell_length_b   8.39727633
_cell_length_c   8.93439500
_cell_angle_alpha   90.00000000
_cell_angle_beta   90.00000000
_cell_angle_gamma   149.68988651
_symmetry_Int_Tables_number   1
_chemical_formula_structural   Pr2Ho2Zn10SnGe
_chemical_formula_sum   'Pr2 Ho2 Zn10 Sn1 Ge1'
_cell_volume   317.94947794
_cell_formula_units_Z   1
loop_
 _symmetry_equiv_pos_site_id
 _symmetry_equiv_pos_as_xyz
  1  'x, y, z'
loop_
 _atom_site_type_symbol
 _atom_site_label
 _atom_site_symmetry_multiplicity
 _atom_site_fract_x
 _atom_site_fract_y
 _atom_site_fract_z
 _atom_site_occupancy
  Pr  Pr0  1  0.001281  0.998719  0.489770  1
  Pr  Pr1  1  0.001281  0.998719  0.010230  1
  Ho  Ho2  1  0.201717  0.798283  0.250000  1
  Ho  Ho3  1  0.795478  0.204522  0.750000  1
  Zn  Zn4  1  0.812029  0.187971  0.390426  1
  Zn  Zn5  1  0.187506  0.812494  0.608348  1
  Zn  Zn6  1  0.812029  0.187971  0.109574  1
  Zn  Zn7  1  0.187506  0.812494  0.891652  1
  Zn  Zn8  1  0.654988  0.345012  0.475350  1
  Zn  Zn9  1  0.341896  0.658104  0.517016  1
  Zn  Zn10  1  0.654988  0.345012  0.024650  1
  Zn  Zn11  1  0.341896  0.658104  0.982984  1
  Zn  Zn12  1  0.399257  0.600743  0.250000  1
  Zn  Zn13  1  0.606558  0.393442  0.750000  1
  Sn  Sn14  1  0.443792  0.556208  0.750000  1
  Ge  Ge15  1  0.557797  0.442203  0.250000  1
