# generated using pymatgen
data_Er12Co2TcNi2Bi
_symmetry_space_group_name_H-M   'P 1'
_cell_length_a   8.24145490
_cell_length_b   8.24145398
_cell_length_c   8.24145363
_cell_angle_alpha   109.74556730
_cell_angle_beta   111.49596198
_cell_angle_gamma   107.20073849
_symmetry_Int_Tables_number   1
_chemical_formula_structural   Er12Co2TcNi2Bi
_chemical_formula_sum   'Er12 Co2 Tc1 Ni2 Bi1'
_cell_volume   430.30328702
_cell_formula_units_Z   1
loop_
 _symmetry_equiv_pos_site_id
 _symmetry_equiv_pos_as_xyz
  1  'x, y, z'
loop_
 _atom_site_type_symbol
 _atom_site_label
 _atom_site_symmetry_multiplicity
 _atom_site_fract_x
 _atom_site_fract_y
 _atom_site_fract_z
 _atom_site_occupancy
  Er  Er0  1  0.284095  0.180758  0.464853  1
  Er  Er1  1  0.715905  0.819242  0.535147  1
  Er  Er2  1  0.284095  0.819242  0.103337  1
  Er  Er3  1  0.715905  0.180758  0.896663  1
  Er  Er4  1  0.618985  0.310952  0.308033  1
  Er  Er5  1  0.381015  0.689048  0.691967  1
  Er  Er6  1  0.002920  0.310952  0.691967  1
  Er  Er7  1  0.997080  0.689048  0.308033  1
  Er  Er8  1  0.216164  0.411028  0.194864  1
  Er  Er9  1  0.783836  0.588972  0.805136  1
  Er  Er10  1  0.216164  0.021301  0.805136  1
  Er  Er11  1  0.783836  0.978699  0.194864  1
  Co  Co12  1  0.387188  0.887188  0.500000  1
  Co  Co13  1  0.612812  0.112812  0.500000  1
  Tc  Tc14  1  0.000000  0.000000  0.000000  1
  Ni  Ni15  1  0.000000  0.366366  0.366366  1
  Ni  Ni16  1  0.000000  0.633634  0.633634  1
  Bi  Bi17  1  0.500000  0.500000  0.000000  1
