# generated using pymatgen
data_Lu8Sc11Si16Mo
_symmetry_space_group_name_H-M   'P 1'
_cell_length_a   7.00722465
_cell_length_b   7.26127366
_cell_length_c   13.78948389
_cell_angle_alpha   90.16249958
_cell_angle_beta   89.62010678
_cell_angle_gamma   89.71585279
_symmetry_Int_Tables_number   1
_chemical_formula_structural   Lu8Sc11Si16Mo
_chemical_formula_sum   'Lu8 Sc11 Si16 Mo1'
_cell_volume   701.60097310
_cell_formula_units_Z   1
loop_
 _symmetry_equiv_pos_site_id
 _symmetry_equiv_pos_as_xyz
  1  'x, y, z'
loop_
 _atom_site_type_symbol
 _atom_site_label
 _atom_site_symmetry_multiplicity
 _atom_site_fract_x
 _atom_site_fract_y
 _atom_site_fract_z
 _atom_site_occupancy
  Lu  Lu0  1  0.511412  0.322585  0.095925  1
  Lu  Lu1  1  0.007448  0.175551  0.404253  1
  Lu  Lu2  1  0.489609  0.676643  0.595269  1
  Lu  Lu3  1  0.991432  0.825053  0.899244  1
  Lu  Lu4  1  0.489062  0.679662  0.900021  1
  Lu  Lu5  1  0.994478  0.828278  0.595460  1
  Lu  Lu6  1  0.505472  0.321900  0.410518  1
  Lu  Lu7  1  0.009966  0.175568  0.096700  1
  Sc  Sc8  1  0.834999  0.322779  0.623623  1
  Sc  Sc9  1  0.335033  0.176640  0.874826  1
  Sc  Sc10  1  0.168013  0.677172  0.125683  1
  Sc  Sc11  1  0.662791  0.825122  0.378781  1
  Sc  Sc12  1  0.166140  0.678874  0.378173  1
  Sc  Sc13  1  0.666852  0.823684  0.124594  1
  Sc  Sc14  1  0.832806  0.322831  0.872157  1
  Sc  Sc15  1  0.661653  0.000838  0.747139  1
  Sc  Sc16  1  0.165605  0.497942  0.745565  1
  Sc  Sc17  1  0.333700  0.003877  0.252838  1
  Sc  Sc18  1  0.835687  0.497086  0.251677  1
  Si  Si19  1  0.650357  0.033836  0.544087  1
  Si  Si20  1  0.158342  0.467574  0.959346  1
  Si  Si21  1  0.337623  0.963888  0.038106  1
  Si  Si22  1  0.839141  0.531338  0.461016  1
  Si  Si23  1  0.329816  0.970109  0.471501  1
  Si  Si24  1  0.842563  0.534269  0.038784  1
  Si  Si25  1  0.664984  0.035014  0.959438  1
  Si  Si26  1  0.177859  0.451794  0.540000  1
  Si  Si27  1  0.533779  0.378969  0.745947  1
  Si  Si28  1  0.044526  0.117592  0.745094  1
  Si  Si29  1  0.465016  0.613035  0.250880  1
  Si  Si30  1  0.961319  0.888521  0.251423  1
  Si  Si31  1  0.785891  0.627263  0.746682  1
  Si  Si32  1  0.288784  0.875707  0.745642  1
  Si  Si33  1  0.213571  0.369860  0.250585  1
  Si  Si34  1  0.708573  0.130621  0.250805  1
  Mo  Mo35  1  0.335697  0.178527  0.628215  1
