# generated using pymatgen
data_Rb3Nd(VS4)2
_symmetry_space_group_name_H-M   'P 1'
_cell_length_a   9.49245700
_cell_length_b   9.92660686
_cell_length_c   17.64663200
_cell_angle_alpha   90.00000000
_cell_angle_beta   90.00000000
_cell_angle_gamma   90.72826528
_symmetry_Int_Tables_number   1
_chemical_formula_structural   Rb3Nd(VS4)2
_chemical_formula_sum   'Rb12 Nd4 V8 S32'
_cell_volume   1662.67055785
_cell_formula_units_Z   4
loop_
 _symmetry_equiv_pos_site_id
 _symmetry_equiv_pos_as_xyz
  1  'x, y, z'
loop_
 _atom_site_type_symbol
 _atom_site_label
 _atom_site_symmetry_multiplicity
 _atom_site_fract_x
 _atom_site_fract_y
 _atom_site_fract_z
 _atom_site_occupancy
  Rb  Rb0  1  0.877534  0.871801  0.709172  1
  Rb  Rb1  1  0.122466  0.628199  0.209172  1
  Rb  Rb2  1  0.122466  0.128199  0.290828  1
  Rb  Rb3  1  0.877534  0.371801  0.790828  1
  Rb  Rb4  1  0.378401  0.872712  0.786312  1
  Rb  Rb5  1  0.621599  0.627288  0.286312  1
  Rb  Rb6  1  0.621599  0.127288  0.213688  1
  Rb  Rb7  1  0.378401  0.372712  0.713688  1
  Rb  Rb8  1  0.266953  0.982958  0.531888  1
  Rb  Rb9  1  0.733047  0.517042  0.031888  1
  Rb  Rb10  1  0.733047  0.017042  0.468112  1
  Rb  Rb11  1  0.266953  0.482958  0.968112  1
  Nd  Nd12  1  0.770908  0.982195  0.986823  1
  Nd  Nd13  1  0.229092  0.517805  0.486823  1
  Nd  Nd14  1  0.229092  0.017805  0.013177  1
  Nd  Nd15  1  0.770908  0.482195  0.513177  1
  V  V16  1  0.997108  0.736281  0.405608  1
  V  V17  1  0.002892  0.763719  0.905608  1
  V  V18  1  0.002892  0.263719  0.594392  1
  V  V19  1  0.997108  0.236281  0.094392  1
  V  V20  1  0.526564  0.711514  0.594798  1
  V  V21  1  0.473436  0.788486  0.094798  1
  V  V22  1  0.473436  0.288486  0.405202  1
  V  V23  1  0.526564  0.211514  0.905202  1
  S  S24  1  0.887335  0.856635  0.325138  1
  S  S25  1  0.112665  0.643365  0.825138  1
  S  S26  1  0.112665  0.143365  0.674862  1
  S  S27  1  0.887335  0.356635  0.174862  1
  S  S28  1  0.778311  0.737932  0.893535  1
  S  S29  1  0.221689  0.762068  0.393535  1
  S  S30  1  0.221689  0.262068  0.106465  1
  S  S31  1  0.778311  0.237932  0.606465  1
  S  S32  1  0.934953  0.763364  0.521543  1
  S  S33  1  0.065047  0.736636  0.021543  1
  S  S34  1  0.065047  0.236636  0.478457  1
  S  S35  1  0.934953  0.263364  0.978457  1
  S  S36  1  0.966132  0.521253  0.386706  1
  S  S37  1  0.033868  0.978747  0.886706  1
  S  S38  1  0.033868  0.478747  0.613294  1
  S  S39  1  0.966132  0.021253  0.113294  1
  S  S40  1  0.566241  0.916432  0.624758  1
  S  S41  1  0.433759  0.583568  0.124758  1
  S  S42  1  0.433759  0.083568  0.375242  1
  S  S43  1  0.566241  0.416432  0.875242  1
  S  S44  1  0.666773  0.581987  0.656848  1
  S  S45  1  0.333227  0.918013  0.156848  1
  S  S46  1  0.333227  0.418013  0.343152  1
  S  S47  1  0.666773  0.081987  0.843152  1
  S  S48  1  0.308560  0.666856  0.622627  1
  S  S49  1  0.691440  0.833144  0.122627  1
  S  S50  1  0.691440  0.333144  0.377373  1
  S  S51  1  0.308560  0.166856  0.877373  1
  S  S52  1  0.448259  0.827263  0.974618  1
  S  S53  1  0.551741  0.672737  0.474618  1
  S  S54  1  0.551741  0.172737  0.025382  1
  S  S55  1  0.448259  0.327263  0.525382  1
