# generated using pymatgen
data_TbYbSm2Ni13C4
_symmetry_space_group_name_H-M   'P 1'
_cell_length_a   8.38306401
_cell_length_b   8.38306416
_cell_length_c   3.88031600
_cell_angle_alpha   90.00000000
_cell_angle_beta   90.00000000
_cell_angle_gamma   90.46817467
_symmetry_Int_Tables_number   1
_chemical_formula_structural   TbYbSm2Ni13C4
_chemical_formula_sum   'Tb1 Yb1 Sm2 Ni13 C4'
_cell_volume   272.68306590
_cell_formula_units_Z   1
loop_
 _symmetry_equiv_pos_site_id
 _symmetry_equiv_pos_as_xyz
  1  'x, y, z'
loop_
 _atom_site_type_symbol
 _atom_site_label
 _atom_site_symmetry_multiplicity
 _atom_site_fract_x
 _atom_site_fract_y
 _atom_site_fract_z
 _atom_site_occupancy
  Tb  Tb0  1  0.813192  0.186808  0.500000  1
  Yb  Yb1  1  0.192109  0.807891  0.500000  1
  Sm  Sm2  1  0.344963  0.348333  0.500000  1
  Sm  Sm3  1  0.651667  0.655037  0.500000  1
  Ni  Ni4  1  0.001051  0.998949  0.000000  1
  Ni  Ni5  1  0.214101  0.572427  0.000000  1
  Ni  Ni6  1  0.785530  0.430491  0.000000  1
  Ni  Ni7  1  0.427573  0.785899  0.000000  1
  Ni  Ni8  1  0.569509  0.214470  0.000000  1
  Ni  Ni9  1  0.997727  0.501649  0.500000  1
  Ni  Ni10  1  0.498351  0.002273  0.500000  1
  Ni  Ni11  1  0.070869  0.289738  0.000000  1
  Ni  Ni12  1  0.928090  0.711340  0.000000  1
  Ni  Ni13  1  0.710262  0.929131  0.000000  1
  Ni  Ni14  1  0.288660  0.071910  0.000000  1
  Ni  Ni15  1  0.123245  0.114308  0.500000  1
  Ni  Ni16  1  0.885692  0.876755  0.500000  1
  C  C17  1  0.000499  0.501588  0.000000  1
  C  C18  1  0.498412  0.999501  0.000000  1
  C  C19  1  0.441883  0.558117  0.000000  1
  C  C20  1  0.556614  0.443386  0.000000  1
