# generated using pymatgen
data_InRu3F18
_symmetry_space_group_name_H-M   'P 1'
_cell_length_a   8.81770900
_cell_length_b   8.81770875
_cell_length_c   9.56125900
_cell_angle_alpha   90.00000000
_cell_angle_beta   90.00000000
_cell_angle_gamma   119.99999718
_symmetry_Int_Tables_number   1
_chemical_formula_structural   InRu3F18
_chemical_formula_sum   'In2 Ru6 F36'
_cell_volume   643.80928988
_cell_formula_units_Z   2
loop_
 _symmetry_equiv_pos_site_id
 _symmetry_equiv_pos_as_xyz
  1  'x, y, z'
loop_
 _atom_site_type_symbol
 _atom_site_label
 _atom_site_symmetry_multiplicity
 _atom_site_fract_x
 _atom_site_fract_y
 _atom_site_fract_z
 _atom_site_occupancy
  In  In0  1  0.000000  0.000000  0.000000  1
  In  In1  1  0.000000  0.000000  0.500000  1
  Ru  Ru2  1  0.656484  0.000000  0.750000  1
  Ru  Ru3  1  0.343516  0.343516  0.750000  1
  Ru  Ru4  1  0.000000  0.656484  0.750000  1
  Ru  Ru5  1  0.656484  0.656484  0.250000  1
  Ru  Ru6  1  0.000000  0.343516  0.250000  1
  Ru  Ru7  1  0.343516  0.000000  0.250000  1
  F  F8  1  0.466888  0.904012  0.868740  1
  F  F9  1  0.437124  0.533112  0.868740  1
  F  F10  1  0.095988  0.562876  0.868740  1
  F  F11  1  0.466888  0.562876  0.368740  1
  F  F12  1  0.095988  0.533112  0.368740  1
  F  F13  1  0.437124  0.904012  0.368740  1
  F  F14  1  0.533112  0.095988  0.131260  1
  F  F15  1  0.562876  0.466888  0.131260  1
  F  F16  1  0.904012  0.437124  0.131260  1
  F  F17  1  0.533112  0.437124  0.631260  1
  F  F18  1  0.904012  0.466888  0.631260  1
  F  F19  1  0.562876  0.095988  0.631260  1
  F  F20  1  0.776608  0.903286  0.870604  1
  F  F21  1  0.126678  0.223392  0.870604  1
  F  F22  1  0.096714  0.873322  0.870604  1
  F  F23  1  0.776608  0.873322  0.370604  1
  F  F24  1  0.096714  0.223392  0.370604  1
  F  F25  1  0.126678  0.903286  0.370604  1
  F  F26  1  0.223392  0.096714  0.129396  1
  F  F27  1  0.873322  0.776608  0.129396  1
  F  F28  1  0.903286  0.126678  0.129396  1
  F  F29  1  0.223392  0.126678  0.629396  1
  F  F30  1  0.903286  0.776608  0.629396  1
  F  F31  1  0.873322  0.096714  0.629396  1
  F  F32  1  0.773288  0.204504  0.857580  1
  F  F33  1  0.431217  0.226712  0.857580  1
  F  F34  1  0.795496  0.568783  0.857580  1
  F  F35  1  0.773288  0.568783  0.357580  1
  F  F36  1  0.795496  0.226712  0.357580  1
  F  F37  1  0.431217  0.204504  0.357580  1
  F  F38  1  0.226712  0.795496  0.142420  1
  F  F39  1  0.568783  0.773288  0.142420  1
  F  F40  1  0.204504  0.431217  0.142420  1
  F  F41  1  0.226712  0.431217  0.642420  1
  F  F42  1  0.204504  0.773288  0.642420  1
  F  F43  1  0.568783  0.795496  0.642420  1
