# generated using pymatgen
data_PaBe11Ni2
_symmetry_space_group_name_H-M   'P 1'
_cell_length_a   7.29365096
_cell_length_b   7.32394971
_cell_length_c   7.25772212
_cell_angle_alpha   60.02388024
_cell_angle_beta   60.43903129
_cell_angle_gamma   59.53794002
_symmetry_Int_Tables_number   1
_chemical_formula_structural   PaBe11Ni2
_chemical_formula_sum   'Pa2 Be22 Ni4'
_cell_volume   274.10987191
_cell_formula_units_Z   2
loop_
 _symmetry_equiv_pos_site_id
 _symmetry_equiv_pos_as_xyz
  1  'x, y, z'
loop_
 _atom_site_type_symbol
 _atom_site_label
 _atom_site_symmetry_multiplicity
 _atom_site_fract_x
 _atom_site_fract_y
 _atom_site_fract_z
 _atom_site_occupancy
  Pa  Pa0  1  0.250001  0.249999  0.250001  1
  Pa  Pa1  1  0.749999  0.750001  0.749999  1
  Be  Be2  1  0.500000  0.500000  0.500000  1
  Be  Be3  1  0.000000  0.000000  0.000000  1
  Be  Be4  1  0.283504  0.934247  0.716496  1
  Be  Be5  1  0.716496  0.065753  0.283504  1
  Be  Be6  1  0.934247  0.283505  0.065753  1
  Be  Be7  1  0.065753  0.716495  0.934247  1
  Be  Be8  1  0.202248  0.797751  0.559340  1
  Be  Be9  1  0.797752  0.202249  0.440660  1
  Be  Be10  1  0.440661  0.559339  0.797750  1
  Be  Be11  1  0.559339  0.440661  0.202250  1
  Be  Be12  1  0.712700  0.287303  0.934226  1
  Be  Be13  1  0.287300  0.712697  0.065774  1
  Be  Be14  1  0.065775  0.934228  0.287299  1
  Be  Be15  1  0.934225  0.065772  0.712701  1
  Be  Be16  1  0.560985  0.203460  0.796542  1
  Be  Be17  1  0.439015  0.796540  0.203458  1
  Be  Be18  1  0.796541  0.439015  0.560986  1
  Be  Be19  1  0.203459  0.560985  0.439014  1
  Be  Be20  1  0.938283  0.709664  0.290334  1
  Be  Be21  1  0.061717  0.290336  0.709666  1
  Be  Be22  1  0.290335  0.061717  0.938283  1
  Be  Be23  1  0.709665  0.938283  0.061717  1
  Ni  Ni24  1  0.804932  0.555571  0.195067  1
  Ni  Ni25  1  0.195068  0.444429  0.804933  1
  Ni  Ni26  1  0.555581  0.804938  0.444419  1
  Ni  Ni27  1  0.444419  0.195062  0.555581  1
