# generated using pymatgen
data_Pr4Nd3Dy13Si16
_symmetry_space_group_name_H-M   'P 1'
_cell_length_a   7.71417272
_cell_length_b   7.72008284
_cell_length_c   14.26713800
_cell_angle_alpha   89.99147252
_cell_angle_beta   89.85203981
_cell_angle_gamma   90.07577509
_symmetry_Int_Tables_number   1
_chemical_formula_structural   Pr4Nd3Dy13Si16
_chemical_formula_sum   'Pr4 Nd3 Dy13 Si16'
_cell_volume   849.66229893
_cell_formula_units_Z   1
loop_
 _symmetry_equiv_pos_site_id
 _symmetry_equiv_pos_as_xyz
  1  'x, y, z'
loop_
 _atom_site_type_symbol
 _atom_site_label
 _atom_site_symmetry_multiplicity
 _atom_site_fract_x
 _atom_site_fract_y
 _atom_site_fract_z
 _atom_site_occupancy
  Pr  Pr0  1  0.357831  0.007701  0.958501  1
  Pr  Pr1  1  0.992211  0.643200  0.540434  1
  Pr  Pr2  1  0.490031  0.857964  0.209680  1
  Pr  Pr3  1  0.509799  0.140136  0.707333  1
  Nd  Nd4  1  0.859768  0.490547  0.791660  1
  Nd  Nd5  1  0.139823  0.508665  0.292927  1
  Nd  Nd6  1  0.007411  0.358163  0.042641  1
  Dy  Dy7  1  0.490970  0.361087  0.124931  1
  Dy  Dy8  1  0.991503  0.136780  0.624238  1
  Dy  Dy9  1  0.862074  0.008404  0.874833  1
  Dy  Dy10  1  0.137360  0.993052  0.375045  1
  Dy  Dy11  1  0.511185  0.639458  0.622956  1
  Dy  Dy12  1  0.361356  0.490850  0.875356  1
  Dy  Dy13  1  0.639547  0.509986  0.376079  1
  Dy  Dy14  1  0.006888  0.861343  0.126565  1
  Dy  Dy15  1  0.636816  0.995780  0.456144  1
  Dy  Dy16  1  0.317917  0.317221  0.499806  1
  Dy  Dy17  1  0.184057  0.816237  0.749143  1
  Dy  Dy18  1  0.815541  0.183084  0.250398  1
  Dy  Dy19  1  0.682966  0.681387  0.000391  1
  Si  Si20  1  0.294351  0.937710  0.559681  1
  Si  Si21  1  0.709906  0.064531  0.061362  1
  Si  Si22  1  0.933168  0.288276  0.438433  1
  Si  Si23  1  0.436912  0.209541  0.312384  1
  Si  Si24  1  0.565727  0.787961  0.811193  1
  Si  Si25  1  0.210861  0.435734  0.688352  1
  Si  Si26  1  0.789570  0.564994  0.189502  1
  Si  Si27  1  0.064204  0.709149  0.939079  1
  Si  Si28  1  0.798318  0.844535  0.691003  1
  Si  Si29  1  0.202785  0.154048  0.189942  1
  Si  Si30  1  0.843978  0.800138  0.313909  1
  Si  Si31  1  0.350490  0.707778  0.437858  1
  Si  Si32  1  0.654088  0.295999  0.939853  1
  Si  Si33  1  0.702640  0.342543  0.558492  1
  Si  Si34  1  0.294624  0.652361  0.060588  1
  Si  Si35  1  0.153320  0.203656  0.809311  1
