# generated using pymatgen
data_Th6CoTcAu6
_symmetry_space_group_name_H-M   'P 1'
_cell_length_a   8.25020040
_cell_length_b   8.25020063
_cell_length_c   8.25020304
_cell_angle_alpha   114.13997992
_cell_angle_beta   114.13999082
_cell_angle_gamma   114.13996118
_symmetry_Int_Tables_number   1
_chemical_formula_structural   Th6CoTcAu6
_chemical_formula_sum   'Th6 Co1 Tc1 Au6'
_cell_volume   337.60456802
_cell_formula_units_Z   1
loop_
 _symmetry_equiv_pos_site_id
 _symmetry_equiv_pos_as_xyz
  1  'x, y, z'
loop_
 _atom_site_type_symbol
 _atom_site_label
 _atom_site_symmetry_multiplicity
 _atom_site_fract_x
 _atom_site_fract_y
 _atom_site_fract_z
 _atom_site_occupancy
  Th  Th0  1  0.051456  0.392233  0.285698  1
  Th  Th1  1  0.392233  0.285698  0.051456  1
  Th  Th2  1  0.714302  0.948544  0.607767  1
  Th  Th3  1  0.285698  0.051456  0.392233  1
  Th  Th4  1  0.607767  0.714302  0.948544  1
  Th  Th5  1  0.948544  0.607767  0.714302  1
  Co  Co6  1  0.500000  0.500000  0.500000  1
  Tc  Tc7  1  0.000000  0.000000  0.000000  1
  Au  Au8  1  0.424782  0.934350  0.770960  1
  Au  Au9  1  0.934350  0.770960  0.424782  1
  Au  Au10  1  0.229040  0.575218  0.065650  1
  Au  Au11  1  0.770960  0.424782  0.934350  1
  Au  Au12  1  0.065650  0.229040  0.575218  1
  Au  Au13  1  0.575218  0.065650  0.229040  1
