# generated using pymatgen
data_Fe5Ni7Pt4
_symmetry_space_group_name_H-M   'P 1'
_cell_length_a   3.66337300
_cell_length_b   5.23354960
_cell_length_c   10.46822764
_cell_angle_alpha   90.14079157
_cell_angle_beta   90.00000000
_cell_angle_gamma   90.00000000
_symmetry_Int_Tables_number   1
_chemical_formula_structural   Fe5Ni7Pt4
_chemical_formula_sum   'Fe5 Ni7 Pt4'
_cell_volume   200.70090529
_cell_formula_units_Z   1
loop_
 _symmetry_equiv_pos_site_id
 _symmetry_equiv_pos_as_xyz
  1  'x, y, z'
loop_
 _atom_site_type_symbol
 _atom_site_label
 _atom_site_symmetry_multiplicity
 _atom_site_fract_x
 _atom_site_fract_y
 _atom_site_fract_z
 _atom_site_occupancy
  Fe  Fe0  1  0.500000  0.751468  0.374542  1
  Fe  Fe1  1  0.500000  0.746569  0.874262  1
  Fe  Fe2  1  0.500000  0.253431  0.125738  1
  Fe  Fe3  1  0.500000  0.248532  0.625458  1
  Fe  Fe4  1  0.000000  0.000000  0.000000  1
  Ni  Ni5  1  0.000000  0.002895  0.250621  1
  Ni  Ni6  1  0.000000  0.997105  0.749379  1
  Ni  Ni7  1  0.000000  0.500000  0.000000  1
  Ni  Ni8  1  0.000000  0.500000  0.500000  1
  Ni  Ni9  1  0.000000  0.500764  0.251821  1
  Ni  Ni10  1  0.000000  0.499236  0.748179  1
  Ni  Ni11  1  0.000000  0.000000  0.500000  1
  Pt  Pt12  1  0.500000  0.250555  0.375638  1
  Pt  Pt13  1  0.500000  0.248371  0.874679  1
  Pt  Pt14  1  0.500000  0.751629  0.125321  1
  Pt  Pt15  1  0.500000  0.749445  0.624362  1
