# generated using pymatgen
data_GaSeI6Br
_symmetry_space_group_name_H-M   'P 1'
_cell_length_a   7.42759400
_cell_length_b   8.14046207
_cell_length_c   14.41480213
_cell_angle_alpha   79.29869514
_cell_angle_beta   90.00000000
_cell_angle_gamma   90.00000000
_symmetry_Int_Tables_number   1
_chemical_formula_structural   GaSeI6Br
_chemical_formula_sum   'Ga2 Se2 I12 Br2'
_cell_volume   856.41930021
_cell_formula_units_Z   2
loop_
 _symmetry_equiv_pos_site_id
 _symmetry_equiv_pos_as_xyz
  1  'x, y, z'
loop_
 _atom_site_type_symbol
 _atom_site_label
 _atom_site_symmetry_multiplicity
 _atom_site_fract_x
 _atom_site_fract_y
 _atom_site_fract_z
 _atom_site_occupancy
  Ga  Ga0  1  0.982277  0.385379  0.502451  1
  Ga  Ga1  1  0.017723  0.385379  0.002451  1
  Se  Se2  1  0.617024  0.994836  0.669055  1
  Se  Se3  1  0.382976  0.994836  0.169055  1
  I  I4  1  0.611936  0.066212  0.294347  1
  I  I5  1  0.388064  0.066212  0.794347  1
  I  I6  1  0.076177  0.093748  0.954404  1
  I  I7  1  0.923823  0.093748  0.454404  1
  I  I8  1  0.150444  0.371994  0.167856  1
  I  I9  1  0.849556  0.371994  0.667856  1
  I  I10  1  0.157170  0.620271  0.877533  1
  I  I11  1  0.842830  0.620271  0.377533  1
  I  I12  1  0.671228  0.434194  0.004217  1
  I  I13  1  0.328772  0.434194  0.504217  1
  I  I14  1  0.450712  0.758589  0.601145  1
  I  I15  1  0.549288  0.758589  0.101145  1
  Br  Br16  1  0.841583  0.827528  0.765863  1
  Br  Br17  1  0.158417  0.827528  0.265863  1
