# generated using pymatgen
data_PrTmMn6P7Ir6
_symmetry_space_group_name_H-M   'P 1'
_cell_length_a   9.42509700
_cell_length_b   9.42509687
_cell_length_c   3.86846400
_cell_angle_alpha   90.00000000
_cell_angle_beta   90.00000000
_cell_angle_gamma   120.00000395
_symmetry_Int_Tables_number   1
_chemical_formula_structural   PrTmMn6P7Ir6
_chemical_formula_sum   'Pr1 Tm1 Mn6 P7 Ir6'
_cell_volume   297.60541240
_cell_formula_units_Z   1
loop_
 _symmetry_equiv_pos_site_id
 _symmetry_equiv_pos_as_xyz
  1  'x, y, z'
loop_
 _atom_site_type_symbol
 _atom_site_label
 _atom_site_symmetry_multiplicity
 _atom_site_fract_x
 _atom_site_fract_y
 _atom_site_fract_z
 _atom_site_occupancy
  Pr  Pr0  1  0.000000  0.000000  0.000000  1
  Tm  Tm1  1  0.666667  0.333333  0.500000  1
  Mn  Mn2  1  0.222931  0.397347  0.000000  1
  Mn  Mn3  1  0.602653  0.825584  0.000000  1
  Mn  Mn4  1  0.174416  0.777069  0.000000  1
  Mn  Mn5  1  0.451378  0.570488  0.500000  1
  Mn  Mn6  1  0.429512  0.880891  0.500000  1
  Mn  Mn7  1  0.119109  0.548622  0.500000  1
  P  P8  1  0.444374  0.366149  0.000000  1
  P  P9  1  0.633851  0.078225  0.000000  1
  P  P10  1  0.921775  0.555626  0.000000  1
  P  P11  1  0.056165  0.274053  0.500000  1
  P  P12  1  0.725947  0.782113  0.500000  1
  P  P13  1  0.217887  0.943835  0.500000  1
  P  P14  1  0.333333  0.666667  0.000000  1
  Ir  Ir15  1  0.693651  0.600201  0.000000  1
  Ir  Ir16  1  0.399799  0.093452  0.000000  1
  Ir  Ir17  1  0.906548  0.306349  0.000000  1
  Ir  Ir18  1  0.284509  0.229919  0.500000  1
  Ir  Ir19  1  0.770081  0.054588  0.500000  1
  Ir  Ir20  1  0.945412  0.715491  0.500000  1
