# generated using pymatgen
data_CsLaCr2O8
_symmetry_space_group_name_H-M   'P 1'
_cell_length_a   5.95812100
_cell_length_b   5.95812062
_cell_length_c   8.51458700
_cell_angle_alpha   90.00000000
_cell_angle_beta   90.00000000
_cell_angle_gamma   119.99999653
_symmetry_Int_Tables_number   1
_chemical_formula_structural   CsLaCr2O8
_chemical_formula_sum   'Cs1 La1 Cr2 O8'
_cell_volume   261.76576360
_cell_formula_units_Z   1
loop_
 _symmetry_equiv_pos_site_id
 _symmetry_equiv_pos_as_xyz
  1  'x, y, z'
loop_
 _atom_site_type_symbol
 _atom_site_label
 _atom_site_symmetry_multiplicity
 _atom_site_fract_x
 _atom_site_fract_y
 _atom_site_fract_z
 _atom_site_occupancy
  Cs  Cs0  1  0.000000  0.000000  0.500000  1
  La  La1  1  0.000000  0.000000  0.000000  1
  Cr  Cr2  1  0.666666  0.333333  0.242469  1
  Cr  Cr3  1  0.333334  0.666667  0.757531  1
  O  O4  1  0.359118  0.179559  0.177640  1
  O  O5  1  0.820441  0.179559  0.177640  1
  O  O6  1  0.820441  0.640883  0.177640  1
  O  O7  1  0.666666  0.333333  0.433226  1
  O  O8  1  0.333334  0.666667  0.566774  1
  O  O9  1  0.179559  0.359117  0.822360  1
  O  O10  1  0.179560  0.820441  0.822360  1
  O  O11  1  0.640882  0.820441  0.822360  1
