# generated using pymatgen
data_Gd12InSi4Hg
_symmetry_space_group_name_H-M   'P 1'
_cell_length_a   8.60739901
_cell_length_b   8.60739858
_cell_length_c   8.60739800
_cell_angle_alpha   112.29635660
_cell_angle_beta   111.12299651
_cell_angle_gamma   105.08379346
_symmetry_Int_Tables_number   1
_chemical_formula_structural   Gd12InSi4Hg
_chemical_formula_sum   'Gd12 In1 Si4 Hg1'
_cell_volume   488.70804957
_cell_formula_units_Z   1
loop_
 _symmetry_equiv_pos_site_id
 _symmetry_equiv_pos_as_xyz
  1  'x, y, z'
loop_
 _atom_site_type_symbol
 _atom_site_label
 _atom_site_symmetry_multiplicity
 _atom_site_fract_x
 _atom_site_fract_y
 _atom_site_fract_z
 _atom_site_occupancy
  Gd  Gd0  1  0.444715  0.240266  0.204449  1
  Gd  Gd1  1  0.555285  0.759734  0.795551  1
  Gd  Gd2  1  0.035817  0.240266  0.795551  1
  Gd  Gd3  1  0.964183  0.759734  0.204449  1
  Gd  Gd4  1  0.184881  0.276266  0.461147  1
  Gd  Gd5  1  0.815119  0.723734  0.538853  1
  Gd  Gd6  1  0.184881  0.723734  0.908615  1
  Gd  Gd7  1  0.815119  0.276266  0.091385  1
  Gd  Gd8  1  0.321583  0.619444  0.297863  1
  Gd  Gd9  1  0.678417  0.380556  0.702137  1
  Gd  Gd10  1  0.321583  0.023720  0.702137  1
  Gd  Gd11  1  0.678417  0.976280  0.297863  1
  In  In12  1  0.500000  0.500000  0.000000  1
  Si  Si13  1  0.364375  0.000000  0.364375  1
  Si  Si14  1  0.635625  0.000000  0.635625  1
  Si  Si15  1  0.115527  0.615527  0.500000  1
  Si  Si16  1  0.884473  0.384473  0.500000  1
  Hg  Hg17  1  0.000000  0.000000  0.000000  1
