# generated using pymatgen
data_TbNp(IN)2
_symmetry_space_group_name_H-M   'P 1'
_cell_length_a   3.92544800
_cell_length_b   3.92544800
_cell_length_c   9.83364700
_cell_angle_alpha   90.00000000
_cell_angle_beta   90.00000000
_cell_angle_gamma   90.00000000
_symmetry_Int_Tables_number   1
_chemical_formula_structural   TbNp(IN)2
_chemical_formula_sum   'Tb1 Np1 I2 N2'
_cell_volume   151.52806301
_cell_formula_units_Z   1
loop_
 _symmetry_equiv_pos_site_id
 _symmetry_equiv_pos_as_xyz
  1  'x, y, z'
loop_
 _atom_site_type_symbol
 _atom_site_label
 _atom_site_symmetry_multiplicity
 _atom_site_fract_x
 _atom_site_fract_y
 _atom_site_fract_z
 _atom_site_occupancy
  Tb  Tb0  1  0.000000  0.500000  0.880846  1
  Np  Np1  1  0.500000  0.000000  0.103549  1
  I  I2  1  0.000000  0.500000  0.311994  1
  I  I3  1  0.500000  0.000000  0.686281  1
  N  N4  1  0.000000  0.000000  0.008664  1
  N  N5  1  0.500000  0.500000  0.008664  1
