# generated using pymatgen
data_Pr7Nd9CdHg3Pt4
_symmetry_space_group_name_H-M   'P 1'
_cell_length_a   10.03242118
_cell_length_b   10.05596919
_cell_length_c   10.03027700
_cell_angle_alpha   60.08447682
_cell_angle_beta   60.00706643
_cell_angle_gamma   60.15501678
_symmetry_Int_Tables_number   1
_chemical_formula_structural   Pr7Nd9CdHg3Pt4
_chemical_formula_sum   'Pr7 Nd9 Cd1 Hg3 Pt4'
_cell_volume   716.85984838
_cell_formula_units_Z   1
loop_
 _symmetry_equiv_pos_site_id
 _symmetry_equiv_pos_as_xyz
  1  'x, y, z'
loop_
 _atom_site_type_symbol
 _atom_site_label
 _atom_site_symmetry_multiplicity
 _atom_site_fract_x
 _atom_site_fract_y
 _atom_site_fract_z
 _atom_site_occupancy
  Pr  Pr0  1  0.807576  0.807757  0.192333  1
  Pr  Pr1  1  0.936973  0.563082  0.564696  1
  Pr  Pr2  1  0.561643  0.938010  0.936034  1
  Pr  Pr3  1  0.561643  0.938010  0.564313  1
  Pr  Pr4  1  0.936973  0.563082  0.935248  1
  Pr  Pr5  1  0.561863  0.562807  0.937665  1
  Pr  Pr6  1  0.935458  0.935746  0.564397  1
  Nd  Nd7  1  0.350989  0.350757  0.350458  1
  Nd  Nd8  1  0.350989  0.350757  0.947797  1
  Nd  Nd9  1  0.351481  0.946347  0.351086  1
  Nd  Nd10  1  0.944040  0.352128  0.351915  1
  Nd  Nd11  1  0.808369  0.192424  0.191958  1
  Nd  Nd12  1  0.190854  0.809277  0.808141  1
  Nd  Nd13  1  0.190854  0.809277  0.191728  1
  Nd  Nd14  1  0.808369  0.192424  0.807250  1
  Nd  Nd15  1  0.190247  0.191578  0.809088  1
  Cd  Cd16  1  0.262708  0.579067  0.579112  1
  Hg  Hg17  1  0.583110  0.584569  0.585212  1
  Hg  Hg18  1  0.583110  0.584569  0.247107  1
  Hg  Hg19  1  0.583127  0.247184  0.584844  1
  Pt  Pt20  1  0.142684  0.143294  0.143760  1
  Pt  Pt21  1  0.142684  0.143294  0.570262  1
  Pt  Pt22  1  0.143976  0.570288  0.142868  1
  Pt  Pt23  1  0.570283  0.144270  0.142724  1
