# generated using pymatgen
data_Sr2Li4YbBi4
_symmetry_space_group_name_H-M   'P 1'
_cell_length_a   9.16352808
_cell_length_b   9.16352748
_cell_length_c   9.16352760
_cell_angle_alpha   148.49405782
_cell_angle_beta   132.02668381
_cell_angle_gamma   58.52929752
_symmetry_Int_Tables_number   1
_chemical_formula_structural   Sr2Li4YbBi4
_chemical_formula_sum   'Sr2 Li4 Yb1 Bi4'
_cell_volume   296.33969435
_cell_formula_units_Z   1
loop_
 _symmetry_equiv_pos_site_id
 _symmetry_equiv_pos_as_xyz
  1  'x, y, z'
loop_
 _atom_site_type_symbol
 _atom_site_label
 _atom_site_symmetry_multiplicity
 _atom_site_fract_x
 _atom_site_fract_y
 _atom_site_fract_z
 _atom_site_occupancy
  Sr  Sr0  1  0.629606  0.129606  0.500000  1
  Sr  Sr1  1  0.370394  0.870394  0.500000  1
  Li  Li2  1  0.982068  0.674772  0.307296  1
  Li  Li3  1  0.017932  0.325228  0.692704  1
  Li  Li4  1  0.632524  0.325228  0.307296  1
  Li  Li5  1  0.367476  0.674772  0.692704  1
  Yb  Yb6  1  0.000000  0.000000  0.000000  1
  Bi  Bi7  1  0.790511  0.790511  0.000000  1
  Bi  Bi8  1  0.209489  0.209489  0.000000  1
  Bi  Bi9  1  0.708254  0.500000  0.208254  1
  Bi  Bi10  1  0.291746  0.500000  0.791746  1
