# generated using pymatgen
data_Pr3In3AgIr2
_symmetry_space_group_name_H-M   'P 1'
_cell_length_a   7.89321400
_cell_length_b   7.89321500
_cell_length_c   4.02489300
_cell_angle_alpha   90.00000000
_cell_angle_beta   90.00000000
_cell_angle_gamma   119.99999580
_symmetry_Int_Tables_number   1
_chemical_formula_structural   Pr3In3AgIr2
_chemical_formula_sum   'Pr3 In3 Ag1 Ir2'
_cell_volume   217.16648381
_cell_formula_units_Z   1
loop_
 _symmetry_equiv_pos_site_id
 _symmetry_equiv_pos_as_xyz
  1  'x, y, z'
loop_
 _atom_site_type_symbol
 _atom_site_label
 _atom_site_symmetry_multiplicity
 _atom_site_fract_x
 _atom_site_fract_y
 _atom_site_fract_z
 _atom_site_occupancy
  Pr  Pr0  1  0.607162  0.024509  0.000000  1
  Pr  Pr1  1  0.975491  0.582653  0.000000  1
  Pr  Pr2  1  0.417347  0.392838  0.000000  1
  In  In3  1  0.248789  0.998899  0.500000  1
  In  In4  1  0.001101  0.249890  0.500000  1
  In  In5  1  0.750110  0.751211  0.500000  1
  Ag  Ag6  1  0.333333  0.666667  0.500000  1
  Ir  Ir7  1  0.666667  0.333333  0.500000  1
  Ir  Ir8  1  0.000000  0.000000  0.000000  1
