# generated using pymatgen
data_Yb2Dy6Ti3Si16Mo9
_symmetry_space_group_name_H-M   'P 1'
_cell_length_a   6.91936175
_cell_length_b   6.91590177
_cell_length_c   12.81413611
_cell_angle_alpha   89.99678914
_cell_angle_beta   90.00181603
_cell_angle_gamma   89.71170346
_symmetry_Int_Tables_number   1
_chemical_formula_structural   Yb2Dy6Ti3Si16Mo9
_chemical_formula_sum   'Yb2 Dy6 Ti3 Si16 Mo9'
_cell_volume   613.19511613
_cell_formula_units_Z   1
loop_
 _symmetry_equiv_pos_site_id
 _symmetry_equiv_pos_as_xyz
  1  'x, y, z'
loop_
 _atom_site_type_symbol
 _atom_site_label
 _atom_site_symmetry_multiplicity
 _atom_site_fract_x
 _atom_site_fract_y
 _atom_site_fract_z
 _atom_site_occupancy
  Yb  Yb0  1  0.994078  0.662872  0.029808  1
  Yb  Yb1  1  0.004032  0.338142  0.529723  1
  Dy  Dy2  1  0.661998  0.994794  0.969495  1
  Dy  Dy3  1  0.160511  0.503525  0.781364  1
  Dy  Dy4  1  0.838565  0.499170  0.283250  1
  Dy  Dy5  1  0.503730  0.161006  0.218995  1
  Dy  Dy6  1  0.498817  0.838055  0.717334  1
  Dy  Dy7  1  0.340079  0.002109  0.469659  1
  Ti  Ti8  1  0.829422  0.168840  0.748563  1
  Ti  Ti9  1  0.168840  0.829035  0.251060  1
  Ti  Ti10  1  0.329860  0.330527  0.000301  1
  Si  Si11  1  0.036848  0.711759  0.438625  1
  Si  Si12  1  0.959449  0.290009  0.937008  1
  Si  Si13  1  0.713613  0.038804  0.562018  1
  Si  Si14  1  0.209264  0.459461  0.186010  1
  Si  Si15  1  0.789804  0.542211  0.683950  1
  Si  Si16  1  0.458747  0.209880  0.813968  1
  Si  Si17  1  0.542846  0.789100  0.315517  1
  Si  Si18  1  0.288696  0.957832  0.063258  1
  Si  Si19  1  0.800081  0.870438  0.184261  1
  Si  Si20  1  0.301321  0.624507  0.565717  1
  Si  Si21  1  0.701112  0.372797  0.065599  1
  Si  Si22  1  0.626762  0.302785  0.434685  1
  Si  Si23  1  0.370752  0.699345  0.934590  1
  Si  Si24  1  0.127360  0.202354  0.315536  1
  Si  Si25  1  0.201698  0.129088  0.684575  1
  Si  Si26  1  0.871998  0.799400  0.815403  1
  Mo  Mo27  1  0.335206  0.507208  0.374642  1
  Mo  Mo28  1  0.842157  0.997322  0.372656  1
  Mo  Mo29  1  0.007009  0.158761  0.126051  1
  Mo  Mo30  1  0.997002  0.843426  0.627314  1
  Mo  Mo31  1  0.507045  0.335626  0.625208  1
  Mo  Mo32  1  0.160807  0.007032  0.873783  1
  Mo  Mo33  1  0.667119  0.670408  0.500204  1
  Mo  Mo34  1  0.493720  0.659695  0.125408  1
  Mo  Mo35  1  0.659656  0.492678  0.874465  1
