# generated using pymatgen
data_Tm4Co2PbO12
_symmetry_space_group_name_H-M   'P 1'
_cell_length_a   6.66416852
_cell_length_b   6.66416838
_cell_length_c   7.07526800
_cell_angle_alpha   74.54927557
_cell_angle_beta   74.54927590
_cell_angle_gamma   50.37755022
_symmetry_Int_Tables_number   1
_chemical_formula_structural   Tm4Co2PbO12
_chemical_formula_sum   'Tm4 Co2 Pb1 O12'
_cell_volume   231.30607568
_cell_formula_units_Z   1
loop_
 _symmetry_equiv_pos_site_id
 _symmetry_equiv_pos_as_xyz
  1  'x, y, z'
loop_
 _atom_site_type_symbol
 _atom_site_label
 _atom_site_symmetry_multiplicity
 _atom_site_fract_x
 _atom_site_fract_y
 _atom_site_fract_z
 _atom_site_occupancy
  Tm  Tm0  1  0.308575  0.308575  0.349474  1
  Tm  Tm1  1  0.691425  0.691425  0.650526  1
  Tm  Tm2  1  0.307337  0.307337  0.842722  1
  Tm  Tm3  1  0.692663  0.692663  0.157278  1
  Co  Co4  1  0.753849  0.246151  0.000000  1
  Co  Co5  1  0.246151  0.753849  0.000000  1
  Pb  Pb6  1  0.000000  0.000000  0.500000  1
  O  O7  1  0.902263  0.422677  0.916664  1
  O  O8  1  0.422677  0.902263  0.916664  1
  O  O9  1  0.097737  0.577323  0.083336  1
  O  O10  1  0.577323  0.097737  0.083336  1
  O  O11  1  0.096392  0.603324  0.572226  1
  O  O12  1  0.603324  0.096392  0.572226  1
  O  O13  1  0.903608  0.396676  0.427774  1
  O  O14  1  0.396676  0.903608  0.427774  1
  O  O15  1  0.000002  0.000002  0.823230  1
  O  O16  1  0.999998  0.999998  0.176770  1
  O  O17  1  0.499307  0.499307  0.819000  1
  O  O18  1  0.500693  0.500693  0.181000  1
