# generated using pymatgen
data_Pr3In3Sn2
_symmetry_space_group_name_H-M   'P 1'
_cell_length_a   6.69177460
_cell_length_b   6.69177507
_cell_length_c   10.43290600
_cell_angle_alpha   90.00000000
_cell_angle_beta   90.00000000
_cell_angle_gamma   102.97931598
_symmetry_Int_Tables_number   1
_chemical_formula_structural   Pr3In3Sn2
_chemical_formula_sum   'Pr6 In6 Sn4'
_cell_volume   455.24798554
_cell_formula_units_Z   2
loop_
 _symmetry_equiv_pos_site_id
 _symmetry_equiv_pos_as_xyz
  1  'x, y, z'
loop_
 _atom_site_type_symbol
 _atom_site_label
 _atom_site_symmetry_multiplicity
 _atom_site_fract_x
 _atom_site_fract_y
 _atom_site_fract_z
 _atom_site_occupancy
  Pr  Pr0  1  0.635854  0.635854  0.250000  1
  Pr  Pr1  1  0.364146  0.364146  0.750000  1
  Pr  Pr2  1  0.205310  0.794690  0.500000  1
  Pr  Pr3  1  0.205310  0.794690  0.000000  1
  Pr  Pr4  1  0.794690  0.205310  0.500000  1
  Pr  Pr5  1  0.794690  0.205310  0.000000  1
  In  In6  1  0.022372  0.022372  0.250000  1
  In  In7  1  0.977628  0.977628  0.750000  1
  In  In8  1  0.307295  0.307295  0.048387  1
  In  In9  1  0.692705  0.692705  0.951613  1
  In  In10  1  0.307295  0.307295  0.451613  1
  In  In11  1  0.692705  0.692705  0.548387  1
  Sn  Sn12  1  0.498225  0.076247  0.250000  1
  Sn  Sn13  1  0.923753  0.501775  0.750000  1
  Sn  Sn14  1  0.501775  0.923753  0.750000  1
  Sn  Sn15  1  0.076247  0.498225  0.250000  1
