# generated using pymatgen
data_Yb20SnBi7As4
_symmetry_space_group_name_H-M   'P 1'
_cell_length_a   8.21950796
_cell_length_b   9.51348738
_cell_length_c   12.69679700
_cell_angle_alpha   89.93393826
_cell_angle_beta   89.92025509
_cell_angle_gamma   90.15320695
_symmetry_Int_Tables_number   1
_chemical_formula_structural   Yb20SnBi7As4
_chemical_formula_sum   'Yb20 Sn1 Bi7 As4'
_cell_volume   992.83591465
_cell_formula_units_Z   1
loop_
 _symmetry_equiv_pos_site_id
 _symmetry_equiv_pos_as_xyz
  1  'x, y, z'
loop_
 _atom_site_type_symbol
 _atom_site_label
 _atom_site_symmetry_multiplicity
 _atom_site_fract_x
 _atom_site_fract_y
 _atom_site_fract_z
 _atom_site_occupancy
  Yb  Yb0  1  0.047831  0.750173  0.503128  1
  Yb  Yb1  1  0.952354  0.249986  0.497795  1
  Yb  Yb2  1  0.552441  0.254470  0.996095  1
  Yb  Yb3  1  0.454881  0.745705  0.999238  1
  Yb  Yb4  1  0.856789  0.744424  0.799767  1
  Yb  Yb5  1  0.135619  0.250218  0.203791  1
  Yb  Yb6  1  0.369968  0.255378  0.702031  1
  Yb  Yb7  1  0.635394  0.749185  0.297502  1
  Yb  Yb8  1  0.680429  0.535448  0.578434  1
  Yb  Yb9  1  0.315178  0.462853  0.427442  1
  Yb  Yb10  1  0.187250  0.468078  0.924690  1
  Yb  Yb11  1  0.315592  0.037716  0.427470  1
  Yb  Yb12  1  0.814199  0.536510  0.068847  1
  Yb  Yb13  1  0.683821  0.962812  0.573939  1
  Yb  Yb14  1  0.815247  0.963310  0.072764  1
  Yb  Yb15  1  0.183635  0.034065  0.926071  1
  Yb  Yb16  1  0.338647  0.744828  0.716378  1
  Yb  Yb17  1  0.664869  0.250076  0.285281  1
  Yb  Yb18  1  0.830550  0.255853  0.785866  1
  Yb  Yb19  1  0.166255  0.749859  0.214530  1
  Sn  Sn20  1  0.563095  0.508319  0.830917  1
  Bi  Bi21  1  0.432577  0.488772  0.172666  1
  Bi  Bi22  1  0.067463  0.488967  0.669153  1
  Bi  Bi23  1  0.432682  0.011419  0.169663  1
  Bi  Bi24  1  0.932222  0.511219  0.328178  1
  Bi  Bi25  1  0.565611  0.991206  0.829666  1
  Bi  Bi26  1  0.931883  0.988661  0.329122  1
  Bi  Bi27  1  0.066900  0.011379  0.672244  1
  As  As28  1  0.070922  0.751126  0.987155  1
  As  As29  1  0.934943  0.248736  0.012851  1
  As  As30  1  0.573534  0.248111  0.511934  1
  As  As31  1  0.427219  0.751138  0.485391  1
