# generated using pymatgen
data_Cs7TaIn3As2P3
_symmetry_space_group_name_H-M   'P 1'
_cell_length_a   8.93092963
_cell_length_b   9.76576762
_cell_length_c   15.01269301
_cell_angle_alpha   85.25466424
_cell_angle_beta   84.49497283
_cell_angle_gamma   84.79613686
_symmetry_Int_Tables_number   1
_chemical_formula_structural   Cs7TaIn3As2P3
_chemical_formula_sum   'Cs14 Ta2 In6 As4 P6'
_cell_volume   1294.33260139
_cell_formula_units_Z   2
loop_
 _symmetry_equiv_pos_site_id
 _symmetry_equiv_pos_as_xyz
  1  'x, y, z'
loop_
 _atom_site_type_symbol
 _atom_site_label
 _atom_site_symmetry_multiplicity
 _atom_site_fract_x
 _atom_site_fract_y
 _atom_site_fract_z
 _atom_site_occupancy
  Cs  Cs0  1  0.813710  0.806112  0.133215  1
  Cs  Cs1  1  0.186290  0.193888  0.866785  1
  Cs  Cs2  1  0.271015  0.253780  0.255987  1
  Cs  Cs3  1  0.728985  0.746220  0.744013  1
  Cs  Cs4  1  0.738355  0.501900  0.971661  1
  Cs  Cs5  1  0.261645  0.498100  0.028339  1
  Cs  Cs6  1  0.679999  0.081094  0.884015  1
  Cs  Cs7  1  0.320001  0.918906  0.115985  1
  Cs  Cs8  1  0.665268  0.655084  0.401395  1
  Cs  Cs9  1  0.334732  0.344916  0.598605  1
  Cs  Cs10  1  0.761224  0.995182  0.529272  1
  Cs  Cs11  1  0.238776  0.004818  0.470728  1
  Cs  Cs12  1  0.841311  0.365295  0.650896  1
  Cs  Cs13  1  0.158689  0.634705  0.349104  1
  Ta  Ta14  1  0.646811  0.394889  0.226767  1
  Ta  Ta15  1  0.353189  0.605111  0.773233  1
  In  In16  1  0.898723  0.280443  0.372441  1
  In  In17  1  0.101277  0.719557  0.627559  1
  In  In18  1  0.941951  0.187723  0.132698  1
  In  In19  1  0.058049  0.812277  0.867302  1
  In  In20  1  0.638395  0.053471  0.295914  1
  In  In21  1  0.361605  0.946529  0.704086  1
  As  As22  1  0.624431  0.202960  0.123792  1
  As  As23  1  0.375569  0.797040  0.876208  1
  As  As24  1  0.965811  0.006130  0.297964  1
  As  As25  1  0.034189  0.993870  0.702036  1
  P  P26  1  0.489326  0.592889  0.192840  1
  P  P27  1  0.510674  0.407111  0.807160  1
  P  P28  1  0.908872  0.444010  0.212881  1
  P  P29  1  0.091128  0.555990  0.787119  1
  P  P30  1  0.590641  0.298377  0.380015  1
  P  P31  1  0.409359  0.701623  0.619985  1
