# generated using pymatgen
data_LaNdBi2(TeO4)4
_symmetry_space_group_name_H-M   'P 1'
_cell_length_a   7.12761381
_cell_length_b   7.12761251
_cell_length_c   10.35857965
_cell_angle_alpha   66.85929156
_cell_angle_beta   66.85929413
_cell_angle_gamma   47.78411728
_symmetry_Int_Tables_number   1
_chemical_formula_structural   LaNdBi2(TeO4)4
_chemical_formula_sum   'La1 Nd1 Bi2 Te4 O16'
_cell_volume   351.90801701
_cell_formula_units_Z   1
loop_
 _symmetry_equiv_pos_site_id
 _symmetry_equiv_pos_as_xyz
  1  'x, y, z'
loop_
 _atom_site_type_symbol
 _atom_site_label
 _atom_site_symmetry_multiplicity
 _atom_site_fract_x
 _atom_site_fract_y
 _atom_site_fract_z
 _atom_site_occupancy
  La  La0  1  0.056384  0.943616  0.500000  1
  Nd  Nd1  1  0.946107  0.053893  0.000000  1
  Bi  Bi2  1  0.666074  0.777579  0.904106  1
  Bi  Bi3  1  0.222421  0.333926  0.095894  1
  Te  Te4  1  0.508067  0.498814  0.749607  1
  Te  Te5  1  0.501186  0.491933  0.250393  1
  Te  Te6  1  0.363918  0.188904  0.626990  1
  Te  Te7  1  0.811096  0.636082  0.373010  1
  O  O8  1  0.791158  0.357390  0.591626  1
  O  O9  1  0.642610  0.208842  0.408374  1
  O  O10  1  0.201434  0.649562  0.901970  1
  O  O11  1  0.350438  0.798566  0.098030  1
  O  O12  1  0.716216  0.483536  0.837549  1
  O  O13  1  0.516464  0.283784  0.162451  1
  O  O14  1  0.300447  0.486719  0.664032  1
  O  O15  1  0.513281  0.699553  0.335968  1
  O  O16  1  0.910997  0.720050  0.161069  1
  O  O17  1  0.279950  0.089003  0.838931  1
  O  O18  1  0.077565  0.287721  0.345116  1
  O  O19  1  0.712279  0.922435  0.654884  1
  O  O20  1  0.157832  0.643963  0.367255  1
  O  O21  1  0.356037  0.842168  0.632745  1
  O  O22  1  0.840730  0.362890  0.124620  1
  O  O23  1  0.637110  0.159270  0.875380  1
