# generated using pymatgen
data_LaTh(AsPt)2
_symmetry_space_group_name_H-M   'P 1'
_cell_length_a   4.37356300
_cell_length_b   4.37356168
_cell_length_c   16.25543800
_cell_angle_alpha   90.00000000
_cell_angle_beta   90.00000000
_cell_angle_gamma   119.99998733
_symmetry_Int_Tables_number   1
_chemical_formula_structural   LaTh(AsPt)2
_chemical_formula_sum   'La2 Th2 As4 Pt4'
_cell_volume   269.27746195
_cell_formula_units_Z   2
loop_
 _symmetry_equiv_pos_site_id
 _symmetry_equiv_pos_as_xyz
  1  'x, y, z'
loop_
 _atom_site_type_symbol
 _atom_site_label
 _atom_site_symmetry_multiplicity
 _atom_site_fract_x
 _atom_site_fract_y
 _atom_site_fract_z
 _atom_site_occupancy
  La  La0  1  0.000000  0.000000  0.000000  1
  La  La1  1  0.000000  0.000000  0.500000  1
  Th  Th2  1  0.000000  0.000000  0.250000  1
  Th  Th3  1  0.000000  0.000000  0.750000  1
  As  As4  1  0.333333  0.666667  0.882491  1
  As  As5  1  0.666667  0.333333  0.382491  1
  As  As6  1  0.666667  0.333333  0.117509  1
  As  As7  1  0.333333  0.666667  0.617509  1
  Pt  Pt8  1  0.333333  0.666667  0.356547  1
  Pt  Pt9  1  0.666667  0.333333  0.856547  1
  Pt  Pt10  1  0.666667  0.333333  0.643453  1
  Pt  Pt11  1  0.333333  0.666667  0.143453  1
