# generated using pymatgen
data_Y2UMnFeSi7
_symmetry_space_group_name_H-M   'P 1'
_cell_length_a   12.29683864
_cell_length_b   12.29684006
_cell_length_c   4.04673200
_cell_angle_alpha   90.00000000
_cell_angle_beta   90.00000000
_cell_angle_gamma   160.92334184
_symmetry_Int_Tables_number   1
_chemical_formula_structural   Y2UMnFeSi7
_chemical_formula_sum   'Y2 U1 Mn1 Fe1 Si7'
_cell_volume   199.99411643
_cell_formula_units_Z   1
loop_
 _symmetry_equiv_pos_site_id
 _symmetry_equiv_pos_as_xyz
  1  'x, y, z'
loop_
 _atom_site_type_symbol
 _atom_site_label
 _atom_site_symmetry_multiplicity
 _atom_site_fract_x
 _atom_site_fract_y
 _atom_site_fract_z
 _atom_site_occupancy
  Y  Y0  1  0.316397  0.683603  0.000000  1
  Y  Y1  1  0.684443  0.315557  0.000000  1
  U  U2  1  0.000251  0.999749  0.500000  1
  Mn  Mn3  1  0.124591  0.875409  0.500000  1
  Fe  Fe4  1  0.874894  0.125106  0.500000  1
  Si  Si5  1  0.222455  0.777545  0.500000  1
  Si  Si6  1  0.779612  0.220388  0.500000  1
  Si  Si7  1  0.084218  0.915782  0.000000  1
  Si  Si8  1  0.914365  0.085635  0.000000  1
  Si  Si9  1  0.414087  0.585913  0.500000  1
  Si  Si10  1  0.499008  0.500992  0.000000  1
  Si  Si11  1  0.585679  0.414321  0.500000  1
