# generated using pymatgen
data_NaErMn3Ni9P7
_symmetry_space_group_name_H-M   'P 1'
_cell_length_a   9.11212600
_cell_length_b   9.11212598
_cell_length_c   3.61734500
_cell_angle_alpha   90.00000000
_cell_angle_beta   90.00000000
_cell_angle_gamma   120.00000104
_symmetry_Int_Tables_number   1
_chemical_formula_structural   NaErMn3Ni9P7
_chemical_formula_sum   'Na1 Er1 Mn3 Ni9 P7'
_cell_volume   260.11176150
_cell_formula_units_Z   1
loop_
 _symmetry_equiv_pos_site_id
 _symmetry_equiv_pos_as_xyz
  1  'x, y, z'
loop_
 _atom_site_type_symbol
 _atom_site_label
 _atom_site_symmetry_multiplicity
 _atom_site_fract_x
 _atom_site_fract_y
 _atom_site_fract_z
 _atom_site_occupancy
  Na  Na0  1  0.333333  0.666667  0.000000  1
  Er  Er1  1  0.000000  0.000000  0.500000  1
  Mn  Mn2  1  0.791281  0.236154  0.500000  1
  Mn  Mn3  1  0.763846  0.555127  0.500000  1
  Mn  Mn4  1  0.444873  0.208719  0.500000  1
  Ni  Ni5  1  0.040258  0.272485  0.000000  1
  Ni  Ni6  1  0.727515  0.767773  0.000000  1
  Ni  Ni7  1  0.232227  0.959742  0.000000  1
  Ni  Ni8  1  0.544516  0.056073  0.000000  1
  Ni  Ni9  1  0.943927  0.488443  0.000000  1
  Ni  Ni10  1  0.511557  0.455484  0.000000  1
  Ni  Ni11  1  0.615305  0.897903  0.500000  1
  Ni  Ni12  1  0.102097  0.717401  0.500000  1
  Ni  Ni13  1  0.282599  0.384695  0.500000  1
  P  P14  1  0.781626  0.041296  0.000000  1
  P  P15  1  0.958704  0.740331  0.000000  1
  P  P16  1  0.259669  0.218374  0.000000  1
  P  P17  1  0.374404  0.926926  0.500000  1
  P  P18  1  0.073074  0.447479  0.500000  1
  P  P19  1  0.552521  0.625596  0.500000  1
  P  P20  1  0.666667  0.333333  0.000000  1
