# generated using pymatgen
data_Ce4PPt5Rh7
_symmetry_space_group_name_H-M   'P 1'
_cell_length_a   7.25846171
_cell_length_b   7.25846148
_cell_length_c   7.25846166
_cell_angle_alpha   108.64696926
_cell_angle_beta   109.88491509
_cell_angle_gamma   109.88491461
_symmetry_Int_Tables_number   1
_chemical_formula_structural   Ce4PPt5Rh7
_chemical_formula_sum   'Ce4 P1 Pt5 Rh7'
_cell_volume   294.33677840
_cell_formula_units_Z   1
loop_
 _symmetry_equiv_pos_site_id
 _symmetry_equiv_pos_as_xyz
  1  'x, y, z'
loop_
 _atom_site_type_symbol
 _atom_site_label
 _atom_site_symmetry_multiplicity
 _atom_site_fract_x
 _atom_site_fract_y
 _atom_site_fract_z
 _atom_site_occupancy
  Ce  Ce0  1  0.993207  0.996603  0.496603  1
  Ce  Ce1  1  0.006793  0.503397  0.003397  1
  Ce  Ce2  1  0.500000  0.996603  0.003397  1
  Ce  Ce3  1  0.500000  0.503397  0.496603  1
  P  P4  1  0.000000  0.000000  0.000000  1
  Pt  Pt5  1  0.750156  0.251156  0.501001  1
  Pt  Pt6  1  0.750156  0.498999  0.249156  1
  Pt  Pt7  1  0.500000  0.250000  0.750000  1
  Pt  Pt8  1  0.249844  0.498999  0.748844  1
  Pt  Pt9  1  0.249844  0.750844  0.501001  1
  Rh  Rh10  1  0.500000  0.750000  0.250000  1
  Rh  Rh11  1  0.728995  0.727728  0.998733  1
  Rh  Rh12  1  0.271005  0.001267  0.272272  1
  Rh  Rh13  1  0.000000  0.268949  0.268949  1
  Rh  Rh14  1  0.271005  0.269736  0.998733  1
  Rh  Rh15  1  0.728995  0.001267  0.730264  1
  Rh  Rh16  1  0.000000  0.731051  0.731051  1
