# generated using pymatgen
data_LiPm2Pd5
_symmetry_space_group_name_H-M   'P 1'
_cell_length_a   5.96082637
_cell_length_b   5.96082572
_cell_length_c   4.80364400
_cell_angle_alpha   90.00000000
_cell_angle_beta   90.00000000
_cell_angle_gamma   119.15084966
_symmetry_Int_Tables_number   1
_chemical_formula_structural   LiPm2Pd5
_chemical_formula_sum   'Li1 Pm2 Pd5'
_cell_volume   149.06208477
_cell_formula_units_Z   1
loop_
 _symmetry_equiv_pos_site_id
 _symmetry_equiv_pos_as_xyz
  1  'x, y, z'
loop_
 _atom_site_type_symbol
 _atom_site_label
 _atom_site_symmetry_multiplicity
 _atom_site_fract_x
 _atom_site_fract_y
 _atom_site_fract_z
 _atom_site_occupancy
  Li  Li0  1  0.868069  0.131931  0.750000  1
  Pm  Pm1  1  0.659056  0.340944  0.250000  1
  Pm  Pm2  1  0.333074  0.666926  0.750000  1
  Pd  Pd3  1  0.317122  0.159581  0.750000  1
  Pd  Pd4  1  0.840419  0.682878  0.750000  1
  Pd  Pd5  1  0.152846  0.847154  0.250000  1
  Pd  Pd6  1  0.679814  0.850402  0.250000  1
  Pd  Pd7  1  0.149598  0.320186  0.250000  1
