# generated using pymatgen
data_Nd12Si(GeBr4)3
_symmetry_space_group_name_H-M   'P 1'
_cell_length_a   10.45670742
_cell_length_b   10.44821972
_cell_length_c   10.44821943
_cell_angle_alpha   109.45476416
_cell_angle_beta   109.48768246
_cell_angle_gamma   109.48766968
_symmetry_Int_Tables_number   1
_chemical_formula_structural   Nd12Si(GeBr4)3
_chemical_formula_sum   'Nd12 Si1 Ge3 Br12'
_cell_volume   878.55587776
_cell_formula_units_Z   1
loop_
 _symmetry_equiv_pos_site_id
 _symmetry_equiv_pos_as_xyz
  1  'x, y, z'
loop_
 _atom_site_type_symbol
 _atom_site_label
 _atom_site_symmetry_multiplicity
 _atom_site_fract_x
 _atom_site_fract_y
 _atom_site_fract_z
 _atom_site_occupancy
  Nd  Nd0  1  0.476697  0.489664  0.237087  1
  Nd  Nd1  1  0.750000  0.239264  0.260736  1
  Nd  Nd2  1  0.750000  0.010809  0.489191  1
  Nd  Nd3  1  0.239191  0.478381  0.489191  1
  Nd  Nd4  1  0.260389  0.747423  0.237087  1
  Nd  Nd5  1  0.023303  0.262913  0.010336  1
  Nd  Nd6  1  0.010736  0.021472  0.260736  1
  Nd  Nd7  1  0.487034  0.747423  0.010336  1
  Nd  Nd8  1  0.489264  0.239264  0.478528  1
  Nd  Nd9  1  0.012966  0.489664  0.752577  1
  Nd  Nd10  1  0.260809  0.010809  0.021619  1
  Nd  Nd11  1  0.239611  0.262913  0.752577  1
  Si  Si12  1  0.250000  0.500000  0.000000  1
  Ge  Ge13  1  0.250000  0.249867  0.250133  1
  Ge  Ge14  1  0.500133  0.000266  0.250133  1
  Ge  Ge15  1  0.999867  0.249867  0.499734  1
  Br  Br16  1  0.250000  0.753993  0.746007  1
  Br  Br17  1  0.507873  0.503942  0.753810  1
  Br  Br18  1  0.992127  0.746190  0.996058  1
  Br  Br19  1  0.745938  0.249867  0.753810  1
  Br  Br20  1  0.996007  0.992013  0.746007  1
  Br  Br21  1  0.250000  0.996137  0.503863  1
  Br  Br22  1  0.753863  0.507728  0.503863  1
  Br  Br23  1  0.503929  0.249867  0.996058  1
  Br  Br24  1  0.754062  0.746190  0.250133  1
  Br  Br25  1  0.746137  0.996137  0.992272  1
  Br  Br26  1  0.996071  0.503942  0.250133  1
  Br  Br27  1  0.503993  0.753993  0.507987  1
