# generated using pymatgen
data_TbHoCo9P7W3
_symmetry_space_group_name_H-M   'P 1'
_cell_length_a   3.72384300
_cell_length_b   9.07347453
_cell_length_c   9.06994120
_cell_angle_alpha   119.96389758
_cell_angle_beta   90.00000000
_cell_angle_gamma   90.00000000
_symmetry_Int_Tables_number   1
_chemical_formula_structural   TbHoCo9P7W3
_chemical_formula_sum   'Tb1 Ho1 Co9 P7 W3'
_cell_volume   265.49599115
_cell_formula_units_Z   1
loop_
 _symmetry_equiv_pos_site_id
 _symmetry_equiv_pos_as_xyz
  1  'x, y, z'
loop_
 _atom_site_type_symbol
 _atom_site_label
 _atom_site_symmetry_multiplicity
 _atom_site_fract_x
 _atom_site_fract_y
 _atom_site_fract_z
 _atom_site_occupancy
  Tb  Tb0  1  0.000000  0.666557  0.333464  1
  Ho  Ho1  1  0.500000  0.333461  0.666710  1
  Co  Co2  1  0.000000  0.368411  0.936801  1
  Co  Co3  1  0.000000  0.063262  0.431733  1
  Co  Co4  1  0.000000  0.568354  0.631538  1
  Co  Co5  1  0.000000  0.879383  0.720431  1
  Co  Co6  1  0.000000  0.279557  0.158907  1
  Co  Co7  1  0.000000  0.841056  0.120496  1
  Co  Co8  1  0.500000  0.949377  0.564149  1
  Co  Co9  1  0.500000  0.435842  0.385281  1
  Co  Co10  1  0.500000  0.614605  0.050583  1
  P  P11  1  0.000000  0.111264  0.696431  1
  P  P12  1  0.000000  0.303389  0.414720  1
  P  P13  1  0.000000  0.585056  0.888687  1
  P  P14  1  0.500000  0.708398  0.589181  1
  P  P15  1  0.500000  0.410814  0.119130  1
  P  P16  1  0.500000  0.880864  0.291707  1
  P  P17  1  0.000000  0.000040  0.000012  1
  W  W18  1  0.500000  0.123002  0.902603  1
  W  W19  1  0.500000  0.097766  0.220485  1
  W  W20  1  0.500000  0.779544  0.876950  1
