# generated using pymatgen
data_AuCl30
_symmetry_space_group_name_H-M   'P 1'
_cell_length_a   13.76920589
_cell_length_b   13.76920557
_cell_length_c   15.81160538
_cell_angle_alpha   83.54018939
_cell_angle_beta   83.54018845
_cell_angle_gamma   124.89699146
_symmetry_Int_Tables_number   1
_chemical_formula_structural   AuCl30
_chemical_formula_sum   'Au1 Cl30'
_cell_volume   2384.85140519
_cell_formula_units_Z   1
loop_
 _symmetry_equiv_pos_site_id
 _symmetry_equiv_pos_as_xyz
  1  'x, y, z'
loop_
 _atom_site_type_symbol
 _atom_site_label
 _atom_site_symmetry_multiplicity
 _atom_site_fract_x
 _atom_site_fract_y
 _atom_site_fract_z
 _atom_site_occupancy
  Au  Au0  1  0.000000  0.000000  0.000000  1
  Cl  Cl1  1  0.945173  0.945173  0.154720  1
  Cl  Cl2  1  0.054827  0.054827  0.845280  1
  Cl  Cl3  1  0.061514  0.197053  0.005281  1
  Cl  Cl4  1  0.938486  0.802947  0.994719  1
  Cl  Cl5  1  0.197053  0.061514  0.005281  1
  Cl  Cl6  1  0.802947  0.938486  0.994719  1
  Cl  Cl7  1  0.202990  0.742314  0.064835  1
  Cl  Cl8  1  0.797010  0.257686  0.935165  1
  Cl  Cl9  1  0.701221  0.076529  0.263765  1
  Cl  Cl10  1  0.257686  0.797010  0.935165  1
  Cl  Cl11  1  0.298779  0.923471  0.736235  1
  Cl  Cl12  1  0.742314  0.202990  0.064835  1
  Cl  Cl13  1  0.976989  0.198536  0.783692  1
  Cl  Cl14  1  0.923471  0.298779  0.736235  1
  Cl  Cl15  1  0.023011  0.801464  0.216308  1
  Cl  Cl16  1  0.076529  0.701221  0.263765  1
  Cl  Cl17  1  0.801464  0.023011  0.216308  1
  Cl  Cl18  1  0.198536  0.976989  0.783692  1
  Cl  Cl19  1  0.465366  0.546917  0.259870  1
  Cl  Cl20  1  0.534634  0.453083  0.740130  1
  Cl  Cl21  1  0.507736  0.206036  0.450815  1
  Cl  Cl22  1  0.453083  0.534634  0.740130  1
  Cl  Cl23  1  0.492264  0.793964  0.549185  1
  Cl  Cl24  1  0.546917  0.465366  0.259870  1
  Cl  Cl25  1  0.239798  0.428923  0.544774  1
  Cl  Cl26  1  0.793964  0.492264  0.549185  1
  Cl  Cl27  1  0.760202  0.571077  0.455226  1
  Cl  Cl28  1  0.206036  0.507736  0.450815  1
  Cl  Cl29  1  0.571077  0.760202  0.455226  1
  Cl  Cl30  1  0.428923  0.239798  0.544774  1
