# generated using pymatgen
data_Ho2TmPa(Ni2Sn)2
_symmetry_space_group_name_H-M   'P 1'
_cell_length_a   7.40049404
_cell_length_b   7.40049470
_cell_length_c   3.56417100
_cell_angle_alpha   90.00000000
_cell_angle_beta   90.00000000
_cell_angle_gamma   92.06428673
_symmetry_Int_Tables_number   1
_chemical_formula_structural   Ho2TmPa(Ni2Sn)2
_chemical_formula_sum   'Ho2 Tm1 Pa1 Ni4 Sn2'
_cell_volume   195.07340559
_cell_formula_units_Z   1
loop_
 _symmetry_equiv_pos_site_id
 _symmetry_equiv_pos_as_xyz
  1  'x, y, z'
loop_
 _atom_site_type_symbol
 _atom_site_label
 _atom_site_symmetry_multiplicity
 _atom_site_fract_x
 _atom_site_fract_y
 _atom_site_fract_z
 _atom_site_occupancy
  Ho  Ho0  1  0.170734  0.326945  0.500000  1
  Ho  Ho1  1  0.826945  0.670734  0.500000  1
  Tm  Tm2  1  0.325047  0.825047  0.500000  1
  Pa  Pa3  1  0.672148  0.172148  0.500000  1
  Ni  Ni4  1  0.864089  0.364089  0.000000  1
  Ni  Ni5  1  0.117681  0.617681  0.000000  1
  Ni  Ni6  1  0.393709  0.131094  0.000000  1
  Ni  Ni7  1  0.631094  0.893709  0.000000  1
  Sn  Sn8  1  0.491431  0.507122  0.000000  1
  Sn  Sn9  1  0.007122  0.991431  0.000000  1
