# generated using pymatgen
data_Li2TmPt3
_symmetry_space_group_name_H-M   'P 1'
_cell_length_a   5.44814637
_cell_length_b   5.44814658
_cell_length_c   5.01548800
_cell_angle_alpha   57.10288109
_cell_angle_beta   57.10286713
_cell_angle_gamma   59.99999278
_symmetry_Int_Tables_number   1
_chemical_formula_structural   Li2TmPt3
_chemical_formula_sum   'Li2 Tm1 Pt3'
_cell_volume   100.41992514
_cell_formula_units_Z   1
loop_
 _symmetry_equiv_pos_site_id
 _symmetry_equiv_pos_as_xyz
  1  'x, y, z'
loop_
 _atom_site_type_symbol
 _atom_site_label
 _atom_site_symmetry_multiplicity
 _atom_site_fract_x
 _atom_site_fract_y
 _atom_site_fract_z
 _atom_site_occupancy
  Li  Li0  1  0.621367  0.621367  0.135899  1
  Li  Li1  1  0.257945  0.257945  0.226165  1
  Tm  Tm2  1  0.005577  0.005577  0.983269  1
  Pt  Pt3  1  0.621026  0.123059  0.634889  1
  Pt  Pt4  1  0.123059  0.621026  0.634889  1
  Pt  Pt5  1  0.621026  0.621026  0.634889  1
