# generated using pymatgen
data_CeTm9Os4
_symmetry_space_group_name_H-M   'P 1'
_cell_length_a   6.32137210
_cell_length_b   7.27240362
_cell_length_c   8.37100522
_cell_angle_alpha   96.50798439
_cell_angle_beta   112.43775633
_cell_angle_gamma   90.97469142
_symmetry_Int_Tables_number   1
_chemical_formula_structural   CeTm9Os4
_chemical_formula_sum   'Ce1 Tm9 Os4'
_cell_volume   352.64070832
_cell_formula_units_Z   1
loop_
 _symmetry_equiv_pos_site_id
 _symmetry_equiv_pos_as_xyz
  1  'x, y, z'
loop_
 _atom_site_type_symbol
 _atom_site_label
 _atom_site_symmetry_multiplicity
 _atom_site_fract_x
 _atom_site_fract_y
 _atom_site_fract_z
 _atom_site_occupancy
  Ce  Ce0  1  0.986203  0.905666  0.185603  1
  Tm  Tm1  1  0.789123  0.581098  0.810818  1
  Tm  Tm2  1  0.026571  0.083566  0.816113  1
  Tm  Tm3  1  0.207507  0.417940  0.179955  1
  Tm  Tm4  1  0.640681  0.818977  0.439141  1
  Tm  Tm5  1  0.206922  0.683263  0.566220  1
  Tm  Tm6  1  0.355870  0.185985  0.567085  1
  Tm  Tm7  1  0.793363  0.316137  0.437118  1
  Tm  Tm8  1  0.424230  0.749176  0.997771  1
  Tm  Tm9  1  0.578627  0.250269  0.001404  1
  Os  Os10  1  0.829438  0.587235  0.219782  1
  Os  Os11  1  0.606731  0.924229  0.781636  1
  Os  Os12  1  0.177490  0.423891  0.780339  1
  Os  Os13  1  0.377242  0.072568  0.217017  1
