# generated using pymatgen
data_Sr2GdB18
_symmetry_space_group_name_H-M   'P 1'
_cell_length_a   4.16855300
_cell_length_b   4.16855300
_cell_length_c   12.51778500
_cell_angle_alpha   90.00000000
_cell_angle_beta   90.00000000
_cell_angle_gamma   90.00000000
_symmetry_Int_Tables_number   1
_chemical_formula_structural   Sr2GdB18
_chemical_formula_sum   'Sr2 Gd1 B18'
_cell_volume   217.51947342
_cell_formula_units_Z   1
loop_
 _symmetry_equiv_pos_site_id
 _symmetry_equiv_pos_as_xyz
  1  'x, y, z'
loop_
 _atom_site_type_symbol
 _atom_site_label
 _atom_site_symmetry_multiplicity
 _atom_site_fract_x
 _atom_site_fract_y
 _atom_site_fract_z
 _atom_site_occupancy
  Sr  Sr0  1  0.000000  0.000000  0.333668  1
  Sr  Sr1  1  0.000000  0.000000  0.666332  1
  Gd  Gd2  1  0.000000  0.000000  0.000000  1
  B  B3  1  0.201041  0.500000  0.164045  1
  B  B4  1  0.202307  0.500000  0.500000  1
  B  B5  1  0.201041  0.500000  0.835955  1
  B  B6  1  0.500000  0.500000  0.264320  1
  B  B7  1  0.500000  0.500000  0.599718  1
  B  B8  1  0.500000  0.500000  0.934315  1
  B  B9  1  0.500000  0.201041  0.164045  1
  B  B10  1  0.500000  0.202307  0.500000  1
  B  B11  1  0.500000  0.201041  0.835955  1
  B  B12  1  0.500000  0.500000  0.065685  1
  B  B13  1  0.500000  0.500000  0.400282  1
  B  B14  1  0.500000  0.500000  0.735680  1
  B  B15  1  0.500000  0.798959  0.164045  1
  B  B16  1  0.500000  0.797693  0.500000  1
  B  B17  1  0.500000  0.798959  0.835955  1
  B  B18  1  0.798959  0.500000  0.164045  1
  B  B19  1  0.797693  0.500000  0.500000  1
  B  B20  1  0.798959  0.500000  0.835955  1
