# generated using pymatgen
data_SmEr6Co4Tc2Sn23
_symmetry_space_group_name_H-M   'P 1'
_cell_length_a   9.75266240
_cell_length_b   9.75266336
_cell_length_c   10.00040508
_cell_angle_alpha   89.79019919
_cell_angle_beta   90.20980021
_cell_angle_gamma   119.47459183
_symmetry_Int_Tables_number   1
_chemical_formula_structural   SmEr6Co4Tc2Sn23
_chemical_formula_sum   'Sm1 Er6 Co4 Tc2 Sn23'
_cell_volume   828.06760682
_cell_formula_units_Z   1
loop_
 _symmetry_equiv_pos_site_id
 _symmetry_equiv_pos_as_xyz
  1  'x, y, z'
loop_
 _atom_site_type_symbol
 _atom_site_label
 _atom_site_symmetry_multiplicity
 _atom_site_fract_x
 _atom_site_fract_y
 _atom_site_fract_z
 _atom_site_occupancy
  Sm  Sm0  1  0.000000  0.000000  0.000000  1
  Er  Er1  1  0.481810  0.518190  0.307240  1
  Er  Er2  1  0.518190  0.481810  0.692760  1
  Er  Er3  1  0.484161  0.962347  0.305420  1
  Er  Er4  1  0.515839  0.037653  0.694580  1
  Er  Er5  1  0.037653  0.515839  0.305420  1
  Er  Er6  1  0.962347  0.484161  0.694580  1
  Co  Co7  1  0.829639  0.657980  0.198718  1
  Co  Co8  1  0.170361  0.342020  0.801282  1
  Co  Co9  1  0.342020  0.170361  0.198718  1
  Co  Co10  1  0.657980  0.829639  0.801282  1
  Tc  Tc11  1  0.835450  0.164550  0.203920  1
  Tc  Tc12  1  0.164550  0.835450  0.796080  1
  Sn  Sn13  1  0.118314  0.881686  0.272638  1
  Sn  Sn14  1  0.881686  0.118314  0.727362  1
  Sn  Sn15  1  0.130485  0.240526  0.270676  1
  Sn  Sn16  1  0.869515  0.759474  0.729324  1
  Sn  Sn17  1  0.759474  0.869515  0.270676  1
  Sn  Sn18  1  0.240526  0.130485  0.729324  1
  Sn  Sn19  1  0.779823  0.220177  0.461204  1
  Sn  Sn20  1  0.220177  0.779823  0.538796  1
  Sn  Sn21  1  0.781855  0.563264  0.453943  1
  Sn  Sn22  1  0.218145  0.436736  0.546057  1
  Sn  Sn23  1  0.436736  0.218145  0.453943  1
  Sn  Sn24  1  0.563264  0.781855  0.546057  1
  Sn  Sn25  1  0.348057  0.001223  0.003885  1
  Sn  Sn26  1  0.651943  0.998777  0.996115  1
  Sn  Sn27  1  0.001223  0.348057  0.996115  1
  Sn  Sn28  1  0.998777  0.651943  0.003885  1
  Sn  Sn29  1  0.651013  0.651013  0.000000  1
  Sn  Sn30  1  0.348987  0.348987  0.000000  1
  Sn  Sn31  1  0.333401  0.666599  0.123118  1
  Sn  Sn32  1  0.666599  0.333401  0.876882  1
  Sn  Sn33  1  0.333009  0.666991  0.818031  1
  Sn  Sn34  1  0.666991  0.333009  0.181969  1
  Sn  Sn35  1  0.000000  0.000000  0.500000  1
