# generated using pymatgen
data_Li8Dy6Ho2Sn7Bi
_symmetry_space_group_name_H-M   'P 1'
_cell_length_a   9.41244401
_cell_length_b   9.41295808
_cell_length_c   7.27055100
_cell_angle_alpha   90.09387026
_cell_angle_beta   90.00103350
_cell_angle_gamma   119.99249217
_symmetry_Int_Tables_number   1
_chemical_formula_structural   Li8Dy6Ho2Sn7Bi
_chemical_formula_sum   'Li8 Dy6 Ho2 Sn7 Bi1'
_cell_volume   557.90281468
_cell_formula_units_Z   1
loop_
 _symmetry_equiv_pos_site_id
 _symmetry_equiv_pos_as_xyz
  1  'x, y, z'
loop_
 _atom_site_type_symbol
 _atom_site_label
 _atom_site_symmetry_multiplicity
 _atom_site_fract_x
 _atom_site_fract_y
 _atom_site_fract_z
 _atom_site_occupancy
  Li  Li0  1  0.166529  0.333110  0.284679  1
  Li  Li1  1  0.167959  0.833679  0.288471  1
  Li  Li2  1  0.665668  0.833709  0.288416  1
  Li  Li3  1  0.833473  0.666820  0.786891  1
  Li  Li4  1  0.829241  0.164773  0.791241  1
  Li  Li5  1  0.335596  0.164738  0.791201  1
  Li  Li6  1  0.335323  0.670628  0.669754  1
  Li  Li7  1  0.666008  0.332065  0.171994  1
  Dy  Dy8  1  0.512582  0.025049  0.493826  1
  Dy  Dy9  1  0.517037  0.490813  0.491038  1
  Dy  Dy10  1  0.973871  0.490801  0.490954  1
  Dy  Dy11  1  0.487479  0.975000  0.994661  1
  Dy  Dy12  1  0.493432  0.514402  0.996540  1
  Dy  Dy13  1  0.020877  0.514365  0.996465  1
  Ho  Ho14  1  0.997281  0.994611  0.497065  1
  Ho  Ho15  1  0.997742  0.995454  0.002384  1
  Sn  Sn16  1  0.166521  0.833094  0.730320  1
  Sn  Sn17  1  0.666628  0.833137  0.730270  1
  Sn  Sn18  1  0.833265  0.666696  0.231004  1
  Sn  Sn19  1  0.834035  0.167250  0.230186  1
  Sn  Sn20  1  0.333147  0.167293  0.230157  1
  Sn  Sn21  1  0.332649  0.665312  0.260679  1
  Sn  Sn22  1  0.667053  0.334067  0.761214  1
  Bi  Bi23  1  0.166607  0.333135  0.732561  1
