# generated using pymatgen
data_PrTm3S4
_symmetry_space_group_name_H-M   'P 1'
_cell_length_a   12.93273936
_cell_length_b   12.93273926
_cell_length_c   12.93273972
_cell_angle_alpha   17.43039828
_cell_angle_beta   17.43040149
_cell_angle_gamma   17.43039809
_symmetry_Int_Tables_number   1
_chemical_formula_structural   PrTm3S4
_chemical_formula_sum   'Pr1 Tm3 S4'
_cell_volume   169.38242378
_cell_formula_units_Z   1
loop_
 _symmetry_equiv_pos_site_id
 _symmetry_equiv_pos_as_xyz
  1  'x, y, z'
loop_
 _atom_site_type_symbol
 _atom_site_label
 _atom_site_symmetry_multiplicity
 _atom_site_fract_x
 _atom_site_fract_y
 _atom_site_fract_z
 _atom_site_occupancy
  Pr  Pr0  1  0.000000  0.000000  0.000000  1
  Tm  Tm1  1  0.247835  0.247835  0.247835  1
  Tm  Tm2  1  0.500000  0.500000  0.500000  1
  Tm  Tm3  1  0.752165  0.752165  0.752165  1
  S  S4  1  0.380820  0.380820  0.380820  1
  S  S5  1  0.126674  0.126674  0.126674  1
  S  S6  1  0.619180  0.619180  0.619180  1
  S  S7  1  0.873326  0.873326  0.873326  1
