# generated using pymatgen
data_RbBa4MnFe4(CoP2)5
_symmetry_space_group_name_H-M   'P 1'
_cell_length_a   8.71246017
_cell_length_b   8.71246113
_cell_length_c   8.71246100
_cell_angle_alpha   122.24367275
_cell_angle_beta   122.24367672
_cell_angle_gamma   86.15588331
_symmetry_Int_Tables_number   1
_chemical_formula_structural   RbBa4MnFe4(CoP2)5
_chemical_formula_sum   'Rb1 Ba4 Mn1 Fe4 Co5 P10'
_cell_volume   450.67166743
_cell_formula_units_Z   1
loop_
 _symmetry_equiv_pos_site_id
 _symmetry_equiv_pos_as_xyz
  1  'x, y, z'
loop_
 _atom_site_type_symbol
 _atom_site_label
 _atom_site_symmetry_multiplicity
 _atom_site_fract_x
 _atom_site_fract_y
 _atom_site_fract_z
 _atom_site_occupancy
  Rb  Rb0  1  0.000002  0.000165  0.999992  1
  Ba  Ba1  1  0.391813  0.802480  0.194372  1
  Ba  Ba2  1  0.802906  0.608257  0.410519  1
  Ba  Ba3  1  0.197028  0.391620  0.589180  1
  Ba  Ba4  1  0.608076  0.197265  0.805833  1
  Mn  Mn5  1  0.650084  0.549782  0.700390  1
  Fe  Fe6  1  0.049589  0.349208  0.899015  1
  Fe  Fe7  1  0.450191  0.151281  0.100255  1
  Fe  Fe8  1  0.850175  0.949671  0.299623  1
  Fe  Fe9  1  0.250080  0.749958  0.500761  1
  Co  Co10  1  0.950701  0.649979  0.101463  1
  Co  Co11  1  0.348941  0.450129  0.298394  1
  Co  Co12  1  0.750231  0.248894  0.498959  1
  Co  Co13  1  0.150492  0.050517  0.700273  1
  Co  Co14  1  0.549644  0.850741  0.901058  1
  P  P15  1  0.941071  0.539811  0.799637  1
  P  P16  1  0.340201  0.340892  0.999922  1
  P  P17  1  0.739319  0.140367  0.200349  1
  P  P18  1  0.140525  0.939482  0.401069  1
  P  P19  1  0.539835  0.740205  0.598998  1
  P  P20  1  0.658459  0.658495  0.999973  1
  P  P21  1  0.060180  0.461119  0.200276  1
  P  P22  1  0.460055  0.259707  0.401189  1
  P  P23  1  0.859424  0.059775  0.598270  1
  P  P24  1  0.260977  0.860201  0.800230  1
