# generated using pymatgen
data_Dy2Y5Ho3(In2Pt)4
_symmetry_space_group_name_H-M   'P 1'
_cell_length_a   3.62671800
_cell_length_b   8.16958654
_cell_length_c   18.29112724
_cell_angle_alpha   89.91252117
_cell_angle_beta   90.00000000
_cell_angle_gamma   90.00000000
_symmetry_Int_Tables_number   1
_chemical_formula_structural   Dy2Y5Ho3(In2Pt)4
_chemical_formula_sum   'Dy2 Y5 Ho3 In8 Pt4'
_cell_volume   541.94327349
_cell_formula_units_Z   1
loop_
 _symmetry_equiv_pos_site_id
 _symmetry_equiv_pos_as_xyz
  1  'x, y, z'
loop_
 _atom_site_type_symbol
 _atom_site_label
 _atom_site_symmetry_multiplicity
 _atom_site_fract_x
 _atom_site_fract_y
 _atom_site_fract_z
 _atom_site_occupancy
  Dy  Dy0  1  0.000000  0.256372  0.720847  1
  Dy  Dy1  1  0.000000  0.743895  0.279159  1
  Y  Y2  1  0.000000  0.117179  0.415134  1
  Y  Y3  1  0.000000  0.882781  0.584767  1
  Y  Y4  1  0.000000  0.382911  0.915449  1
  Y  Y5  1  0.000000  0.999298  0.000206  1
  Y  Y6  1  0.000000  0.500102  0.499947  1
  Ho  Ho7  1  0.000000  0.616618  0.085649  1
  Ho  Ho8  1  0.000000  0.243694  0.220774  1
  Ho  Ho9  1  0.000000  0.756281  0.779090  1
  In  In10  1  0.500000  0.424793  0.351222  1
  In  In11  1  0.500000  0.575280  0.648735  1
  In  In12  1  0.500000  0.075189  0.851364  1
  In  In13  1  0.500000  0.924654  0.148616  1
  In  In14  1  0.500000  0.292515  0.067231  1
  In  In15  1  0.500000  0.707636  0.932769  1
  In  In16  1  0.500000  0.207848  0.567373  1
  In  In17  1  0.500000  0.792203  0.432593  1
  Pt  Pt18  1  0.500000  0.024695  0.302549  1
  Pt  Pt19  1  0.500000  0.975524  0.697383  1
  Pt  Pt20  1  0.500000  0.476153  0.802782  1
  Pt  Pt21  1  0.500000  0.524375  0.196361  1
