# generated using pymatgen
data_NdPaCdPt2
_symmetry_space_group_name_H-M   'P 1'
_cell_length_a   7.94265600
_cell_length_b   7.94610900
_cell_length_c   3.70499000
_cell_angle_alpha   90.00000000
_cell_angle_beta   90.00000000
_cell_angle_gamma   90.00000000
_symmetry_Int_Tables_number   1
_chemical_formula_structural   NdPaCdPt2
_chemical_formula_sum   'Nd2 Pa2 Cd2 Pt4'
_cell_volume   233.83381312
_cell_formula_units_Z   2
loop_
 _symmetry_equiv_pos_site_id
 _symmetry_equiv_pos_as_xyz
  1  'x, y, z'
loop_
 _atom_site_type_symbol
 _atom_site_label
 _atom_site_symmetry_multiplicity
 _atom_site_fract_x
 _atom_site_fract_y
 _atom_site_fract_z
 _atom_site_occupancy
  Nd  Nd0  1  0.828391  0.673154  0.500000  1
  Nd  Nd1  1  0.671609  0.173154  0.500000  1
  Pa  Pa2  1  0.168208  0.330847  0.500000  1
  Pa  Pa3  1  0.331792  0.830847  0.500000  1
  Cd  Cd4  1  0.502217  0.495451  0.000000  1
  Cd  Cd5  1  0.997783  0.995451  0.000000  1
  Pt  Pt6  1  0.603319  0.868760  0.000000  1
  Pt  Pt7  1  0.154136  0.631789  0.000000  1
  Pt  Pt8  1  0.896681  0.368760  0.000000  1
  Pt  Pt9  1  0.345864  0.131789  0.000000  1
