# generated using pymatgen
data_Ta5Nb7Co8(OsC)4
_symmetry_space_group_name_H-M   'P 1'
_cell_length_a   8.12922763
_cell_length_b   8.12930485
_cell_length_c   8.12864406
_cell_angle_alpha   59.99388722
_cell_angle_beta   60.00349928
_cell_angle_gamma   60.02437300
_symmetry_Int_Tables_number   1
_chemical_formula_structural   Ta5Nb7Co8(OsC)4
_chemical_formula_sum   'Ta5 Nb7 Co8 Os4 C4'
_cell_volume   379.90687106
_cell_formula_units_Z   1
loop_
 _symmetry_equiv_pos_site_id
 _symmetry_equiv_pos_as_xyz
  1  'x, y, z'
loop_
 _atom_site_type_symbol
 _atom_site_label
 _atom_site_symmetry_multiplicity
 _atom_site_fract_x
 _atom_site_fract_y
 _atom_site_fract_z
 _atom_site_occupancy
  Ta  Ta0  1  0.695648  0.304429  0.694971  1
  Ta  Ta1  1  0.945298  0.555194  0.554692  1
  Ta  Ta2  1  0.554759  0.944433  0.945538  1
  Ta  Ta3  1  0.943969  0.555866  0.944303  1
  Ta  Ta4  1  0.555435  0.555763  0.944824  1
  Nb  Nb5  1  0.943943  0.943231  0.556058  1
  Nb  Nb6  1  0.693365  0.693542  0.306983  1
  Nb  Nb7  1  0.306837  0.693688  0.692777  1
  Nb  Nb8  1  0.693293  0.306026  0.307522  1
  Nb  Nb9  1  0.306473  0.305821  0.693547  1
  Nb  Nb10  1  0.557159  0.942782  0.557020  1
  Nb  Nb11  1  0.305504  0.694408  0.306216  1
  Co  Co12  1  0.327155  0.327448  0.326509  1
  Co  Co13  1  0.232817  0.922606  0.922073  1
  Co  Co14  1  0.921873  0.234621  0.921746  1
  Co  Co15  1  0.922379  0.922754  0.231787  1
  Co  Co16  1  0.326952  0.019275  0.326750  1
  Co  Co17  1  0.327460  0.327777  0.017560  1
  Co  Co18  1  0.017801  0.327596  0.327133  1
  Co  Co19  1  0.922143  0.922236  0.922360  1
  Os  Os20  1  0.125503  0.125750  0.123752  1
  Os  Os21  1  0.624887  0.126315  0.122617  1
  Os  Os22  1  0.124988  0.625209  0.124724  1
  Os  Os23  1  0.123360  0.126958  0.624528  1
  C  C24  1  0.627007  0.622054  0.627163  1
  C  C25  1  0.123103  0.624084  0.626483  1
  C  C26  1  0.625127  0.124364  0.627590  1
  C  C27  1  0.625764  0.625772  0.122773  1
