# generated using pymatgen
data_Hf17ScGaRe8P
_symmetry_space_group_name_H-M   'P 1'
_cell_length_a   8.58456958
_cell_length_b   8.58456883
_cell_length_c   8.62691700
_cell_angle_alpha   90.00000000
_cell_angle_beta   90.00000000
_cell_angle_gamma   119.89536184
_symmetry_Int_Tables_number   1
_chemical_formula_structural   Hf17ScGaRe8P
_chemical_formula_sum   'Hf17 Sc1 Ga1 Re8 P1'
_cell_volume   551.16320893
_cell_formula_units_Z   1
loop_
 _symmetry_equiv_pos_site_id
 _symmetry_equiv_pos_as_xyz
  1  'x, y, z'
loop_
 _atom_site_type_symbol
 _atom_site_label
 _atom_site_symmetry_multiplicity
 _atom_site_fract_x
 _atom_site_fract_y
 _atom_site_fract_z
 _atom_site_occupancy
  Hf  Hf0  1  0.193816  0.806184  0.452897  1
  Hf  Hf1  1  0.193683  0.386976  0.452655  1
  Hf  Hf2  1  0.613024  0.806317  0.452655  1
  Hf  Hf3  1  0.803969  0.196031  0.548999  1
  Hf  Hf4  1  0.803842  0.607916  0.549057  1
  Hf  Hf5  1  0.392084  0.196158  0.549057  1
  Hf  Hf6  1  0.803969  0.196031  0.951001  1
  Hf  Hf7  1  0.803842  0.607916  0.950943  1
  Hf  Hf8  1  0.392084  0.196158  0.950943  1
  Hf  Hf9  1  0.193816  0.806184  0.047103  1
  Hf  Hf10  1  0.193683  0.386976  0.047345  1
  Hf  Hf11  1  0.613024  0.806317  0.047345  1
  Hf  Hf12  1  0.540708  0.459292  0.250000  1
  Hf  Hf13  1  0.540723  0.081390  0.250000  1
  Hf  Hf14  1  0.918610  0.459277  0.250000  1
  Hf  Hf15  1  0.459330  0.918969  0.750000  1
  Hf  Hf16  1  0.081031  0.540670  0.750000  1
  Sc  Sc17  1  0.458799  0.541201  0.750000  1
  Ga  Ga18  1  0.333429  0.666571  0.250000  1
  Re  Re19  1  0.890230  0.109770  0.250000  1
  Re  Re20  1  0.890387  0.780654  0.250000  1
  Re  Re21  1  0.219346  0.109613  0.250000  1
  Re  Re22  1  0.109101  0.890899  0.750000  1
  Re  Re23  1  0.109192  0.219059  0.750000  1
  Re  Re24  1  0.780941  0.890808  0.750000  1
  Re  Re25  1  0.000092  0.999908  0.500319  1
  Re  Re26  1  0.000092  0.999908  0.999681  1
  P  P27  1  0.667153  0.332847  0.750000  1
