# generated using pymatgen
data_Ca3Pa5(GaRh)8
_symmetry_space_group_name_H-M   'P 1'
_cell_length_a   4.02608000
_cell_length_b   7.26329915
_cell_length_c   16.00456621
_cell_angle_alpha   89.90893591
_cell_angle_beta   90.00000000
_cell_angle_gamma   90.00000000
_symmetry_Int_Tables_number   1
_chemical_formula_structural   Ca3Pa5(GaRh)8
_chemical_formula_sum   'Ca3 Pa5 Ga8 Rh8'
_cell_volume   468.01491162
_cell_formula_units_Z   1
loop_
 _symmetry_equiv_pos_site_id
 _symmetry_equiv_pos_as_xyz
  1  'x, y, z'
loop_
 _atom_site_type_symbol
 _atom_site_label
 _atom_site_symmetry_multiplicity
 _atom_site_fract_x
 _atom_site_fract_y
 _atom_site_fract_z
 _atom_site_occupancy
  Ca  Ca0  1  0.750000  0.337990  0.441008  1
  Ca  Ca1  1  0.750000  0.834662  0.056678  1
  Ca  Ca2  1  0.250000  0.160663  0.944009  1
  Pa  Pa3  1  0.250000  0.544433  0.781066  1
  Pa  Pa4  1  0.750000  0.448209  0.219999  1
  Pa  Pa5  1  0.750000  0.946919  0.281166  1
  Pa  Pa6  1  0.250000  0.052938  0.719289  1
  Pa  Pa7  1  0.250000  0.670859  0.557939  1
  Ga  Ga8  1  0.250000  0.611247  0.352517  1
  Ga  Ga9  1  0.750000  0.388939  0.649782  1
  Ga  Ga10  1  0.750000  0.886874  0.845806  1
  Ga  Ga11  1  0.250000  0.108147  0.149522  1
  Ga  Ga12  1  0.250000  0.515235  0.060180  1
  Ga  Ga13  1  0.750000  0.485688  0.939719  1
  Ga  Ga14  1  0.750000  0.005896  0.561835  1
  Ga  Ga15  1  0.250000  0.014317  0.439883  1
  Rh  Rh16  1  0.250000  0.737149  0.197536  1
  Rh  Rh17  1  0.750000  0.258777  0.805580  1
  Rh  Rh18  1  0.750000  0.755306  0.679952  1
  Rh  Rh19  1  0.250000  0.229345  0.306886  1
  Rh  Rh20  1  0.250000  0.720224  0.916350  1
  Rh  Rh21  1  0.750000  0.280053  0.081189  1
  Rh  Rh22  1  0.750000  0.768075  0.434527  1
  Rh  Rh23  1  0.250000  0.238054  0.577583  1
