# generated using pymatgen
data_TbEr2Cd3PdPt2
_symmetry_space_group_name_H-M   'P 1'
_cell_length_a   7.63422912
_cell_length_b   7.63422935
_cell_length_c   3.86953800
_cell_angle_alpha   90.00000000
_cell_angle_beta   90.00000000
_cell_angle_gamma   120.08549402
_symmetry_Int_Tables_number   1
_chemical_formula_structural   TbEr2Cd3PdPt2
_chemical_formula_sum   'Tb1 Er2 Cd3 Pd1 Pt2'
_cell_volume   195.13957444
_cell_formula_units_Z   1
loop_
 _symmetry_equiv_pos_site_id
 _symmetry_equiv_pos_as_xyz
  1  'x, y, z'
loop_
 _atom_site_type_symbol
 _atom_site_label
 _atom_site_symmetry_multiplicity
 _atom_site_fract_x
 _atom_site_fract_y
 _atom_site_fract_z
 _atom_site_occupancy
  Tb  Tb0  1  0.410251  0.410251  0.000000  1
  Er  Er1  1  0.590005  0.999918  0.000000  1
  Er  Er2  1  0.999918  0.590005  0.000000  1
  Cd  Cd3  1  0.256527  0.999299  0.500000  1
  Cd  Cd4  1  0.999299  0.256527  0.500000  1
  Cd  Cd5  1  0.743987  0.743987  0.500000  1
  Pd  Pd6  1  0.999156  0.999156  0.000000  1
  Pt  Pt7  1  0.332879  0.667978  0.500000  1
  Pt  Pt8  1  0.667978  0.332879  0.500000  1
