# generated using pymatgen
data_YAg(Te3O8)2
_symmetry_space_group_name_H-M   'P 1'
_cell_length_a   6.95283743
_cell_length_b   6.95283835
_cell_length_c   10.29121900
_cell_angle_alpha   66.02310962
_cell_angle_beta   66.02310623
_cell_angle_gamma   48.96950174
_symmetry_Int_Tables_number   1
_chemical_formula_structural   YAg(Te3O8)2
_chemical_formula_sum   'Y1 Ag1 Te6 O16'
_cell_volume   335.80117994
_cell_formula_units_Z   1
loop_
 _symmetry_equiv_pos_site_id
 _symmetry_equiv_pos_as_xyz
  1  'x, y, z'
loop_
 _atom_site_type_symbol
 _atom_site_label
 _atom_site_symmetry_multiplicity
 _atom_site_fract_x
 _atom_site_fract_y
 _atom_site_fract_z
 _atom_site_occupancy
  Y  Y0  1  0.569184  0.430816  0.250000  1
  Ag  Ag1  1  0.435961  0.564039  0.750000  1
  Te  Te2  1  0.697184  0.873013  0.856954  1
  Te  Te3  1  0.877862  0.687690  0.357925  1
  Te  Te4  1  0.995584  0.991889  0.503434  1
  Te  Te5  1  0.008111  0.004416  0.996566  1
  Te  Te6  1  0.126987  0.302816  0.643046  1
  Te  Te7  1  0.312310  0.122138  0.142075  1
  O  O8  1  0.980480  0.816989  0.913295  1
  O  O9  1  0.792718  0.992702  0.403166  1
  O  O10  1  0.348989  0.882196  0.876629  1
  O  O11  1  0.796786  0.570835  0.579540  1
  O  O12  1  0.868378  0.315719  0.838795  1
  O  O13  1  0.849700  0.335618  0.377232  1
  O  O14  1  0.579024  0.774547  0.100509  1
  O  O15  1  0.296801  0.847453  0.343580  1
  O  O16  1  0.684281  0.131622  0.661205  1
  O  O17  1  0.429165  0.203214  0.920460  1
  O  O18  1  0.117804  0.651011  0.623371  1
  O  O19  1  0.152547  0.703199  0.156420  1
  O  O20  1  0.225453  0.420976  0.399491  1
  O  O21  1  0.664382  0.150300  0.122768  1
  O  O22  1  0.183011  0.019520  0.586705  1
  O  O23  1  0.007298  0.207282  0.096834  1
