# generated using pymatgen
data_Dy2Ho2Cu3Pd
_symmetry_space_group_name_H-M   'P 1'
_cell_length_a   4.50399400
_cell_length_b   5.43886737
_cell_length_c   7.13609700
_cell_angle_alpha   90.17840214
_cell_angle_beta   90.00000000
_cell_angle_gamma   90.00000000
_symmetry_Int_Tables_number   1
_chemical_formula_structural   Dy2Ho2Cu3Pd
_chemical_formula_sum   'Dy2 Ho2 Cu3 Pd1'
_cell_volume   174.80945176
_cell_formula_units_Z   1
loop_
 _symmetry_equiv_pos_site_id
 _symmetry_equiv_pos_as_xyz
  1  'x, y, z'
loop_
 _atom_site_type_symbol
 _atom_site_label
 _atom_site_symmetry_multiplicity
 _atom_site_fract_x
 _atom_site_fract_y
 _atom_site_fract_z
 _atom_site_occupancy
  Dy  Dy0  1  0.250000  0.135682  0.182066  1
  Dy  Dy1  1  0.750000  0.864034  0.816847  1
  Ho  Ho2  1  0.250000  0.363151  0.682415  1
  Ho  Ho3  1  0.750000  0.638138  0.319214  1
  Cu  Cu4  1  0.250000  0.623605  0.032803  1
  Cu  Cu5  1  0.750000  0.138294  0.462535  1
  Cu  Cu6  1  0.750000  0.375398  0.968332  1
  Pd  Pd7  1  0.250000  0.861697  0.535788  1
