# generated using pymatgen
data_TbTh3Al16(GaIr3)2
_symmetry_space_group_name_H-M   'P 1'
_cell_length_a   7.63411897
_cell_length_b   7.63828064
_cell_length_c   9.52553800
_cell_angle_alpha   90.00000000
_cell_angle_beta   90.00000000
_cell_angle_gamma   119.50483688
_symmetry_Int_Tables_number   1
_chemical_formula_structural   TbTh3Al16(GaIr3)2
_chemical_formula_sum   'Tb1 Th3 Al16 Ga2 Ir6'
_cell_volume   483.41495230
_cell_formula_units_Z   1
loop_
 _symmetry_equiv_pos_site_id
 _symmetry_equiv_pos_as_xyz
  1  'x, y, z'
loop_
 _atom_site_type_symbol
 _atom_site_label
 _atom_site_symmetry_multiplicity
 _atom_site_fract_x
 _atom_site_fract_y
 _atom_site_fract_z
 _atom_site_occupancy
  Tb  Tb0  1  0.328906  0.004784  0.750000  1
  Th  Th1  1  0.997012  0.673603  0.250000  1
  Th  Th2  1  0.003844  0.329055  0.750000  1
  Th  Th3  1  0.669483  0.991709  0.250000  1
  Al  Al4  1  0.869944  0.868624  0.750000  1
  Al  Al5  1  0.005013  0.335518  0.073946  1
  Al  Al6  1  0.999793  0.668963  0.923285  1
  Al  Al7  1  0.999793  0.668963  0.576715  1
  Al  Al8  1  0.335805  0.005070  0.431590  1
  Al  Al9  1  0.005013  0.335518  0.426054  1
  Al  Al10  1  0.660002  0.995643  0.576567  1
  Al  Al11  1  0.660002  0.995643  0.923433  1
  Al  Al12  1  0.335805  0.005070  0.068410  1
  Al  Al13  1  0.336101  0.332862  0.555410  1
  Al  Al14  1  0.663574  0.662820  0.455595  1
  Al  Al15  1  0.663574  0.662820  0.044405  1
  Al  Al16  1  0.336101  0.332862  0.944590  1
  Al  Al17  1  0.657462  0.450704  0.750000  1
  Al  Al18  1  0.545440  0.339637  0.250000  1
  Al  Al19  1  0.453465  0.662259  0.750000  1
  Ga  Ga20  1  0.136756  0.135218  0.250000  1
  Ga  Ga21  1  0.341732  0.542654  0.250000  1
  Ir  Ir22  1  0.672571  0.328571  0.000627  1
  Ir  Ir23  1  0.326782  0.671243  0.998352  1
  Ir  Ir24  1  0.326782  0.671243  0.501648  1
  Ir  Ir25  1  0.672571  0.328571  0.499373  1
  Ir  Ir26  1  0.998337  0.000188  0.998175  1
  Ir  Ir27  1  0.998337  0.000188  0.501825  1
