# generated using pymatgen
data_Hf5TaSi7Ni16
_symmetry_space_group_name_H-M   'P 1'
_cell_length_a   8.05732192
_cell_length_b   8.05732162
_cell_length_c   8.04472700
_cell_angle_alpha   60.05169849
_cell_angle_beta   60.05169972
_cell_angle_gamma   59.89660768
_symmetry_Int_Tables_number   1
_chemical_formula_structural   Hf5TaSi7Ni16
_chemical_formula_sum   'Hf5 Ta1 Si7 Ni16'
_cell_volume   369.29687149
_cell_formula_units_Z   1
loop_
 _symmetry_equiv_pos_site_id
 _symmetry_equiv_pos_as_xyz
  1  'x, y, z'
loop_
 _atom_site_type_symbol
 _atom_site_label
 _atom_site_symmetry_multiplicity
 _atom_site_fract_x
 _atom_site_fract_y
 _atom_site_fract_z
 _atom_site_occupancy
  Hf  Hf0  1  0.296145  0.705510  0.294490  1
  Hf  Hf1  1  0.705510  0.296145  0.294490  1
  Hf  Hf2  1  0.291248  0.291248  0.708752  1
  Hf  Hf3  1  0.705510  0.296145  0.703855  1
  Hf  Hf4  1  0.296145  0.705510  0.703855  1
  Ta  Ta5  1  0.706005  0.706005  0.293995  1
  Si  Si6  1  0.002622  0.002622  0.997378  1
  Si  Si7  1  0.999630  0.999630  0.500370  1
  Si  Si8  1  0.502580  0.998657  0.497420  1
  Si  Si9  1  0.998657  0.502580  0.497420  1
  Si  Si10  1  0.499630  0.499630  0.000370  1
  Si  Si11  1  0.998657  0.502580  0.001343  1
  Si  Si12  1  0.502580  0.998657  0.001343  1
  Ni  Ni13  1  0.881088  0.881088  0.351992  1
  Ni  Ni14  1  0.880423  0.355606  0.881985  1
  Ni  Ni15  1  0.355606  0.880423  0.881985  1
  Ni  Ni16  1  0.881088  0.881088  0.885832  1
  Ni  Ni17  1  0.118015  0.118015  0.644394  1
  Ni  Ni18  1  0.114168  0.648008  0.118912  1
  Ni  Ni19  1  0.648008  0.114168  0.118912  1
  Ni  Ni20  1  0.118015  0.118015  0.119577  1
  Ni  Ni21  1  0.667641  0.667641  0.997793  1
  Ni  Ni22  1  0.667831  0.996221  0.667974  1
  Ni  Ni23  1  0.996221  0.667831  0.667974  1
  Ni  Ni24  1  0.667641  0.667641  0.666923  1
  Ni  Ni25  1  0.332026  0.332026  0.003779  1
  Ni  Ni26  1  0.333077  0.002207  0.332359  1
  Ni  Ni27  1  0.002207  0.333077  0.332359  1
  Ni  Ni28  1  0.332026  0.332026  0.332169  1
