# generated using pymatgen
data_PrEr2Pu(WN3)4
_symmetry_space_group_name_H-M   'P 1'
_cell_length_a   7.27604228
_cell_length_b   7.27604301
_cell_length_c   6.21361673
_cell_angle_alpha   75.76794825
_cell_angle_beta   75.76796239
_cell_angle_gamma   83.28498054
_symmetry_Int_Tables_number   1
_chemical_formula_structural   PrEr2Pu(WN3)4
_chemical_formula_sum   'Pr1 Er2 Pu1 W4 N12'
_cell_volume   308.51207504
_cell_formula_units_Z   1
loop_
 _symmetry_equiv_pos_site_id
 _symmetry_equiv_pos_as_xyz
  1  'x, y, z'
loop_
 _atom_site_type_symbol
 _atom_site_label
 _atom_site_symmetry_multiplicity
 _atom_site_fract_x
 _atom_site_fract_y
 _atom_site_fract_z
 _atom_site_occupancy
  Pr  Pr0  1  0.694370  0.305630  0.750000  1
  Er  Er1  1  0.088394  0.911606  0.750000  1
  Er  Er2  1  0.912292  0.087708  0.250000  1
  Pu  Pu3  1  0.297445  0.702555  0.250000  1
  W  W4  1  0.380870  0.199247  0.253947  1
  W  W5  1  0.617363  0.800605  0.749322  1
  W  W6  1  0.800753  0.619130  0.246053  1
  W  W7  1  0.199395  0.382637  0.750678  1
  N  N8  1  0.621403  0.107624  0.164938  1
  N  N9  1  0.372954  0.343000  0.480925  1
  N  N10  1  0.005279  0.214613  0.854857  1
  N  N11  1  0.375062  0.888453  0.851318  1
  N  N12  1  0.785387  0.994721  0.645143  1
  N  N13  1  0.111547  0.624938  0.648682  1
  N  N14  1  0.892376  0.378597  0.335061  1
  N  N15  1  0.629341  0.657055  0.520361  1
  N  N16  1  0.657000  0.627046  0.019075  1
  N  N17  1  0.342945  0.370659  0.979639  1
  N  N18  1  0.999786  0.783961  0.143967  1
  N  N19  1  0.216039  0.000214  0.356033  1
