# generated using pymatgen
data_Tb12Nd4MgHg3Pt4
_symmetry_space_group_name_H-M   'P 1'
_cell_length_a   9.75808398
_cell_length_b   9.77511311
_cell_length_c   9.77511318
_cell_angle_alpha   60.44296351
_cell_angle_beta   60.20090209
_cell_angle_gamma   60.20090635
_symmetry_Int_Tables_number   1
_chemical_formula_structural   Tb12Nd4MgHg3Pt4
_chemical_formula_sum   'Tb12 Nd4 Mg1 Hg3 Pt4'
_cell_volume   663.50920880
_cell_formula_units_Z   1
loop_
 _symmetry_equiv_pos_site_id
 _symmetry_equiv_pos_as_xyz
  1  'x, y, z'
loop_
 _atom_site_type_symbol
 _atom_site_label
 _atom_site_symmetry_multiplicity
 _atom_site_fract_x
 _atom_site_fract_y
 _atom_site_fract_z
 _atom_site_occupancy
  Tb  Tb0  1  0.350046  0.348498  0.348498  1
  Tb  Tb1  1  0.352310  0.351365  0.946487  1
  Tb  Tb2  1  0.352310  0.946487  0.351365  1
  Tb  Tb3  1  0.938198  0.354557  0.354557  1
  Tb  Tb4  1  0.809268  0.191442  0.191442  1
  Tb  Tb5  1  0.187506  0.811783  0.811783  1
  Tb  Tb6  1  0.187147  0.812691  0.190201  1
  Tb  Tb7  1  0.808330  0.190440  0.809018  1
  Tb  Tb8  1  0.187147  0.190201  0.812691  1
  Tb  Tb9  1  0.808330  0.809018  0.190440  1
  Tb  Tb10  1  0.940034  0.559635  0.559635  1
  Tb  Tb11  1  0.557798  0.940645  0.940645  1
  Nd  Nd12  1  0.561434  0.938062  0.565408  1
  Nd  Nd13  1  0.936568  0.563518  0.933882  1
  Nd  Nd14  1  0.561434  0.565408  0.938062  1
  Nd  Nd15  1  0.936568  0.933882  0.563518  1
  Mg  Mg16  1  0.284360  0.571230  0.571230  1
  Hg  Hg17  1  0.585145  0.583986  0.583986  1
  Hg  Hg18  1  0.579921  0.589209  0.246520  1
  Hg  Hg19  1  0.579921  0.246520  0.589209  1
  Pt  Pt20  1  0.143795  0.144196  0.144196  1
  Pt  Pt21  1  0.140321  0.144458  0.571723  1
  Pt  Pt22  1  0.140321  0.571723  0.144458  1
  Pt  Pt23  1  0.571787  0.141043  0.141043  1
