# generated using pymatgen
data_Mn6Nb12Al11Cu5Ir2
_symmetry_space_group_name_H-M   'P 1'
_cell_length_a   8.65814360
_cell_length_b   8.65063283
_cell_length_c   8.14639500
_cell_angle_alpha   90.00000000
_cell_angle_beta   90.00000000
_cell_angle_gamma   120.22280681
_symmetry_Int_Tables_number   1
_chemical_formula_structural   Mn6Nb12Al11Cu5Ir2
_chemical_formula_sum   'Mn6 Nb12 Al11 Cu5 Ir2'
_cell_volume   527.21689434
_cell_formula_units_Z   1
loop_
 _symmetry_equiv_pos_site_id
 _symmetry_equiv_pos_as_xyz
  1  'x, y, z'
loop_
 _atom_site_type_symbol
 _atom_site_label
 _atom_site_symmetry_multiplicity
 _atom_site_fract_x
 _atom_site_fract_y
 _atom_site_fract_z
 _atom_site_occupancy
  Mn  Mn0  1  0.169389  0.509316  0.750000  1
  Mn  Mn1  1  0.492892  0.660064  0.750000  1
  Mn  Mn2  1  0.510638  0.171645  0.750000  1
  Mn  Mn3  1  0.339086  0.829573  0.750000  1
  Mn  Mn4  1  0.660809  0.489115  0.750000  1
  Mn  Mn5  1  0.830442  0.340256  0.750000  1
  Nb  Nb6  1  0.332303  0.997537  0.048238  1
  Nb  Nb7  1  0.659527  0.001499  0.925310  1
  Nb  Nb8  1  0.000367  0.333534  0.045977  1
  Nb  Nb9  1  0.659527  0.001499  0.574690  1
  Nb  Nb10  1  0.000367  0.333534  0.454023  1
  Nb  Nb11  1  0.002637  0.660377  0.926949  1
  Nb  Nb12  1  0.332303  0.997537  0.451762  1
  Nb  Nb13  1  0.002637  0.660377  0.573051  1
  Nb  Nb14  1  0.666417  0.665623  0.047617  1
  Nb  Nb15  1  0.341414  0.340334  0.926188  1
  Nb  Nb16  1  0.341414  0.340334  0.573812  1
  Nb  Nb17  1  0.666417  0.665623  0.452383  1
  Al  Al18  1  0.155395  0.655394  0.250000  1
  Al  Al19  1  0.341085  0.666913  0.497391  1
  Al  Al20  1  0.666545  0.333182  0.490492  1
  Al  Al21  1  0.666545  0.333182  0.009508  1
  Al  Al22  1  0.341085  0.666913  0.002609  1
  Al  Al23  1  0.180062  0.000834  0.750000  1
  Al  Al24  1  0.817766  0.001126  0.250000  1
  Al  Al25  1  0.000460  0.179671  0.750000  1
  Al  Al26  1  0.991266  0.823867  0.250000  1
  Al  Al27  1  0.821854  0.820621  0.750000  1
  Al  Al28  1  0.179970  0.180328  0.250000  1
  Cu  Cu29  1  0.835774  0.504116  0.250000  1
  Cu  Cu30  1  0.496617  0.334702  0.250000  1
  Cu  Cu31  1  0.498188  0.836667  0.250000  1
  Cu  Cu32  1  0.663218  0.161874  0.250000  1
  Cu  Cu33  1  0.335845  0.499023  0.250000  1
  Ir  Ir34  1  0.999870  0.001905  0.500598  1
  Ir  Ir35  1  0.999870  0.001905  0.999402  1
