# generated using pymatgen
data_Ca6CoP12Ir15Ru2
_symmetry_space_group_name_H-M   'P 1'
_cell_length_a   3.94575600
_cell_length_b   11.14454600
_cell_length_c   12.72388700
_cell_angle_alpha   90.00000000
_cell_angle_beta   90.00000000
_cell_angle_gamma   90.00000000
_symmetry_Int_Tables_number   1
_chemical_formula_structural   Ca6CoP12Ir15Ru2
_chemical_formula_sum   'Ca6 Co1 P12 Ir15 Ru2'
_cell_volume   559.51587123
_cell_formula_units_Z   1
loop_
 _symmetry_equiv_pos_site_id
 _symmetry_equiv_pos_as_xyz
  1  'x, y, z'
loop_
 _atom_site_type_symbol
 _atom_site_label
 _atom_site_symmetry_multiplicity
 _atom_site_fract_x
 _atom_site_fract_y
 _atom_site_fract_z
 _atom_site_occupancy
  Ca  Ca0  1  0.000000  0.500000  0.524280  1
  Ca  Ca1  1  0.500000  0.000000  0.475354  1
  Ca  Ca2  1  0.500000  0.823746  0.205080  1
  Ca  Ca3  1  0.500000  0.176254  0.205080  1
  Ca  Ca4  1  0.000000  0.680636  0.795692  1
  Ca  Ca5  1  0.000000  0.319364  0.795692  1
  Co  Co6  1  0.500000  0.000000  0.005502  1
  P  P7  1  0.500000  0.312440  0.619525  1
  P  P8  1  0.500000  0.687560  0.619525  1
  P  P9  1  0.000000  0.187363  0.380756  1
  P  P10  1  0.000000  0.812637  0.380756  1
  P  P11  1  0.500000  0.500000  0.880281  1
  P  P12  1  0.000000  0.000000  0.119068  1
  P  P13  1  0.500000  0.852102  0.892479  1
  P  P14  1  0.500000  0.147898  0.892479  1
  P  P15  1  0.000000  0.658965  0.109989  1
  P  P16  1  0.000000  0.341035  0.109989  1
  P  P17  1  0.500000  0.500000  0.344661  1
  P  P18  1  0.000000  0.000000  0.654349  1
  Ir  Ir19  1  0.000000  0.500000  0.993976  1
  Ir  Ir20  1  0.500000  0.294126  0.429499  1
  Ir  Ir21  1  0.500000  0.705874  0.429499  1
  Ir  Ir22  1  0.000000  0.206982  0.570107  1
  Ir  Ir23  1  0.000000  0.793018  0.570107  1
  Ir  Ir24  1  0.500000  0.875406  0.711875  1
  Ir  Ir25  1  0.500000  0.124594  0.711875  1
  Ir  Ir26  1  0.000000  0.625474  0.287453  1
  Ir  Ir27  1  0.000000  0.374526  0.287453  1
  Ir  Ir28  1  0.500000  0.328944  0.988192  1
  Ir  Ir29  1  0.500000  0.671056  0.988192  1
  Ir  Ir30  1  0.000000  0.162849  0.011081  1
  Ir  Ir31  1  0.000000  0.837151  0.011081  1
  Ir  Ir32  1  0.500000  0.500000  0.700607  1
  Ir  Ir33  1  0.000000  0.000000  0.299232  1
  Ru  Ru34  1  0.500000  0.500000  0.161193  1
  Ru  Ru35  1  0.000000  0.000000  0.838039  1
