# generated using pymatgen
data_DyHoPu3(SiB4)2
_symmetry_space_group_name_H-M   'P 1'
_cell_length_a   7.22308717
_cell_length_b   7.22308764
_cell_length_c   8.10131500
_cell_angle_alpha   90.00000000
_cell_angle_beta   90.00000000
_cell_angle_gamma   89.90441562
_symmetry_Int_Tables_number   1
_chemical_formula_structural   DyHoPu3(SiB4)2
_chemical_formula_sum   'Dy2 Ho2 Pu6 Si4 B16'
_cell_volume   422.66925143
_cell_formula_units_Z   2
loop_
 _symmetry_equiv_pos_site_id
 _symmetry_equiv_pos_as_xyz
  1  'x, y, z'
loop_
 _atom_site_type_symbol
 _atom_site_label
 _atom_site_symmetry_multiplicity
 _atom_site_fract_x
 _atom_site_fract_y
 _atom_site_fract_z
 _atom_site_occupancy
  Dy  Dy0  1  0.181465  0.318535  0.777791  1
  Dy  Dy1  1  0.181465  0.318535  0.222209  1
  Ho  Ho2  1  0.999446  0.998369  0.500000  1
  Ho  Ho3  1  0.501631  0.500554  0.500000  1
  Pu  Pu4  1  0.682998  0.182631  0.229213  1
  Pu  Pu5  1  0.317369  0.817002  0.770787  1
  Pu  Pu6  1  0.317369  0.817002  0.229213  1
  Pu  Pu7  1  0.816502  0.683498  0.229356  1
  Pu  Pu8  1  0.816502  0.683498  0.770644  1
  Pu  Pu9  1  0.682998  0.182631  0.770787  1
  Si  Si10  1  0.116337  0.614256  0.500000  1
  Si  Si11  1  0.885744  0.383663  0.500000  1
  Si  Si12  1  0.383248  0.116752  0.500000  1
  Si  Si13  1  0.613340  0.886660  0.500000  1
  B  B14  1  0.173408  0.038083  0.000000  1
  B  B15  1  0.826266  0.959777  0.000000  1
  B  B16  1  0.958319  0.172100  0.000000  1
  B  B17  1  0.327900  0.541681  0.000000  1
  B  B18  1  0.040043  0.825760  0.000000  1
  B  B19  1  0.674240  0.459957  0.000000  1
  B  B20  1  0.540223  0.673734  0.000000  1
  B  B21  1  0.461917  0.326592  0.000000  1
  B  B22  1  0.090180  0.589589  0.000000  1
  B  B23  1  0.910411  0.409820  0.000000  1
  B  B24  1  0.409905  0.090095  0.000000  1
  B  B25  1  0.589104  0.910896  0.000000  1
  B  B26  1  0.999561  0.998727  0.161258  1
  B  B27  1  0.999561  0.998727  0.838742  1
  B  B28  1  0.501273  0.500439  0.838742  1
  B  B29  1  0.501273  0.500439  0.161258  1
