# generated using pymatgen
data_Li(PrB8)3
_symmetry_space_group_name_H-M   'P 1'
_cell_length_a   7.17737205
_cell_length_b   7.17737192
_cell_length_c   5.85844600
_cell_angle_alpha   90.00000000
_cell_angle_beta   90.00000000
_cell_angle_gamma   109.45326726
_symmetry_Int_Tables_number   1
_chemical_formula_structural   Li(PrB8)3
_chemical_formula_sum   'Li1 Pr3 B24'
_cell_volume   284.56741550
_cell_formula_units_Z   1
loop_
 _symmetry_equiv_pos_site_id
 _symmetry_equiv_pos_as_xyz
  1  'x, y, z'
loop_
 _atom_site_type_symbol
 _atom_site_label
 _atom_site_symmetry_multiplicity
 _atom_site_fract_x
 _atom_site_fract_y
 _atom_site_fract_z
 _atom_site_occupancy
  Li  Li0  1  0.000000  0.000000  0.000000  1
  Pr  Pr1  1  0.750301  0.249699  0.500000  1
  Pr  Pr2  1  0.500000  0.500000  0.000000  1
  Pr  Pr3  1  0.249699  0.750301  0.500000  1
  B  B4  1  0.175115  0.324161  0.650261  1
  B  B5  1  0.925139  0.575213  0.149276  1
  B  B6  1  0.675839  0.824885  0.650261  1
  B  B7  1  0.424787  0.074861  0.149276  1
  B  B8  1  0.175115  0.324161  0.349739  1
  B  B9  1  0.925139  0.575213  0.850724  1
  B  B10  1  0.675839  0.824885  0.349739  1
  B  B11  1  0.424787  0.074861  0.850724  1
  B  B12  1  0.399495  0.399495  0.500000  1
  B  B13  1  0.148763  0.650551  0.000000  1
  B  B14  1  0.899800  0.899800  0.500000  1
  B  B15  1  0.650551  0.148763  0.000000  1
  B  B16  1  0.324161  0.175115  0.650261  1
  B  B17  1  0.074861  0.424787  0.149276  1
  B  B18  1  0.824885  0.675839  0.650261  1
  B  B19  1  0.575213  0.925139  0.149276  1
  B  B20  1  0.100200  0.100200  0.500000  1
  B  B21  1  0.851237  0.349449  0.000000  1
  B  B22  1  0.600505  0.600505  0.500000  1
  B  B23  1  0.349449  0.851237  0.000000  1
  B  B24  1  0.324161  0.175115  0.349739  1
  B  B25  1  0.074861  0.424787  0.850724  1
  B  B26  1  0.824885  0.675839  0.349739  1
  B  B27  1  0.575213  0.925139  0.850724  1
