# generated using pymatgen
data_Pr2SnPtI2
_symmetry_space_group_name_H-M   'P 1'
_cell_length_a   4.59879300
_cell_length_b   4.59879263
_cell_length_c   11.57740800
_cell_angle_alpha   90.00000000
_cell_angle_beta   90.00000000
_cell_angle_gamma   119.99998110
_symmetry_Int_Tables_number   1
_chemical_formula_structural   Pr2SnPtI2
_chemical_formula_sum   'Pr2 Sn1 Pt1 I2'
_cell_volume   212.04583232
_cell_formula_units_Z   1
loop_
 _symmetry_equiv_pos_site_id
 _symmetry_equiv_pos_as_xyz
  1  'x, y, z'
loop_
 _atom_site_type_symbol
 _atom_site_label
 _atom_site_symmetry_multiplicity
 _atom_site_fract_x
 _atom_site_fract_y
 _atom_site_fract_z
 _atom_site_occupancy
  Pr  Pr0  1  0.000000  0.000000  0.164974  1
  Pr  Pr1  1  0.000000  0.000000  0.830538  1
  Sn  Sn2  1  0.666667  0.333333  0.988263  1
  Pt  Pt3  1  0.333333  0.666667  0.012972  1
  I  I4  1  0.333333  0.666667  0.658631  1
  I  I5  1  0.666667  0.333333  0.344623  1
