# generated using pymatgen
data_Pr3NdRe4(TcB6)2
_symmetry_space_group_name_H-M   'P 1'
_cell_length_a   6.32620108
_cell_length_b   6.32336601
_cell_length_c   7.65922711
_cell_angle_alpha   90.70644887
_cell_angle_beta   90.59214400
_cell_angle_gamma   114.57706750
_symmetry_Int_Tables_number   1
_chemical_formula_structural   Pr3NdRe4(TcB6)2
_chemical_formula_sum   'Pr3 Nd1 Re4 Tc2 B12'
_cell_volume   278.57148886
_cell_formula_units_Z   1
loop_
 _symmetry_equiv_pos_site_id
 _symmetry_equiv_pos_as_xyz
  1  'x, y, z'
loop_
 _atom_site_type_symbol
 _atom_site_label
 _atom_site_symmetry_multiplicity
 _atom_site_fract_x
 _atom_site_fract_y
 _atom_site_fract_z
 _atom_site_occupancy
  Pr  Pr0  1  0.093486  0.441385  0.326595  1
  Pr  Pr1  1  0.558311  0.906487  0.173214  1
  Pr  Pr2  1  0.906500  0.558514  0.673481  1
  Nd  Nd3  1  0.441898  0.094810  0.825732  1
  Re  Re4  1  0.989402  0.804946  0.087957  1
  Re  Re5  1  0.195232  0.010804  0.411967  1
  Re  Re6  1  0.010981  0.194770  0.911547  1
  Re  Re7  1  0.804380  0.989326  0.588452  1
  Tc  Tc8  1  0.583429  0.416446  0.249982  1
  Tc  Tc9  1  0.416595  0.583878  0.750333  1
  B  B10  1  0.242315  0.153451  0.131532  1
  B  B11  1  0.846453  0.758393  0.367869  1
  B  B12  1  0.757755  0.846462  0.867866  1
  B  B13  1  0.153840  0.241261  0.632479  1
  B  B14  1  0.582712  0.156713  0.482791  1
  B  B15  1  0.842852  0.416697  0.017535  1
  B  B16  1  0.416992  0.843500  0.518402  1
  B  B17  1  0.156869  0.582888  0.982078  1
  B  B18  1  0.440622  0.349551  0.532655  1
  B  B19  1  0.650198  0.559073  0.967589  1
  B  B20  1  0.559456  0.650349  0.467834  1
  B  B21  1  0.349723  0.440296  0.032109  1
