# generated using pymatgen
data_KZn2P3O10
_symmetry_space_group_name_H-M   'P 1'
_cell_length_a   7.96656590
_cell_length_b   7.96660860
_cell_length_c   9.56936900
_cell_angle_alpha   69.54894200
_cell_angle_beta   69.54832088
_cell_angle_gamma   71.93777910
_symmetry_Int_Tables_number   1
_chemical_formula_structural   KZn2P3O10
_chemical_formula_sum   'K2 Zn4 P6 O20'
_cell_volume   520.82203810
_cell_formula_units_Z   2
loop_
 _symmetry_equiv_pos_site_id
 _symmetry_equiv_pos_as_xyz
  1  'x, y, z'
loop_
 _atom_site_type_symbol
 _atom_site_label
 _atom_site_symmetry_multiplicity
 _atom_site_fract_x
 _atom_site_fract_y
 _atom_site_fract_z
 _atom_site_occupancy
  K  K0  1  0.697577  0.302425  0.249994  1
  K  K1  1  0.302423  0.697575  0.750006  1
  Zn  Zn2  1  0.686597  0.782574  0.946759  1
  Zn  Zn3  1  0.313403  0.217426  0.053241  1
  Zn  Zn4  1  0.217426  0.313405  0.553235  1
  Zn  Zn5  1  0.782574  0.686595  0.446765  1
  P  P6  1  0.855523  0.476653  0.771755  1
  P  P7  1  0.476653  0.855531  0.271744  1
  P  P8  1  0.144477  0.523347  0.228245  1
  P  P9  1  0.105584  0.894358  0.250036  1
  P  P10  1  0.894416  0.105642  0.749964  1
  P  P11  1  0.523347  0.144469  0.728256  1
  O  O12  1  0.575782  0.722214  0.170602  1
  O  O13  1  0.424218  0.277786  0.829398  1
  O  O14  1  0.277811  0.424222  0.329393  1
  O  O15  1  0.943387  0.519661  0.317607  1
  O  O16  1  0.740650  0.161291  0.659968  1
  O  O17  1  0.078123  0.113914  0.630592  1
  O  O18  1  0.838703  0.259337  0.840045  1
  O  O19  1  0.206046  0.465894  0.078293  1
  O  O20  1  0.722189  0.575778  0.670607  1
  O  O21  1  0.259350  0.838709  0.340032  1
  O  O22  1  0.519666  0.943403  0.817614  1
  O  O23  1  0.886088  0.921863  0.869414  1
  O  O24  1  0.480334  0.056597  0.182386  1
  O  O25  1  0.056613  0.480339  0.682393  1
  O  O26  1  0.534119  0.793957  0.421720  1
  O  O27  1  0.921877  0.886086  0.369408  1
  O  O28  1  0.161297  0.740663  0.159955  1
  O  O29  1  0.465881  0.206043  0.578280  1
  O  O30  1  0.793954  0.534106  0.921707  1
  O  O31  1  0.113912  0.078137  0.130586  1
