# generated using pymatgen
data_Tb3YAl18MoPd5
_symmetry_space_group_name_H-M   'P 1'
_cell_length_a   7.64369912
_cell_length_b   7.64369382
_cell_length_c   9.56532510
_cell_angle_alpha   89.65387610
_cell_angle_beta   89.65840445
_cell_angle_gamma   118.94892594
_symmetry_Int_Tables_number   1
_chemical_formula_structural   Tb3YAl18MoPd5
_chemical_formula_sum   'Tb3 Y1 Al18 Mo1 Pd5'
_cell_volume   489.00118119
_cell_formula_units_Z   1
loop_
 _symmetry_equiv_pos_site_id
 _symmetry_equiv_pos_as_xyz
  1  'x, y, z'
loop_
 _atom_site_type_symbol
 _atom_site_label
 _atom_site_symmetry_multiplicity
 _atom_site_fract_x
 _atom_site_fract_y
 _atom_site_fract_z
 _atom_site_occupancy
  Tb  Tb0  1  0.995142  0.676634  0.247998  1
  Tb  Tb1  1  0.004901  0.323368  0.751987  1
  Tb  Tb2  1  0.676608  0.995115  0.248013  1
  Y  Y3  1  0.323377  0.004881  0.752001  1
  Al  Al4  1  0.133515  0.133503  0.248434  1
  Al  Al5  1  0.866530  0.866520  0.751564  1
  Al  Al6  1  0.002390  0.334168  0.075566  1
  Al  Al7  1  0.997656  0.665885  0.924418  1
  Al  Al8  1  0.998126  0.661544  0.578174  1
  Al  Al9  1  0.338457  0.001872  0.421819  1
  Al  Al10  1  0.001882  0.338471  0.421826  1
  Al  Al11  1  0.661532  0.998112  0.578169  1
  Al  Al12  1  0.665802  0.997619  0.924432  1
  Al  Al13  1  0.334164  0.002381  0.075542  1
  Al  Al14  1  0.333610  0.333600  0.554649  1
  Al  Al15  1  0.666388  0.666387  0.445367  1
  Al  Al16  1  0.667899  0.667895  0.052430  1
  Al  Al17  1  0.332092  0.332057  0.947550  1
  Al  Al18  1  0.342104  0.549861  0.250084  1
  Al  Al19  1  0.657918  0.450138  0.749913  1
  Al  Al20  1  0.549861  0.342092  0.250089  1
  Al  Al21  1  0.450126  0.657893  0.749913  1
  Mo  Mo22  1  0.999972  0.000002  0.000009  1
  Pd  Pd23  1  0.672199  0.327758  0.999977  1
  Pd  Pd24  1  0.327778  0.672244  0.999978  1
  Pd  Pd25  1  0.327949  0.672090  0.500031  1
  Pd  Pd26  1  0.671996  0.327904  0.500037  1
  Pd  Pd27  1  0.000026  0.000004  0.500030  1
