# generated using pymatgen
data_TcAg7(SO4)6
_symmetry_space_group_name_H-M   'P 1'
_cell_length_a   8.75430903
_cell_length_b   8.75430963
_cell_length_c   8.75430922
_cell_angle_alpha   108.23199485
_cell_angle_beta   108.23200325
_cell_angle_gamma   108.23201357
_symmetry_Int_Tables_number   1
_chemical_formula_structural   TcAg7(SO4)6
_chemical_formula_sum   'Tc1 Ag7 S6 O24'
_cell_volume   538.86232978
_cell_formula_units_Z   1
loop_
 _symmetry_equiv_pos_site_id
 _symmetry_equiv_pos_as_xyz
  1  'x, y, z'
loop_
 _atom_site_type_symbol
 _atom_site_label
 _atom_site_symmetry_multiplicity
 _atom_site_fract_x
 _atom_site_fract_y
 _atom_site_fract_z
 _atom_site_occupancy
  Tc  Tc0  1  0.000000  0.000000  0.000000  1
  Ag  Ag1  1  0.500000  0.500000  0.500000  1
  Ag  Ag2  1  0.832880  0.337166  0.677241  1
  Ag  Ag3  1  0.337166  0.677241  0.832880  1
  Ag  Ag4  1  0.677241  0.832880  0.337166  1
  Ag  Ag5  1  0.167120  0.662834  0.322759  1
  Ag  Ag6  1  0.662834  0.322759  0.167120  1
  Ag  Ag7  1  0.322759  0.167120  0.662834  1
  S  S8  1  0.969133  0.748066  0.607320  1
  S  S9  1  0.748066  0.607320  0.969133  1
  S  S10  1  0.607320  0.969133  0.748066  1
  S  S11  1  0.030867  0.251934  0.392680  1
  S  S12  1  0.251934  0.392680  0.030867  1
  S  S13  1  0.392680  0.030867  0.251934  1
  O  O14  1  0.456895  0.906278  0.169530  1
  O  O15  1  0.906278  0.169530  0.456895  1
  O  O16  1  0.169530  0.456895  0.906278  1
  O  O17  1  0.543105  0.093722  0.830470  1
  O  O18  1  0.093722  0.830470  0.543105  1
  O  O19  1  0.830470  0.543105  0.093722  1
  O  O20  1  0.312450  0.978385  0.363380  1
  O  O21  1  0.978385  0.363380  0.312450  1
  O  O22  1  0.363380  0.312450  0.978385  1
  O  O23  1  0.687550  0.021615  0.636620  1
  O  O24  1  0.021615  0.636620  0.687550  1
  O  O25  1  0.636620  0.687550  0.021615  1
  O  O26  1  0.750881  0.974515  0.911079  1
  O  O27  1  0.974515  0.911079  0.750881  1
  O  O28  1  0.645744  0.462721  0.777944  1
  O  O29  1  0.777944  0.645744  0.462721  1
  O  O30  1  0.462721  0.777944  0.645744  1
  O  O31  1  0.354256  0.537279  0.222056  1
  O  O32  1  0.222056  0.354256  0.537279  1
  O  O33  1  0.537279  0.222056  0.354256  1
  O  O34  1  0.088921  0.249119  0.025485  1
  O  O35  1  0.025485  0.088921  0.249119  1
  O  O36  1  0.249119  0.025485  0.088921  1
  O  O37  1  0.911079  0.750881  0.974515  1
