# generated using pymatgen
data_Ce2PtRh3Au2
_symmetry_space_group_name_H-M   'P 1'
_cell_length_a   4.24763500
_cell_length_b   4.33814900
_cell_length_c   7.89162300
_cell_angle_alpha   90.00000000
_cell_angle_beta   90.00000000
_cell_angle_gamma   90.00000000
_symmetry_Int_Tables_number   1
_chemical_formula_structural   Ce2PtRh3Au2
_chemical_formula_sum   'Ce2 Pt1 Rh3 Au2'
_cell_volume   145.41793895
_cell_formula_units_Z   1
loop_
 _symmetry_equiv_pos_site_id
 _symmetry_equiv_pos_as_xyz
  1  'x, y, z'
loop_
 _atom_site_type_symbol
 _atom_site_label
 _atom_site_symmetry_multiplicity
 _atom_site_fract_x
 _atom_site_fract_y
 _atom_site_fract_z
 _atom_site_occupancy
  Ce  Ce0  1  0.000000  0.000000  0.242692  1
  Ce  Ce1  1  0.000000  0.000000  0.757308  1
  Pt  Pt2  1  0.000000  0.500000  0.500000  1
  Rh  Rh3  1  0.000000  0.500000  0.000000  1
  Rh  Rh4  1  0.500000  0.000000  0.500000  1
  Rh  Rh5  1  0.500000  0.000000  0.000000  1
  Au  Au6  1  0.500000  0.500000  0.248319  1
  Au  Au7  1  0.500000  0.500000  0.751681  1
