# generated using pymatgen
data_ErTmNb2(Fe4P3)2
_symmetry_space_group_name_H-M   'P 1'
_cell_length_a   3.67936700
_cell_length_b   10.44785300
_cell_length_c   12.32883400
_cell_angle_alpha   90.00000000
_cell_angle_beta   90.00000000
_cell_angle_gamma   90.00000000
_symmetry_Int_Tables_number   1
_chemical_formula_structural   ErTmNb2(Fe4P3)2
_chemical_formula_sum   'Er2 Tm2 Nb4 Fe16 P12'
_cell_volume   473.93869405
_cell_formula_units_Z   2
loop_
 _symmetry_equiv_pos_site_id
 _symmetry_equiv_pos_as_xyz
  1  'x, y, z'
loop_
 _atom_site_type_symbol
 _atom_site_label
 _atom_site_symmetry_multiplicity
 _atom_site_fract_x
 _atom_site_fract_y
 _atom_site_fract_z
 _atom_site_occupancy
  Er  Er0  1  0.750000  0.416737  0.286742  1
  Er  Er1  1  0.750000  0.083263  0.786742  1
  Tm  Tm2  1  0.250000  0.585723  0.713447  1
  Tm  Tm3  1  0.250000  0.914277  0.213447  1
  Nb  Nb4  1  0.250000  0.705319  0.992465  1
  Nb  Nb5  1  0.250000  0.794681  0.492465  1
  Nb  Nb6  1  0.750000  0.293889  0.008484  1
  Nb  Nb7  1  0.750000  0.206111  0.508484  1
  Fe  Fe8  1  0.250000  0.418632  0.492524  1
  Fe  Fe9  1  0.250000  0.081369  0.992524  1
  Fe  Fe10  1  0.750000  0.583365  0.508076  1
  Fe  Fe11  1  0.750000  0.916635  0.008076  1
  Fe  Fe12  1  0.250000  0.214626  0.173040  1
  Fe  Fe13  1  0.250000  0.285374  0.673040  1
  Fe  Fe14  1  0.750000  0.783520  0.827903  1
  Fe  Fe15  1  0.750000  0.716480  0.327903  1
  Fe  Fe16  1  0.250000  0.880700  0.698534  1
  Fe  Fe17  1  0.250000  0.619300  0.198534  1
  Fe  Fe18  1  0.750000  0.119924  0.300552  1
  Fe  Fe19  1  0.750000  0.380076  0.800552  1
  Fe  Fe20  1  0.250000  0.463886  0.932604  1
  Fe  Fe21  1  0.250000  0.036114  0.432604  1
  Fe  Fe22  1  0.750000  0.535296  0.065921  1
  Fe  Fe23  1  0.750000  0.964704  0.565921  1
  P  P24  1  0.250000  0.426227  0.112704  1
  P  P25  1  0.250000  0.073773  0.612704  1
  P  P26  1  0.750000  0.575070  0.886426  1
  P  P27  1  0.750000  0.924930  0.386426  1
  P  P28  1  0.250000  0.271607  0.856460  1
  P  P29  1  0.250000  0.228393  0.356460  1
  P  P30  1  0.750000  0.726613  0.145205  1
  P  P31  1  0.750000  0.773387  0.645205  1
  P  P32  1  0.250000  0.595860  0.376298  1
  P  P33  1  0.250000  0.904140  0.876298  1
  P  P34  1  0.750000  0.407667  0.622616  1
  P  P35  1  0.750000  0.092333  0.122616  1
