# generated using pymatgen
data_LuTh3(Al3Ir)6
_symmetry_space_group_name_H-M   'P 1'
_cell_length_a   7.63835027
_cell_length_b   7.64873319
_cell_length_c   9.47883600
_cell_angle_alpha   90.00000000
_cell_angle_beta   90.00000000
_cell_angle_gamma   119.53437170
_symmetry_Int_Tables_number   1
_chemical_formula_structural   LuTh3(Al3Ir)6
_chemical_formula_sum   'Lu1 Th3 Al18 Ir6'
_cell_volume   481.82947202
_cell_formula_units_Z   1
loop_
 _symmetry_equiv_pos_site_id
 _symmetry_equiv_pos_as_xyz
  1  'x, y, z'
loop_
 _atom_site_type_symbol
 _atom_site_label
 _atom_site_symmetry_multiplicity
 _atom_site_fract_x
 _atom_site_fract_y
 _atom_site_fract_z
 _atom_site_occupancy
  Lu  Lu0  1  0.328235  0.005735  0.750000  1
  Th  Th1  1  0.995313  0.671117  0.250000  1
  Th  Th2  1  0.003505  0.329205  0.750000  1
  Th  Th3  1  0.669867  0.994424  0.250000  1
  Al  Al4  1  0.135589  0.132614  0.250000  1
  Al  Al5  1  0.871027  0.869602  0.750000  1
  Al  Al6  1  0.006080  0.335578  0.074482  1
  Al  Al7  1  0.001148  0.670373  0.921603  1
  Al  Al8  1  0.001148  0.670373  0.578397  1
  Al  Al9  1  0.335122  0.004489  0.432432  1
  Al  Al10  1  0.006080  0.335578  0.425518  1
  Al  Al11  1  0.658752  0.995446  0.578330  1
  Al  Al12  1  0.658752  0.995446  0.921670  1
  Al  Al13  1  0.335122  0.004489  0.067568  1
  Al  Al14  1  0.336277  0.332161  0.554653  1
  Al  Al15  1  0.663153  0.663018  0.454798  1
  Al  Al16  1  0.663153  0.663018  0.045202  1
  Al  Al17  1  0.336277  0.332161  0.945347  1
  Al  Al18  1  0.341670  0.543694  0.250000  1
  Al  Al19  1  0.656178  0.449555  0.750000  1
  Al  Al20  1  0.543680  0.338349  0.250000  1
  Al  Al21  1  0.453017  0.662658  0.750000  1
  Ir  Ir22  1  0.673982  0.328201  0.999759  1
  Ir  Ir23  1  0.327214  0.671831  0.000025  1
  Ir  Ir24  1  0.327214  0.671831  0.499975  1
  Ir  Ir25  1  0.673982  0.328201  0.500241  1
  Ir  Ir26  1  0.999232  0.000428  0.999869  1
  Ir  Ir27  1  0.999232  0.000428  0.500131  1
