# generated using pymatgen
data_Eu2Si5Pd3
_symmetry_space_group_name_H-M   'P 1'
_cell_length_a   8.37468430
_cell_length_b   8.37468398
_cell_length_c   8.37468381
_cell_angle_alpha   138.72809289
_cell_angle_beta   105.36917862
_cell_angle_gamma   89.04740600
_symmetry_Int_Tables_number   1
_chemical_formula_structural   Eu2Si5Pd3
_chemical_formula_sum   'Eu4 Si10 Pd6'
_cell_volume   357.86555903
_cell_formula_units_Z   2
loop_
 _symmetry_equiv_pos_site_id
 _symmetry_equiv_pos_as_xyz
  1  'x, y, z'
loop_
 _atom_site_type_symbol
 _atom_site_label
 _atom_site_symmetry_multiplicity
 _atom_site_fract_x
 _atom_site_fract_y
 _atom_site_fract_z
 _atom_site_occupancy
  Eu  Eu0  1  0.637210  0.871438  0.765772  1
  Eu  Eu1  1  0.362790  0.128562  0.234228  1
  Eu  Eu2  1  0.105666  0.371438  0.734228  1
  Eu  Eu3  1  0.894334  0.628562  0.265772  1
  Si  Si4  1  0.275802  0.025802  0.750000  1
  Si  Si5  1  0.724198  0.974198  0.250000  1
  Si  Si6  1  0.724198  0.474198  0.750000  1
  Si  Si7  1  0.275802  0.525802  0.250000  1
  Si  Si8  1  0.461956  0.612616  0.849340  1
  Si  Si9  1  0.538044  0.387384  0.150660  1
  Si  Si10  1  0.763276  0.112616  0.650660  1
  Si  Si11  1  0.236724  0.887384  0.349340  1
  Si  Si12  1  0.000000  0.750000  0.750000  1
  Si  Si13  1  0.000000  0.250000  0.250000  1
  Pd  Pd14  1  0.247497  0.637762  0.609736  1
  Pd  Pd15  1  0.752503  0.362238  0.390264  1
  Pd  Pd16  1  0.028026  0.137762  0.890264  1
  Pd  Pd17  1  0.971974  0.862238  0.109736  1
  Pd  Pd18  1  0.500000  0.750000  0.250000  1
  Pd  Pd19  1  0.500000  0.250000  0.750000  1
