# generated using pymatgen
data_Ce4TlNi4Sn
_symmetry_space_group_name_H-M   'P 1'
_cell_length_a   7.54119500
_cell_length_b   7.54119500
_cell_length_c   3.62626600
_cell_angle_alpha   90.00000000
_cell_angle_beta   90.00000000
_cell_angle_gamma   90.00000000
_symmetry_Int_Tables_number   1
_chemical_formula_structural   Ce4TlNi4Sn
_chemical_formula_sum   'Ce4 Tl1 Ni4 Sn1'
_cell_volume   206.22437679
_cell_formula_units_Z   1
loop_
 _symmetry_equiv_pos_site_id
 _symmetry_equiv_pos_as_xyz
  1  'x, y, z'
loop_
 _atom_site_type_symbol
 _atom_site_label
 _atom_site_symmetry_multiplicity
 _atom_site_fract_x
 _atom_site_fract_y
 _atom_site_fract_z
 _atom_site_occupancy
  Ce  Ce0  1  0.329390  0.825814  0.500000  1
  Ce  Ce1  1  0.825814  0.670610  0.500000  1
  Ce  Ce2  1  0.174186  0.329390  0.500000  1
  Ce  Ce3  1  0.670610  0.174186  0.500000  1
  Tl  Tl4  1  0.000000  0.000000  0.000000  1
  Ni  Ni5  1  0.128144  0.621333  0.000000  1
  Ni  Ni6  1  0.621333  0.871856  0.000000  1
  Ni  Ni7  1  0.871856  0.378667  0.000000  1
  Ni  Ni8  1  0.378667  0.128144  0.000000  1
  Sn  Sn9  1  0.500000  0.500000  0.000000  1
