# generated using pymatgen
data_Eu3Ga4NiRu3
_symmetry_space_group_name_H-M   'P 1'
_cell_length_a   6.69965609
_cell_length_b   6.58835284
_cell_length_c   6.69965533
_cell_angle_alpha   109.13502800
_cell_angle_beta   109.80529965
_cell_angle_gamma   109.13503361
_symmetry_Int_Tables_number   1
_chemical_formula_structural   Eu3Ga4NiRu3
_chemical_formula_sum   'Eu3 Ga4 Ni1 Ru3'
_cell_volume   228.58360539
_cell_formula_units_Z   1
loop_
 _symmetry_equiv_pos_site_id
 _symmetry_equiv_pos_as_xyz
  1  'x, y, z'
loop_
 _atom_site_type_symbol
 _atom_site_label
 _atom_site_symmetry_multiplicity
 _atom_site_fract_x
 _atom_site_fract_y
 _atom_site_fract_z
 _atom_site_occupancy
  Eu  Eu0  1  0.502827  0.004854  0.502827  1
  Eu  Eu1  1  0.000000  0.502026  0.497173  1
  Eu  Eu2  1  0.497173  0.502026  0.000000  1
  Ga  Ga3  1  0.000000  0.003670  0.612749  1
  Ga  Ga4  1  0.387251  0.390921  0.387251  1
  Ga  Ga5  1  0.000000  0.599953  0.000000  1
  Ga  Ga6  1  0.612749  0.003670  0.000000  1
  Ni  Ni7  1  0.000000  0.240772  0.000000  1
  Ru  Ru8  1  0.000000  0.998529  0.243478  1
  Ru  Ru9  1  0.756522  0.755051  0.756522  1
  Ru  Ru10  1  0.243478  0.998529  0.000000  1
