# generated using pymatgen
data_Ac2Y3In4
_symmetry_space_group_name_H-M   'P 1'
_cell_length_a   8.31335100
_cell_length_b   8.49517400
_cell_length_c   16.06871000
_cell_angle_alpha   90.00000000
_cell_angle_beta   90.00000000
_cell_angle_gamma   90.00000000
_symmetry_Int_Tables_number   1
_chemical_formula_structural   Ac2Y3In4
_chemical_formula_sum   'Ac8 Y12 In16'
_cell_volume   1134.82634358
_cell_formula_units_Z   4
loop_
 _symmetry_equiv_pos_site_id
 _symmetry_equiv_pos_as_xyz
  1  'x, y, z'
loop_
 _atom_site_type_symbol
 _atom_site_label
 _atom_site_symmetry_multiplicity
 _atom_site_fract_x
 _atom_site_fract_y
 _atom_site_fract_z
 _atom_site_occupancy
  Ac  Ac0  1  0.497502  0.176803  0.592044  1
  Ac  Ac1  1  0.997502  0.323197  0.907956  1
  Ac  Ac2  1  0.502498  0.823197  0.092044  1
  Ac  Ac3  1  0.002498  0.676803  0.407956  1
  Ac  Ac4  1  0.502498  0.823197  0.407956  1
  Ac  Ac5  1  0.002498  0.676803  0.092044  1
  Ac  Ac6  1  0.497502  0.176803  0.907956  1
  Ac  Ac7  1  0.997502  0.323197  0.592044  1
  Y  Y8  1  0.335273  0.665296  0.625327  1
  Y  Y9  1  0.835273  0.834704  0.874673  1
  Y  Y10  1  0.664727  0.334704  0.125327  1
  Y  Y11  1  0.164727  0.165296  0.374673  1
  Y  Y12  1  0.664727  0.334704  0.374673  1
  Y  Y13  1  0.164727  0.165296  0.125327  1
  Y  Y14  1  0.335273  0.665296  0.874673  1
  Y  Y15  1  0.835273  0.834704  0.625327  1
  Y  Y16  1  0.670241  0.501483  0.750000  1
  Y  Y17  1  0.170241  0.998517  0.750000  1
  Y  Y18  1  0.329759  0.498517  0.250000  1
  Y  Y19  1  0.829759  0.001483  0.250000  1
  In  In20  1  0.834776  0.039724  0.457808  1
  In  In21  1  0.334776  0.460276  0.042192  1
  In  In22  1  0.165224  0.960276  0.957808  1
  In  In23  1  0.665224  0.539724  0.542192  1
  In  In24  1  0.165224  0.960276  0.542192  1
  In  In25  1  0.665224  0.539724  0.957808  1
  In  In26  1  0.834776  0.039724  0.042192  1
  In  In27  1  0.334776  0.460276  0.457808  1
  In  In28  1  0.296191  0.370090  0.750000  1
  In  In29  1  0.796191  0.129910  0.750000  1
  In  In30  1  0.703809  0.629910  0.250000  1
  In  In31  1  0.203809  0.870090  0.250000  1
  In  In32  1  0.535366  0.879714  0.750000  1
  In  In33  1  0.035366  0.620286  0.750000  1
  In  In34  1  0.464634  0.120286  0.250000  1
  In  In35  1  0.964634  0.379714  0.250000  1
