# generated using pymatgen
data_Nd3Gd5Te3PtO24
_symmetry_space_group_name_H-M   'P 1'
_cell_length_a   5.39023514
_cell_length_b   9.32443680
_cell_length_c   10.20509181
_cell_angle_alpha   89.77923196
_cell_angle_beta   90.05055151
_cell_angle_gamma   89.85170892
_symmetry_Int_Tables_number   1
_chemical_formula_structural   Nd3Gd5Te3PtO24
_chemical_formula_sum   'Nd3 Gd5 Te3 Pt1 O24'
_cell_volume   512.91143947
_cell_formula_units_Z   1
loop_
 _symmetry_equiv_pos_site_id
 _symmetry_equiv_pos_as_xyz
  1  'x, y, z'
loop_
 _atom_site_type_symbol
 _atom_site_label
 _atom_site_symmetry_multiplicity
 _atom_site_fract_x
 _atom_site_fract_y
 _atom_site_fract_z
 _atom_site_occupancy
  Nd  Nd0  1  0.480834  0.901191  0.033075  1
  Nd  Nd1  1  0.978118  0.606321  0.962079  1
  Nd  Nd2  1  0.524479  0.391673  0.461987  1
  Gd  Gd3  1  0.019853  0.098044  0.540497  1
  Gd  Gd4  1  0.464530  0.781492  0.633607  1
  Gd  Gd5  1  0.963680  0.715121  0.363162  1
  Gd  Gd6  1  0.539665  0.284772  0.867380  1
  Gd  Gd7  1  0.037267  0.215369  0.134916  1
  Te  Te8  1  0.459204  0.502847  0.146918  1
  Te  Te9  1  0.042407  0.495122  0.646202  1
  Te  Te10  1  0.538835  0.002694  0.354043  1
  Pt  Pt11  1  0.958728  0.000548  0.853045  1
  O  O12  1  0.243642  0.586862  0.506980  1
  O  O13  1  0.745360  0.911958  0.493774  1
  O  O14  1  0.752840  0.097109  0.992105  1
  O  O15  1  0.256426  0.410485  0.008421  1
  O  O16  1  0.272536  0.882693  0.431187  1
  O  O17  1  0.770474  0.610525  0.567300  1
  O  O18  1  0.730781  0.387782  0.069520  1
  O  O19  1  0.232814  0.117521  0.931640  1
  O  O20  1  0.183883  0.635592  0.181865  1
  O  O21  1  0.684665  0.862985  0.814590  1
  O  O22  1  0.811099  0.139640  0.325651  1
  O  O23  1  0.319835  0.365062  0.683317  1
  O  O24  1  0.316324  0.357813  0.258500  1
  O  O25  1  0.810503  0.143397  0.734929  1
  O  O26  1  0.688214  0.861789  0.240621  1
  O  O27  1  0.181547  0.643119  0.756933  1
  O  O28  1  0.330949  0.052818  0.207378  1
  O  O29  1  0.836156  0.444809  0.793266  1
  O  O30  1  0.667717  0.553052  0.292827  1
  O  O31  1  0.173909  0.946312  0.705778  1
  O  O32  1  0.413558  0.146346  0.475430  1
  O  O33  1  0.934859  0.344651  0.527303  1
  O  O34  1  0.566438  0.650130  0.023561  1
  O  O35  1  0.067876  0.852354  0.980211  1
