# generated using pymatgen
data_Tb4Sb4Rh7Pb2
_symmetry_space_group_name_H-M   'P 1'
_cell_length_a   7.68608215
_cell_length_b   7.68608244
_cell_length_c   7.68227052
_cell_angle_alpha   109.28731741
_cell_angle_beta   109.28732232
_cell_angle_gamma   109.85960784
_symmetry_Int_Tables_number   1
_chemical_formula_structural   Tb4Sb4Rh7Pb2
_chemical_formula_sum   'Tb4 Sb4 Rh7 Pb2'
_cell_volume   349.26617958
_cell_formula_units_Z   1
loop_
 _symmetry_equiv_pos_site_id
 _symmetry_equiv_pos_as_xyz
  1  'x, y, z'
loop_
 _atom_site_type_symbol
 _atom_site_label
 _atom_site_symmetry_multiplicity
 _atom_site_fract_x
 _atom_site_fract_y
 _atom_site_fract_z
 _atom_site_occupancy
  Tb  Tb0  1  0.480696  0.999642  0.000000  1
  Tb  Tb1  1  0.000358  0.519304  0.000000  1
  Tb  Tb2  1  0.999460  0.000540  0.500000  1
  Tb  Tb3  1  0.499460  0.500540  0.500000  1
  Sb  Sb4  1  0.679410  0.687663  0.000000  1
  Sb  Sb5  1  0.995640  0.670170  0.665810  1
  Sb  Sb6  1  0.329830  0.004360  0.334190  1
  Sb  Sb7  1  0.312337  0.320590  0.000000  1
  Rh  Rh8  1  0.025643  0.974357  0.000000  1
  Rh  Rh9  1  0.498311  0.750327  0.248638  1
  Rh  Rh10  1  0.742997  0.501466  0.244462  1
  Rh  Rh11  1  0.248440  0.751560  0.500000  1
  Rh  Rh12  1  0.249673  0.501689  0.751362  1
  Rh  Rh13  1  0.498534  0.257003  0.755538  1
  Rh  Rh14  1  0.748440  0.251560  0.500000  1
  Pb  Pb15  1  0.994490  0.303717  0.298208  1
  Pb  Pb16  1  0.696283  0.005510  0.701792  1
