# generated using pymatgen
data_Dy10In8Ir3Rh
_symmetry_space_group_name_H-M   'P 1'
_cell_length_a   3.65493000
_cell_length_b   8.02684473
_cell_length_c   18.28565820
_cell_angle_alpha   90.07603369
_cell_angle_beta   90.00000000
_cell_angle_gamma   90.00000000
_symmetry_Int_Tables_number   1
_chemical_formula_structural   Dy10In8Ir3Rh
_chemical_formula_sum   'Dy10 In8 Ir3 Rh1'
_cell_volume   536.45604222
_cell_formula_units_Z   1
loop_
 _symmetry_equiv_pos_site_id
 _symmetry_equiv_pos_as_xyz
  1  'x, y, z'
loop_
 _atom_site_type_symbol
 _atom_site_label
 _atom_site_symmetry_multiplicity
 _atom_site_fract_x
 _atom_site_fract_y
 _atom_site_fract_z
 _atom_site_occupancy
  Dy  Dy0  1  0.000000  0.499585  0.500448  1
  Dy  Dy1  1  0.000000  0.999516  0.999610  1
  Dy  Dy2  1  0.000000  0.740270  0.277971  1
  Dy  Dy3  1  0.000000  0.257000  0.722148  1
  Dy  Dy4  1  0.000000  0.756855  0.777759  1
  Dy  Dy5  1  0.000000  0.247473  0.221365  1
  Dy  Dy6  1  0.000000  0.615276  0.088335  1
  Dy  Dy7  1  0.000000  0.384936  0.910637  1
  Dy  Dy8  1  0.000000  0.884511  0.589400  1
  Dy  Dy9  1  0.000000  0.114087  0.411134  1
  In  In10  1  0.500000  0.707880  0.931603  1
  In  In11  1  0.500000  0.291472  0.067808  1
  In  In12  1  0.500000  0.791453  0.431624  1
  In  In13  1  0.500000  0.207647  0.568048  1
  In  In14  1  0.500000  0.572091  0.649454  1
  In  In15  1  0.500000  0.425567  0.350833  1
  In  In16  1  0.500000  0.927552  0.150620  1
  In  In17  1  0.500000  0.071979  0.850663  1
  Ir  Ir18  1  0.500000  0.519662  0.195341  1
  Ir  Ir19  1  0.500000  0.481998  0.804239  1
  Ir  Ir20  1  0.500000  0.982525  0.695747  1
  Rh  Rh21  1  0.500000  0.020665  0.305208  1
