# generated using pymatgen
data_ErZr2PaPt12
_symmetry_space_group_name_H-M   'P 1'
_cell_length_a   5.73918200
_cell_length_b   5.73918309
_cell_length_c   9.37047300
_cell_angle_alpha   90.00232610
_cell_angle_beta   89.99768388
_cell_angle_gamma   119.99904855
_symmetry_Int_Tables_number   1
_chemical_formula_structural   ErZr2PaPt12
_chemical_formula_sum   'Er1 Zr2 Pa1 Pt12'
_cell_volume   267.29841627
_cell_formula_units_Z   1
loop_
 _symmetry_equiv_pos_site_id
 _symmetry_equiv_pos_as_xyz
  1  'x, y, z'
loop_
 _atom_site_type_symbol
 _atom_site_label
 _atom_site_symmetry_multiplicity
 _atom_site_fract_x
 _atom_site_fract_y
 _atom_site_fract_z
 _atom_site_occupancy
  Er  Er0  1  0.333334  0.666666  0.247789  1
  Zr  Zr1  1  0.999998  0.000002  0.000719  1
  Zr  Zr2  1  0.666695  0.333305  0.753726  1
  Pa  Pa3  1  0.999989  0.000011  0.498554  1
  Pt  Pt4  1  0.501285  0.498715  0.503335  1
  Pt  Pt5  1  0.501281  0.002576  0.503344  1
  Pt  Pt6  1  0.997424  0.498719  0.503344  1
  Pt  Pt7  1  0.501399  0.498601  0.996757  1
  Pt  Pt8  1  0.501399  0.002808  0.996758  1
  Pt  Pt9  1  0.997192  0.498601  0.996758  1
  Pt  Pt10  1  0.829762  0.659518  0.247714  1
  Pt  Pt11  1  0.340482  0.170238  0.247714  1
  Pt  Pt12  1  0.829759  0.170241  0.247718  1
  Pt  Pt13  1  0.169655  0.339309  0.751922  1
  Pt  Pt14  1  0.660691  0.830345  0.751922  1
  Pt  Pt15  1  0.169654  0.830346  0.751924  1
