# generated using pymatgen
data_Sm8Ga(Si4Rh)3
_symmetry_space_group_name_H-M   'P 1'
_cell_length_a   8.20606000
_cell_length_b   8.20604774
_cell_length_c   8.33099100
_cell_angle_alpha   90.00000092
_cell_angle_beta   89.99997228
_cell_angle_gamma   119.99999731
_symmetry_Int_Tables_number   1
_chemical_formula_structural   Sm8Ga(Si4Rh)3
_chemical_formula_sum   'Sm8 Ga1 Si12 Rh3'
_cell_volume   485.84309645
_cell_formula_units_Z   1
loop_
 _symmetry_equiv_pos_site_id
 _symmetry_equiv_pos_as_xyz
  1  'x, y, z'
loop_
 _atom_site_type_symbol
 _atom_site_label
 _atom_site_symmetry_multiplicity
 _atom_site_fract_x
 _atom_site_fract_y
 _atom_site_fract_z
 _atom_site_occupancy
  Sm  Sm0  1  0.000001  0.999999  0.747757  1
  Sm  Sm1  1  0.000000  0.999999  0.252515  1
  Sm  Sm2  1  0.497927  0.502072  0.746030  1
  Sm  Sm3  1  0.497927  0.995854  0.746028  1
  Sm  Sm4  1  0.004145  0.502074  0.746027  1
  Sm  Sm5  1  0.499809  0.500190  0.253840  1
  Sm  Sm6  1  0.000382  0.500191  0.253843  1
  Sm  Sm7  1  0.499810  0.999619  0.253841  1
  Ga  Ga8  1  0.666668  0.333334  0.995232  1
  Si  Si9  1  0.838435  0.161567  0.000181  1
  Si  Si10  1  0.838434  0.676867  0.000182  1
  Si  Si11  1  0.323133  0.161567  0.000181  1
  Si  Si12  1  0.832526  0.167473  0.501300  1
  Si  Si13  1  0.832524  0.665049  0.501300  1
  Si  Si14  1  0.334949  0.167474  0.501300  1
  Si  Si15  1  0.167097  0.832904  0.498748  1
  Si  Si16  1  0.665809  0.832904  0.498749  1
  Si  Si17  1  0.167095  0.334190  0.498749  1
  Si  Si18  1  0.169333  0.830667  0.000624  1
  Si  Si19  1  0.661334  0.830667  0.000624  1
  Si  Si20  1  0.169333  0.338667  0.000624  1
  Rh  Rh21  1  0.666666  0.333331  0.502791  1
  Rh  Rh22  1  0.333334  0.666665  0.497466  1
  Rh  Rh23  1  0.333336  0.666672  0.002072  1
