# generated using pymatgen
data_TbSmDy4(SbO7)2
_symmetry_space_group_name_H-M   'P 1'
_cell_length_a   6.49121505
_cell_length_b   6.49121559
_cell_length_c   7.55807812
_cell_angle_alpha   89.98347814
_cell_angle_beta   90.01652586
_cell_angle_gamma   109.33687095
_symmetry_Int_Tables_number   1
_chemical_formula_structural   TbSmDy4(SbO7)2
_chemical_formula_sum   'Tb1 Sm1 Dy4 Sb2 O14'
_cell_volume   300.50092877
_cell_formula_units_Z   1
loop_
 _symmetry_equiv_pos_site_id
 _symmetry_equiv_pos_as_xyz
  1  'x, y, z'
loop_
 _atom_site_type_symbol
 _atom_site_label
 _atom_site_symmetry_multiplicity
 _atom_site_fract_x
 _atom_site_fract_y
 _atom_site_fract_z
 _atom_site_occupancy
  Tb  Tb0  1  0.500000  0.500000  0.000000  1
  Sm  Sm1  1  0.500000  0.500000  0.500000  1
  Dy  Dy2  1  0.531577  0.000472  0.750899  1
  Dy  Dy3  1  0.000472  0.531577  0.249101  1
  Dy  Dy4  1  0.468423  0.999528  0.249101  1
  Dy  Dy5  1  0.999528  0.468423  0.750899  1
  Sb  Sb6  1  0.000000  0.000000  0.500000  1
  Sb  Sb7  1  0.000000  0.000000  0.000000  1
  O  O8  1  0.678350  0.929449  0.470128  1
  O  O9  1  0.929449  0.678350  0.529872  1
  O  O10  1  0.678361  0.928078  0.029757  1
  O  O11  1  0.928078  0.678361  0.970243  1
  O  O12  1  0.321650  0.070551  0.529872  1
  O  O13  1  0.070551  0.321650  0.470128  1
  O  O14  1  0.321639  0.071922  0.970243  1
  O  O15  1  0.071922  0.321639  0.029757  1
  O  O16  1  0.930207  0.069793  0.749922  1
  O  O17  1  0.069793  0.930207  0.250078  1
  O  O18  1  0.367689  0.632311  0.753780  1
  O  O19  1  0.632311  0.367689  0.246220  1
  O  O20  1  0.638827  0.361173  0.753239  1
  O  O21  1  0.361173  0.638827  0.246761  1
