# generated using pymatgen
data_Hf6MnFe15Si6Sb
_symmetry_space_group_name_H-M   'P 1'
_cell_length_a   8.13041626
_cell_length_b   8.13041670
_cell_length_c   8.13041669
_cell_angle_alpha   60.13676585
_cell_angle_beta   60.13676053
_cell_angle_gamma   60.13676583
_symmetry_Int_Tables_number   1
_chemical_formula_structural   Hf6MnFe15Si6Sb
_chemical_formula_sum   'Hf6 Mn1 Fe15 Si6 Sb1'
_cell_volume   381.21220718
_cell_formula_units_Z   1
loop_
 _symmetry_equiv_pos_site_id
 _symmetry_equiv_pos_as_xyz
  1  'x, y, z'
loop_
 _atom_site_type_symbol
 _atom_site_label
 _atom_site_symmetry_multiplicity
 _atom_site_fract_x
 _atom_site_fract_y
 _atom_site_fract_z
 _atom_site_occupancy
  Hf  Hf0  1  0.297520  0.704594  0.704594  1
  Hf  Hf1  1  0.704594  0.704594  0.297520  1
  Hf  Hf2  1  0.293109  0.293109  0.706078  1
  Hf  Hf3  1  0.706078  0.293109  0.293109  1
  Hf  Hf4  1  0.704594  0.297520  0.704594  1
  Hf  Hf5  1  0.293109  0.706078  0.293109  1
  Mn  Mn6  1  0.873500  0.873500  0.873500  1
  Fe  Fe7  1  0.029071  0.324316  0.324316  1
  Fe  Fe8  1  0.123358  0.123358  0.624550  1
  Fe  Fe9  1  0.324316  0.029071  0.324316  1
  Fe  Fe10  1  0.324621  0.324621  0.324621  1
  Fe  Fe11  1  0.676475  0.676475  0.972747  1
  Fe  Fe12  1  0.874184  0.874184  0.377453  1
  Fe  Fe13  1  0.676018  0.676018  0.676018  1
  Fe  Fe14  1  0.676475  0.972747  0.676475  1
  Fe  Fe15  1  0.324316  0.324316  0.029071  1
  Fe  Fe16  1  0.874184  0.377453  0.874184  1
  Fe  Fe17  1  0.624550  0.123358  0.123358  1
  Fe  Fe18  1  0.123358  0.624550  0.123358  1
  Fe  Fe19  1  0.126271  0.126271  0.126271  1
  Fe  Fe20  1  0.972747  0.676475  0.676475  1
  Fe  Fe21  1  0.377453  0.874184  0.874184  1
  Si  Si22  1  0.001085  0.001085  0.495982  1
  Si  Si23  1  0.001085  0.495982  0.001085  1
  Si  Si24  1  0.500159  0.999939  0.500159  1
  Si  Si25  1  0.999939  0.500159  0.500159  1
  Si  Si26  1  0.495982  0.001085  0.001085  1
  Si  Si27  1  0.500159  0.500159  0.999939  1
  Sb  Sb28  1  0.001690  0.001690  0.001690  1
