# generated using pymatgen
data_Yb6AlGeO10
_symmetry_space_group_name_H-M   'P 1'
_cell_length_a   4.88315283
_cell_length_b   7.42579600
_cell_length_c   12.96583900
_cell_angle_alpha   90.00000000
_cell_angle_beta   90.06167054
_cell_angle_gamma   90.00000000
_symmetry_Int_Tables_number   1
_chemical_formula_structural   Yb6AlGeO10
_chemical_formula_sum   'Yb12 Al2 Ge2 O20'
_cell_volume   470.15786315
_cell_formula_units_Z   2
loop_
 _symmetry_equiv_pos_site_id
 _symmetry_equiv_pos_as_xyz
  1  'x, y, z'
loop_
 _atom_site_type_symbol
 _atom_site_label
 _atom_site_symmetry_multiplicity
 _atom_site_fract_x
 _atom_site_fract_y
 _atom_site_fract_z
 _atom_site_occupancy
  Yb  Yb0  1  0.245266  0.250000  0.409062  1
  Yb  Yb1  1  0.754734  0.750000  0.590938  1
  Yb  Yb2  1  0.256148  0.750000  0.904567  1
  Yb  Yb3  1  0.743852  0.250000  0.095433  1
  Yb  Yb4  1  0.252108  0.014803  0.179292  1
  Yb  Yb5  1  0.747892  0.985197  0.820708  1
  Yb  Yb6  1  0.245556  0.984788  0.664994  1
  Yb  Yb7  1  0.747892  0.514803  0.820708  1
  Yb  Yb8  1  0.754444  0.015212  0.335006  1
  Yb  Yb9  1  0.252108  0.485197  0.179292  1
  Yb  Yb10  1  0.754444  0.484788  0.335006  1
  Yb  Yb11  1  0.245556  0.515212  0.664994  1
  Al  Al12  1  0.686831  0.250000  0.582837  1
  Al  Al13  1  0.313169  0.750000  0.417163  1
  Ge  Ge14  1  0.815520  0.750000  0.082694  1
  Ge  Ge15  1  0.184480  0.250000  0.917306  1
  O  O16  1  0.231626  0.548002  0.349447  1
  O  O17  1  0.768374  0.451998  0.650553  1
  O  O18  1  0.271769  0.450307  0.850371  1
  O  O19  1  0.768374  0.048003  0.650553  1
  O  O20  1  0.728231  0.549693  0.149629  1
  O  O21  1  0.231626  0.951998  0.349447  1
  O  O22  1  0.728231  0.950307  0.149629  1
  O  O23  1  0.271769  0.049694  0.850371  1
  O  O24  1  0.318750  0.250000  0.582573  1
  O  O25  1  0.681250  0.750000  0.417427  1
  O  O26  1  0.183674  0.750000  0.083089  1
  O  O27  1  0.816326  0.250000  0.916911  1
  O  O28  1  0.266771  0.250000  0.050972  1
  O  O29  1  0.733229  0.750000  0.949028  1
  O  O30  1  0.232433  0.750000  0.550788  1
  O  O31  1  0.767567  0.250000  0.449212  1
  O  O32  1  0.995880  0.250000  0.245481  1
  O  O33  1  0.004120  0.750000  0.754519  1
  O  O34  1  0.497316  0.750000  0.750245  1
  O  O35  1  0.502684  0.250000  0.249755  1
