# generated using pymatgen
data_NdPa(Al5Os)4
_symmetry_space_group_name_H-M   'P 1'
_cell_length_a   6.86785910
_cell_length_b   6.86785872
_cell_length_c   9.18614600
_cell_angle_alpha   90.00000000
_cell_angle_beta   90.00000000
_cell_angle_gamma   97.25709086
_symmetry_Int_Tables_number   1
_chemical_formula_structural   NdPa(Al5Os)4
_chemical_formula_sum   'Nd1 Pa1 Al20 Os4'
_cell_volume   429.81648837
_cell_formula_units_Z   1
loop_
 _symmetry_equiv_pos_site_id
 _symmetry_equiv_pos_as_xyz
  1  'x, y, z'
loop_
 _atom_site_type_symbol
 _atom_site_label
 _atom_site_symmetry_multiplicity
 _atom_site_fract_x
 _atom_site_fract_y
 _atom_site_fract_z
 _atom_site_occupancy
  Nd  Nd0  1  0.128663  0.871337  0.250000  1
  Pa  Pa1  1  0.872306  0.127694  0.750000  1
  Al  Al2  1  0.622012  0.377988  0.550430  1
  Al  Al3  1  0.376303  0.623697  0.452496  1
  Al  Al4  1  0.376303  0.623697  0.047504  1
  Al  Al5  1  0.622012  0.377988  0.949570  1
  Al  Al6  1  0.223407  0.220899  0.500733  1
  Al  Al7  1  0.779101  0.776593  0.500733  1
  Al  Al8  1  0.779101  0.776593  0.999267  1
  Al  Al9  1  0.223407  0.220899  0.999267  1
  Al  Al10  1  0.841216  0.158784  0.102739  1
  Al  Al11  1  0.155755  0.844245  0.897325  1
  Al  Al12  1  0.155755  0.844245  0.602675  1
  Al  Al13  1  0.841216  0.158784  0.397261  1
  Al  Al14  1  0.856472  0.591116  0.750000  1
  Al  Al15  1  0.144112  0.411672  0.250000  1
  Al  Al16  1  0.408884  0.143528  0.750000  1
  Al  Al17  1  0.588328  0.855888  0.250000  1
  Al  Al18  1  0.219761  0.482657  0.750000  1
  Al  Al19  1  0.779392  0.517235  0.250000  1
  Al  Al20  1  0.517343  0.780239  0.750000  1
  Al  Al21  1  0.482765  0.220608  0.250000  1
  Os  Os22  1  0.999058  0.495867  0.502878  1
  Os  Os23  1  0.999058  0.495867  0.997122  1
  Os  Os24  1  0.504133  0.000942  0.997122  1
  Os  Os25  1  0.504133  0.000942  0.502878  1
