# generated using pymatgen
data_Cr20NiMoWC6
_symmetry_space_group_name_H-M   'P 1'
_cell_length_a   7.51936689
_cell_length_b   7.51936659
_cell_length_c   7.51936700
_cell_angle_alpha   60.00000261
_cell_angle_beta   60.00000390
_cell_angle_gamma   59.99999623
_symmetry_Int_Tables_number   1
_chemical_formula_structural   Cr20NiMoWC6
_chemical_formula_sum   'Cr20 Ni1 Mo1 W1 C6'
_cell_volume   300.62758450
_cell_formula_units_Z   1
loop_
 _symmetry_equiv_pos_site_id
 _symmetry_equiv_pos_as_xyz
  1  'x, y, z'
loop_
 _atom_site_type_symbol
 _atom_site_label
 _atom_site_symmetry_multiplicity
 _atom_site_fract_x
 _atom_site_fract_y
 _atom_site_fract_z
 _atom_site_occupancy
  Cr  Cr0  1  0.615325  0.615325  0.154022  1
  Cr  Cr1  1  0.615325  0.154022  0.615325  1
  Cr  Cr2  1  0.154022  0.615325  0.615325  1
  Cr  Cr3  1  0.615325  0.615325  0.615325  1
  Cr  Cr4  1  0.383425  0.383425  0.849728  1
  Cr  Cr5  1  0.383425  0.849728  0.383425  1
  Cr  Cr6  1  0.849728  0.383425  0.383425  1
  Cr  Cr7  1  0.383425  0.383425  0.383425  1
  Cr  Cr8  1  0.999662  0.999662  0.333048  1
  Cr  Cr9  1  0.667628  0.999662  0.333048  1
  Cr  Cr10  1  0.999662  0.667628  0.333048  1
  Cr  Cr11  1  0.667628  0.333048  0.999662  1
  Cr  Cr12  1  0.999662  0.333048  0.999662  1
  Cr  Cr13  1  0.999662  0.333048  0.667628  1
  Cr  Cr14  1  0.333048  0.667628  0.999662  1
  Cr  Cr15  1  0.333048  0.999662  0.667628  1
  Cr  Cr16  1  0.333048  0.999662  0.999662  1
  Cr  Cr17  1  0.999662  0.999662  0.667628  1
  Cr  Cr18  1  0.999662  0.667628  0.999662  1
  Cr  Cr19  1  0.667628  0.999662  0.999662  1
  Ni  Ni20  1  0.000000  0.000000  0.000000  1
  Mo  Mo21  1  0.250000  0.250000  0.250000  1
  W  W22  1  0.750000  0.750000  0.750000  1
  C  C23  1  0.723594  0.723594  0.276406  1
  C  C24  1  0.276406  0.723594  0.276406  1
  C  C25  1  0.723594  0.276406  0.276406  1
  C  C26  1  0.276406  0.276406  0.723594  1
  C  C27  1  0.723594  0.276406  0.723594  1
  C  C28  1  0.276406  0.723594  0.723594  1
