# generated using pymatgen
data_Dy16TlIn(AgIr2)2
_symmetry_space_group_name_H-M   'P 1'
_cell_length_a   9.62065290
_cell_length_b   9.62603736
_cell_length_c   9.62603702
_cell_angle_alpha   59.94720808
_cell_angle_beta   59.96201234
_cell_angle_gamma   59.96201967
_symmetry_Int_Tables_number   1
_chemical_formula_structural   Dy16TlIn(AgIr2)2
_chemical_formula_sum   'Dy16 Tl1 In1 Ag2 Ir4'
_cell_volume   629.74056089
_cell_formula_units_Z   1
loop_
 _symmetry_equiv_pos_site_id
 _symmetry_equiv_pos_as_xyz
  1  'x, y, z'
loop_
 _atom_site_type_symbol
 _atom_site_label
 _atom_site_symmetry_multiplicity
 _atom_site_fract_x
 _atom_site_fract_y
 _atom_site_fract_z
 _atom_site_occupancy
  Dy  Dy0  1  0.597639  0.599693  0.599693  1
  Dy  Dy1  1  0.599655  0.601023  0.199901  1
  Dy  Dy2  1  0.599655  0.199901  0.601023  1
  Dy  Dy3  1  0.200124  0.601022  0.601022  1
  Dy  Dy4  1  0.060608  0.438740  0.438740  1
  Dy  Dy5  1  0.440252  0.058094  0.058094  1
  Dy  Dy6  1  0.439762  0.059063  0.440194  1
  Dy  Dy7  1  0.060787  0.437339  0.059933  1
  Dy  Dy8  1  0.439762  0.440194  0.059063  1
  Dy  Dy9  1  0.060787  0.059933  0.437339  1
  Dy  Dy10  1  0.189109  0.813102  0.813102  1
  Dy  Dy11  1  0.809842  0.189633  0.189633  1
  Dy  Dy12  1  0.810040  0.194208  0.812198  1
  Dy  Dy13  1  0.185091  0.811953  0.191931  1
  Dy  Dy14  1  0.810040  0.812198  0.194208  1
  Dy  Dy15  1  0.185091  0.191931  0.811953  1
  Tl  Tl16  1  0.836002  0.830187  0.830187  1
  In  In17  1  0.507524  0.828468  0.828468  1
  Ag  Ag18  1  0.833409  0.832582  0.498492  1
  Ag  Ag19  1  0.833409  0.498492  0.832582  1
  Ir  Ir20  1  0.391517  0.392090  0.392090  1
  Ir  Ir21  1  0.393060  0.391930  0.824951  1
  Ir  Ir22  1  0.393060  0.824951  0.391930  1
  Ir  Ir23  1  0.823779  0.393274  0.393274  1
