# generated using pymatgen
data_NpSc4CoTc6
_symmetry_space_group_name_H-M   'P 1'
_cell_length_a   5.18492150
_cell_length_b   5.14873191
_cell_length_c   8.66970800
_cell_angle_alpha   90.00000000
_cell_angle_beta   90.00000000
_cell_angle_gamma   117.73805662
_symmetry_Int_Tables_number   1
_chemical_formula_structural   NpSc4CoTc6
_chemical_formula_sum   'Np1 Sc4 Co1 Tc6'
_cell_volume   204.84801326
_cell_formula_units_Z   1
loop_
 _symmetry_equiv_pos_site_id
 _symmetry_equiv_pos_as_xyz
  1  'x, y, z'
loop_
 _atom_site_type_symbol
 _atom_site_label
 _atom_site_symmetry_multiplicity
 _atom_site_fract_x
 _atom_site_fract_y
 _atom_site_fract_z
 _atom_site_occupancy
  Np  Np0  1  0.839001  0.140369  0.250000  1
  Sc  Sc1  1  0.325306  0.671195  0.448004  1
  Sc  Sc2  1  0.660581  0.338821  0.570191  1
  Sc  Sc3  1  0.660581  0.338821  0.929809  1
  Sc  Sc4  1  0.325306  0.671195  0.051996  1
  Co  Co5  1  0.849282  0.631956  0.250000  1
  Tc  Tc6  1  0.988944  0.013563  0.488482  1
  Tc  Tc7  1  0.988944  0.013563  0.011518  1
  Tc  Tc8  1  0.387379  0.163070  0.250000  1
  Tc  Tc9  1  0.162288  0.835662  0.750000  1
  Tc  Tc10  1  0.162284  0.348345  0.750000  1
  Tc  Tc11  1  0.650105  0.833439  0.750000  1
