# generated using pymatgen
data_TbHoLu2(ReB6)2
_symmetry_space_group_name_H-M   'P 1'
_cell_length_a   3.64705400
_cell_length_b   9.10978701
_cell_length_c   11.49567701
_cell_angle_alpha   89.99414972
_cell_angle_beta   90.00000000
_cell_angle_gamma   90.00000000
_symmetry_Int_Tables_number   1
_chemical_formula_structural   TbHoLu2(ReB6)2
_chemical_formula_sum   'Tb2 Ho2 Lu4 Re4 B24'
_cell_volume   381.93105100
_cell_formula_units_Z   2
loop_
 _symmetry_equiv_pos_site_id
 _symmetry_equiv_pos_as_xyz
  1  'x, y, z'
loop_
 _atom_site_type_symbol
 _atom_site_label
 _atom_site_symmetry_multiplicity
 _atom_site_fract_x
 _atom_site_fract_y
 _atom_site_fract_z
 _atom_site_occupancy
  Tb  Tb0  1  0.000000  0.322928  0.413845  1
  Tb  Tb1  1  0.000000  0.677072  0.586155  1
  Ho  Ho2  1  0.000000  0.823178  0.086064  1
  Ho  Ho3  1  0.000000  0.176822  0.913936  1
  Lu  Lu4  1  0.000000  0.943582  0.370072  1
  Lu  Lu5  1  0.000000  0.056418  0.629928  1
  Lu  Lu6  1  0.000000  0.443578  0.129540  1
  Lu  Lu7  1  0.000000  0.556422  0.870460  1
  Re  Re8  1  0.000000  0.639840  0.319588  1
  Re  Re9  1  0.000000  0.360160  0.680412  1
  Re  Re10  1  0.000000  0.139198  0.179613  1
  Re  Re11  1  0.000000  0.860802  0.820387  1
  B  B12  1  0.500000  0.553902  0.432324  1
  B  B13  1  0.500000  0.446098  0.567676  1
  B  B14  1  0.500000  0.053572  0.067103  1
  B  B15  1  0.500000  0.946428  0.932897  1
  B  B16  1  0.500000  0.751119  0.418062  1
  B  B17  1  0.500000  0.248881  0.581938  1
  B  B18  1  0.500000  0.250892  0.081261  1
  B  B19  1  0.500000  0.749108  0.918739  1
  B  B20  1  0.500000  0.793442  0.265028  1
  B  B21  1  0.500000  0.206558  0.734972  1
  B  B22  1  0.500000  0.293101  0.234241  1
  B  B23  1  0.500000  0.706899  0.765759  1
  B  B24  1  0.500000  0.630438  0.184400  1
  B  B25  1  0.500000  0.369562  0.815600  1
  B  B26  1  0.500000  0.130011  0.314949  1
  B  B27  1  0.500000  0.869989  0.685051  1
  B  B28  1  0.500000  0.981680  0.212421  1
  B  B29  1  0.500000  0.018320  0.787579  1
  B  B30  1  0.500000  0.482122  0.286963  1
  B  B31  1  0.500000  0.517878  0.713037  1
  B  B32  1  0.500000  0.598300  0.027270  1
  B  B33  1  0.500000  0.401700  0.972730  1
  B  B34  1  0.500000  0.097661  0.472854  1
  B  B35  1  0.500000  0.902339  0.527146  1
