# generated using pymatgen
data_CaLa4EuCo4
_symmetry_space_group_name_H-M   'P 1'
_cell_length_a   3.99809400
_cell_length_b   3.99809489
_cell_length_c   20.86263500
_cell_angle_alpha   90.00000000
_cell_angle_beta   90.00000000
_cell_angle_gamma   119.99999262
_symmetry_Int_Tables_number   1
_chemical_formula_structural   CaLa4EuCo4
_chemical_formula_sum   'Ca1 La4 Eu1 Co4'
_cell_volume   288.80580755
_cell_formula_units_Z   1
loop_
 _symmetry_equiv_pos_site_id
 _symmetry_equiv_pos_as_xyz
  1  'x, y, z'
loop_
 _atom_site_type_symbol
 _atom_site_label
 _atom_site_symmetry_multiplicity
 _atom_site_fract_x
 _atom_site_fract_y
 _atom_site_fract_z
 _atom_site_occupancy
  Ca  Ca0  1  0.333333  0.666667  0.250000  1
  La  La1  1  0.000000  0.000000  0.086997  1
  La  La2  1  0.000000  0.000000  0.908339  1
  La  La3  1  0.000000  0.000000  0.591661  1
  La  La4  1  0.000000  0.000000  0.413003  1
  Eu  Eu5  1  0.666667  0.333333  0.750000  1
  Co  Co6  1  0.333333  0.666667  0.502436  1
  Co  Co7  1  0.666667  0.333333  0.502716  1
  Co  Co8  1  0.666667  0.333333  0.997284  1
  Co  Co9  1  0.333333  0.666667  0.997564  1
