# generated using pymatgen
data_Er16Tl3InPt3Rh
_symmetry_space_group_name_H-M   'P 1'
_cell_length_a   9.62651993
_cell_length_b   9.62651988
_cell_length_c   9.62651958
_cell_angle_alpha   60.09967018
_cell_angle_beta   60.09967112
_cell_angle_gamma   60.09967395
_symmetry_Int_Tables_number   1
_chemical_formula_structural   Er16Tl3InPt3Rh
_chemical_formula_sum   'Er16 Tl3 In1 Pt3 Rh1'
_cell_volume   632.22639688
_cell_formula_units_Z   1
loop_
 _symmetry_equiv_pos_site_id
 _symmetry_equiv_pos_as_xyz
  1  'x, y, z'
loop_
 _atom_site_type_symbol
 _atom_site_label
 _atom_site_symmetry_multiplicity
 _atom_site_fract_x
 _atom_site_fract_y
 _atom_site_fract_z
 _atom_site_occupancy
  Er  Er0  1  0.189997  0.189997  0.808409  1
  Er  Er1  1  0.438877  0.061681  0.061681  1
  Er  Er2  1  0.437221  0.064734  0.437221  1
  Er  Er3  1  0.061681  0.438877  0.061681  1
  Er  Er4  1  0.650061  0.052449  0.650061  1
  Er  Er5  1  0.185804  0.811188  0.811188  1
  Er  Er6  1  0.061681  0.061681  0.438877  1
  Er  Er7  1  0.808409  0.189997  0.189997  1
  Er  Er8  1  0.811188  0.811188  0.185804  1
  Er  Er9  1  0.650061  0.650061  0.052449  1
  Er  Er10  1  0.649027  0.649027  0.649027  1
  Er  Er11  1  0.064734  0.437221  0.437221  1
  Er  Er12  1  0.052449  0.650061  0.650061  1
  Er  Er13  1  0.811188  0.185804  0.811188  1
  Er  Er14  1  0.437221  0.437221  0.064734  1
  Er  Er15  1  0.189997  0.808409  0.189997  1
  Tl  Tl16  1  0.413808  0.756824  0.413808  1
  Tl  Tl17  1  0.413808  0.413808  0.756824  1
  Tl  Tl18  1  0.756824  0.413808  0.413808  1
  In  In19  1  0.415249  0.415249  0.415249  1
  Pt  Pt20  1  0.857756  0.427945  0.857756  1
  Pt  Pt21  1  0.857756  0.857756  0.427945  1
  Pt  Pt22  1  0.427945  0.857756  0.857756  1
  Rh  Rh23  1  0.857262  0.857262  0.857262  1
