# generated using pymatgen
data_Sr11Tl3Ga4
_symmetry_space_group_name_H-M   'P 1'
_cell_length_a   12.32581800
_cell_length_b   12.32581665
_cell_length_c   12.32581800
_cell_angle_alpha   119.99999825
_cell_angle_beta   90.00000000
_cell_angle_gamma   119.99999825
_symmetry_Int_Tables_number   1
_chemical_formula_structural   Sr11Tl3Ga4
_chemical_formula_sum   'Sr22 Tl6 Ga8'
_cell_volume   1324.13489271
_cell_formula_units_Z   2
loop_
 _symmetry_equiv_pos_site_id
 _symmetry_equiv_pos_as_xyz
  1  'x, y, z'
loop_
 _atom_site_type_symbol
 _atom_site_label
 _atom_site_symmetry_multiplicity
 _atom_site_fract_x
 _atom_site_fract_y
 _atom_site_fract_z
 _atom_site_occupancy
  Sr  Sr0  1  0.000000  0.000000  0.000000  1
  Sr  Sr1  1  0.397804  0.265203  0.132601  1
  Sr  Sr2  1  0.867400  0.265203  0.132601  1
  Sr  Sr3  1  0.867400  0.734797  0.132601  1
  Sr  Sr4  1  0.500000  0.000000  0.163419  1
  Sr  Sr5  1  0.163419  0.663419  0.163419  1
  Sr  Sr6  1  0.500000  0.663419  0.163419  1
  Sr  Sr7  1  0.132601  0.265203  0.397804  1
  Sr  Sr8  1  0.500000  0.000000  0.500000  1
  Sr  Sr9  1  0.836582  0.336582  0.500000  1
  Sr  Sr10  1  0.836582  0.000000  0.500000  1
  Sr  Sr11  1  0.163419  0.000000  0.500000  1
  Sr  Sr12  1  0.500000  0.336582  0.500000  1
  Sr  Sr13  1  0.163419  0.663419  0.500000  1
  Sr  Sr14  1  0.500000  0.663419  0.500000  1
  Sr  Sr15  1  0.867400  0.734797  0.602196  1
  Sr  Sr16  1  0.500000  0.336582  0.836582  1
  Sr  Sr17  1  0.500000  0.000000  0.836582  1
  Sr  Sr18  1  0.836582  0.336582  0.836582  1
  Sr  Sr19  1  0.132601  0.265203  0.867400  1
  Sr  Sr20  1  0.132601  0.734797  0.867400  1
  Sr  Sr21  1  0.602196  0.734797  0.867400  1
  Tl  Tl22  1  0.217379  0.000000  0.217379  1
  Tl  Tl23  1  0.782620  0.000000  0.217379  1
  Tl  Tl24  1  0.217379  0.434758  0.217379  1
  Tl  Tl25  1  0.217379  0.000000  0.782620  1
  Tl  Tl26  1  0.782620  0.565242  0.782620  1
  Tl  Tl27  1  0.782621  0.000000  0.782621  1
  Ga  Ga28  1  0.693656  0.387312  0.080969  1
  Ga  Ga29  1  0.693656  0.387312  0.306343  1
  Ga  Ga30  1  0.693656  0.612687  0.306343  1
  Ga  Ga31  1  0.919031  0.612687  0.306343  1
  Ga  Ga32  1  0.080969  0.387312  0.693656  1
  Ga  Ga33  1  0.306343  0.387312  0.693656  1
  Ga  Ga34  1  0.306343  0.612687  0.693656  1
  Ga  Ga35  1  0.306343  0.612687  0.919031  1
