# generated using pymatgen
data_YEr9Al4(GaC4)2
_symmetry_space_group_name_H-M   'P 1'
_cell_length_a   10.78772048
_cell_length_b   10.78717848
_cell_length_c   3.48324900
_cell_angle_alpha   90.00000000
_cell_angle_beta   90.00000000
_cell_angle_gamma   89.96590653
_symmetry_Int_Tables_number   1
_chemical_formula_structural   YEr9Al4(GaC4)2
_chemical_formula_sum   'Y1 Er9 Al4 Ga2 C8'
_cell_volume   405.34236155
_cell_formula_units_Z   1
loop_
 _symmetry_equiv_pos_site_id
 _symmetry_equiv_pos_as_xyz
  1  'x, y, z'
loop_
 _atom_site_type_symbol
 _atom_site_label
 _atom_site_symmetry_multiplicity
 _atom_site_fract_x
 _atom_site_fract_y
 _atom_site_fract_z
 _atom_site_occupancy
  Y  Y0  1  0.772657  0.949613  0.500000  1
  Er  Er1  1  0.549892  0.728850  0.500000  1
  Er  Er2  1  0.449613  0.270996  0.500000  1
  Er  Er3  1  0.050441  0.770825  0.500000  1
  Er  Er4  1  0.950028  0.229328  0.500000  1
  Er  Er5  1  0.270892  0.550175  0.500000  1
  Er  Er6  1  0.729226  0.449715  0.500000  1
  Er  Er7  1  0.229148  0.050314  0.500000  1
  Er  Er8  1  0.499907  0.999968  0.000000  1
  Er  Er9  1  0.000064  0.500003  0.000000  1
  Al  Al10  1  0.703665  0.204273  0.000000  1
  Al  Al11  1  0.295929  0.796416  0.000000  1
  Al  Al12  1  0.203752  0.296015  0.000000  1
  Al  Al13  1  0.795957  0.703311  0.000000  1
  Ga  Ga14  1  0.499963  0.499866  0.000000  1
  Ga  Ga15  1  0.000958  0.000213  0.000000  1
  C  C16  1  0.630601  0.133175  0.500000  1
  C  C17  1  0.368336  0.868346  0.500000  1
  C  C18  1  0.131629  0.368529  0.500000  1
  C  C19  1  0.868508  0.631535  0.500000  1
  C  C20  1  0.161900  0.661767  0.000000  1
  C  C21  1  0.838314  0.338381  0.000000  1
  C  C22  1  0.660383  0.836624  0.000000  1
  C  C23  1  0.338237  0.161762  0.000000  1
