# generated using pymatgen
data_TbHo5(Lu2Sn3)2
_symmetry_space_group_name_H-M   'P 1'
_cell_length_a   8.89330865
_cell_length_b   8.89330984
_cell_length_c   6.44043000
_cell_angle_alpha   90.00000000
_cell_angle_beta   90.00000000
_cell_angle_gamma   120.04385696
_symmetry_Int_Tables_number   1
_chemical_formula_structural   TbHo5(Lu2Sn3)2
_chemical_formula_sum   'Tb1 Ho5 Lu4 Sn6'
_cell_volume   440.94069920
_cell_formula_units_Z   1
loop_
 _symmetry_equiv_pos_site_id
 _symmetry_equiv_pos_as_xyz
  1  'x, y, z'
loop_
 _atom_site_type_symbol
 _atom_site_label
 _atom_site_symmetry_multiplicity
 _atom_site_fract_x
 _atom_site_fract_y
 _atom_site_fract_z
 _atom_site_occupancy
  Tb  Tb0  1  0.760737  0.760737  0.750000  1
  Ho  Ho1  1  0.239429  0.000097  0.750000  1
  Ho  Ho2  1  0.000097  0.239429  0.750000  1
  Ho  Ho3  1  0.239205  0.239205  0.250000  1
  Ho  Ho4  1  0.760639  0.000085  0.250000  1
  Ho  Ho5  1  0.000085  0.760639  0.250000  1
  Lu  Lu6  1  0.666665  0.333262  0.000033  1
  Lu  Lu7  1  0.333262  0.666665  0.000033  1
  Lu  Lu8  1  0.333262  0.666665  0.499967  1
  Lu  Lu9  1  0.666665  0.333262  0.499967  1
  Sn  Sn10  1  0.395695  0.395695  0.750000  1
  Sn  Sn11  1  0.603931  0.000231  0.750000  1
  Sn  Sn12  1  0.000231  0.603931  0.750000  1
  Sn  Sn13  1  0.604118  0.604118  0.250000  1
  Sn  Sn14  1  0.395943  0.000035  0.250000  1
  Sn  Sn15  1  0.000035  0.395943  0.250000  1
