# generated using pymatgen
data_Ac3Yb(AgPb)4
_symmetry_space_group_name_H-M   'P 1'
_cell_length_a   7.92154500
_cell_length_b   5.00725800
_cell_length_c   8.43222400
_cell_angle_alpha   90.00000000
_cell_angle_beta   90.72661538
_cell_angle_gamma   90.00000000
_symmetry_Int_Tables_number   1
_chemical_formula_structural   Ac3Yb(AgPb)4
_chemical_formula_sum   'Ac3 Yb1 Ag4 Pb4'
_cell_volume   334.43912084
_cell_formula_units_Z   1
loop_
 _symmetry_equiv_pos_site_id
 _symmetry_equiv_pos_as_xyz
  1  'x, y, z'
loop_
 _atom_site_type_symbol
 _atom_site_label
 _atom_site_symmetry_multiplicity
 _atom_site_fract_x
 _atom_site_fract_y
 _atom_site_fract_z
 _atom_site_occupancy
  Ac  Ac0  1  0.503416  0.750001  0.206620  1
  Ac  Ac1  1  0.003188  0.750001  0.288798  1
  Ac  Ac2  1  0.995731  0.250001  0.715695  1
  Yb  Yb3  1  0.494959  0.250001  0.777488  1
  Ag  Ag4  1  0.209002  0.250001  0.080401  1
  Ag  Ag5  1  0.694077  0.250001  0.419184  1
  Ag  Ag6  1  0.314088  0.750001  0.589707  1
  Ag  Ag7  1  0.799407  0.750001  0.917429  1
  Pb  Pb8  1  0.790044  0.250001  0.086371  1
  Pb  Pb9  1  0.297929  0.250001  0.415795  1
  Pb  Pb10  1  0.697338  0.750001  0.592410  1
  Pb  Pb11  1  0.200822  0.750001  0.910104  1
