# generated using pymatgen
data_LaCe(Al5Os)4
_symmetry_space_group_name_H-M   'P 1'
_cell_length_a   6.90365807
_cell_length_b   6.90365690
_cell_length_c   9.20649800
_cell_angle_alpha   90.00000000
_cell_angle_beta   90.00000000
_cell_angle_gamma   96.93144501
_symmetry_Int_Tables_number   1
_chemical_formula_structural   LaCe(Al5Os)4
_chemical_formula_sum   'La1 Ce1 Al20 Os4'
_cell_volume   435.57920077
_cell_formula_units_Z   1
loop_
 _symmetry_equiv_pos_site_id
 _symmetry_equiv_pos_as_xyz
  1  'x, y, z'
loop_
 _atom_site_type_symbol
 _atom_site_label
 _atom_site_symmetry_multiplicity
 _atom_site_fract_x
 _atom_site_fract_y
 _atom_site_fract_z
 _atom_site_occupancy
  La  La0  1  0.373996  0.626004  0.250000  1
  Ce  Ce1  1  0.626412  0.373588  0.750000  1
  Al  Al2  1  0.281372  0.018201  0.750000  1
  Al  Al3  1  0.016669  0.280717  0.250000  1
  Al  Al4  1  0.719283  0.983331  0.250000  1
  Al  Al5  1  0.981799  0.718628  0.750000  1
  Al  Al6  1  0.877139  0.122861  0.948723  1
  Al  Al7  1  0.122876  0.877124  0.046644  1
  Al  Al8  1  0.877139  0.122861  0.551277  1
  Al  Al9  1  0.122876  0.877124  0.453356  1
  Al  Al10  1  0.642736  0.913071  0.750000  1
  Al  Al11  1  0.913307  0.645212  0.250000  1
  Al  Al12  1  0.354788  0.086693  0.250000  1
  Al  Al13  1  0.086929  0.357264  0.750000  1
  Al  Al14  1  0.341803  0.658197  0.897150  1
  Al  Al15  1  0.661289  0.338711  0.102295  1
  Al  Al16  1  0.341803  0.658197  0.602850  1
  Al  Al17  1  0.661289  0.338711  0.397705  1
  Al  Al18  1  0.725499  0.725967  0.998956  1
  Al  Al19  1  0.725499  0.725967  0.501044  1
  Al  Al20  1  0.274033  0.274501  0.998956  1
  Al  Al21  1  0.274033  0.274501  0.501044  1
  Os  Os22  1  0.500401  0.001686  0.998615  1
  Os  Os23  1  0.998314  0.499599  0.998615  1
  Os  Os24  1  0.500401  0.001686  0.501385  1
  Os  Os25  1  0.998314  0.499599  0.501385  1
