# generated using pymatgen
data_Gd4TcCl4
_symmetry_space_group_name_H-M   'P 1'
_cell_length_a   8.62753842
_cell_length_b   8.62753826
_cell_length_c   6.48608500
_cell_angle_alpha   90.08467986
_cell_angle_beta   90.08467322
_cell_angle_gamma   89.62381070
_symmetry_Int_Tables_number   1
_chemical_formula_structural   Gd4TcCl4
_chemical_formula_sum   'Gd8 Tc2 Cl8'
_cell_volume   482.77650716
_cell_formula_units_Z   2
loop_
 _symmetry_equiv_pos_site_id
 _symmetry_equiv_pos_as_xyz
  1  'x, y, z'
loop_
 _atom_site_type_symbol
 _atom_site_label
 _atom_site_symmetry_multiplicity
 _atom_site_fract_x
 _atom_site_fract_y
 _atom_site_fract_z
 _atom_site_occupancy
  Gd  Gd0  1  0.105599  0.739766  0.988096  1
  Gd  Gd1  1  0.260234  0.894401  0.511904  1
  Gd  Gd2  1  0.894401  0.260234  0.011904  1
  Gd  Gd3  1  0.739766  0.105599  0.488096  1
  Gd  Gd4  1  0.740616  0.895028  0.005014  1
  Gd  Gd5  1  0.104972  0.259384  0.494986  1
  Gd  Gd6  1  0.259384  0.104972  0.994986  1
  Gd  Gd7  1  0.895028  0.740616  0.505014  1
  Tc  Tc8  1  0.006258  0.993742  0.250000  1
  Tc  Tc9  1  0.993742  0.006258  0.750000  1
  Cl  Cl10  1  0.418599  0.816967  0.912406  1
  Cl  Cl11  1  0.183033  0.581401  0.587594  1
  Cl  Cl12  1  0.581401  0.183033  0.087594  1
  Cl  Cl13  1  0.816967  0.418599  0.412406  1
  Cl  Cl14  1  0.813486  0.582798  0.909749  1
  Cl  Cl15  1  0.417202  0.186514  0.590251  1
  Cl  Cl16  1  0.186514  0.417202  0.090251  1
  Cl  Cl17  1  0.582798  0.813486  0.409749  1
