# generated using pymatgen
data_TbHo3PBr6
_symmetry_space_group_name_H-M   'P 1'
_cell_length_a   3.98992000
_cell_length_b   13.09027225
_cell_length_c   13.79832952
_cell_angle_alpha   90.15982961
_cell_angle_beta   90.00000000
_cell_angle_gamma   90.00000000
_symmetry_Int_Tables_number   1
_chemical_formula_structural   TbHo3PBr6
_chemical_formula_sum   'Tb2 Ho6 P2 Br12'
_cell_volume   720.67206727
_cell_formula_units_Z   2
loop_
 _symmetry_equiv_pos_site_id
 _symmetry_equiv_pos_as_xyz
  1  'x, y, z'
loop_
 _atom_site_type_symbol
 _atom_site_label
 _atom_site_symmetry_multiplicity
 _atom_site_fract_x
 _atom_site_fract_y
 _atom_site_fract_z
 _atom_site_occupancy
  Tb  Tb0  1  0.000000  0.615649  0.923035  1
  Tb  Tb1  1  0.000000  0.384351  0.076965  1
  Ho  Ho2  1  0.500000  0.116886  0.343420  1
  Ho  Ho3  1  0.500000  0.883114  0.656580  1
  Ho  Ho4  1  0.500000  0.617162  0.156855  1
  Ho  Ho5  1  0.500000  0.382838  0.843145  1
  Ho  Ho6  1  0.000000  0.114624  0.576210  1
  Ho  Ho7  1  0.000000  0.885376  0.423790  1
  P  P8  1  0.500000  0.000000  0.500000  1
  P  P9  1  0.500000  0.500000  0.000000  1
  Br  Br10  1  0.500000  0.241177  0.164485  1
  Br  Br11  1  0.500000  0.758823  0.835515  1
  Br  Br12  1  0.500000  0.744226  0.337311  1
  Br  Br13  1  0.500000  0.255774  0.662689  1
  Br  Br14  1  0.000000  0.256161  0.412577  1
  Br  Br15  1  0.000000  0.743839  0.587423  1
  Br  Br16  1  0.000000  0.756941  0.089426  1
  Br  Br17  1  0.000000  0.243059  0.910574  1
  Br  Br18  1  0.000000  0.000542  0.242766  1
  Br  Br19  1  0.000000  0.999458  0.757234  1
  Br  Br20  1  0.000000  0.502626  0.258881  1
  Br  Br21  1  0.000000  0.497374  0.741119  1
