# generated using pymatgen
data_TbDyBi6(SeO5)4
_symmetry_space_group_name_H-M   'P 1'
_cell_length_a   8.78983355
_cell_length_b   8.78983363
_cell_length_c   11.48829806
_cell_angle_alpha   90.00363513
_cell_angle_beta   90.00363409
_cell_angle_gamma   143.31609745
_symmetry_Int_Tables_number   1
_chemical_formula_structural   TbDyBi6(SeO5)4
_chemical_formula_sum   'Tb1 Dy1 Bi6 Se4 O20'
_cell_volume   530.25174895
_cell_formula_units_Z   1
loop_
 _symmetry_equiv_pos_site_id
 _symmetry_equiv_pos_as_xyz
  1  'x, y, z'
loop_
 _atom_site_type_symbol
 _atom_site_label
 _atom_site_symmetry_multiplicity
 _atom_site_fract_x
 _atom_site_fract_y
 _atom_site_fract_z
 _atom_site_occupancy
  Tb  Tb0  1  0.237611  0.737611  0.392768  1
  Dy  Dy1  1  0.738639  0.238639  0.606826  1
  Bi  Bi2  1  0.232817  0.732817  0.864092  1
  Bi  Bi3  1  0.733191  0.233191  0.135426  1
  Bi  Bi4  1  0.890932  0.063974  0.393456  1
  Bi  Bi5  1  0.064299  0.891156  0.606922  1
  Bi  Bi6  1  0.391156  0.564299  0.606922  1
  Bi  Bi7  1  0.563974  0.390932  0.393456  1
  Se  Se8  1  0.386437  0.575573  0.148748  1
  Se  Se9  1  0.575645  0.386091  0.850938  1
  Se  Se10  1  0.886091  0.075645  0.850938  1
  Se  Se11  1  0.075573  0.886437  0.148748  1
  O  O12  1  0.149758  0.481321  0.229765  1
  O  O13  1  0.482319  0.150151  0.769565  1
  O  O14  1  0.650151  0.982319  0.769565  1
  O  O15  1  0.981321  0.649758  0.229765  1
  O  O16  1  0.567630  0.898068  0.502286  1
  O  O17  1  0.896609  0.566286  0.498808  1
  O  O18  1  0.066286  0.396609  0.498808  1
  O  O19  1  0.398068  0.067630  0.502286  1
  O  O20  1  0.103268  0.603268  0.696909  1
  O  O21  1  0.605764  0.105764  0.303011  1
  O  O22  1  0.553064  0.856217  0.080446  1
  O  O23  1  0.856303  0.553166  0.919517  1
  O  O24  1  0.176088  0.081947  0.259180  1
  O  O25  1  0.082193  0.176193  0.740876  1
  O  O26  1  0.676193  0.582193  0.740876  1
  O  O27  1  0.581947  0.676088  0.259180  1
  O  O28  1  0.246131  0.246205  0.499978  1
  O  O29  1  0.746205  0.746131  0.499978  1
  O  O30  1  0.356217  0.053064  0.080446  1
  O  O31  1  0.053166  0.356303  0.919517  1
