# generated using pymatgen
data_La3Tm3Ta2O14
_symmetry_space_group_name_H-M   'P 1'
_cell_length_a   6.51004200
_cell_length_b   6.59842689
_cell_length_c   7.64768300
_cell_angle_alpha   90.00000000
_cell_angle_beta   90.00000000
_cell_angle_gamma   109.91521600
_symmetry_Int_Tables_number   1
_chemical_formula_structural   La3Tm3Ta2O14
_chemical_formula_sum   'La3 Tm3 Ta2 O14'
_cell_volume   308.86824609
_cell_formula_units_Z   1
loop_
 _symmetry_equiv_pos_site_id
 _symmetry_equiv_pos_as_xyz
  1  'x, y, z'
loop_
 _atom_site_type_symbol
 _atom_site_label
 _atom_site_symmetry_multiplicity
 _atom_site_fract_x
 _atom_site_fract_y
 _atom_site_fract_z
 _atom_site_occupancy
  La  La0  1  0.521644  0.067605  0.250000  1
  La  La1  1  0.001480  0.998321  0.996452  1
  La  La2  1  0.001480  0.998321  0.503548  1
  Tm  Tm3  1  0.952042  0.485085  0.750000  1
  Tm  Tm4  1  0.483622  0.975896  0.750000  1
  Tm  Tm5  1  0.052407  0.510910  0.250000  1
  Ta  Ta6  1  0.499353  0.505848  0.996126  1
  Ta  Ta7  1  0.499353  0.505848  0.503874  1
  O  O8  1  0.902038  0.156177  0.250000  1
  O  O9  1  0.839640  0.131654  0.750000  1
  O  O10  1  0.806721  0.534216  0.049030  1
  O  O11  1  0.806721  0.534216  0.450970  1
  O  O12  1  0.417008  0.178699  0.965528  1
  O  O13  1  0.417008  0.178699  0.534472  1
  O  O14  1  0.600822  0.535688  0.750000  1
  O  O15  1  0.417313  0.453426  0.250000  1
  O  O16  1  0.571074  0.822832  0.003712  1
  O  O17  1  0.181876  0.452578  0.538399  1
  O  O18  1  0.181876  0.452578  0.961601  1
  O  O19  1  0.571074  0.822832  0.496288  1
  O  O20  1  0.119762  0.834687  0.750000  1
  O  O21  1  0.155685  0.863884  0.250000  1
