# generated using pymatgen
data_Pa8(CoTc3)3
_symmetry_space_group_name_H-M   'P 1'
_cell_length_a   5.92886100
_cell_length_b   7.32271217
_cell_length_c   8.60378763
_cell_angle_alpha   90.49265751
_cell_angle_beta   90.00000000
_cell_angle_gamma   90.00000000
_symmetry_Int_Tables_number   1
_chemical_formula_structural   Pa8(CoTc3)3
_chemical_formula_sum   'Pa8 Co3 Tc9'
_cell_volume   373.52257938
_cell_formula_units_Z   1
loop_
 _symmetry_equiv_pos_site_id
 _symmetry_equiv_pos_as_xyz
  1  'x, y, z'
loop_
 _atom_site_type_symbol
 _atom_site_label
 _atom_site_symmetry_multiplicity
 _atom_site_fract_x
 _atom_site_fract_y
 _atom_site_fract_z
 _atom_site_occupancy
  Pa  Pa0  1  0.750000  0.899932  0.858733  1
  Pa  Pa1  1  0.750000  0.399623  0.646400  1
  Pa  Pa2  1  0.250000  0.096297  0.142038  1
  Pa  Pa3  1  0.250000  0.599917  0.360092  1
  Pa  Pa4  1  0.750000  0.942791  0.394537  1
  Pa  Pa5  1  0.750000  0.435614  0.097327  1
  Pa  Pa6  1  0.250000  0.061848  0.606765  1
  Pa  Pa7  1  0.250000  0.566908  0.894326  1
  Co  Co8  1  0.750000  0.093960  0.119461  1
  Co  Co9  1  0.250000  0.403035  0.627025  1
  Co  Co10  1  0.250000  0.909493  0.877427  1
  Tc  Tc11  1  0.750000  0.589407  0.375010  1
  Tc  Tc12  1  0.001107  0.248674  0.377712  1
  Tc  Tc13  1  0.499002  0.757771  0.117357  1
  Tc  Tc14  1  0.494467  0.747301  0.628095  1
  Tc  Tc15  1  0.001938  0.246841  0.877267  1
  Tc  Tc16  1  0.005533  0.747301  0.628095  1
  Tc  Tc17  1  0.498062  0.246841  0.877267  1
  Tc  Tc18  1  0.498893  0.248674  0.377712  1
  Tc  Tc19  1  0.000998  0.757771  0.117357  1
