# generated using pymatgen
data_NdDy6Sn23Os6
_symmetry_space_group_name_H-M   'P 1'
_cell_length_a   9.87381800
_cell_length_b   9.87381818
_cell_length_c   10.13626200
_cell_angle_alpha   90.00000000
_cell_angle_beta   90.00000000
_cell_angle_gamma   119.99999271
_symmetry_Int_Tables_number   1
_chemical_formula_structural   NdDy6Sn23Os6
_chemical_formula_sum   'Nd1 Dy6 Sn23 Os6'
_cell_volume   855.81271468
_cell_formula_units_Z   1
loop_
 _symmetry_equiv_pos_site_id
 _symmetry_equiv_pos_as_xyz
  1  'x, y, z'
loop_
 _atom_site_type_symbol
 _atom_site_label
 _atom_site_symmetry_multiplicity
 _atom_site_fract_x
 _atom_site_fract_y
 _atom_site_fract_z
 _atom_site_occupancy
  Nd  Nd0  1  0.000000  0.000000  0.000000  1
  Dy  Dy1  1  0.485470  0.514530  0.301710  1
  Dy  Dy2  1  0.514530  0.485470  0.698290  1
  Dy  Dy3  1  0.485470  0.970940  0.301710  1
  Dy  Dy4  1  0.514530  0.029060  0.698290  1
  Dy  Dy5  1  0.029060  0.514530  0.301710  1
  Dy  Dy6  1  0.970940  0.485470  0.698290  1
  Sn  Sn7  1  0.350149  0.000000  0.000000  1
  Sn  Sn8  1  0.649851  0.000000  0.000000  1
  Sn  Sn9  1  0.000000  0.350149  0.000000  1
  Sn  Sn10  1  0.000000  0.649851  0.000000  1
  Sn  Sn11  1  0.649851  0.649851  0.000000  1
  Sn  Sn12  1  0.350149  0.350149  0.000000  1
  Sn  Sn13  1  0.333333  0.666667  0.825240  1
  Sn  Sn14  1  0.666667  0.333333  0.174760  1
  Sn  Sn15  1  0.000000  0.000000  0.500000  1
  Sn  Sn16  1  0.780132  0.219868  0.463282  1
  Sn  Sn17  1  0.219868  0.780132  0.536718  1
  Sn  Sn18  1  0.780132  0.560263  0.463282  1
  Sn  Sn19  1  0.219868  0.439737  0.536718  1
  Sn  Sn20  1  0.439737  0.219868  0.463282  1
  Sn  Sn21  1  0.560263  0.780132  0.536718  1
  Sn  Sn22  1  0.333333  0.666667  0.129783  1
  Sn  Sn23  1  0.666667  0.333333  0.870217  1
  Sn  Sn24  1  0.117664  0.882336  0.276079  1
  Sn  Sn25  1  0.882336  0.117664  0.723921  1
  Sn  Sn26  1  0.117664  0.235328  0.276079  1
  Sn  Sn27  1  0.882336  0.764672  0.723921  1
  Sn  Sn28  1  0.764672  0.882336  0.276079  1
  Sn  Sn29  1  0.235328  0.117664  0.723921  1
  Os  Os30  1  0.829377  0.170623  0.202640  1
  Os  Os31  1  0.170623  0.829377  0.797360  1
  Os  Os32  1  0.829377  0.658753  0.202640  1
  Os  Os33  1  0.170623  0.341247  0.797360  1
  Os  Os34  1  0.341247  0.170623  0.202640  1
  Os  Os35  1  0.658753  0.829377  0.797360  1
