# generated using pymatgen
data_La5Nd5Os4
_symmetry_space_group_name_H-M   'P 1'
_cell_length_a   9.00301967
_cell_length_b   9.01025119
_cell_length_c   7.45017744
_cell_angle_alpha   83.86601340
_cell_angle_beta   83.91980437
_cell_angle_gamma   43.71515791
_symmetry_Int_Tables_number   1
_chemical_formula_structural   La5Nd5Os4
_chemical_formula_sum   'La5 Nd5 Os4'
_cell_volume   414.90015530
_cell_formula_units_Z   1
loop_
 _symmetry_equiv_pos_site_id
 _symmetry_equiv_pos_as_xyz
  1  'x, y, z'
loop_
 _atom_site_type_symbol
 _atom_site_label
 _atom_site_symmetry_multiplicity
 _atom_site_fract_x
 _atom_site_fract_y
 _atom_site_fract_z
 _atom_site_occupancy
  La  La0  1  0.015128  0.799921  0.909518  1
  La  La1  1  0.202289  0.984203  0.591181  1
  La  La2  1  0.983282  0.203334  0.091730  1
  La  La3  1  0.800358  0.013645  0.407827  1
  La  La4  1  0.361764  0.210218  0.818960  1
  Nd  Nd5  1  0.791886  0.637808  0.682359  1
  Nd  Nd6  1  0.638668  0.790809  0.183528  1
  Nd  Nd7  1  0.206479  0.362375  0.318071  1
  Nd  Nd8  1  0.571330  0.430962  0.749162  1
  Nd  Nd9  1  0.428277  0.570744  0.249032  1
  Os  Os10  1  0.170978  0.605494  0.581809  1
  Os  Os11  1  0.393236  0.828233  0.920013  1
  Os  Os12  1  0.830581  0.391405  0.419203  1
  Os  Os13  1  0.605742  0.170852  0.077607  1
