# generated using pymatgen
data_CsRb2AsS3
_symmetry_space_group_name_H-M   'P 1'
_cell_length_a   9.87381000
_cell_length_b   9.87381000
_cell_length_c   9.87381000
_cell_angle_alpha   90.00000000
_cell_angle_beta   90.00000000
_cell_angle_gamma   90.00000000
_symmetry_Int_Tables_number   1
_chemical_formula_structural   CsRb2AsS3
_chemical_formula_sum   'Cs4 Rb8 As4 S12'
_cell_volume   962.61870804
_cell_formula_units_Z   4
loop_
 _symmetry_equiv_pos_site_id
 _symmetry_equiv_pos_as_xyz
  1  'x, y, z'
loop_
 _atom_site_type_symbol
 _atom_site_label
 _atom_site_symmetry_multiplicity
 _atom_site_fract_x
 _atom_site_fract_y
 _atom_site_fract_z
 _atom_site_occupancy
  Cs  Cs0  1  0.928443  0.428443  0.071557  1
  Cs  Cs1  1  0.428443  0.071557  0.928443  1
  Cs  Cs2  1  0.071557  0.928443  0.428443  1
  Cs  Cs3  1  0.571557  0.571557  0.571557  1
  Rb  Rb4  1  0.186685  0.686685  0.813315  1
  Rb  Rb5  1  0.686685  0.813315  0.186685  1
  Rb  Rb6  1  0.813315  0.186685  0.686685  1
  Rb  Rb7  1  0.313315  0.313315  0.313315  1
  Rb  Rb8  1  0.694389  0.194389  0.305611  1
  Rb  Rb9  1  0.194389  0.305611  0.694389  1
  Rb  Rb10  1  0.305611  0.694389  0.194389  1
  Rb  Rb11  1  0.805611  0.805611  0.805611  1
  As  As12  1  0.480853  0.980853  0.519147  1
  As  As13  1  0.980853  0.519147  0.480853  1
  As  As14  1  0.519147  0.480853  0.980853  1
  As  As15  1  0.019147  0.019147  0.019147  1
  S  S16  1  0.004668  0.798626  0.086783  1
  S  S17  1  0.913217  0.504668  0.701374  1
  S  S18  1  0.298626  0.413217  0.995332  1
  S  S19  1  0.504668  0.701374  0.913217  1
  S  S20  1  0.413217  0.995332  0.298626  1
  S  S21  1  0.798626  0.086783  0.004668  1
  S  S22  1  0.995332  0.298626  0.413217  1
  S  S23  1  0.086783  0.004668  0.798626  1
  S  S24  1  0.701374  0.913217  0.504668  1
  S  S25  1  0.495332  0.201374  0.586783  1
  S  S26  1  0.586783  0.495332  0.201374  1
  S  S27  1  0.201374  0.586783  0.495332  1
