# generated using pymatgen
data_Sm5TmCoBr10
_symmetry_space_group_name_H-M   'P 1'
_cell_length_a   7.43321281
_cell_length_b   9.23803343
_cell_length_c   9.40636839
_cell_angle_alpha   108.30273719
_cell_angle_beta   96.38843796
_cell_angle_gamma   105.13956023
_symmetry_Int_Tables_number   1
_chemical_formula_structural   Sm5TmCoBr10
_chemical_formula_sum   'Sm5 Tm1 Co1 Br10'
_cell_volume   578.64300095
_cell_formula_units_Z   1
loop_
 _symmetry_equiv_pos_site_id
 _symmetry_equiv_pos_as_xyz
  1  'x, y, z'
loop_
 _atom_site_type_symbol
 _atom_site_label
 _atom_site_symmetry_multiplicity
 _atom_site_fract_x
 _atom_site_fract_y
 _atom_site_fract_z
 _atom_site_occupancy
  Sm  Sm0  1  0.029216  0.712985  0.409053  1
  Sm  Sm1  1  0.966412  0.285265  0.587807  1
  Sm  Sm2  1  0.870697  0.950334  0.743774  1
  Sm  Sm3  1  0.122880  0.045546  0.253840  1
  Sm  Sm4  1  0.359847  0.133985  0.678239  1
  Tm  Tm5  1  0.649604  0.871782  0.328536  1
  Co  Co6  1  0.999712  0.999522  0.500369  1
  Br  Br7  1  0.453138  0.819255  0.577091  1
  Br  Br8  1  0.549563  0.173962  0.413171  1
  Br  Br9  1  0.911317  0.627732  0.669717  1
  Br  Br10  1  0.084856  0.368983  0.325941  1
  Br  Br11  1  0.246459  0.080998  0.953315  1
  Br  Br12  1  0.741750  0.912689  0.051222  1
  Br  Br13  1  0.348271  0.454571  0.768972  1
  Br  Br14  1  0.644331  0.556390  0.228444  1
  Br  Br15  1  0.785097  0.255719  0.848594  1
  Br  Br16  1  0.236851  0.750280  0.161913  1
