# generated using pymatgen
data_Sc12Mn2PbI16
_symmetry_space_group_name_H-M   'P 1'
_cell_length_a   9.27121788
_cell_length_b   11.89235774
_cell_length_c   12.63813446
_cell_angle_alpha   116.61070431
_cell_angle_beta   101.31367495
_cell_angle_gamma   100.87751043
_symmetry_Int_Tables_number   1
_chemical_formula_structural   Sc12Mn2PbI16
_chemical_formula_sum   'Sc12 Mn2 Pb1 I16'
_cell_volume   1159.23556884
_cell_formula_units_Z   1
loop_
 _symmetry_equiv_pos_site_id
 _symmetry_equiv_pos_as_xyz
  1  'x, y, z'
loop_
 _atom_site_type_symbol
 _atom_site_label
 _atom_site_symmetry_multiplicity
 _atom_site_fract_x
 _atom_site_fract_y
 _atom_site_fract_z
 _atom_site_occupancy
  Sc  Sc0  1  0.110883  0.261233  0.353446  1
  Sc  Sc1  1  0.889117  0.738767  0.646554  1
  Sc  Sc2  1  0.754065  0.537439  0.324303  1
  Sc  Sc3  1  0.245935  0.462561  0.675697  1
  Sc  Sc4  1  0.304821  0.739191  0.645780  1
  Sc  Sc5  1  0.695179  0.260809  0.354220  1
  Sc  Sc6  1  0.170337  0.537618  0.323683  1
  Sc  Sc7  1  0.829663  0.462382  0.676317  1
  Sc  Sc8  1  0.412102  0.368348  0.289221  1
  Sc  Sc9  1  0.587898  0.631652  0.710779  1
  Sc  Sc10  1  0.462319  0.324833  0.519011  1
  Sc  Sc11  1  0.537681  0.675167  0.480989  1
  Mn  Mn12  1  0.337937  0.500240  0.499755  1
  Mn  Mn13  1  0.662064  0.499760  0.500245  1
  Pb  Pb14  1  0.000000  0.500000  0.500000  1
  I  I15  1  0.394481  0.739337  0.883684  1
  I  I16  1  0.605519  0.260663  0.116316  1
  I  I17  1  0.183774  0.954884  0.775700  1
  I  I18  1  0.816226  0.045116  0.224300  1
  I  I19  1  0.335509  0.093432  0.251584  1
  I  I20  1  0.664491  0.906568  0.748416  1
  I  I21  1  0.563348  0.435497  0.800015  1
  I  I22  1  0.436652  0.564503  0.199985  1
  I  I23  1  0.308306  0.829440  0.462630  1
  I  I24  1  0.691694  0.170560  0.537370  1
  I  I25  1  0.167087  0.171291  0.536109  1
  I  I26  1  0.832913  0.828709  0.463891  1
  I  I27  1  0.928438  0.575714  0.167715  1
  I  I28  1  0.071562  0.424286  0.832285  1
  I  I29  1  0.925114  0.738784  0.884275  1
  I  I30  1  0.074886  0.261216  0.115725  1
