# generated using pymatgen
data_Nd4ReCl4
_symmetry_space_group_name_H-M   'P 1'
_cell_length_a   8.99525793
_cell_length_b   8.99525857
_cell_length_c   6.72822260
_cell_angle_alpha   90.04720799
_cell_angle_beta   90.04721090
_cell_angle_gamma   89.57724772
_symmetry_Int_Tables_number   1
_chemical_formula_structural   Nd4ReCl4
_chemical_formula_sum   'Nd8 Re2 Cl8'
_cell_volume   544.39673190
_cell_formula_units_Z   2
loop_
 _symmetry_equiv_pos_site_id
 _symmetry_equiv_pos_as_xyz
  1  'x, y, z'
loop_
 _atom_site_type_symbol
 _atom_site_label
 _atom_site_symmetry_multiplicity
 _atom_site_fract_x
 _atom_site_fract_y
 _atom_site_fract_z
 _atom_site_occupancy
  Nd  Nd0  1  0.105442  0.741743  0.986085  1
  Nd  Nd1  1  0.258257  0.894558  0.513915  1
  Nd  Nd2  1  0.894558  0.258257  0.013915  1
  Nd  Nd3  1  0.741743  0.105442  0.486085  1
  Nd  Nd4  1  0.743450  0.895730  0.002464  1
  Nd  Nd5  1  0.104270  0.256550  0.497536  1
  Nd  Nd6  1  0.256550  0.104270  0.997536  1
  Nd  Nd7  1  0.895730  0.743450  0.502464  1
  Re  Re8  1  0.004909  0.995091  0.250000  1
  Re  Re9  1  0.995091  0.004909  0.750000  1
  Cl  Cl10  1  0.413730  0.823037  0.919873  1
  Cl  Cl11  1  0.176963  0.586270  0.580127  1
  Cl  Cl12  1  0.586270  0.176963  0.080127  1
  Cl  Cl13  1  0.823037  0.413730  0.419873  1
  Cl  Cl14  1  0.820716  0.587916  0.917144  1
  Cl  Cl15  1  0.412084  0.179284  0.582856  1
  Cl  Cl16  1  0.179284  0.412084  0.082856  1
  Cl  Cl17  1  0.587916  0.820716  0.417144  1
