# generated using pymatgen
data_Nd6Al24Ir5Ru2Pt
_symmetry_space_group_name_H-M   'P 1'
_cell_length_a   8.92000347
_cell_length_b   8.92000363
_cell_length_c   9.62638690
_cell_angle_alpha   89.95701594
_cell_angle_beta   90.04298229
_cell_angle_gamma   119.90857223
_symmetry_Int_Tables_number   1
_chemical_formula_structural   Nd6Al24Ir5Ru2Pt
_chemical_formula_sum   'Nd6 Al24 Ir5 Ru2 Pt1'
_cell_volume   663.93140019
_cell_formula_units_Z   1
loop_
 _symmetry_equiv_pos_site_id
 _symmetry_equiv_pos_as_xyz
  1  'x, y, z'
loop_
 _atom_site_type_symbol
 _atom_site_label
 _atom_site_symmetry_multiplicity
 _atom_site_fract_x
 _atom_site_fract_y
 _atom_site_fract_z
 _atom_site_occupancy
  Nd  Nd0  1  0.189264  0.379854  0.249750  1
  Nd  Nd1  1  0.810736  0.620146  0.750250  1
  Nd  Nd2  1  0.620146  0.810736  0.249750  1
  Nd  Nd3  1  0.379854  0.189264  0.750250  1
  Nd  Nd4  1  0.189914  0.810086  0.251176  1
  Nd  Nd5  1  0.810086  0.189914  0.748824  1
  Al  Al6  1  0.331613  0.668387  0.024836  1
  Al  Al7  1  0.668387  0.331613  0.975164  1
  Al  Al8  1  0.666586  0.333414  0.523344  1
  Al  Al9  1  0.333414  0.666586  0.476656  1
  Al  Al10  1  0.163339  0.326635  0.573312  1
  Al  Al11  1  0.836661  0.673365  0.426688  1
  Al  Al12  1  0.673365  0.836661  0.573312  1
  Al  Al13  1  0.840443  0.674654  0.075172  1
  Al  Al14  1  0.326635  0.163339  0.426688  1
  Al  Al15  1  0.159557  0.325346  0.924828  1
  Al  Al16  1  0.163380  0.836620  0.574250  1
  Al  Al17  1  0.325346  0.159557  0.075172  1
  Al  Al18  1  0.836620  0.163380  0.425750  1
  Al  Al19  1  0.674654  0.840443  0.924828  1
  Al  Al20  1  0.836471  0.163529  0.074333  1
  Al  Al21  1  0.163529  0.836471  0.925667  1
  Al  Al22  1  0.563242  0.126710  0.249731  1
  Al  Al23  1  0.436758  0.873290  0.750269  1
  Al  Al24  1  0.873290  0.436758  0.249731  1
  Al  Al25  1  0.126710  0.563242  0.750269  1
  Al  Al26  1  0.564068  0.435932  0.252382  1
  Al  Al27  1  0.435932  0.564068  0.747618  1
  Al  Al28  1  0.999360  0.000640  0.250315  1
  Al  Al29  1  0.000640  0.999360  0.749685  1
  Ir  Ir30  1  0.500000  0.000000  0.000000  1
  Ir  Ir31  1  0.000000  0.500000  0.000000  1
  Ir  Ir32  1  0.500000  0.000000  0.500000  1
  Ir  Ir33  1  0.000000  0.500000  0.500000  1
  Ir  Ir34  1  0.500000  0.500000  0.500000  1
  Ru  Ru35  1  0.000000  0.000000  0.000000  1
  Ru  Ru36  1  0.000000  0.000000  0.500000  1
  Pt  Pt37  1  0.500000  0.500000  0.000000  1
