# generated using pymatgen
data_Y2UCo2Si7
_symmetry_space_group_name_H-M   'P 1'
_cell_length_a   3.99911601
_cell_length_b   4.03031100
_cell_length_c   12.35674237
_cell_angle_alpha   90.00000000
_cell_angle_beta   99.31250523
_cell_angle_gamma   90.00000000
_symmetry_Int_Tables_number   1
_chemical_formula_structural   Y2UCo2Si7
_chemical_formula_sum   'Y2 U1 Co2 Si7'
_cell_volume   196.53716327
_cell_formula_units_Z   1
loop_
 _symmetry_equiv_pos_site_id
 _symmetry_equiv_pos_as_xyz
  1  'x, y, z'
loop_
 _atom_site_type_symbol
 _atom_site_label
 _atom_site_symmetry_multiplicity
 _atom_site_fract_x
 _atom_site_fract_y
 _atom_site_fract_z
 _atom_site_occupancy
  Y  Y0  1  0.316070  0.000000  0.632141  1
  Y  Y1  1  0.683930  0.000000  0.367859  1
  U  U2  1  0.000000  0.500000  0.000000  1
  Co  Co3  1  0.127714  0.500000  0.255428  1
  Co  Co4  1  0.872286  0.500000  0.744572  1
  Si  Si5  1  0.500000  0.000000  0.000000  1
  Si  Si6  1  0.413441  0.500000  0.826883  1
  Si  Si7  1  0.586559  0.500000  0.173117  1
  Si  Si8  1  0.086735  0.000000  0.173470  1
  Si  Si9  1  0.913265  0.000000  0.826530  1
  Si  Si10  1  0.221212  0.500000  0.442424  1
  Si  Si11  1  0.778788  0.500000  0.557576  1
