# generated using pymatgen
data_ScCr3P4Rh3
_symmetry_space_group_name_H-M   'P 1'
_cell_length_a   6.93597502
_cell_length_b   6.93454356
_cell_length_c   3.56680800
_cell_angle_alpha   90.00000000
_cell_angle_beta   90.00000000
_cell_angle_gamma   119.99742111
_symmetry_Int_Tables_number   1
_chemical_formula_structural   ScCr3P4Rh3
_chemical_formula_sum   'Sc1 Cr3 P4 Rh3'
_cell_volume   148.57544848
_cell_formula_units_Z   1
loop_
 _symmetry_equiv_pos_site_id
 _symmetry_equiv_pos_as_xyz
  1  'x, y, z'
loop_
 _atom_site_type_symbol
 _atom_site_label
 _atom_site_symmetry_multiplicity
 _atom_site_fract_x
 _atom_site_fract_y
 _atom_site_fract_z
 _atom_site_occupancy
  Sc  Sc0  1  0.999992  0.999991  0.000000  1
  Cr  Cr1  1  0.459690  0.918565  0.000000  1
  Cr  Cr2  1  0.458903  0.540351  0.000000  1
  Cr  Cr3  1  0.081489  0.541175  0.000000  1
  P  P4  1  0.666608  0.333283  0.000000  1
  P  P5  1  0.191284  0.382333  0.500000  1
  P  P6  1  0.191142  0.808779  0.500000  1
  P  P7  1  0.617584  0.808889  0.500000  1
  Rh  Rh8  1  0.804541  0.609556  0.500000  1
  Rh  Rh9  1  0.805013  0.195443  0.500000  1
  Rh  Rh10  1  0.390421  0.194969  0.500000  1
