# generated using pymatgen
data_GaCu6MoS8
_symmetry_space_group_name_H-M   'P 1'
_cell_length_a   7.55742700
_cell_length_b   7.55742782
_cell_length_c   12.46540300
_cell_angle_alpha   90.00000000
_cell_angle_beta   90.00000000
_cell_angle_gamma   119.99999205
_symmetry_Int_Tables_number   1
_chemical_formula_structural   GaCu6MoS8
_chemical_formula_sum   'Ga2 Cu12 Mo2 S16'
_cell_volume   616.57364710
_cell_formula_units_Z   2
loop_
 _symmetry_equiv_pos_site_id
 _symmetry_equiv_pos_as_xyz
  1  'x, y, z'
loop_
 _atom_site_type_symbol
 _atom_site_label
 _atom_site_symmetry_multiplicity
 _atom_site_fract_x
 _atom_site_fract_y
 _atom_site_fract_z
 _atom_site_occupancy
  Ga  Ga0  1  0.000000  0.000000  0.852538  1
  Ga  Ga1  1  0.000000  0.000000  0.352538  1
  Cu  Cu2  1  0.838635  0.677272  0.105980  1
  Cu  Cu3  1  0.503678  0.496322  0.352830  1
  Cu  Cu4  1  0.007355  0.503678  0.852830  1
  Cu  Cu5  1  0.838635  0.161365  0.105980  1
  Cu  Cu6  1  0.496322  0.503678  0.852830  1
  Cu  Cu7  1  0.161365  0.322728  0.605980  1
  Cu  Cu8  1  0.503678  0.007355  0.352830  1
  Cu  Cu9  1  0.992645  0.496322  0.352830  1
  Cu  Cu10  1  0.161365  0.838635  0.605980  1
  Cu  Cu11  1  0.496322  0.992645  0.852830  1
  Cu  Cu12  1  0.677272  0.838635  0.605980  1
  Cu  Cu13  1  0.322728  0.161365  0.105980  1
  Mo  Mo14  1  0.333333  0.666667  0.480570  1
  Mo  Mo15  1  0.666667  0.333333  0.980570  1
  S  S16  1  0.000000  0.000000  0.037900  1
  S  S17  1  0.333979  0.166990  0.289808  1
  S  S18  1  0.833010  0.166990  0.289808  1
  S  S19  1  0.006784  0.503393  0.540121  1
  S  S20  1  0.833010  0.666021  0.289808  1
  S  S21  1  0.666667  0.333333  0.798780  1
  S  S22  1  0.166990  0.333979  0.789808  1
  S  S23  1  0.496607  0.503393  0.540121  1
  S  S24  1  0.000000  0.000000  0.537900  1
  S  S25  1  0.333333  0.666667  0.298780  1
  S  S26  1  0.993216  0.496607  0.040121  1
  S  S27  1  0.496607  0.993216  0.540121  1
  S  S28  1  0.166990  0.833010  0.789808  1
  S  S29  1  0.666021  0.833010  0.789808  1
  S  S30  1  0.503393  0.006784  0.040121  1
  S  S31  1  0.503393  0.496607  0.040121  1
