# generated using pymatgen
data_NdBi3Os2O11
_symmetry_space_group_name_H-M   'P 1'
_cell_length_a   6.62768901
_cell_length_b   7.59335327
_cell_length_c   9.92182863
_cell_angle_alpha   101.16277002
_cell_angle_beta   91.92009570
_cell_angle_gamma   90.09071651
_symmetry_Int_Tables_number   1
_chemical_formula_structural   NdBi3Os2O11
_chemical_formula_sum   'Nd2 Bi6 Os4 O22'
_cell_volume   489.59137888
_cell_formula_units_Z   2
loop_
 _symmetry_equiv_pos_site_id
 _symmetry_equiv_pos_as_xyz
  1  'x, y, z'
loop_
 _atom_site_type_symbol
 _atom_site_label
 _atom_site_symmetry_multiplicity
 _atom_site_fract_x
 _atom_site_fract_y
 _atom_site_fract_z
 _atom_site_occupancy
  Nd  Nd0  1  0.750168  0.368077  0.478393  1
  Nd  Nd1  1  0.249832  0.631923  0.521607  1
  Bi  Bi2  1  0.751113  0.871708  0.479291  1
  Bi  Bi3  1  0.248887  0.128292  0.520709  1
  Bi  Bi4  1  0.479564  0.955795  0.821971  1
  Bi  Bi5  1  0.520436  0.044205  0.178029  1
  Bi  Bi6  1  0.406105  0.456556  0.827444  1
  Bi  Bi7  1  0.593895  0.543444  0.172556  1
  Os  Os8  1  0.937264  0.703666  0.812075  1
  Os  Os9  1  0.062736  0.296334  0.187925  1
  Os  Os10  1  0.936042  0.204699  0.814329  1
  Os  Os11  1  0.063958  0.795301  0.185671  1
  O  O12  1  0.233223  0.723396  0.767735  1
  O  O13  1  0.766777  0.276604  0.232265  1
  O  O14  1  0.641068  0.676442  0.828237  1
  O  O15  1  0.358932  0.323558  0.171763  1
  O  O16  1  0.641502  0.242170  0.841393  1
  O  O17  1  0.358498  0.757830  0.158607  1
  O  O18  1  0.892339  0.172322  0.612709  1
  O  O19  1  0.107661  0.827678  0.387291  1
  O  O20  1  0.229788  0.159941  0.766170  1
  O  O21  1  0.770212  0.840059  0.233830  1
  O  O22  1  0.904448  0.637361  0.607284  1
  O  O23  1  0.095552  0.362639  0.392716  1
  O  O24  1  0.999815  0.544797  0.181358  1
  O  O25  1  0.000185  0.455203  0.818642  1
  O  O26  1  0.997146  0.767223  0.999114  1
  O  O27  1  0.002854  0.232777  0.000886  1
  O  O28  1  0.571725  0.606385  0.394703  1
  O  O29  1  0.428275  0.393615  0.605297  1
  O  O30  1  0.144902  0.050193  0.205004  1
  O  O31  1  0.855098  0.949807  0.794996  1
  O  O32  1  0.543550  0.094008  0.399077  1
  O  O33  1  0.456450  0.905992  0.600923  1
