# generated using pymatgen
data_TaNb3CrP4Rh3
_symmetry_space_group_name_H-M   'P 1'
_cell_length_a   3.70702300
_cell_length_b   6.33794012
_cell_length_c   7.25007804
_cell_angle_alpha   89.57545341
_cell_angle_beta   90.00000000
_cell_angle_gamma   90.00000000
_symmetry_Int_Tables_number   1
_chemical_formula_structural   TaNb3CrP4Rh3
_chemical_formula_sum   'Ta1 Nb3 Cr1 P4 Rh3'
_cell_volume   170.33510858
_cell_formula_units_Z   1
loop_
 _symmetry_equiv_pos_site_id
 _symmetry_equiv_pos_as_xyz
  1  'x, y, z'
loop_
 _atom_site_type_symbol
 _atom_site_label
 _atom_site_symmetry_multiplicity
 _atom_site_fract_x
 _atom_site_fract_y
 _atom_site_fract_z
 _atom_site_occupancy
  Ta  Ta0  1  0.750000  0.470788  0.325473  1
  Nb  Nb1  1  0.250000  0.035055  0.835069  1
  Nb  Nb2  1  0.250000  0.519285  0.674790  1
  Nb  Nb3  1  0.750000  0.974635  0.163659  1
  Cr  Cr4  1  0.750000  0.358514  0.941831  1
  P  P5  1  0.250000  0.762104  0.374624  1
  P  P6  1  0.250000  0.267841  0.117775  1
  P  P7  1  0.750000  0.237078  0.636676  1
  P  P8  1  0.750000  0.727283  0.872076  1
  Rh  Rh9  1  0.250000  0.150491  0.432341  1
  Rh  Rh10  1  0.250000  0.641758  0.064052  1
  Rh  Rh11  1  0.750000  0.855168  0.561634  1
