# generated using pymatgen
data_Li8Tb5Y3Sn7Bi
_symmetry_space_group_name_H-M   'P 1'
_cell_length_a   9.42189644
_cell_length_b   9.42189724
_cell_length_c   7.33026655
_cell_angle_alpha   90.00458271
_cell_angle_beta   89.99541879
_cell_angle_gamma   119.98210337
_symmetry_Int_Tables_number   1
_chemical_formula_structural   Li8Tb5Y3Sn7Bi
_chemical_formula_sum   'Li8 Tb5 Y3 Sn7 Bi1'
_cell_volume   563.64463638
_cell_formula_units_Z   1
loop_
 _symmetry_equiv_pos_site_id
 _symmetry_equiv_pos_as_xyz
  1  'x, y, z'
loop_
 _atom_site_type_symbol
 _atom_site_label
 _atom_site_symmetry_multiplicity
 _atom_site_fract_x
 _atom_site_fract_y
 _atom_site_fract_z
 _atom_site_occupancy
  Li  Li0  1  0.166534  0.833466  0.196539  1
  Li  Li1  1  0.335493  0.171063  0.690205  1
  Li  Li2  1  0.828937  0.664507  0.690205  1
  Li  Li3  1  0.168161  0.334377  0.193188  1
  Li  Li4  1  0.665623  0.831839  0.193188  1
  Li  Li5  1  0.833385  0.166615  0.694042  1
  Li  Li6  1  0.335434  0.664566  0.815436  1
  Li  Li7  1  0.666036  0.333964  0.313618  1
  Tb  Tb8  1  0.513046  0.486954  0.991501  1
  Tb  Tb9  1  0.022269  0.507300  0.488785  1
  Tb  Tb10  1  0.492700  0.977731  0.488785  1
  Tb  Tb11  1  0.517875  0.027479  0.993962  1
  Tb  Tb12  1  0.972521  0.482125  0.993962  1
  Y  Y13  1  0.486859  0.513141  0.490571  1
  Y  Y14  1  0.997306  0.002694  0.988191  1
  Y  Y15  1  0.997896  0.002104  0.483493  1
  Sn  Sn16  1  0.333157  0.166062  0.256941  1
  Sn  Sn17  1  0.833938  0.666843  0.256941  1
  Sn  Sn18  1  0.166015  0.333083  0.757062  1
  Sn  Sn19  1  0.666917  0.833985  0.757062  1
  Sn  Sn20  1  0.833657  0.166343  0.256070  1
  Sn  Sn21  1  0.332708  0.667292  0.223411  1
  Sn  Sn22  1  0.666971  0.333029  0.722849  1
  Bi  Bi23  1  0.166561  0.833439  0.753995  1
