# generated using pymatgen
data_Ti2Cu2Mo
_symmetry_space_group_name_H-M   'P 1'
_cell_length_a   3.17483223
_cell_length_b   3.17483289
_cell_length_c   7.54846782
_cell_angle_alpha   102.13971224
_cell_angle_beta   102.13971476
_cell_angle_gamma   89.99999564
_symmetry_Int_Tables_number   1
_chemical_formula_structural   Ti2Cu2Mo
_chemical_formula_sum   'Ti2 Cu2 Mo1'
_cell_volume   72.64252667
_cell_formula_units_Z   1
loop_
 _symmetry_equiv_pos_site_id
 _symmetry_equiv_pos_as_xyz
  1  'x, y, z'
loop_
 _atom_site_type_symbol
 _atom_site_label
 _atom_site_symmetry_multiplicity
 _atom_site_fract_x
 _atom_site_fract_y
 _atom_site_fract_z
 _atom_site_occupancy
  Ti  Ti0  1  0.604943  0.604943  0.209889  1
  Ti  Ti1  1  0.395055  0.395055  0.790110  1
  Cu  Cu2  1  0.206300  0.206300  0.412600  1
  Cu  Cu3  1  0.793699  0.793699  0.587401  1
  Mo  Mo4  1  0.000000  0.000000  0.000000  1
