# generated using pymatgen
data_Ca3YbCN4
_symmetry_space_group_name_H-M   'P 1'
_cell_length_a   3.55113800
_cell_length_b   11.39727800
_cell_length_c   13.99271500
_cell_angle_alpha   90.00000000
_cell_angle_beta   90.00000000
_cell_angle_gamma   90.00000000
_symmetry_Int_Tables_number   1
_chemical_formula_structural   Ca3YbCN4
_chemical_formula_sum   'Ca12 Yb4 C4 N16'
_cell_volume   566.33144999
_cell_formula_units_Z   4
loop_
 _symmetry_equiv_pos_site_id
 _symmetry_equiv_pos_as_xyz
  1  'x, y, z'
loop_
 _atom_site_type_symbol
 _atom_site_label
 _atom_site_symmetry_multiplicity
 _atom_site_fract_x
 _atom_site_fract_y
 _atom_site_fract_z
 _atom_site_occupancy
  Ca  Ca0  1  0.250000  0.875863  0.382538  1
  Ca  Ca1  1  0.750000  0.124137  0.617462  1
  Ca  Ca2  1  0.250000  0.375863  0.117462  1
  Ca  Ca3  1  0.750000  0.624137  0.882538  1
  Ca  Ca4  1  0.250000  0.379409  0.540859  1
  Ca  Ca5  1  0.750000  0.620591  0.459141  1
  Ca  Ca6  1  0.250000  0.879409  0.959141  1
  Ca  Ca7  1  0.750000  0.120591  0.040859  1
  Ca  Ca8  1  0.250000  0.615811  0.670590  1
  Ca  Ca9  1  0.750000  0.384189  0.329410  1
  Ca  Ca10  1  0.250000  0.115811  0.829410  1
  Ca  Ca11  1  0.750000  0.884189  0.170590  1
  Yb  Yb12  1  0.250000  0.638007  0.260438  1
  Yb  Yb13  1  0.750000  0.361993  0.739562  1
  Yb  Yb14  1  0.250000  0.138007  0.239562  1
  Yb  Yb15  1  0.750000  0.861993  0.760438  1
  C  C16  1  0.250000  0.861295  0.586916  1
  C  C17  1  0.750000  0.138705  0.413084  1
  C  C18  1  0.250000  0.361295  0.913084  1
  C  C19  1  0.750000  0.638705  0.086916  1
  N  N20  1  0.250000  0.954221  0.633539  1
  N  N21  1  0.750000  0.045779  0.366461  1
  N  N22  1  0.250000  0.454221  0.866461  1
  N  N23  1  0.750000  0.545779  0.133539  1
  N  N24  1  0.250000  0.768667  0.540049  1
  N  N25  1  0.750000  0.231333  0.459951  1
  N  N26  1  0.250000  0.268667  0.959951  1
  N  N27  1  0.750000  0.731333  0.040049  1
  N  N28  1  0.250000  0.500968  0.382751  1
  N  N29  1  0.750000  0.499032  0.617249  1
  N  N30  1  0.250000  0.000968  0.117249  1
  N  N31  1  0.750000  0.999032  0.882751  1
  N  N32  1  0.750000  0.264073  0.186235  1
  N  N33  1  0.250000  0.735927  0.813765  1
  N  N34  1  0.750000  0.764073  0.313765  1
  N  N35  1  0.250000  0.235927  0.686235  1
