# generated using pymatgen
data_LiCr7Te12
_symmetry_space_group_name_H-M   'P 1'
_cell_length_a   6.82860300
_cell_length_b   6.82860267
_cell_length_c   12.58974600
_cell_angle_alpha   90.00000000
_cell_angle_beta   90.00000000
_cell_angle_gamma   120.00000645
_symmetry_Int_Tables_number   1
_chemical_formula_structural   LiCr7Te12
_chemical_formula_sum   'Li1 Cr7 Te12'
_cell_volume   508.40671699
_cell_formula_units_Z   1
loop_
 _symmetry_equiv_pos_site_id
 _symmetry_equiv_pos_as_xyz
  1  'x, y, z'
loop_
 _atom_site_type_symbol
 _atom_site_label
 _atom_site_symmetry_multiplicity
 _atom_site_fract_x
 _atom_site_fract_y
 _atom_site_fract_z
 _atom_site_occupancy
  Li  Li0  1  0.333333  0.666667  0.250000  1
  Cr  Cr1  1  0.666667  0.333333  0.750000  1
  Cr  Cr2  1  0.000000  0.000000  0.992621  1
  Cr  Cr3  1  0.000000  0.000000  0.507379  1
  Cr  Cr4  1  0.333333  0.666667  0.994748  1
  Cr  Cr5  1  0.333333  0.666667  0.505252  1
  Cr  Cr6  1  0.666667  0.333333  0.999496  1
  Cr  Cr7  1  0.666667  0.333333  0.500504  1
  Te  Te8  1  0.328307  0.000330  0.387260  1
  Te  Te9  1  0.999670  0.327977  0.387260  1
  Te  Te10  1  0.672023  0.671693  0.387260  1
  Te  Te11  1  0.999670  0.671693  0.112740  1
  Te  Te12  1  0.672023  0.000330  0.112740  1
  Te  Te13  1  0.328307  0.327977  0.112740  1
  Te  Te14  1  0.665722  0.998221  0.627667  1
  Te  Te15  1  0.001779  0.667501  0.627667  1
  Te  Te16  1  0.332499  0.334278  0.627667  1
  Te  Te17  1  0.001779  0.334278  0.872333  1
  Te  Te18  1  0.332499  0.998221  0.872333  1
  Te  Te19  1  0.665722  0.667501  0.872333  1
