# generated using pymatgen
data_BaPuCuSe3
_symmetry_space_group_name_H-M   'P 1'
_cell_length_a   7.34498155
_cell_length_b   7.34498178
_cell_length_c   10.74958600
_cell_angle_alpha   90.00000000
_cell_angle_beta   90.00000000
_cell_angle_gamma   146.37663582
_symmetry_Int_Tables_number   1
_chemical_formula_structural   BaPuCuSe3
_chemical_formula_sum   'Ba2 Pu2 Cu2 Se6'
_cell_volume   321.12352953
_cell_formula_units_Z   2
loop_
 _symmetry_equiv_pos_site_id
 _symmetry_equiv_pos_as_xyz
  1  'x, y, z'
loop_
 _atom_site_type_symbol
 _atom_site_label
 _atom_site_symmetry_multiplicity
 _atom_site_fract_x
 _atom_site_fract_y
 _atom_site_fract_z
 _atom_site_occupancy
  Ba  Ba0  1  0.253300  0.746700  0.250000  1
  Ba  Ba1  1  0.746700  0.253300  0.750000  1
  Pu  Pu2  1  0.000000  0.000000  0.500000  1
  Pu  Pu3  1  0.000000  0.000000  0.000000  1
  Cu  Cu4  1  0.532401  0.467599  0.250000  1
  Cu  Cu5  1  0.467599  0.532401  0.750000  1
  Se  Se6  1  0.634392  0.365608  0.436258  1
  Se  Se7  1  0.365608  0.634392  0.563742  1
  Se  Se8  1  0.634392  0.365608  0.063742  1
  Se  Se9  1  0.365608  0.634392  0.936258  1
  Se  Se10  1  0.932292  0.067708  0.250000  1
  Se  Se11  1  0.067708  0.932292  0.750000  1
