# generated using pymatgen
data_Tb6Zn22PdS
_symmetry_space_group_name_H-M   'P 1'
_cell_length_a   9.08054145
_cell_length_b   9.08054147
_cell_length_c   9.08054200
_cell_angle_alpha   60.00000537
_cell_angle_beta   60.00000530
_cell_angle_gamma   59.99999519
_symmetry_Int_Tables_number   1
_chemical_formula_structural   Tb6Zn22PdS
_chemical_formula_sum   'Tb6 Zn22 Pd1 S1'
_cell_volume   529.44430935
_cell_formula_units_Z   1
loop_
 _symmetry_equiv_pos_site_id
 _symmetry_equiv_pos_as_xyz
  1  'x, y, z'
loop_
 _atom_site_type_symbol
 _atom_site_label
 _atom_site_symmetry_multiplicity
 _atom_site_fract_x
 _atom_site_fract_y
 _atom_site_fract_z
 _atom_site_occupancy
  Tb  Tb0  1  0.712105  0.287895  0.287895  1
  Tb  Tb1  1  0.287895  0.712105  0.712105  1
  Tb  Tb2  1  0.287895  0.712105  0.287895  1
  Tb  Tb3  1  0.712105  0.287895  0.712105  1
  Tb  Tb4  1  0.287895  0.287895  0.712105  1
  Tb  Tb5  1  0.712105  0.712105  0.287895  1
  Zn  Zn6  1  0.121940  0.121940  0.121940  1
  Zn  Zn7  1  0.878060  0.878060  0.878060  1
  Zn  Zn8  1  0.121940  0.121940  0.634180  1
  Zn  Zn9  1  0.121940  0.634180  0.121940  1
  Zn  Zn10  1  0.878060  0.878060  0.365820  1
  Zn  Zn11  1  0.878060  0.365820  0.878060  1
  Zn  Zn12  1  0.634180  0.121940  0.121940  1
  Zn  Zn13  1  0.365820  0.878060  0.878060  1
  Zn  Zn14  1  0.500000  0.000000  0.000000  1
  Zn  Zn15  1  0.000000  0.500000  0.500000  1
  Zn  Zn16  1  0.000000  0.500000  0.000000  1
  Zn  Zn17  1  0.500000  0.000000  0.500000  1
  Zn  Zn18  1  0.000000  0.000000  0.500000  1
  Zn  Zn19  1  0.500000  0.500000  0.000000  1
  Zn  Zn20  1  0.328971  0.328971  0.328971  1
  Zn  Zn21  1  0.671029  0.671029  0.671029  1
  Zn  Zn22  1  0.328971  0.328971  0.013085  1
  Zn  Zn23  1  0.328971  0.013085  0.328971  1
  Zn  Zn24  1  0.671029  0.671029  0.986915  1
  Zn  Zn25  1  0.671029  0.986915  0.671029  1
  Zn  Zn26  1  0.013085  0.328971  0.328971  1
  Zn  Zn27  1  0.986915  0.671029  0.671029  1
  Pd  Pd28  1  0.000000  0.000000  0.000000  1
  S  S29  1  0.500000  0.500000  0.500000  1
