# generated using pymatgen
data_Zr2Tc5B4
_symmetry_space_group_name_H-M   'P 1'
_cell_length_a   3.12343100
_cell_length_b   8.68028923
_cell_length_c   10.01825217
_cell_angle_alpha   90.02008629
_cell_angle_beta   90.00000000
_cell_angle_gamma   90.00000000
_symmetry_Int_Tables_number   1
_chemical_formula_structural   Zr2Tc5B4
_chemical_formula_sum   'Zr4 Tc10 B8'
_cell_volume   271.61768589
_cell_formula_units_Z   2
loop_
 _symmetry_equiv_pos_site_id
 _symmetry_equiv_pos_as_xyz
  1  'x, y, z'
loop_
 _atom_site_type_symbol
 _atom_site_label
 _atom_site_symmetry_multiplicity
 _atom_site_fract_x
 _atom_site_fract_y
 _atom_site_fract_z
 _atom_site_occupancy
  Zr  Zr0  1  0.500000  0.834323  0.182051  1
  Zr  Zr1  1  0.500000  0.165677  0.817949  1
  Zr  Zr2  1  0.500000  0.665396  0.681913  1
  Zr  Zr3  1  0.500000  0.334604  0.318087  1
  Tc  Tc4  1  0.000000  0.659323  0.955419  1
  Tc  Tc5  1  0.000000  0.340677  0.044581  1
  Tc  Tc6  1  0.000000  0.840520  0.455389  1
  Tc  Tc7  1  0.000000  0.159480  0.544611  1
  Tc  Tc8  1  0.000000  0.000000  0.000000  1
  Tc  Tc9  1  0.000000  0.410303  0.759869  1
  Tc  Tc10  1  0.000000  0.589697  0.240131  1
  Tc  Tc11  1  0.000000  0.500000  0.500000  1
  Tc  Tc12  1  0.000000  0.910289  0.740151  1
  Tc  Tc13  1  0.000000  0.089711  0.259849  1
  B  B14  1  0.500000  0.969167  0.587690  1
  B  B15  1  0.500000  0.030833  0.412310  1
  B  B16  1  0.500000  0.849471  0.901941  1
  B  B17  1  0.500000  0.150529  0.098059  1
  B  B18  1  0.500000  0.650422  0.401984  1
  B  B19  1  0.500000  0.349578  0.598016  1
  B  B20  1  0.500000  0.469145  0.912300  1
  B  B21  1  0.500000  0.530855  0.087700  1
