# generated using pymatgen
data_CaPt4Pb3O14
_symmetry_space_group_name_H-M   'P 1'
_cell_length_a   7.42145867
_cell_length_b   7.42145726
_cell_length_c   7.27231233
_cell_angle_alpha   59.31921674
_cell_angle_beta   59.31922143
_cell_angle_gamma   59.99999420
_symmetry_Int_Tables_number   1
_chemical_formula_structural   CaPt4Pb3O14
_chemical_formula_sum   'Ca1 Pt4 Pb3 O14'
_cell_volume   280.27836959
_cell_formula_units_Z   1
loop_
 _symmetry_equiv_pos_site_id
 _symmetry_equiv_pos_as_xyz
  1  'x, y, z'
loop_
 _atom_site_type_symbol
 _atom_site_label
 _atom_site_symmetry_multiplicity
 _atom_site_fract_x
 _atom_site_fract_y
 _atom_site_fract_z
 _atom_site_occupancy
  Ca  Ca0  1  0.125000  0.125000  0.625000  1
  Pt  Pt1  1  0.625000  0.625000  0.625000  1
  Pt  Pt2  1  0.125000  0.625000  0.625000  1
  Pt  Pt3  1  0.625000  0.125000  0.625000  1
  Pt  Pt4  1  0.625000  0.625000  0.125000  1
  Pb  Pb5  1  0.125000  0.625000  0.125000  1
  Pb  Pb6  1  0.625000  0.125000  0.125000  1
  Pb  Pb7  1  0.125000  0.125000  0.125000  1
  O  O8  1  0.292398  0.710903  0.704303  1
  O  O9  1  0.541753  0.956307  0.960187  1
  O  O10  1  0.710903  0.292398  0.704303  1
  O  O11  1  0.292398  0.292398  0.704303  1
  O  O12  1  0.708247  0.708247  0.289813  1
  O  O13  1  0.995263  0.995263  0.014211  1
  O  O14  1  0.293693  0.708247  0.289813  1
  O  O15  1  0.956307  0.541753  0.960187  1
  O  O16  1  0.957602  0.957602  0.545697  1
  O  O17  1  0.541753  0.541753  0.960187  1
  O  O18  1  0.254737  0.254737  0.235789  1
  O  O19  1  0.539097  0.957602  0.545697  1
  O  O20  1  0.708247  0.293693  0.289813  1
  O  O21  1  0.957602  0.539097  0.545697  1
