# generated using pymatgen
data_Ba12AlGa3(O4F)4
_symmetry_space_group_name_H-M   'P 1'
_cell_length_a   7.40227009
_cell_length_b   8.27769600
_cell_length_c   10.64196613
_cell_angle_alpha   90.00000000
_cell_angle_beta   90.01821459
_cell_angle_gamma   90.00000000
_symmetry_Int_Tables_number   1
_chemical_formula_structural   Ba12AlGa3(O4F)4
_chemical_formula_sum   'Ba12 Al1 Ga3 O16 F4'
_cell_volume   652.07304949
_cell_formula_units_Z   1
loop_
 _symmetry_equiv_pos_site_id
 _symmetry_equiv_pos_as_xyz
  1  'x, y, z'
loop_
 _atom_site_type_symbol
 _atom_site_label
 _atom_site_symmetry_multiplicity
 _atom_site_fract_x
 _atom_site_fract_y
 _atom_site_fract_z
 _atom_site_occupancy
  Ba  Ba0  1  0.401454  0.023992  0.833251  1
  Ba  Ba1  1  0.099205  0.475868  0.333430  1
  Ba  Ba2  1  0.599547  0.525342  0.165730  1
  Ba  Ba3  1  0.900404  0.975036  0.667755  1
  Ba  Ba4  1  0.599547  0.974658  0.165730  1
  Ba  Ba5  1  0.900404  0.524964  0.667755  1
  Ba  Ba6  1  0.401454  0.476008  0.833251  1
  Ba  Ba7  1  0.099205  0.024132  0.333430  1
  Ba  Ba8  1  0.901731  0.250000  0.965962  1
  Ba  Ba9  1  0.596958  0.250000  0.466426  1
  Ba  Ba10  1  0.095479  0.750000  0.032518  1
  Ba  Ba11  1  0.404471  0.750000  0.534863  1
  Al  Al12  1  0.689713  0.750000  0.896899  1
  Ga  Ga13  1  0.191487  0.250000  0.602404  1
  Ga  Ga14  1  0.308174  0.250000  0.102280  1
  Ga  Ga15  1  0.808429  0.750000  0.397725  1
  O  O16  1  0.309501  0.056461  0.571767  1
  O  O17  1  0.190190  0.443484  0.071117  1
  O  O18  1  0.690483  0.556780  0.428858  1
  O  O19  1  0.804504  0.934148  0.927156  1
  O  O20  1  0.690483  0.943220  0.428858  1
  O  O21  1  0.804504  0.565852  0.927156  1
  O  O22  1  0.309501  0.443539  0.571767  1
  O  O23  1  0.190190  0.056516  0.071117  1
  O  O24  1  0.976905  0.250000  0.507148  1
  O  O25  1  0.523707  0.250000  0.007457  1
  O  O26  1  0.023449  0.750000  0.492796  1
  O  O27  1  0.486335  0.750000  0.988500  1
  O  O28  1  0.127889  0.250000  0.774712  1
  O  O29  1  0.370495  0.250000  0.274529  1
  O  O30  1  0.871288  0.750000  0.225524  1
  O  O31  1  0.630893  0.750000  0.732598  1
  F  F32  1  0.660743  0.250000  0.727509  1
  F  F33  1  0.839739  0.250000  0.226575  1
  F  F34  1  0.340077  0.750000  0.272703  1
  F  F35  1  0.161462  0.750000  0.772745  1
