# generated using pymatgen
data_Zn2Cu3SbO6
_symmetry_space_group_name_H-M   'P 1'
_cell_length_a   5.44829391
_cell_length_b   5.44829352
_cell_length_c   6.11921129
_cell_angle_alpha   81.22689806
_cell_angle_beta   81.22689028
_cell_angle_gamma   119.94770582
_symmetry_Int_Tables_number   1
_chemical_formula_structural   Zn2Cu3SbO6
_chemical_formula_sum   'Zn2 Cu3 Sb1 O6'
_cell_volume   149.90017225
_cell_formula_units_Z   1
loop_
 _symmetry_equiv_pos_site_id
 _symmetry_equiv_pos_as_xyz
  1  'x, y, z'
loop_
 _atom_site_type_symbol
 _atom_site_label
 _atom_site_symmetry_multiplicity
 _atom_site_fract_x
 _atom_site_fract_y
 _atom_site_fract_z
 _atom_site_occupancy
  Zn  Zn0  1  0.666405  0.333594  0.000000  1
  Zn  Zn1  1  0.333594  0.666405  0.000000  1
  Cu  Cu2  1  0.845367  0.154632  0.500000  1
  Cu  Cu3  1  0.499999  0.499999  0.500000  1
  Cu  Cu4  1  0.154632  0.845367  0.500000  1
  Sb  Sb5  1  0.000000  0.000000  0.000000  1
  O  O6  1  0.620909  0.620909  0.181230  1
  O  O7  1  0.255502  0.937867  0.181351  1
  O  O8  1  0.937867  0.255502  0.181351  1
  O  O9  1  0.062134  0.744499  0.818650  1
  O  O10  1  0.744499  0.062134  0.818650  1
  O  O11  1  0.379092  0.379092  0.818770  1
