# generated using pymatgen
data_NdTh3InNi4Ag
_symmetry_space_group_name_H-M   'P 1'
_cell_length_a   7.58769346
_cell_length_b   7.58722900
_cell_length_c   3.71353300
_cell_angle_alpha   90.00000000
_cell_angle_beta   90.00000000
_cell_angle_gamma   91.20406612
_symmetry_Int_Tables_number   1
_chemical_formula_structural   NdTh3InNi4Ag
_chemical_formula_sum   'Nd1 Th3 In1 Ni4 Ag1'
_cell_volume   213.73928493
_cell_formula_units_Z   1
loop_
 _symmetry_equiv_pos_site_id
 _symmetry_equiv_pos_as_xyz
  1  'x, y, z'
loop_
 _atom_site_type_symbol
 _atom_site_label
 _atom_site_symmetry_multiplicity
 _atom_site_fract_x
 _atom_site_fract_y
 _atom_site_fract_z
 _atom_site_occupancy
  Nd  Nd0  1  0.822170  0.669852  0.500000  1
  Th  Th1  1  0.670333  0.178283  0.500000  1
  Th  Th2  1  0.331853  0.822204  0.500000  1
  Th  Th3  1  0.176177  0.331501  0.500000  1
  In  In4  1  0.998719  0.996156  0.000000  1
  Ni  Ni5  1  0.130607  0.621972  0.000000  1
  Ni  Ni6  1  0.884092  0.364225  0.000000  1
  Ni  Ni7  1  0.614793  0.890966  0.000000  1
  Ni  Ni8  1  0.368895  0.124310  0.000000  1
  Ag  Ag9  1  0.502362  0.500533  0.000000  1
