# generated using pymatgen
data_Tb4Lu(CoTe)2
_symmetry_space_group_name_H-M   'P 1'
_cell_length_a   7.75478477
_cell_length_b   7.75478599
_cell_length_c   14.92683400
_cell_angle_alpha   90.00000000
_cell_angle_beta   90.00000000
_cell_angle_gamma   150.51811735
_symmetry_Int_Tables_number   1
_chemical_formula_structural   Tb4Lu(CoTe)2
_chemical_formula_sum   'Tb8 Lu2 Co4 Te4'
_cell_volume   441.77717900
_cell_formula_units_Z   2
loop_
 _symmetry_equiv_pos_site_id
 _symmetry_equiv_pos_as_xyz
  1  'x, y, z'
loop_
 _atom_site_type_symbol
 _atom_site_label
 _atom_site_symmetry_multiplicity
 _atom_site_fract_x
 _atom_site_fract_y
 _atom_site_fract_z
 _atom_site_occupancy
  Tb  Tb0  1  0.742090  0.257910  0.630246  1
  Tb  Tb1  1  0.963466  0.036534  0.126324  1
  Tb  Tb2  1  0.036534  0.963466  0.873676  1
  Tb  Tb3  1  0.963466  0.036534  0.373676  1
  Tb  Tb4  1  0.036534  0.963466  0.626324  1
  Tb  Tb5  1  0.257910  0.742090  0.130246  1
  Tb  Tb6  1  0.257910  0.742090  0.369754  1
  Tb  Tb7  1  0.742090  0.257910  0.869754  1
  Lu  Lu8  1  0.607124  0.392876  0.250000  1
  Lu  Lu9  1  0.392876  0.607124  0.750000  1
  Co  Co10  1  0.413102  0.586898  0.250000  1
  Co  Co11  1  0.586898  0.413102  0.750000  1
  Co  Co12  1  0.819124  0.180876  0.250000  1
  Co  Co13  1  0.180876  0.819124  0.750000  1
  Te  Te14  1  0.617878  0.382122  0.038844  1
  Te  Te15  1  0.617878  0.382122  0.461156  1
  Te  Te16  1  0.382122  0.617878  0.538844  1
  Te  Te17  1  0.382122  0.617878  0.961156  1
