# generated using pymatgen
data_Cs6Lu2ScIrBr18
_symmetry_space_group_name_H-M   'P 1'
_cell_length_a   7.92976300
_cell_length_b   7.92976344
_cell_length_c   20.02695000
_cell_angle_alpha   90.00000000
_cell_angle_beta   90.00000000
_cell_angle_gamma   119.99999400
_symmetry_Int_Tables_number   1
_chemical_formula_structural   Cs6Lu2ScIrBr18
_chemical_formula_sum   'Cs6 Lu2 Sc1 Ir1 Br18'
_cell_volume   1090.60104814
_cell_formula_units_Z   1
loop_
 _symmetry_equiv_pos_site_id
 _symmetry_equiv_pos_as_xyz
  1  'x, y, z'
loop_
 _atom_site_type_symbol
 _atom_site_label
 _atom_site_symmetry_multiplicity
 _atom_site_fract_x
 _atom_site_fract_y
 _atom_site_fract_z
 _atom_site_occupancy
  Cs  Cs0  1  0.333333  0.666667  0.068000  1
  Cs  Cs1  1  0.666667  0.333333  0.930681  1
  Cs  Cs2  1  0.666667  0.333333  0.574633  1
  Cs  Cs3  1  0.333333  0.666667  0.436404  1
  Cs  Cs4  1  0.000000  0.000000  0.250933  1
  Cs  Cs5  1  0.000000  0.000000  0.744908  1
  Lu  Lu6  1  0.666667  0.333333  0.345013  1
  Lu  Lu7  1  0.666667  0.333333  0.155962  1
  Sc  Sc8  1  0.333333  0.666667  0.836222  1
  Ir  Ir9  1  0.333333  0.666667  0.669458  1
  Br  Br10  1  0.184435  0.368868  0.597625  1
  Br  Br11  1  0.832806  0.665612  0.412670  1
  Br  Br12  1  0.631132  0.815565  0.597625  1
  Br  Br13  1  0.832456  0.664913  0.087472  1
  Br  Br14  1  0.334388  0.167194  0.412670  1
  Br  Br15  1  0.173596  0.347192  0.904200  1
  Br  Br16  1  0.184435  0.815565  0.597625  1
  Br  Br17  1  0.335087  0.167544  0.087472  1
  Br  Br18  1  0.832806  0.167194  0.412670  1
  Br  Br19  1  0.652808  0.826404  0.904200  1
  Br  Br20  1  0.832456  0.167544  0.087472  1
  Br  Br21  1  0.173596  0.826404  0.904200  1
  Br  Br22  1  0.510252  0.020506  0.250061  1
  Br  Br23  1  0.484361  0.968721  0.743901  1
  Br  Br24  1  0.979494  0.489748  0.250061  1
  Br  Br25  1  0.031279  0.515639  0.743901  1
  Br  Br26  1  0.510252  0.489748  0.250061  1
  Br  Br27  1  0.484361  0.515639  0.743901  1
