# generated using pymatgen
data_Ho3Mn(P3Ir4)2
_symmetry_space_group_name_H-M   'P 1'
_cell_length_a   3.96276200
_cell_length_b   11.25362000
_cell_length_c   12.51822600
_cell_angle_alpha   90.00000000
_cell_angle_beta   90.00000000
_cell_angle_gamma   90.00000000
_symmetry_Int_Tables_number   1
_chemical_formula_structural   Ho3Mn(P3Ir4)2
_chemical_formula_sum   'Ho6 Mn2 P12 Ir16'
_cell_volume   558.25551731
_cell_formula_units_Z   2
loop_
 _symmetry_equiv_pos_site_id
 _symmetry_equiv_pos_as_xyz
  1  'x, y, z'
loop_
 _atom_site_type_symbol
 _atom_site_label
 _atom_site_symmetry_multiplicity
 _atom_site_fract_x
 _atom_site_fract_y
 _atom_site_fract_z
 _atom_site_occupancy
  Ho  Ho0  1  0.000000  0.500000  0.523966  1
  Ho  Ho1  1  0.500000  0.000000  0.476034  1
  Ho  Ho2  1  0.500000  0.823122  0.201061  1
  Ho  Ho3  1  0.500000  0.176878  0.201061  1
  Ho  Ho4  1  0.000000  0.676878  0.798939  1
  Ho  Ho5  1  0.000000  0.323122  0.798939  1
  Mn  Mn6  1  0.000000  0.500000  0.999167  1
  Mn  Mn7  1  0.500000  0.000000  0.000833  1
  P  P8  1  0.500000  0.500000  0.884215  1
  P  P9  1  0.000000  0.000000  0.115785  1
  P  P10  1  0.500000  0.500000  0.355331  1
  P  P11  1  0.000000  0.000000  0.644669  1
  P  P12  1  0.500000  0.314934  0.620248  1
  P  P13  1  0.500000  0.685066  0.620248  1
  P  P14  1  0.000000  0.185066  0.379752  1
  P  P15  1  0.000000  0.814934  0.379752  1
  P  P16  1  0.500000  0.844347  0.896717  1
  P  P17  1  0.500000  0.155653  0.896717  1
  P  P18  1  0.000000  0.655653  0.103283  1
  P  P19  1  0.000000  0.344347  0.103283  1
  Ir  Ir20  1  0.500000  0.500000  0.168973  1
  Ir  Ir21  1  0.000000  0.000000  0.831027  1
  Ir  Ir22  1  0.500000  0.500000  0.700002  1
  Ir  Ir23  1  0.000000  0.000000  0.299998  1
  Ir  Ir24  1  0.500000  0.335969  0.992760  1
  Ir  Ir25  1  0.500000  0.664031  0.992760  1
  Ir  Ir26  1  0.000000  0.164031  0.007240  1
  Ir  Ir27  1  0.000000  0.835969  0.007240  1
  Ir  Ir28  1  0.500000  0.297977  0.429638  1
  Ir  Ir29  1  0.500000  0.702023  0.429638  1
  Ir  Ir30  1  0.000000  0.202023  0.570362  1
  Ir  Ir31  1  0.000000  0.797977  0.570362  1
  Ir  Ir32  1  0.500000  0.869404  0.715153  1
  Ir  Ir33  1  0.500000  0.130596  0.715153  1
  Ir  Ir34  1  0.000000  0.630596  0.284847  1
  Ir  Ir35  1  0.000000  0.369404  0.284847  1
