# generated using pymatgen
data_Tm7Mg3(Pb3C)2
_symmetry_space_group_name_H-M   'P 1'
_cell_length_a   8.92019500
_cell_length_b   8.92019657
_cell_length_c   6.26920500
_cell_angle_alpha   90.00000000
_cell_angle_beta   90.00000000
_cell_angle_gamma   119.99999789
_symmetry_Int_Tables_number   1
_chemical_formula_structural   Tm7Mg3(Pb3C)2
_chemical_formula_sum   'Tm7 Mg3 Pb6 C2'
_cell_volume   432.00809564
_cell_formula_units_Z   1
loop_
 _symmetry_equiv_pos_site_id
 _symmetry_equiv_pos_as_xyz
  1  'x, y, z'
loop_
 _atom_site_type_symbol
 _atom_site_label
 _atom_site_symmetry_multiplicity
 _atom_site_fract_x
 _atom_site_fract_y
 _atom_site_fract_z
 _atom_site_occupancy
  Tm  Tm0  1  0.210755  0.000878  0.251976  1
  Tm  Tm1  1  0.790123  0.000878  0.748024  1
  Tm  Tm2  1  0.999122  0.209877  0.251976  1
  Tm  Tm3  1  0.999122  0.789245  0.748024  1
  Tm  Tm4  1  0.790123  0.789245  0.251976  1
  Tm  Tm5  1  0.210755  0.209877  0.748024  1
  Tm  Tm6  1  0.333333  0.666667  0.500000  1
  Mg  Mg7  1  0.333333  0.666667  0.000000  1
  Mg  Mg8  1  0.666667  0.333333  0.000000  1
  Mg  Mg9  1  0.666667  0.333333  0.500000  1
  Pb  Pb10  1  0.591108  0.002088  0.253460  1
  Pb  Pb11  1  0.410980  0.002088  0.746540  1
  Pb  Pb12  1  0.997912  0.589020  0.253460  1
  Pb  Pb13  1  0.997912  0.408892  0.746540  1
  Pb  Pb14  1  0.410980  0.408892  0.253460  1
  Pb  Pb15  1  0.591108  0.589020  0.746540  1
  C  C16  1  0.000000  0.000000  0.000000  1
  C  C17  1  0.000000  0.000000  0.500000  1
