# generated using pymatgen
data_Ba5Lu2Al2SnO13
_symmetry_space_group_name_H-M   'P 1'
_cell_length_a   5.95437100
_cell_length_b   5.95437114
_cell_length_c   24.86684000
_cell_angle_alpha   90.00000000
_cell_angle_beta   90.00000000
_cell_angle_gamma   119.99999367
_symmetry_Int_Tables_number   1
_chemical_formula_structural   Ba5Lu2Al2SnO13
_chemical_formula_sum   'Ba10 Lu4 Al4 Sn2 O26'
_cell_volume   763.52463007
_cell_formula_units_Z   2
loop_
 _symmetry_equiv_pos_site_id
 _symmetry_equiv_pos_as_xyz
  1  'x, y, z'
loop_
 _atom_site_type_symbol
 _atom_site_label
 _atom_site_symmetry_multiplicity
 _atom_site_fract_x
 _atom_site_fract_y
 _atom_site_fract_z
 _atom_site_occupancy
  Ba  Ba0  1  0.333333  0.666667  0.541981  1
  Ba  Ba1  1  0.666667  0.333333  0.458019  1
  Ba  Ba2  1  0.666667  0.333333  0.041981  1
  Ba  Ba3  1  0.333333  0.666667  0.958019  1
  Ba  Ba4  1  0.000000  0.000000  0.138099  1
  Ba  Ba5  1  0.000000  0.000000  0.861901  1
  Ba  Ba6  1  0.000000  0.000000  0.638099  1
  Ba  Ba7  1  0.000000  0.000000  0.361901  1
  Ba  Ba8  1  0.333333  0.666667  0.250000  1
  Ba  Ba9  1  0.666667  0.333333  0.750000  1
  Lu  Lu10  1  0.333333  0.666667  0.102699  1
  Lu  Lu11  1  0.666667  0.333333  0.897301  1
  Lu  Lu12  1  0.666667  0.333333  0.602699  1
  Lu  Lu13  1  0.333333  0.666667  0.397301  1
  Al  Al14  1  0.333333  0.666667  0.680106  1
  Al  Al15  1  0.666667  0.333333  0.319894  1
  Al  Al16  1  0.666667  0.333333  0.180106  1
  Al  Al17  1  0.333333  0.666667  0.819894  1
  Sn  Sn18  1  0.000000  0.000000  0.000000  1
  Sn  Sn19  1  0.000000  0.000000  0.500000  1
  O  O20  1  0.503587  0.007173  0.157200  1
  O  O21  1  0.496413  0.992827  0.842800  1
  O  O22  1  0.992827  0.496413  0.157200  1
  O  O23  1  0.496413  0.992827  0.657200  1
  O  O24  1  0.007173  0.503587  0.842800  1
  O  O25  1  0.503587  0.007173  0.342800  1
  O  O26  1  0.503587  0.496413  0.157200  1
  O  O27  1  0.007173  0.503587  0.657200  1
  O  O28  1  0.496413  0.503587  0.842800  1
  O  O29  1  0.992827  0.496413  0.342800  1
  O  O30  1  0.496413  0.503587  0.657200  1
  O  O31  1  0.503587  0.496413  0.342800  1
  O  O32  1  0.163206  0.326412  0.050375  1
  O  O33  1  0.836794  0.673588  0.949625  1
  O  O34  1  0.673588  0.836794  0.050375  1
  O  O35  1  0.836794  0.673588  0.550375  1
  O  O36  1  0.326412  0.163206  0.949625  1
  O  O37  1  0.163206  0.326412  0.449625  1
  O  O38  1  0.163206  0.836794  0.050375  1
  O  O39  1  0.326412  0.163206  0.550375  1
  O  O40  1  0.836794  0.163206  0.949625  1
  O  O41  1  0.673588  0.836794  0.449625  1
  O  O42  1  0.836794  0.163206  0.550375  1
  O  O43  1  0.163206  0.836794  0.449625  1
  O  O44  1  0.333333  0.666667  0.750000  1
  O  O45  1  0.666667  0.333333  0.250000  1
