# generated using pymatgen
data_Nd2SmCoSn6
_symmetry_space_group_name_H-M   'P 1'
_cell_length_a   8.63753807
_cell_length_b   8.63753753
_cell_length_c   13.36163600
_cell_angle_alpha   90.00000000
_cell_angle_beta   90.00000000
_cell_angle_gamma   148.86710512
_symmetry_Int_Tables_number   1
_chemical_formula_structural   Nd2SmCoSn6
_chemical_formula_sum   'Nd4 Sm2 Co2 Sn12'
_cell_volume   515.40778363
_cell_formula_units_Z   2
loop_
 _symmetry_equiv_pos_site_id
 _symmetry_equiv_pos_as_xyz
  1  'x, y, z'
loop_
 _atom_site_type_symbol
 _atom_site_label
 _atom_site_symmetry_multiplicity
 _atom_site_fract_x
 _atom_site_fract_y
 _atom_site_fract_z
 _atom_site_occupancy
  Nd  Nd0  1  0.899605  0.100395  0.091747  1
  Nd  Nd1  1  0.100395  0.899605  0.591747  1
  Nd  Nd2  1  0.100395  0.899605  0.908253  1
  Nd  Nd3  1  0.899605  0.100395  0.408253  1
  Sm  Sm4  1  0.898653  0.101347  0.750000  1
  Sm  Sm5  1  0.101347  0.898653  0.250000  1
  Co  Co6  1  0.299107  0.700893  0.250000  1
  Co  Co7  1  0.700893  0.299107  0.750000  1
  Sn  Sn8  1  0.753770  0.246230  0.571803  1
  Sn  Sn9  1  0.429910  0.570090  0.578147  1
  Sn  Sn10  1  0.570090  0.429910  0.421853  1
  Sn  Sn11  1  0.736418  0.263582  0.250000  1
  Sn  Sn12  1  0.263582  0.736418  0.750000  1
  Sn  Sn13  1  0.246230  0.753770  0.071803  1
  Sn  Sn14  1  0.246230  0.753770  0.428197  1
  Sn  Sn15  1  0.570090  0.429910  0.078147  1
  Sn  Sn16  1  0.452785  0.547215  0.250000  1
  Sn  Sn17  1  0.547215  0.452785  0.750000  1
  Sn  Sn18  1  0.753770  0.246230  0.928197  1
  Sn  Sn19  1  0.429910  0.570090  0.921853  1
