# generated using pymatgen
data_Y3Ho6ErCd3Ru
_symmetry_space_group_name_H-M   'P 1'
_cell_length_a   9.56366400
_cell_length_b   9.56366402
_cell_length_c   9.81104500
_cell_angle_alpha   90.00000000
_cell_angle_beta   90.00000000
_cell_angle_gamma   119.99999993
_symmetry_Int_Tables_number   1
_chemical_formula_structural   Y3Ho6ErCd3Ru
_chemical_formula_sum   'Y6 Ho12 Er2 Cd6 Ru2'
_cell_volume   777.13151254
_cell_formula_units_Z   2
loop_
 _symmetry_equiv_pos_site_id
 _symmetry_equiv_pos_as_xyz
  1  'x, y, z'
loop_
 _atom_site_type_symbol
 _atom_site_label
 _atom_site_symmetry_multiplicity
 _atom_site_fract_x
 _atom_site_fract_y
 _atom_site_fract_z
 _atom_site_occupancy
  Y  Y0  1  0.541072  0.458928  0.250000  1
  Y  Y1  1  0.541072  0.082145  0.250000  1
  Y  Y2  1  0.917855  0.458928  0.250000  1
  Y  Y3  1  0.458928  0.541072  0.750000  1
  Y  Y4  1  0.458928  0.917855  0.750000  1
  Y  Y5  1  0.082145  0.541072  0.750000  1
  Ho  Ho6  1  0.209789  0.790211  0.440134  1
  Ho  Ho7  1  0.209789  0.419581  0.440134  1
  Ho  Ho8  1  0.580419  0.790211  0.440134  1
  Ho  Ho9  1  0.790211  0.209789  0.559866  1
  Ho  Ho10  1  0.790211  0.580419  0.559866  1
  Ho  Ho11  1  0.419581  0.209789  0.559866  1
  Ho  Ho12  1  0.790211  0.209789  0.940134  1
  Ho  Ho13  1  0.790211  0.580419  0.940134  1
  Ho  Ho14  1  0.419581  0.209789  0.940134  1
  Ho  Ho15  1  0.209789  0.790211  0.059866  1
  Ho  Ho16  1  0.209789  0.419581  0.059866  1
  Ho  Ho17  1  0.580419  0.790211  0.059866  1
  Er  Er18  1  0.000000  0.000000  0.500000  1
  Er  Er19  1  0.000000  0.000000  0.000000  1
  Cd  Cd20  1  0.885653  0.114347  0.250000  1
  Cd  Cd21  1  0.885653  0.771308  0.250000  1
  Cd  Cd22  1  0.228692  0.114347  0.250000  1
  Cd  Cd23  1  0.114347  0.885653  0.750000  1
  Cd  Cd24  1  0.114347  0.228692  0.750000  1
  Cd  Cd25  1  0.771308  0.885653  0.750000  1
  Ru  Ru26  1  0.333333  0.666667  0.250000  1
  Ru  Ru27  1  0.666667  0.333333  0.750000  1
