# generated using pymatgen
data_LiY15HoCd3Co4
_symmetry_space_group_name_H-M   'P 1'
_cell_length_a   9.53949841
_cell_length_b   9.54302396
_cell_length_c   9.58324434
_cell_angle_alpha   60.13873479
_cell_angle_beta   60.11341756
_cell_angle_gamma   59.98777078
_symmetry_Int_Tables_number   1
_chemical_formula_structural   LiY15HoCd3Co4
_chemical_formula_sum   'Li1 Y15 Ho1 Cd3 Co4'
_cell_volume   618.00751305
_cell_formula_units_Z   1
loop_
 _symmetry_equiv_pos_site_id
 _symmetry_equiv_pos_as_xyz
  1  'x, y, z'
loop_
 _atom_site_type_symbol
 _atom_site_label
 _atom_site_symmetry_multiplicity
 _atom_site_fract_x
 _atom_site_fract_y
 _atom_site_fract_z
 _atom_site_occupancy
  Li  Li0  1  0.571038  0.571132  0.286699  1
  Y  Y1  1  0.937844  0.936763  0.562629  1
  Y  Y2  1  0.812759  0.187452  0.185821  1
  Y  Y3  1  0.937844  0.562765  0.562629  1
  Y  Y4  1  0.940194  0.560441  0.938924  1
  Y  Y5  1  0.812759  0.813968  0.185821  1
  Y  Y6  1  0.343987  0.343119  0.347092  1
  Y  Y7  1  0.561497  0.939518  0.938747  1
  Y  Y8  1  0.564062  0.936849  0.562240  1
  Y  Y9  1  0.188621  0.812051  0.809032  1
  Y  Y10  1  0.188621  0.190297  0.809032  1
  Y  Y11  1  0.348116  0.347777  0.956331  1
  Y  Y12  1  0.343987  0.965804  0.347092  1
  Y  Y13  1  0.811421  0.189705  0.809169  1
  Y  Y14  1  0.561497  0.560239  0.938747  1
  Y  Y15  1  0.185887  0.813672  0.186769  1
  Ho  Ho16  1  0.967445  0.342633  0.347290  1
  Cd  Cd17  1  0.258050  0.582259  0.577434  1
  Cd  Cd18  1  0.581732  0.582125  0.577042  1
  Cd  Cd19  1  0.581732  0.259103  0.577042  1
  Co  Co20  1  0.577701  0.141645  0.139011  1
  Co  Co21  1  0.141422  0.142972  0.139712  1
  Co  Co22  1  0.141422  0.575895  0.139712  1
  Co  Co23  1  0.140365  0.141822  0.575993  1
