# generated using pymatgen
data_Nd2PaSe5
_symmetry_space_group_name_H-M   'P 1'
_cell_length_a   7.87103400
_cell_length_b   8.41150800
_cell_length_c   12.58199100
_cell_angle_alpha   90.00000000
_cell_angle_beta   90.00000000
_cell_angle_gamma   90.00000000
_symmetry_Int_Tables_number   1
_chemical_formula_structural   Nd2PaSe5
_chemical_formula_sum   'Nd8 Pa4 Se20'
_cell_volume   833.01921814
_cell_formula_units_Z   4
loop_
 _symmetry_equiv_pos_site_id
 _symmetry_equiv_pos_as_xyz
  1  'x, y, z'
loop_
 _atom_site_type_symbol
 _atom_site_label
 _atom_site_symmetry_multiplicity
 _atom_site_fract_x
 _atom_site_fract_y
 _atom_site_fract_z
 _atom_site_occupancy
  Nd  Nd0  1  0.526501  0.498924  0.320914  1
  Nd  Nd1  1  0.973499  0.001076  0.820914  1
  Nd  Nd2  1  0.473499  0.998924  0.679086  1
  Nd  Nd3  1  0.026501  0.501076  0.179086  1
  Nd  Nd4  1  0.473499  0.501076  0.679086  1
  Nd  Nd5  1  0.026501  0.998924  0.179086  1
  Nd  Nd6  1  0.526501  0.001076  0.320914  1
  Nd  Nd7  1  0.973499  0.498924  0.820914  1
  Pa  Pa8  1  0.072867  0.750000  0.494491  1
  Pa  Pa9  1  0.427133  0.750000  0.994491  1
  Pa  Pa10  1  0.927133  0.250000  0.505509  1
  Pa  Pa11  1  0.572867  0.250000  0.005509  1
  Se  Se12  1  0.833886  0.957448  0.596248  1
  Se  Se13  1  0.666114  0.542552  0.096248  1
  Se  Se14  1  0.166114  0.457448  0.403752  1
  Se  Se15  1  0.333886  0.042552  0.903752  1
  Se  Se16  1  0.166114  0.042552  0.403752  1
  Se  Se17  1  0.333886  0.457448  0.903752  1
  Se  Se18  1  0.833886  0.542552  0.596248  1
  Se  Se19  1  0.666114  0.957448  0.096248  1
  Se  Se20  1  0.832892  0.750000  0.316048  1
  Se  Se21  1  0.667108  0.750000  0.816048  1
  Se  Se22  1  0.167108  0.250000  0.683952  1
  Se  Se23  1  0.332892  0.250000  0.183952  1
  Se  Se24  1  0.454350  0.750000  0.498961  1
  Se  Se25  1  0.045650  0.750000  0.998961  1
  Se  Se26  1  0.545650  0.250000  0.501039  1
  Se  Se27  1  0.954350  0.250000  0.001039  1
  Se  Se28  1  0.193379  0.750000  0.713415  1
  Se  Se29  1  0.306621  0.750000  0.213415  1
  Se  Se30  1  0.806621  0.250000  0.286585  1
  Se  Se31  1  0.693379  0.250000  0.786585  1
