# generated using pymatgen
data_Tb7Ho3Si5Sn
_symmetry_space_group_name_H-M   'P 1'
_cell_length_a   8.53491303
_cell_length_b   8.56407834
_cell_length_c   6.41493805
_cell_angle_alpha   89.98716435
_cell_angle_beta   90.00247506
_cell_angle_gamma   119.89717071
_symmetry_Int_Tables_number   1
_chemical_formula_structural   Tb7Ho3Si5Sn
_chemical_formula_sum   'Tb7 Ho3 Si5 Sn1'
_cell_volume   406.49189526
_cell_formula_units_Z   1
loop_
 _symmetry_equiv_pos_site_id
 _symmetry_equiv_pos_as_xyz
  1  'x, y, z'
loop_
 _atom_site_type_symbol
 _atom_site_label
 _atom_site_symmetry_multiplicity
 _atom_site_fract_x
 _atom_site_fract_y
 _atom_site_fract_z
 _atom_site_occupancy
  Tb  Tb0  1  0.989498  0.748140  0.750214  1
  Tb  Tb1  1  0.998418  0.243239  0.249685  1
  Tb  Tb2  1  0.755346  0.756574  0.249737  1
  Tb  Tb3  1  0.764594  0.000148  0.750259  1
  Tb  Tb4  1  0.241478  0.251768  0.750327  1
  Tb  Tb5  1  0.242206  0.000140  0.249780  1
  Tb  Tb6  1  0.331364  0.657718  0.496905  1
  Ho  Ho7  1  0.673690  0.342349  0.003066  1
  Ho  Ho8  1  0.673670  0.342367  0.496959  1
  Ho  Ho9  1  0.331313  0.657608  0.003079  1
  Si  Si10  1  0.394344  0.392145  0.249134  1
  Si  Si11  1  0.000725  0.607192  0.249261  1
  Si  Si12  1  0.997842  0.394302  0.750802  1
  Si  Si13  1  0.604275  0.605003  0.750811  1
  Si  Si14  1  0.605372  0.000668  0.249333  1
  Sn  Sn15  1  0.395865  0.000640  0.750649  1
