# generated using pymatgen
data_Nb8Cu(SiSn2)2
_symmetry_space_group_name_H-M   'P 1'
_cell_length_a   5.01223804
_cell_length_b   7.86172717
_cell_length_c   7.86173267
_cell_angle_alpha   95.81617968
_cell_angle_beta   108.58888866
_cell_angle_gamma   71.41124343
_symmetry_Int_Tables_number   1
_chemical_formula_structural   Nb8Cu(SiSn2)2
_chemical_formula_sum   'Nb8 Cu1 Si2 Sn4'
_cell_volume   278.31035929
_cell_formula_units_Z   1
loop_
 _symmetry_equiv_pos_site_id
 _symmetry_equiv_pos_as_xyz
  1  'x, y, z'
loop_
 _atom_site_type_symbol
 _atom_site_label
 _atom_site_symmetry_multiplicity
 _atom_site_fract_x
 _atom_site_fract_y
 _atom_site_fract_z
 _atom_site_occupancy
  Nb  Nb0  1  0.412214  0.877886  0.713730  1
  Nb  Nb1  1  0.576369  0.122113  0.286269  1
  Nb  Nb2  1  0.923630  0.286270  0.122114  1
  Nb  Nb3  1  0.087787  0.713731  0.877887  1
  Nb  Nb4  1  0.709876  0.713643  0.121971  1
  Nb  Nb5  1  0.301546  0.286360  0.878027  1
  Nb  Nb6  1  0.790120  0.121973  0.713640  1
  Nb  Nb7  1  0.198453  0.878029  0.286357  1
  Cu  Cu8  1  0.250002  0.499998  0.500002  1
  Si  Si9  1  0.250002  0.999998  0.000002  1
  Si  Si10  1  0.750003  0.999997  0.000003  1
  Sn  Sn11  1  0.376549  0.500115  0.206221  1
  Sn  Sn12  1  0.670446  0.499888  0.793781  1
  Sn  Sn13  1  0.829556  0.793779  0.499885  1
  Sn  Sn14  1  0.123447  0.206219  0.500112  1
