# generated using pymatgen
data_Y2(TeO3)3
_symmetry_space_group_name_H-M   'P 1'
_cell_length_a   5.54665000
_cell_length_b   8.22281000
_cell_length_c   18.57989900
_cell_angle_alpha   90.00000000
_cell_angle_beta   90.00000000
_cell_angle_gamma   90.00000000
_symmetry_Int_Tables_number   1
_chemical_formula_structural   Y2(TeO3)3
_chemical_formula_sum   'Y8 Te12 O36'
_cell_volume   847.41152551
_cell_formula_units_Z   4
loop_
 _symmetry_equiv_pos_site_id
 _symmetry_equiv_pos_as_xyz
  1  'x, y, z'
loop_
 _atom_site_type_symbol
 _atom_site_label
 _atom_site_symmetry_multiplicity
 _atom_site_fract_x
 _atom_site_fract_y
 _atom_site_fract_z
 _atom_site_occupancy
  Y  Y0  1  0.734001  0.642145  0.056336  1
  Y  Y1  1  0.765999  0.142145  0.443664  1
  Y  Y2  1  0.234001  0.857855  0.943664  1
  Y  Y3  1  0.265999  0.357855  0.943664  1
  Y  Y4  1  0.734001  0.642145  0.443664  1
  Y  Y5  1  0.265999  0.357855  0.556336  1
  Y  Y6  1  0.234001  0.857855  0.556336  1
  Y  Y7  1  0.765999  0.142145  0.056336  1
  Te  Te8  1  0.709938  0.131177  0.250000  1
  Te  Te9  1  0.776303  0.156567  0.866143  1
  Te  Te10  1  0.223697  0.843433  0.133857  1
  Te  Te11  1  0.209938  0.368823  0.750000  1
  Te  Te12  1  0.723697  0.656567  0.866143  1
  Te  Te13  1  0.723697  0.656567  0.633857  1
  Te  Te14  1  0.276303  0.343433  0.366143  1
  Te  Te15  1  0.223697  0.843433  0.366143  1
  Te  Te16  1  0.276303  0.343433  0.133857  1
  Te  Te17  1  0.776303  0.156567  0.633857  1
  Te  Te18  1  0.290062  0.868823  0.750000  1
  Te  Te19  1  0.790062  0.631177  0.250000  1
  O  O20  1  0.414341  0.128067  0.122564  1
  O  O21  1  0.440732  0.830797  0.049458  1
  O  O22  1  0.085659  0.628067  0.377436  1
  O  O23  1  0.085659  0.628067  0.122564  1
  O  O24  1  0.440732  0.830797  0.450542  1
  O  O25  1  0.077162  0.821298  0.671760  1
  O  O26  1  0.949458  0.837725  0.250000  1
  O  O27  1  0.414341  0.128067  0.377436  1
  O  O28  1  0.585659  0.871933  0.622564  1
  O  O29  1  0.914341  0.371933  0.622564  1
  O  O30  1  0.529548  0.406352  0.435151  1
  O  O31  1  0.470452  0.593648  0.564849  1
  O  O32  1  0.422838  0.321298  0.671760  1
  O  O33  1  0.529548  0.406352  0.064849  1
  O  O34  1  0.050542  0.162275  0.750000  1
  O  O35  1  0.585659  0.871933  0.877436  1
  O  O36  1  0.029548  0.093648  0.564849  1
  O  O37  1  0.559268  0.169203  0.950542  1
  O  O38  1  0.449458  0.662275  0.750000  1
  O  O39  1  0.559268  0.169203  0.549458  1
  O  O40  1  0.059268  0.330797  0.049458  1
  O  O41  1  0.029548  0.093648  0.935151  1
  O  O42  1  0.940732  0.669203  0.950542  1
  O  O43  1  0.422838  0.321298  0.828240  1
  O  O44  1  0.470452  0.593648  0.935151  1
  O  O45  1  0.577162  0.678702  0.328240  1
  O  O46  1  0.914341  0.371933  0.877436  1
  O  O47  1  0.077162  0.821298  0.828240  1
  O  O48  1  0.922838  0.178702  0.328240  1
  O  O49  1  0.550542  0.337725  0.250000  1
  O  O50  1  0.059268  0.330797  0.450542  1
  O  O51  1  0.922838  0.178702  0.171760  1
  O  O52  1  0.970452  0.906352  0.064849  1
  O  O53  1  0.940732  0.669203  0.549458  1
  O  O54  1  0.970452  0.906352  0.435151  1
  O  O55  1  0.577162  0.678702  0.171760  1
