# generated using pymatgen
data_DyY2H9
_symmetry_space_group_name_H-M   'P 1'
_cell_length_a   6.34302600
_cell_length_b   6.34337074
_cell_length_c   6.59588000
_cell_angle_alpha   90.00066497
_cell_angle_beta   89.99967235
_cell_angle_gamma   120.00178324
_symmetry_Int_Tables_number   1
_chemical_formula_structural   DyY2H9
_chemical_formula_sum   'Dy2 Y4 H18'
_cell_volume   229.83288038
_cell_formula_units_Z   2
loop_
 _symmetry_equiv_pos_site_id
 _symmetry_equiv_pos_as_xyz
  1  'x, y, z'
loop_
 _atom_site_type_symbol
 _atom_site_label
 _atom_site_symmetry_multiplicity
 _atom_site_fract_x
 _atom_site_fract_y
 _atom_site_fract_z
 _atom_site_occupancy
  Dy  Dy0  1  0.669902  0.669886  0.750034  1
  Dy  Dy1  1  0.330098  0.999984  0.750034  1
  Y  Y2  1  0.000000  0.330076  0.749969  1
  Y  Y3  1  0.330070  0.330052  0.249969  1
  Y  Y4  1  0.669930  0.999982  0.249969  1
  Y  Y5  1  0.000000  0.669985  0.250001  1
  H  H6  1  0.305310  0.305061  0.591848  1
  H  H7  1  0.694690  0.999751  0.591848  1
  H  H8  1  0.000000  0.695188  0.591820  1
  H  H9  1  0.694985  0.694994  0.091467  1
  H  H10  1  0.305015  0.000009  0.091467  1
  H  H11  1  0.000000  0.305028  0.091671  1
  H  H12  1  0.356908  0.356693  0.907710  1
  H  H13  1  0.643092  0.999785  0.907710  1
  H  H14  1  0.000000  0.643547  0.907674  1
  H  H15  1  0.643318  0.643318  0.408052  1
  H  H16  1  0.356682  0.000000  0.408052  1
  H  H17  1  0.000000  0.356688  0.407846  1
  H  H18  1  0.000000  0.999800  0.819261  1
  H  H19  1  0.000000  0.999988  0.319396  1
  H  H20  1  0.333497  0.666836  0.705078  1
  H  H21  1  0.666503  0.333338  0.705078  1
  H  H22  1  0.666654  0.333334  0.205030  1
  H  H23  1  0.333346  0.666681  0.205030  1
