# generated using pymatgen
data_Tb8NiHg2Ru
_symmetry_space_group_name_H-M   'P 1'
_cell_length_a   9.56730738
_cell_length_b   9.56730646
_cell_length_c   9.60240400
_cell_angle_alpha   59.87856613
_cell_angle_beta   59.87856932
_cell_angle_gamma   59.94290462
_symmetry_Int_Tables_number   1
_chemical_formula_structural   Tb8NiHg2Ru
_chemical_formula_sum   'Tb16 Ni2 Hg4 Ru2'
_cell_volume   620.09433448
_cell_formula_units_Z   2
loop_
 _symmetry_equiv_pos_site_id
 _symmetry_equiv_pos_as_xyz
  1  'x, y, z'
loop_
 _atom_site_type_symbol
 _atom_site_label
 _atom_site_symmetry_multiplicity
 _atom_site_fract_x
 _atom_site_fract_y
 _atom_site_fract_z
 _atom_site_occupancy
  Tb  Tb0  1  0.350693  0.350693  0.345640  1
  Tb  Tb1  1  0.350693  0.350693  0.952974  1
  Tb  Tb2  1  0.352205  0.951332  0.348231  1
  Tb  Tb3  1  0.951332  0.352205  0.348231  1
  Tb  Tb4  1  0.810365  0.187851  0.190239  1
  Tb  Tb5  1  0.187851  0.810365  0.811545  1
  Tb  Tb6  1  0.187851  0.810365  0.190239  1
  Tb  Tb7  1  0.810365  0.187851  0.811545  1
  Tb  Tb8  1  0.189111  0.189111  0.810889  1
  Tb  Tb9  1  0.809490  0.809490  0.190510  1
  Tb  Tb10  1  0.938032  0.558709  0.565726  1
  Tb  Tb11  1  0.558709  0.938032  0.937532  1
  Tb  Tb12  1  0.558709  0.938032  0.565726  1
  Tb  Tb13  1  0.938032  0.558709  0.937532  1
  Tb  Tb14  1  0.564817  0.564817  0.935183  1
  Tb  Tb15  1  0.939023  0.939023  0.560977  1
  Ni  Ni16  1  0.142805  0.575257  0.140969  1
  Ni  Ni17  1  0.575257  0.142805  0.140969  1
  Hg  Hg18  1  0.583533  0.583533  0.585552  1
  Hg  Hg19  1  0.583533  0.583533  0.247383  1
  Hg  Hg20  1  0.584464  0.246031  0.584751  1
  Hg  Hg21  1  0.246031  0.584464  0.584751  1
  Ru  Ru22  1  0.143549  0.143549  0.138290  1
  Ru  Ru23  1  0.143549  0.143549  0.574612  1
