# generated using pymatgen
data_YEr3AlNi
_symmetry_space_group_name_H-M   'P 1'
_cell_length_a   9.39149811
_cell_length_b   9.39149780
_cell_length_c   9.38579400
_cell_angle_alpha   60.02008144
_cell_angle_beta   60.02008254
_cell_angle_gamma   59.95982485
_symmetry_Int_Tables_number   1
_chemical_formula_structural   YEr3AlNi
_chemical_formula_sum   'Y4 Er12 Al4 Ni4'
_cell_volume   585.36317781
_cell_formula_units_Z   4
loop_
 _symmetry_equiv_pos_site_id
 _symmetry_equiv_pos_as_xyz
  1  'x, y, z'
loop_
 _atom_site_type_symbol
 _atom_site_label
 _atom_site_symmetry_multiplicity
 _atom_site_fract_x
 _atom_site_fract_y
 _atom_site_fract_z
 _atom_site_occupancy
  Y  Y0  1  0.186485  0.813515  0.813515  1
  Y  Y1  1  0.813515  0.186485  0.186485  1
  Y  Y2  1  0.813515  0.186485  0.813515  1
  Y  Y3  1  0.186485  0.813515  0.186485  1
  Er  Er4  1  0.812763  0.812763  0.187237  1
  Er  Er5  1  0.187237  0.187237  0.812763  1
  Er  Er6  1  0.600829  0.600829  0.599959  1
  Er  Er7  1  0.600829  0.600829  0.198383  1
  Er  Er8  1  0.599959  0.198383  0.600829  1
  Er  Er9  1  0.198383  0.599959  0.600829  1
  Er  Er10  1  0.059345  0.440655  0.440655  1
  Er  Er11  1  0.440655  0.059345  0.059345  1
  Er  Er12  1  0.440655  0.059345  0.440655  1
  Er  Er13  1  0.059345  0.440655  0.059345  1
  Er  Er14  1  0.440590  0.440590  0.059410  1
  Er  Er15  1  0.059410  0.059410  0.440590  1
  Al  Al16  1  0.827327  0.827327  0.827409  1
  Al  Al17  1  0.827327  0.827327  0.517935  1
  Al  Al18  1  0.827409  0.517935  0.827327  1
  Al  Al19  1  0.517935  0.827409  0.827327  1
  Ni  Ni20  1  0.392564  0.392564  0.393033  1
  Ni  Ni21  1  0.392564  0.392564  0.821838  1
  Ni  Ni22  1  0.393033  0.821838  0.392564  1
  Ni  Ni23  1  0.821838  0.393033  0.392564  1
