# generated using pymatgen
data_Sr4Sc2RhWO12
_symmetry_space_group_name_H-M   'P 1'
_cell_length_a   5.71281685
_cell_length_b   5.71481524
_cell_length_c   9.93153406
_cell_angle_alpha   54.72470514
_cell_angle_beta   90.16863095
_cell_angle_gamma   90.05258513
_symmetry_Int_Tables_number   1
_chemical_formula_structural   Sr4Sc2RhWO12
_chemical_formula_sum   'Sr4 Sc2 Rh1 W1 O12'
_cell_volume   264.70531430
_cell_formula_units_Z   1
loop_
 _symmetry_equiv_pos_site_id
 _symmetry_equiv_pos_as_xyz
  1  'x, y, z'
loop_
 _atom_site_type_symbol
 _atom_site_label
 _atom_site_symmetry_multiplicity
 _atom_site_fract_x
 _atom_site_fract_y
 _atom_site_fract_z
 _atom_site_occupancy
  Sr  Sr0  1  0.483183  0.766638  0.235088  1
  Sr  Sr1  1  0.516817  0.233362  0.764912  1
  Sr  Sr2  1  0.975868  0.261300  0.234809  1
  Sr  Sr3  1  0.024132  0.738700  0.765191  1
  Sc  Sc4  1  0.000000  0.000000  0.000000  1
  Sc  Sc5  1  0.500000  0.000000  0.500000  1
  Rh  Rh6  1  0.500000  0.500000  0.000000  1
  W  W7  1  0.000000  0.500000  0.500000  1
  O  O8  1  0.725977  0.204036  0.026596  1
  O  O9  1  0.274023  0.795964  0.973404  1
  O  O10  1  0.211003  0.795626  0.469526  1
  O  O11  1  0.788997  0.204374  0.530474  1
  O  O12  1  0.006893  0.680969  0.262380  1
  O  O13  1  0.993107  0.319031  0.737620  1
  O  O14  1  0.509232  0.305737  0.250048  1
  O  O15  1  0.490768  0.694263  0.749952  1
  O  O16  1  0.231652  0.248288  0.027739  1
  O  O17  1  0.768348  0.751712  0.972261  1
  O  O18  1  0.733144  0.739690  0.469386  1
  O  O19  1  0.266856  0.260310  0.530614  1
