# generated using pymatgen
data_Yb(AlSe2)2
_symmetry_space_group_name_H-M   'P 1'
_cell_length_a   6.17323200
_cell_length_b   6.17323325
_cell_length_c   10.66200800
_cell_angle_alpha   90.00000000
_cell_angle_beta   90.00000000
_cell_angle_gamma   118.83843086
_symmetry_Int_Tables_number   1
_chemical_formula_structural   Yb(AlSe2)2
_chemical_formula_sum   'Yb2 Al4 Se8'
_cell_volume   355.92634934
_cell_formula_units_Z   2
loop_
 _symmetry_equiv_pos_site_id
 _symmetry_equiv_pos_as_xyz
  1  'x, y, z'
loop_
 _atom_site_type_symbol
 _atom_site_label
 _atom_site_symmetry_multiplicity
 _atom_site_fract_x
 _atom_site_fract_y
 _atom_site_fract_z
 _atom_site_occupancy
  Yb  Yb0  1  0.500000  0.500000  0.750000  1
  Yb  Yb1  1  0.500000  0.500000  0.250000  1
  Al  Al2  1  0.762687  0.239670  0.500000  1
  Al  Al3  1  0.237313  0.760330  0.500000  1
  Al  Al4  1  0.760330  0.237313  0.000000  1
  Al  Al5  1  0.239670  0.762687  0.000000  1
  Se  Se6  1  0.347629  0.192677  0.500000  1
  Se  Se7  1  0.652371  0.807323  0.500000  1
  Se  Se8  1  0.807323  0.652371  0.000000  1
  Se  Se9  1  0.192677  0.347629  0.000000  1
  Se  Se10  1  0.500000  0.000000  0.827000  1
  Se  Se11  1  0.000000  0.500000  0.673000  1
  Se  Se12  1  0.500000  0.000000  0.173000  1
  Se  Se13  1  0.000000  0.500000  0.327000  1
