# generated using pymatgen
data_NdSm3(SiPd14)2
_symmetry_space_group_name_H-M   'P 1'
_cell_length_a   8.95884300
_cell_length_b   8.95884300
_cell_length_c   7.15933800
_cell_angle_alpha   90.00000000
_cell_angle_beta   90.00000000
_cell_angle_gamma   90.00000000
_symmetry_Int_Tables_number   1
_chemical_formula_structural   NdSm3(SiPd14)2
_chemical_formula_sum   'Nd1 Sm3 Si2 Pd28'
_cell_volume   574.61468146
_cell_formula_units_Z   1
loop_
 _symmetry_equiv_pos_site_id
 _symmetry_equiv_pos_as_xyz
  1  'x, y, z'
loop_
 _atom_site_type_symbol
 _atom_site_label
 _atom_site_symmetry_multiplicity
 _atom_site_fract_x
 _atom_site_fract_y
 _atom_site_fract_z
 _atom_site_occupancy
  Nd  Nd0  1  0.500000  0.000000  0.936082  1
  Sm  Sm1  1  0.000000  0.500000  0.064057  1
  Sm  Sm2  1  0.000000  0.000000  0.500018  1
  Sm  Sm3  1  0.500000  0.500000  0.500018  1
  Si  Si4  1  0.500000  0.000000  0.448965  1
  Si  Si5  1  0.000000  0.500000  0.550991  1
  Pd  Pd6  1  0.334436  0.834436  0.615318  1
  Pd  Pd7  1  0.334436  0.165564  0.615318  1
  Pd  Pd8  1  0.665564  0.834436  0.615318  1
  Pd  Pd9  1  0.665564  0.165564  0.615318  1
  Pd  Pd10  1  0.165388  0.665388  0.384387  1
  Pd  Pd11  1  0.165388  0.334612  0.384387  1
  Pd  Pd12  1  0.834612  0.665388  0.384387  1
  Pd  Pd13  1  0.834612  0.334612  0.384387  1
  Pd  Pd14  1  0.500000  0.770292  0.257180  1
  Pd  Pd15  1  0.500000  0.229708  0.257180  1
  Pd  Pd16  1  0.270292  0.000000  0.257180  1
  Pd  Pd17  1  0.729708  0.000000  0.257180  1
  Pd  Pd18  1  0.000000  0.729468  0.743153  1
  Pd  Pd19  1  0.000000  0.270532  0.743153  1
  Pd  Pd20  1  0.229468  0.500000  0.743153  1
  Pd  Pd21  1  0.770532  0.500000  0.743153  1
  Pd  Pd22  1  0.500000  0.348981  0.854762  1
  Pd  Pd23  1  0.500000  0.651019  0.854762  1
  Pd  Pd24  1  0.848981  0.000000  0.854762  1
  Pd  Pd25  1  0.151019  0.000000  0.854762  1
  Pd  Pd26  1  0.000000  0.151220  0.145146  1
  Pd  Pd27  1  0.000000  0.848780  0.145146  1
  Pd  Pd28  1  0.651220  0.500000  0.145146  1
  Pd  Pd29  1  0.348780  0.500000  0.145146  1
  Pd  Pd30  1  0.249810  0.749810  0.000021  1
  Pd  Pd31  1  0.249810  0.250190  0.000021  1
  Pd  Pd32  1  0.750190  0.749810  0.000021  1
  Pd  Pd33  1  0.750190  0.250190  0.000021  1
