# generated using pymatgen
data_Rb8Dy6RuBr20
_symmetry_space_group_name_H-M   'P 1'
_cell_length_a   12.35997136
_cell_length_b   12.35997112
_cell_length_c   12.35997100
_cell_angle_alpha   59.99999763
_cell_angle_beta   59.99999828
_cell_angle_gamma   59.99999975
_symmetry_Int_Tables_number   1
_chemical_formula_structural   Rb8Dy6RuBr20
_chemical_formula_sum   'Rb8 Dy6 Ru1 Br20'
_cell_volume   1335.17244185
_cell_formula_units_Z   1
loop_
 _symmetry_equiv_pos_site_id
 _symmetry_equiv_pos_as_xyz
  1  'x, y, z'
loop_
 _atom_site_type_symbol
 _atom_site_label
 _atom_site_symmetry_multiplicity
 _atom_site_fract_x
 _atom_site_fract_y
 _atom_site_fract_z
 _atom_site_occupancy
  Rb  Rb0  1  0.358888  0.358888  0.358888  1
  Rb  Rb1  1  0.641112  0.641112  0.641112  1
  Rb  Rb2  1  0.358888  0.358888  0.923337  1
  Rb  Rb3  1  0.358888  0.923337  0.358888  1
  Rb  Rb4  1  0.641112  0.641112  0.076663  1
  Rb  Rb5  1  0.641112  0.076663  0.641112  1
  Rb  Rb6  1  0.923337  0.358888  0.358888  1
  Rb  Rb7  1  0.076663  0.641112  0.641112  1
  Dy  Dy8  1  0.844218  0.155782  0.155782  1
  Dy  Dy9  1  0.155782  0.844218  0.844218  1
  Dy  Dy10  1  0.155782  0.844218  0.155782  1
  Dy  Dy11  1  0.844218  0.155782  0.844218  1
  Dy  Dy12  1  0.155782  0.155782  0.844218  1
  Dy  Dy13  1  0.844218  0.844218  0.155782  1
  Ru  Ru14  1  0.000000  0.000000  0.000000  1
  Br  Br15  1  0.331075  0.000000  0.000000  1
  Br  Br16  1  0.668925  0.000000  0.000000  1
  Br  Br17  1  0.000000  0.331075  0.668925  1
  Br  Br18  1  0.000000  0.668925  0.331075  1
  Br  Br19  1  0.000000  0.331075  0.000000  1
  Br  Br20  1  0.668925  0.000000  0.331075  1
  Br  Br21  1  0.000000  0.668925  0.000000  1
  Br  Br22  1  0.331075  0.000000  0.668925  1
  Br  Br23  1  0.000000  0.000000  0.331075  1
  Br  Br24  1  0.000000  0.000000  0.668925  1
  Br  Br25  1  0.668925  0.331075  0.000000  1
  Br  Br26  1  0.331075  0.668925  0.000000  1
  Br  Br27  1  0.679212  0.320788  0.320788  1
  Br  Br28  1  0.320788  0.679212  0.679212  1
  Br  Br29  1  0.320788  0.679212  0.320788  1
  Br  Br30  1  0.679212  0.320788  0.679212  1
  Br  Br31  1  0.320788  0.320788  0.679212  1
  Br  Br32  1  0.679212  0.679212  0.320788  1
  Br  Br33  1  0.250000  0.250000  0.250000  1
  Br  Br34  1  0.750000  0.750000  0.750000  1
