# generated using pymatgen
data_Tb3MgIn2Ga2Ag
_symmetry_space_group_name_H-M   'P 1'
_cell_length_a   7.30335967
_cell_length_b   7.30335859
_cell_length_c   4.51198600
_cell_angle_alpha   90.00000000
_cell_angle_beta   90.00000000
_cell_angle_gamma   120.09795830
_symmetry_Int_Tables_number   1
_chemical_formula_structural   Tb3MgIn2Ga2Ag
_chemical_formula_sum   'Tb3 Mg1 In2 Ga2 Ag1'
_cell_volume   208.21602568
_cell_formula_units_Z   1
loop_
 _symmetry_equiv_pos_site_id
 _symmetry_equiv_pos_as_xyz
  1  'x, y, z'
loop_
 _atom_site_type_symbol
 _atom_site_label
 _atom_site_symmetry_multiplicity
 _atom_site_fract_x
 _atom_site_fract_y
 _atom_site_fract_z
 _atom_site_occupancy
  Tb  Tb0  1  0.575762  0.999691  0.000000  1
  Tb  Tb1  1  0.999691  0.575762  0.000000  1
  Tb  Tb2  1  0.422848  0.422848  0.000000  1
  Mg  Mg3  1  0.757274  0.757274  0.500000  1
  In  In4  1  0.249224  0.997749  0.500000  1
  In  In5  1  0.997749  0.249224  0.500000  1
  Ga  Ga6  1  0.338077  0.665413  0.500000  1
  Ga  Ga7  1  0.665413  0.338077  0.500000  1
  Ag  Ag8  1  0.993962  0.993962  0.000000  1
