# generated using pymatgen
data_GdTh(SiPd)2
_symmetry_space_group_name_H-M   'P 1'
_cell_length_a   4.28344600
_cell_length_b   4.28345398
_cell_length_c   7.85452000
_cell_angle_alpha   90.00004668
_cell_angle_beta   89.99997203
_cell_angle_gamma   119.99983852
_symmetry_Int_Tables_number   1
_chemical_formula_structural   GdTh(SiPd)2
_chemical_formula_sum   'Gd1 Th1 Si2 Pd2'
_cell_volume   124.80684076
_cell_formula_units_Z   1
loop_
 _symmetry_equiv_pos_site_id
 _symmetry_equiv_pos_as_xyz
  1  'x, y, z'
loop_
 _atom_site_type_symbol
 _atom_site_label
 _atom_site_symmetry_multiplicity
 _atom_site_fract_x
 _atom_site_fract_y
 _atom_site_fract_z
 _atom_site_occupancy
  Gd  Gd0  1  0.000000  0.000000  0.500000  1
  Th  Th1  1  0.000000  0.000000  0.000000  1
  Si  Si2  1  0.666667  0.333333  0.250102  1
  Si  Si3  1  0.333333  0.666667  0.749898  1
  Pd  Pd4  1  0.333333  0.666667  0.250977  1
  Pd  Pd5  1  0.666667  0.333333  0.749023  1
