# generated using pymatgen
data_Ce12Si5OsRu6
_symmetry_space_group_name_H-M   'P 1'
_cell_length_a   7.69804600
_cell_length_b   7.69804429
_cell_length_c   9.65916000
_cell_angle_alpha   90.00000000
_cell_angle_beta   90.00000000
_cell_angle_gamma   119.99999875
_symmetry_Int_Tables_number   1
_chemical_formula_structural   Ce12Si5OsRu6
_chemical_formula_sum   'Ce12 Si5 Os1 Ru6'
_cell_volume   495.71368061
_cell_formula_units_Z   1
loop_
 _symmetry_equiv_pos_site_id
 _symmetry_equiv_pos_as_xyz
  1  'x, y, z'
loop_
 _atom_site_type_symbol
 _atom_site_label
 _atom_site_symmetry_multiplicity
 _atom_site_fract_x
 _atom_site_fract_y
 _atom_site_fract_z
 _atom_site_occupancy
  Ce  Ce0  1  0.000000  0.590513  0.500739  1
  Ce  Ce1  1  0.590513  0.000000  0.500739  1
  Ce  Ce2  1  0.409487  0.409487  0.500739  1
  Ce  Ce3  1  0.000000  0.408045  0.005113  1
  Ce  Ce4  1  0.408045  0.000000  0.005113  1
  Ce  Ce5  1  0.591955  0.591955  0.005113  1
  Ce  Ce6  1  0.000000  0.745010  0.168875  1
  Ce  Ce7  1  0.745010  0.000000  0.168875  1
  Ce  Ce8  1  0.254990  0.254990  0.168875  1
  Ce  Ce9  1  0.000000  0.250993  0.680591  1
  Ce  Ce10  1  0.250993  0.000000  0.680591  1
  Ce  Ce11  1  0.749007  0.749007  0.680591  1
  Si  Si12  1  0.666667  0.333333  0.268816  1
  Si  Si13  1  0.333333  0.666667  0.268816  1
  Si  Si14  1  0.333333  0.666667  0.767313  1
  Si  Si15  1  0.666667  0.333333  0.767313  1
  Si  Si16  1  0.000000  0.000000  0.421204  1
  Os  Os17  1  0.000000  0.000000  0.934756  1
  Ru  Ru18  1  0.000000  0.340184  0.339687  1
  Ru  Ru19  1  0.340184  0.000000  0.339687  1
  Ru  Ru20  1  0.659816  0.659816  0.339687  1
  Ru  Ru21  1  0.000000  0.644521  0.838673  1
  Ru  Ru22  1  0.644521  0.000000  0.838673  1
  Ru  Ru23  1  0.355479  0.355479  0.838673  1
