# generated using pymatgen
data_Y12Co4NiHg
_symmetry_space_group_name_H-M   'P 1'
_cell_length_a   8.29361936
_cell_length_b   8.29361972
_cell_length_c   8.29361945
_cell_angle_alpha   110.42482386
_cell_angle_beta   110.62764577
_cell_angle_gamma   107.38125514
_symmetry_Int_Tables_number   1
_chemical_formula_structural   Y12Co4NiHg
_chemical_formula_sum   'Y12 Co4 Ni1 Hg1'
_cell_volume   438.70985711
_cell_formula_units_Z   1
loop_
 _symmetry_equiv_pos_site_id
 _symmetry_equiv_pos_as_xyz
  1  'x, y, z'
loop_
 _atom_site_type_symbol
 _atom_site_label
 _atom_site_symmetry_multiplicity
 _atom_site_fract_x
 _atom_site_fract_y
 _atom_site_fract_z
 _atom_site_occupancy
  Y  Y0  1  0.294001  0.186332  0.480332  1
  Y  Y1  1  0.705999  0.813668  0.519668  1
  Y  Y2  1  0.294001  0.813668  0.107671  1
  Y  Y3  1  0.705999  0.186332  0.892329  1
  Y  Y4  1  0.619085  0.316634  0.302450  1
  Y  Y5  1  0.380915  0.683366  0.697550  1
  Y  Y6  1  0.014184  0.316634  0.697550  1
  Y  Y7  1  0.985816  0.683366  0.302450  1
  Y  Y8  1  0.211812  0.406886  0.195076  1
  Y  Y9  1  0.788188  0.593114  0.804924  1
  Y  Y10  1  0.211812  0.016736  0.804924  1
  Y  Y11  1  0.788188  0.983264  0.195076  1
  Co  Co12  1  0.000000  0.379788  0.379788  1
  Co  Co13  1  0.000000  0.620212  0.620212  1
  Co  Co14  1  0.387477  0.887477  0.500000  1
  Co  Co15  1  0.612523  0.112523  0.500000  1
  Ni  Ni16  1  0.000000  0.000000  0.000000  1
  Hg  Hg17  1  0.500000  0.500000  0.000000  1
