# generated using pymatgen
data_Nb7CoS12
_symmetry_space_group_name_H-M   'P 1'
_cell_length_a   5.81457200
_cell_length_b   5.81457108
_cell_length_c   12.33401600
_cell_angle_alpha   90.00000000
_cell_angle_beta   90.00000000
_cell_angle_gamma   120.00000524
_symmetry_Int_Tables_number   1
_chemical_formula_structural   Nb7CoS12
_chemical_formula_sum   'Nb7 Co1 S12'
_cell_volume   361.13580808
_cell_formula_units_Z   1
loop_
 _symmetry_equiv_pos_site_id
 _symmetry_equiv_pos_as_xyz
  1  'x, y, z'
loop_
 _atom_site_type_symbol
 _atom_site_label
 _atom_site_symmetry_multiplicity
 _atom_site_fract_x
 _atom_site_fract_y
 _atom_site_fract_z
 _atom_site_occupancy
  Nb  Nb0  1  0.333333  0.666667  0.006775  1
  Nb  Nb1  1  0.666667  0.333333  0.490292  1
  Nb  Nb2  1  0.333333  0.666667  0.493225  1
  Nb  Nb3  1  0.000000  0.000000  0.008502  1
  Nb  Nb4  1  0.666667  0.333333  0.009708  1
  Nb  Nb5  1  0.000000  0.000000  0.491498  1
  Nb  Nb6  1  0.666667  0.333333  0.750000  1
  Co  Co7  1  0.333333  0.666667  0.250000  1
  S  S8  1  0.000798  0.667658  0.135221  1
  S  S9  1  0.667619  0.667520  0.620763  1
  S  S10  1  0.000798  0.333140  0.364779  1
  S  S11  1  0.332342  0.333140  0.135221  1
  S  S12  1  0.332480  0.000099  0.620763  1
  S  S13  1  0.332480  0.332381  0.879237  1
  S  S14  1  0.666860  0.667658  0.364779  1
  S  S15  1  0.999901  0.667520  0.879237  1
  S  S16  1  0.667619  0.000099  0.879237  1
  S  S17  1  0.332342  0.999202  0.364779  1
  S  S18  1  0.666860  0.999202  0.135221  1
  S  S19  1  0.999901  0.332381  0.620763  1
