# generated using pymatgen
data_SrEr3(Si5Os3)2
_symmetry_space_group_name_H-M   'P 1'
_cell_length_a   8.27433763
_cell_length_b   8.28698359
_cell_length_c   8.28698407
_cell_angle_alpha   139.91931887
_cell_angle_beta   108.56341352
_cell_angle_gamma   85.23128088
_symmetry_Int_Tables_number   1
_chemical_formula_structural   SrEr3(Si5Os3)2
_chemical_formula_sum   'Sr1 Er3 Si10 Os6'
_cell_volume   334.63202315
_cell_formula_units_Z   1
loop_
 _symmetry_equiv_pos_site_id
 _symmetry_equiv_pos_as_xyz
  1  'x, y, z'
loop_
 _atom_site_type_symbol
 _atom_site_label
 _atom_site_symmetry_multiplicity
 _atom_site_fract_x
 _atom_site_fract_y
 _atom_site_fract_z
 _atom_site_occupancy
  Sr  Sr0  1  0.901796  0.134777  0.767019  1
  Er  Er1  1  0.095137  0.861972  0.233164  1
  Er  Er2  1  0.632180  0.364819  0.267361  1
  Er  Er3  1  0.370162  0.637564  0.732598  1
  Si  Si4  1  0.001691  0.750053  0.751284  1
  Si  Si5  1  0.001691  0.250407  0.251638  1
  Si  Si6  1  0.707366  0.460994  0.751373  1
  Si  Si7  1  0.293864  0.037763  0.748370  1
  Si  Si8  1  0.293864  0.545494  0.256101  1
  Si  Si9  1  0.707366  0.955993  0.246372  1
  Si  Si10  1  0.234975  0.406652  0.828321  1
  Si  Si11  1  0.570301  0.902831  0.667472  1
  Si  Si12  1  0.425502  0.094060  0.331441  1
  Si  Si13  1  0.764393  0.595791  0.168603  1
  Os  Os14  1  0.758181  0.853354  0.904829  1
  Os  Os15  1  0.495531  0.250248  0.748002  1
  Os  Os16  1  0.948158  0.354499  0.593659  1
  Os  Os17  1  0.054736  0.646401  0.408335  1
  Os  Os18  1  0.247574  0.148799  0.098773  1
  Os  Os19  1  0.495531  0.747528  0.245283  1
