# generated using pymatgen
data_Th4Sc(WN4)3
_symmetry_space_group_name_H-M   'P 1'
_cell_length_a   5.64682454
_cell_length_b   5.75374899
_cell_length_c   7.98953253
_cell_angle_alpha   90.15275487
_cell_angle_beta   90.08401048
_cell_angle_gamma   90.01556629
_symmetry_Int_Tables_number   1
_chemical_formula_structural   Th4Sc(WN4)3
_chemical_formula_sum   'Th4 Sc1 W3 N12'
_cell_volume   259.58198438
_cell_formula_units_Z   1
loop_
 _symmetry_equiv_pos_site_id
 _symmetry_equiv_pos_as_xyz
  1  'x, y, z'
loop_
 _atom_site_type_symbol
 _atom_site_label
 _atom_site_symmetry_multiplicity
 _atom_site_fract_x
 _atom_site_fract_y
 _atom_site_fract_z
 _atom_site_occupancy
  Th  Th0  1  0.505731  0.545354  0.247039  1
  Th  Th1  1  0.992578  0.049548  0.246441  1
  Th  Th2  1  0.494269  0.454646  0.752961  1
  Th  Th3  1  0.007422  0.950452  0.753559  1
  Sc  Sc4  1  0.000000  0.500000  0.000000  1
  W  W5  1  0.500000  0.000000  0.500000  1
  W  W6  1  0.000000  0.500000  0.500000  1
  W  W7  1  0.500000  0.000000  0.000000  1
  N  N8  1  0.417101  0.979935  0.251585  1
  N  N9  1  0.089096  0.473943  0.259798  1
  N  N10  1  0.582899  0.020065  0.748415  1
  N  N11  1  0.910904  0.526057  0.740202  1
  N  N12  1  0.796889  0.816969  0.045837  1
  N  N13  1  0.708523  0.288675  0.456547  1
  N  N14  1  0.210624  0.208128  0.546447  1
  N  N15  1  0.316886  0.702353  0.954867  1
  N  N16  1  0.203111  0.183031  0.954163  1
  N  N17  1  0.291477  0.711325  0.543453  1
  N  N18  1  0.789376  0.791872  0.453553  1
  N  N19  1  0.683114  0.297647  0.045133  1
