# generated using pymatgen
data_Er4Tm8Co2Ni3Bi
_symmetry_space_group_name_H-M   'P 1'
_cell_length_a   8.24950993
_cell_length_b   8.24950928
_cell_length_c   8.24950921
_cell_angle_alpha   109.44900574
_cell_angle_beta   111.29301805
_cell_angle_gamma   107.69167179
_symmetry_Int_Tables_number   1
_chemical_formula_structural   Er4Tm8Co2Ni3Bi
_chemical_formula_sum   'Er4 Tm8 Co2 Ni3 Bi1'
_cell_volume   431.75071591
_cell_formula_units_Z   1
loop_
 _symmetry_equiv_pos_site_id
 _symmetry_equiv_pos_as_xyz
  1  'x, y, z'
loop_
 _atom_site_type_symbol
 _atom_site_label
 _atom_site_symmetry_multiplicity
 _atom_site_fract_x
 _atom_site_fract_y
 _atom_site_fract_z
 _atom_site_occupancy
  Er  Er0  1  0.288271  0.180590  0.468861  1
  Er  Er1  1  0.711729  0.819410  0.531139  1
  Er  Er2  1  0.288271  0.819410  0.107681  1
  Er  Er3  1  0.711729  0.180590  0.892319  1
  Tm  Tm4  1  0.626263  0.316044  0.310218  1
  Tm  Tm5  1  0.373737  0.683956  0.689782  1
  Tm  Tm6  1  0.005826  0.316044  0.689782  1
  Tm  Tm7  1  0.994174  0.683956  0.310218  1
  Tm  Tm8  1  0.211119  0.405625  0.194507  1
  Tm  Tm9  1  0.788881  0.594375  0.805493  1
  Tm  Tm10  1  0.211119  0.016612  0.805493  1
  Tm  Tm11  1  0.788881  0.983388  0.194507  1
  Co  Co12  1  0.385026  0.885026  0.500000  1
  Co  Co13  1  0.614974  0.114974  0.500000  1
  Ni  Ni14  1  0.000000  0.365499  0.365499  1
  Ni  Ni15  1  0.000000  0.634501  0.634501  1
  Ni  Ni16  1  0.000000  0.000000  0.000000  1
  Bi  Bi17  1  0.500000  0.500000  0.000000  1
