# generated using pymatgen
data_Sr5Ca2NbSi2N9
_symmetry_space_group_name_H-M   'P 1'
_cell_length_a   10.28978603
_cell_length_b   6.32729870
_cell_length_c   9.37184018
_cell_angle_alpha   90.50078273
_cell_angle_beta   89.76478299
_cell_angle_gamma   90.13733753
_symmetry_Int_Tables_number   1
_chemical_formula_structural   Sr5Ca2NbSi2N9
_chemical_formula_sum   'Sr10 Ca4 Nb2 Si4 N18'
_cell_volume   610.13803045
_cell_formula_units_Z   2
loop_
 _symmetry_equiv_pos_site_id
 _symmetry_equiv_pos_as_xyz
  1  'x, y, z'
loop_
 _atom_site_type_symbol
 _atom_site_label
 _atom_site_symmetry_multiplicity
 _atom_site_fract_x
 _atom_site_fract_y
 _atom_site_fract_z
 _atom_site_occupancy
  Sr  Sr0  1  0.441994  0.571230  0.835853  1
  Sr  Sr1  1  0.579663  0.751675  0.505859  1
  Sr  Sr2  1  0.580286  0.070191  0.831288  1
  Sr  Sr3  1  0.917915  0.072726  0.835928  1
  Sr  Sr4  1  0.418771  0.925553  0.166535  1
  Sr  Sr5  1  0.417413  0.244289  0.491719  1
  Sr  Sr6  1  0.081448  0.932321  0.173091  1
  Sr  Sr7  1  0.920507  0.761748  0.506232  1
  Sr  Sr8  1  0.053455  0.571438  0.837245  1
  Sr  Sr9  1  0.555641  0.425480  0.163390  1
  Ca  Ca10  1  0.943881  0.435917  0.174931  1
  Ca  Ca11  1  0.070848  0.266849  0.494875  1
  Ca  Ca12  1  0.246284  0.105999  0.791328  1
  Ca  Ca13  1  0.753228  0.897268  0.204517  1
  Nb  Nb14  1  0.752769  0.283737  0.432163  1
  Nb  Nb15  1  0.249324  0.719305  0.564187  1
  Si  Si16  1  0.250110  0.320386  0.062210  1
  Si  Si17  1  0.750897  0.459628  0.718960  1
  Si  Si18  1  0.751771  0.672167  0.940203  1
  Si  Si19  1  0.248479  0.534836  0.280012  1
  N  N20  1  0.390356  0.225611  0.975071  1
  N  N21  1  0.257008  0.253006  0.252087  1
  N  N22  1  0.903310  0.127035  0.338612  1
  N  N23  1  0.616823  0.369437  0.624090  1
  N  N24  1  0.752940  0.547644  0.330513  1
  N  N25  1  0.254944  0.603858  0.092826  1
  N  N26  1  0.886933  0.366247  0.626915  1
  N  N27  1  0.380394  0.636707  0.374698  1
  N  N28  1  0.746625  0.389606  0.906080  1
  N  N29  1  0.104686  0.892813  0.652870  1
  N  N30  1  0.754369  0.741972  0.750356  1
  N  N31  1  0.108821  0.616417  0.369020  1
  N  N32  1  0.609943  0.769927  0.022370  1
  N  N33  1  0.245292  0.451837  0.662756  1
  N  N34  1  0.394162  0.880988  0.660146  1
  N  N35  1  0.609212  0.114598  0.341201  1
  N  N36  1  0.104257  0.233601  0.983821  1
  N  N37  1  0.895242  0.755953  0.026043  1
