# generated using pymatgen
data_Nd3Co7TcNiP6
_symmetry_space_group_name_H-M   'P 1'
_cell_length_a   3.81587800
_cell_length_b   10.66277800
_cell_length_c   12.45136000
_cell_angle_alpha   90.00000000
_cell_angle_beta   90.00000000
_cell_angle_gamma   90.00000000
_symmetry_Int_Tables_number   1
_chemical_formula_structural   Nd3Co7TcNiP6
_chemical_formula_sum   'Nd6 Co14 Tc2 Ni2 P12'
_cell_volume   506.61919235
_cell_formula_units_Z   2
loop_
 _symmetry_equiv_pos_site_id
 _symmetry_equiv_pos_as_xyz
  1  'x, y, z'
loop_
 _atom_site_type_symbol
 _atom_site_label
 _atom_site_symmetry_multiplicity
 _atom_site_fract_x
 _atom_site_fract_y
 _atom_site_fract_z
 _atom_site_occupancy
  Nd  Nd0  1  0.000000  0.500000  0.520558  1
  Nd  Nd1  1  0.500000  0.000000  0.479442  1
  Nd  Nd2  1  0.500000  0.815686  0.205832  1
  Nd  Nd3  1  0.500000  0.184314  0.205832  1
  Nd  Nd4  1  0.000000  0.684314  0.794168  1
  Nd  Nd5  1  0.000000  0.315686  0.794168  1
  Co  Co6  1  0.000000  0.500000  0.987669  1
  Co  Co7  1  0.500000  0.000000  0.012331  1
  Co  Co8  1  0.500000  0.331902  0.991906  1
  Co  Co9  1  0.500000  0.668098  0.991906  1
  Co  Co10  1  0.000000  0.168098  0.008094  1
  Co  Co11  1  0.000000  0.831902  0.008094  1
  Co  Co12  1  0.500000  0.298532  0.429252  1
  Co  Co13  1  0.500000  0.701468  0.429252  1
  Co  Co14  1  0.000000  0.201468  0.570748  1
  Co  Co15  1  0.000000  0.798532  0.570748  1
  Co  Co16  1  0.500000  0.881776  0.711146  1
  Co  Co17  1  0.500000  0.118224  0.711146  1
  Co  Co18  1  0.000000  0.618224  0.288854  1
  Co  Co19  1  0.000000  0.381776  0.288854  1
  Tc  Tc20  1  0.500000  0.500000  0.154064  1
  Tc  Tc21  1  0.000000  0.000000  0.845936  1
  Ni  Ni22  1  0.500000  0.500000  0.703506  1
  Ni  Ni23  1  0.000000  0.000000  0.296494  1
  P  P24  1  0.500000  0.500000  0.886833  1
  P  P25  1  0.000000  0.000000  0.113167  1
  P  P26  1  0.500000  0.500000  0.342827  1
  P  P27  1  0.000000  0.000000  0.657173  1
  P  P28  1  0.500000  0.304832  0.613151  1
  P  P29  1  0.500000  0.695168  0.613151  1
  P  P30  1  0.000000  0.195168  0.386849  1
  P  P31  1  0.000000  0.804832  0.386849  1
  P  P32  1  0.500000  0.848093  0.895761  1
  P  P33  1  0.500000  0.151907  0.895761  1
  P  P34  1  0.000000  0.651907  0.104239  1
  P  P35  1  0.000000  0.348093  0.104239  1
