# generated using pymatgen
data_NaMgGaF6
_symmetry_space_group_name_H-M   'P 1'
_cell_length_a   8.87128000
_cell_length_b   8.87128064
_cell_length_c   4.97126700
_cell_angle_alpha   90.00000000
_cell_angle_beta   90.00000000
_cell_angle_gamma   120.00000509
_symmetry_Int_Tables_number   1
_chemical_formula_structural   NaMgGaF6
_chemical_formula_sum   'Na3 Mg3 Ga3 F18'
_cell_volume   338.82098715
_cell_formula_units_Z   3
loop_
 _symmetry_equiv_pos_site_id
 _symmetry_equiv_pos_as_xyz
  1  'x, y, z'
loop_
 _atom_site_type_symbol
 _atom_site_label
 _atom_site_symmetry_multiplicity
 _atom_site_fract_x
 _atom_site_fract_y
 _atom_site_fract_z
 _atom_site_occupancy
  Na  Na0  1  0.628128  0.000000  0.000000  1
  Na  Na1  1  0.000000  0.628128  0.000000  1
  Na  Na2  1  0.371872  0.371872  0.000000  1
  Mg  Mg3  1  0.300539  0.000000  0.500000  1
  Mg  Mg4  1  0.000000  0.300539  0.500000  1
  Mg  Mg5  1  0.699461  0.699461  0.500000  1
  Ga  Ga6  1  0.333333  0.666667  0.498906  1
  Ga  Ga7  1  0.666667  0.333333  0.501094  1
  Ga  Ga8  1  0.000000  0.000000  0.000000  1
  F  F9  1  0.127552  0.530448  0.287942  1
  F  F10  1  0.469552  0.597104  0.287942  1
  F  F11  1  0.530448  0.127552  0.712058  1
  F  F12  1  0.402896  0.872448  0.287942  1
  F  F13  1  0.597104  0.469552  0.712058  1
  F  F14  1  0.872448  0.402896  0.712058  1
  F  F15  1  0.097892  0.202517  0.229405  1
  F  F16  1  0.797483  0.895375  0.229405  1
  F  F17  1  0.202517  0.097892  0.770595  1
  F  F18  1  0.104625  0.902108  0.229405  1
  F  F19  1  0.895375  0.797483  0.770595  1
  F  F20  1  0.902108  0.104625  0.770595  1
  F  F21  1  0.454137  0.224679  0.291986  1
  F  F22  1  0.775321  0.229458  0.291986  1
  F  F23  1  0.224679  0.454137  0.708014  1
  F  F24  1  0.770542  0.545863  0.291986  1
  F  F25  1  0.229458  0.775321  0.708014  1
  F  F26  1  0.545863  0.770542  0.708014  1
