# generated using pymatgen
data_Tb3Tm(LuTe3)4
_symmetry_space_group_name_H-M   'P 1'
_cell_length_a   14.30483910
_cell_length_b   13.63790258
_cell_length_c   7.53950300
_cell_angle_alpha   79.29249294
_cell_angle_beta   69.51718587
_cell_angle_gamma   31.15789414
_symmetry_Int_Tables_number   1
_chemical_formula_structural   Tb3Tm(LuTe3)4
_chemical_formula_sum   'Tb3 Tm1 Lu4 Te12'
_cell_volume   693.03347257
_cell_formula_units_Z   1
loop_
 _symmetry_equiv_pos_site_id
 _symmetry_equiv_pos_as_xyz
  1  'x, y, z'
loop_
 _atom_site_type_symbol
 _atom_site_label
 _atom_site_symmetry_multiplicity
 _atom_site_fract_x
 _atom_site_fract_y
 _atom_site_fract_z
 _atom_site_occupancy
  Tb  Tb0  1  0.999255  0.999255  0.500745  1
  Tb  Tb1  1  0.500795  0.500795  0.999205  1
  Tb  Tb2  1  0.250713  0.250713  0.749287  1
  Tm  Tm3  1  0.749405  0.749405  0.250595  1
  Lu  Lu4  1  0.332435  0.332435  0.167565  1
  Lu  Lu5  1  0.167583  0.167583  0.332417  1
  Lu  Lu6  1  0.917445  0.917445  0.082555  1
  Lu  Lu7  1  0.082749  0.082749  0.917251  1
  Te  Te8  1  0.999988  0.499940  0.496895  1
  Te  Te9  1  0.499940  0.999988  0.003177  1
  Te  Te10  1  0.248078  0.752005  0.751701  1
  Te  Te11  1  0.752005  0.248078  0.248216  1
  Te  Te12  1  0.665887  0.164977  0.839320  1
  Te  Te13  1  0.839398  0.329794  0.666080  1
  Te  Te14  1  0.329794  0.839398  0.164729  1
  Te  Te15  1  0.164977  0.665887  0.329816  1
  Te  Te16  1  0.585580  0.081937  0.409512  1
  Te  Te17  1  0.413094  0.918943  0.581623  1
  Te  Te18  1  0.918943  0.413094  0.086339  1
  Te  Te19  1  0.081937  0.585580  0.922973  1
