# generated using pymatgen
data_Yb6UPtO12
_symmetry_space_group_name_H-M   'P 1'
_cell_length_a   6.60227583
_cell_length_b   6.60227671
_cell_length_c   6.60227596
_cell_angle_alpha   93.19653450
_cell_angle_beta   93.19653057
_cell_angle_gamma   93.19653161
_symmetry_Int_Tables_number   1
_chemical_formula_structural   Yb6UPtO12
_chemical_formula_sum   'Yb6 U1 Pt1 O12'
_cell_volume   286.39801791
_cell_formula_units_Z   1
loop_
 _symmetry_equiv_pos_site_id
 _symmetry_equiv_pos_as_xyz
  1  'x, y, z'
loop_
 _atom_site_type_symbol
 _atom_site_label
 _atom_site_symmetry_multiplicity
 _atom_site_fract_x
 _atom_site_fract_y
 _atom_site_fract_z
 _atom_site_occupancy
  Yb  Yb0  1  0.926655  0.433018  0.737503  1
  Yb  Yb1  1  0.737503  0.926655  0.433018  1
  Yb  Yb2  1  0.566982  0.262497  0.073345  1
  Yb  Yb3  1  0.262497  0.073345  0.566982  1
  Yb  Yb4  1  0.073345  0.566982  0.262497  1
  Yb  Yb5  1  0.433018  0.737503  0.926655  1
  U  U6  1  0.000000  0.000000  0.000000  1
  Pt  Pt7  1  0.500000  0.500000  0.500000  1
  O  O8  1  0.300317  0.064747  0.925912  1
  O  O9  1  0.064747  0.925912  0.300317  1
  O  O10  1  0.925912  0.300317  0.064747  1
  O  O11  1  0.699683  0.935253  0.074088  1
  O  O12  1  0.935253  0.074088  0.699683  1
  O  O13  1  0.074088  0.699683  0.935253  1
  O  O14  1  0.211600  0.415900  0.544718  1
  O  O15  1  0.415900  0.544718  0.211600  1
  O  O16  1  0.455282  0.788400  0.584100  1
  O  O17  1  0.584100  0.455282  0.788400  1
  O  O18  1  0.788400  0.584100  0.455282  1
  O  O19  1  0.544718  0.211600  0.415900  1
