# generated using pymatgen
data_Lu4NpTc7
_symmetry_space_group_name_H-M   'P 1'
_cell_length_a   5.26655225
_cell_length_b   5.26655279
_cell_length_c   8.89123600
_cell_angle_alpha   90.00000000
_cell_angle_beta   90.00000000
_cell_angle_gamma   116.10869397
_symmetry_Int_Tables_number   1
_chemical_formula_structural   Lu4NpTc7
_chemical_formula_sum   'Lu4 Np1 Tc7'
_cell_volume   221.44830488
_cell_formula_units_Z   1
loop_
 _symmetry_equiv_pos_site_id
 _symmetry_equiv_pos_as_xyz
  1  'x, y, z'
loop_
 _atom_site_type_symbol
 _atom_site_label
 _atom_site_symmetry_multiplicity
 _atom_site_fract_x
 _atom_site_fract_y
 _atom_site_fract_z
 _atom_site_occupancy
  Lu  Lu0  1  0.329042  0.670958  0.446578  1
  Lu  Lu1  1  0.662275  0.337725  0.571096  1
  Lu  Lu2  1  0.662275  0.337725  0.928904  1
  Lu  Lu3  1  0.329042  0.670958  0.053422  1
  Np  Np4  1  0.846533  0.153467  0.250000  1
  Tc  Tc5  1  0.989011  0.010989  0.489121  1
  Tc  Tc6  1  0.989011  0.010989  0.010879  1
  Tc  Tc7  1  0.839363  0.623271  0.250000  1
  Tc  Tc8  1  0.376729  0.160637  0.250000  1
  Tc  Tc9  1  0.162335  0.837665  0.750000  1
  Tc  Tc10  1  0.164384  0.350002  0.750000  1
  Tc  Tc11  1  0.649998  0.835616  0.750000  1
