# generated using pymatgen
data_LaPrAlSi
_symmetry_space_group_name_H-M   'P 1'
_cell_length_a   6.18568011
_cell_length_b   6.18567996
_cell_length_c   4.11233700
_cell_angle_alpha   90.00000000
_cell_angle_beta   90.00000000
_cell_angle_gamma   136.81375328
_symmetry_Int_Tables_number   1
_chemical_formula_structural   LaPrAlSi
_chemical_formula_sum   'La1 Pr1 Al1 Si1'
_cell_volume   107.68517041
_cell_formula_units_Z   1
loop_
 _symmetry_equiv_pos_site_id
 _symmetry_equiv_pos_as_xyz
  1  'x, y, z'
loop_
 _atom_site_type_symbol
 _atom_site_label
 _atom_site_symmetry_multiplicity
 _atom_site_fract_x
 _atom_site_fract_y
 _atom_site_fract_z
 _atom_site_occupancy
  La  La0  1  0.358493  0.641507  0.000000  1
  Pr  Pr1  1  0.643608  0.356392  0.500000  1
  Al  Al2  1  0.066151  0.933849  0.000000  1
  Si  Si3  1  0.931748  0.068252  0.500000  1
