# generated using pymatgen
data_Ce8Si12IrOs3
_symmetry_space_group_name_H-M   'P 1'
_cell_length_a   8.23703606
_cell_length_b   8.23195145
_cell_length_c   8.15398101
_cell_angle_alpha   90.00002300
_cell_angle_beta   89.99461620
_cell_angle_gamma   119.99246719
_symmetry_Int_Tables_number   1
_chemical_formula_structural   Ce8Si12IrOs3
_chemical_formula_sum   'Ce8 Si12 Ir1 Os3'
_cell_volume   478.85833691
_cell_formula_units_Z   1
loop_
 _symmetry_equiv_pos_site_id
 _symmetry_equiv_pos_as_xyz
  1  'x, y, z'
loop_
 _atom_site_type_symbol
 _atom_site_label
 _atom_site_symmetry_multiplicity
 _atom_site_fract_x
 _atom_site_fract_y
 _atom_site_fract_z
 _atom_site_occupancy
  Ce  Ce0  1  0.999993  0.000004  0.249422  1
  Ce  Ce1  1  0.000008  0.999993  0.750155  1
  Ce  Ce2  1  0.502041  0.497962  0.252309  1
  Ce  Ce3  1  0.502034  0.004083  0.252274  1
  Ce  Ce4  1  0.995920  0.497966  0.252275  1
  Ce  Ce5  1  0.500308  0.499682  0.747810  1
  Ce  Ce6  1  0.500303  0.000608  0.747802  1
  Ce  Ce7  1  0.999408  0.499699  0.747832  1
  Si  Si8  1  0.165517  0.834454  0.499069  1
  Si  Si9  1  0.165532  0.331084  0.499100  1
  Si  Si10  1  0.668900  0.834446  0.499075  1
  Si  Si11  1  0.834885  0.165132  0.500647  1
  Si  Si12  1  0.834860  0.669718  0.500676  1
  Si  Si13  1  0.330270  0.165140  0.500645  1
  Si  Si14  1  0.834287  0.165748  0.002382  1
  Si  Si15  1  0.834271  0.668537  0.002376  1
  Si  Si16  1  0.331470  0.165747  0.002390  1
  Si  Si17  1  0.165509  0.834450  0.997805  1
  Si  Si18  1  0.165526  0.331072  0.997785  1
  Si  Si19  1  0.668927  0.834451  0.997800  1
  Ir  Ir20  1  0.333372  0.666690  0.008788  1
  Os  Os21  1  0.333297  0.666645  0.498621  1
  Os  Os22  1  0.666679  0.333337  0.502190  1
  Os  Os23  1  0.666686  0.333352  0.990771  1
