# generated using pymatgen
data_K3Sb(PS4)2
_symmetry_space_group_name_H-M   'P 1'
_cell_length_a   6.77901400
_cell_length_b   9.03242900
_cell_length_c   23.76841400
_cell_angle_alpha   90.00000000
_cell_angle_beta   90.00000000
_cell_angle_gamma   90.00000000
_symmetry_Int_Tables_number   1
_chemical_formula_structural   K3Sb(PS4)2
_chemical_formula_sum   'K12 Sb4 P8 S32'
_cell_volume   1455.36286977
_cell_formula_units_Z   4
loop_
 _symmetry_equiv_pos_site_id
 _symmetry_equiv_pos_as_xyz
  1  'x, y, z'
loop_
 _atom_site_type_symbol
 _atom_site_label
 _atom_site_symmetry_multiplicity
 _atom_site_fract_x
 _atom_site_fract_y
 _atom_site_fract_z
 _atom_site_occupancy
  K  K0  1  0.990594  0.752349  0.924996  1
  K  K1  1  0.009406  0.252349  0.575004  1
  K  K2  1  0.493533  0.478184  0.812943  1
  K  K3  1  0.506467  0.978184  0.687057  1
  K  K4  1  0.004026  0.090189  0.786806  1
  K  K5  1  0.495974  0.909811  0.286806  1
  K  K6  1  0.490594  0.747651  0.075004  1
  K  K7  1  0.995974  0.590189  0.713194  1
  K  K8  1  0.993533  0.021816  0.187057  1
  K  K9  1  0.504026  0.409811  0.213194  1
  K  K10  1  0.006467  0.521816  0.312943  1
  K  K11  1  0.509406  0.247651  0.424996  1
  Sb  Sb12  1  0.067190  0.355870  0.052316  1
  Sb  Sb13  1  0.432810  0.644130  0.552316  1
  Sb  Sb14  1  0.567190  0.144130  0.947684  1
  Sb  Sb15  1  0.932810  0.855870  0.447684  1
  P  P16  1  0.504987  0.389157  0.655385  1
  P  P17  1  0.039439  0.857217  0.591660  1
  P  P18  1  0.960561  0.357217  0.908340  1
  P  P19  1  0.004987  0.110843  0.344615  1
  P  P20  1  0.460561  0.142783  0.091660  1
  P  P21  1  0.495013  0.889157  0.844615  1
  P  P22  1  0.995013  0.610843  0.155385  1
  P  P23  1  0.539439  0.642783  0.408340  1
  S  S24  1  0.280005  0.943987  0.552509  1
  S  S25  1  0.737577  0.808115  0.807099  1
  S  S26  1  0.251274  0.210221  0.316898  1
  S  S27  1  0.719995  0.443987  0.947491  1
  S  S28  1  0.972033  0.382807  0.164613  1
  S  S29  1  0.568181  0.874019  0.420763  1
  S  S30  1  0.516768  0.587478  0.327312  1
  S  S31  1  0.521451  0.861210  0.933157  1
  S  S32  1  0.219995  0.056013  0.052509  1
  S  S33  1  0.237577  0.691885  0.192901  1
  S  S34  1  0.785079  0.923419  0.551417  1
  S  S35  1  0.751274  0.289779  0.683102  1
  S  S36  1  0.068181  0.625981  0.579237  1
  S  S37  1  0.983232  0.412522  0.827312  1
  S  S38  1  0.478549  0.361210  0.566843  1
  S  S39  1  0.027967  0.882807  0.335387  1
  S  S40  1  0.978549  0.138790  0.433157  1
  S  S41  1  0.931819  0.125981  0.920763  1
  S  S42  1  0.214921  0.423419  0.948583  1
  S  S43  1  0.472033  0.117193  0.835387  1
  S  S44  1  0.431819  0.374019  0.079237  1
  S  S45  1  0.248726  0.789779  0.816898  1
  S  S46  1  0.016768  0.912522  0.672688  1
  S  S47  1  0.714921  0.076581  0.051417  1
  S  S48  1  0.262423  0.308115  0.692901  1
  S  S49  1  0.748726  0.710221  0.183102  1
  S  S50  1  0.762423  0.191885  0.307099  1
  S  S51  1  0.527967  0.617193  0.664613  1
  S  S52  1  0.285079  0.576581  0.448583  1
  S  S53  1  0.021451  0.638790  0.066843  1
  S  S54  1  0.483232  0.087478  0.172688  1
  S  S55  1  0.780005  0.556013  0.447491  1
