# generated using pymatgen
data_Tm2Fe2Si2B
_symmetry_space_group_name_H-M   'P 1'
_cell_length_a   5.66397471
_cell_length_b   5.66397289
_cell_length_c   6.71358358
_cell_angle_alpha   52.40863214
_cell_angle_beta   52.40864794
_cell_angle_gamma   41.26629729
_symmetry_Int_Tables_number   1
_chemical_formula_structural   Tm2Fe2Si2B
_chemical_formula_sum   'Tm2 Fe2 Si2 B1'
_cell_volume   107.72728801
_cell_formula_units_Z   1
loop_
 _symmetry_equiv_pos_site_id
 _symmetry_equiv_pos_as_xyz
  1  'x, y, z'
loop_
 _atom_site_type_symbol
 _atom_site_label
 _atom_site_symmetry_multiplicity
 _atom_site_fract_x
 _atom_site_fract_y
 _atom_site_fract_z
 _atom_site_occupancy
  Tm  Tm0  1  0.440222  0.440222  0.298552  1
  Tm  Tm1  1  0.559778  0.559778  0.701448  1
  Fe  Fe2  1  0.789524  0.789524  0.103203  1
  Fe  Fe3  1  0.210476  0.210476  0.896797  1
  Si  Si4  1  0.837391  0.837391  0.718703  1
  Si  Si5  1  0.162609  0.162609  0.281297  1
  B  B6  1  0.000000  0.000000  0.000000  1
