# generated using pymatgen
data_Dy5Ni2As12Ru17
_symmetry_space_group_name_H-M   'P 1'
_cell_length_a   12.92790122
_cell_length_b   13.02143085
_cell_length_c   4.02436100
_cell_angle_alpha   90.00000000
_cell_angle_beta   90.00000000
_cell_angle_gamma   120.23960925
_symmetry_Int_Tables_number   1
_chemical_formula_structural   Dy5Ni2As12Ru17
_chemical_formula_sum   'Dy5 Ni2 As12 Ru17'
_cell_volume   585.27589566
_cell_formula_units_Z   1
loop_
 _symmetry_equiv_pos_site_id
 _symmetry_equiv_pos_as_xyz
  1  'x, y, z'
loop_
 _atom_site_type_symbol
 _atom_site_label
 _atom_site_symmetry_multiplicity
 _atom_site_fract_x
 _atom_site_fract_y
 _atom_site_fract_z
 _atom_site_occupancy
  Dy  Dy0  1  0.667525  0.333562  0.000000  1
  Dy  Dy1  1  0.332475  0.666038  0.000000  1
  Dy  Dy2  1  0.191313  0.187858  0.500000  1
  Dy  Dy3  1  0.808687  0.996545  0.500000  1
  Dy  Dy4  1  0.000000  0.810479  0.500000  1
  Ni  Ni5  1  0.000000  0.277892  0.500000  1
  Ni  Ni6  1  0.000000  0.001878  0.000000  1
  As  As7  1  0.370157  0.370789  0.000000  1
  As  As8  1  0.629843  0.000632  0.000000  1
  As  As9  1  0.000000  0.628874  0.000000  1
  As  As10  1  0.836259  0.313420  0.500000  1
  As  As11  1  0.688868  0.521072  0.500000  1
  As  As12  1  0.480632  0.168913  0.500000  1
  As  As13  1  0.311132  0.832203  0.500000  1
  As  As14  1  0.519368  0.688281  0.500000  1
  As  As15  1  0.163741  0.477161  0.500000  1
  As  As16  1  0.825496  0.824867  0.000000  1
  As  As17  1  0.174504  0.999371  0.000000  1
  As  As18  1  0.000000  0.175166  0.000000  1
  Ru  Ru19  1  0.557907  0.560250  0.000000  1
  Ru  Ru20  1  0.442093  0.002342  0.000000  1
  Ru  Ru21  1  0.000000  0.440684  0.000000  1
  Ru  Ru22  1  0.822700  0.194003  0.000000  1
  Ru  Ru23  1  0.807831  0.626005  0.000000  1
  Ru  Ru24  1  0.373952  0.182439  0.000000  1
  Ru  Ru25  1  0.192169  0.818174  0.000000  1
  Ru  Ru26  1  0.626048  0.808487  0.000000  1
  Ru  Ru27  1  0.177300  0.371303  0.000000  1
  Ru  Ru28  1  0.641652  0.126860  0.500000  1
  Ru  Ru29  1  0.876031  0.513047  0.500000  1
  Ru  Ru30  1  0.485993  0.362553  0.500000  1
  Ru  Ru31  1  0.123969  0.637016  0.500000  1
  Ru  Ru32  1  0.514007  0.876560  0.500000  1
  Ru  Ru33  1  0.358348  0.485208  0.500000  1
  Ru  Ru34  1  0.720019  0.720042  0.500000  1
  Ru  Ru35  1  0.279981  0.000023  0.500000  1
