# generated using pymatgen
data_Ca2ZnNi6
_symmetry_space_group_name_H-M   'P 1'
_cell_length_a   5.04408907
_cell_length_b   5.04408832
_cell_length_c   12.39302919
_cell_angle_alpha   78.25799582
_cell_angle_beta   78.25799747
_cell_angle_gamma   60.00000193
_symmetry_Int_Tables_number   1
_chemical_formula_structural   Ca2ZnNi6
_chemical_formula_sum   'Ca4 Zn2 Ni12'
_cell_volume   265.42332979
_cell_formula_units_Z   2
loop_
 _symmetry_equiv_pos_site_id
 _symmetry_equiv_pos_as_xyz
  1  'x, y, z'
loop_
 _atom_site_type_symbol
 _atom_site_label
 _atom_site_symmetry_multiplicity
 _atom_site_fract_x
 _atom_site_fract_y
 _atom_site_fract_z
 _atom_site_occupancy
  Ca  Ca0  1  0.948908  0.948908  0.153275  1
  Ca  Ca1  1  0.051092  0.051092  0.846725  1
  Ca  Ca2  1  0.851802  0.851802  0.444595  1
  Ca  Ca3  1  0.148198  0.148198  0.555405  1
  Zn  Zn4  1  0.721851  0.721851  0.834447  1
  Zn  Zn5  1  0.278149  0.278149  0.165553  1
  Ni  Ni6  1  0.500000  0.500000  0.500000  1
  Ni  Ni7  1  0.612097  0.612097  0.163710  1
  Ni  Ni8  1  0.387903  0.387903  0.836290  1
  Ni  Ni9  1  0.000000  0.500000  0.000000  1
  Ni  Ni10  1  0.500000  0.000000  0.000000  1
  Ni  Ni11  1  0.500000  0.500000  0.000000  1
  Ni  Ni12  1  0.392698  0.392698  0.329101  1
  Ni  Ni13  1  0.885505  0.392698  0.329101  1
  Ni  Ni14  1  0.392698  0.885505  0.329101  1
  Ni  Ni15  1  0.607302  0.607302  0.670899  1
  Ni  Ni16  1  0.114495  0.607302  0.670899  1
  Ni  Ni17  1  0.607302  0.114495  0.670899  1
