# generated using pymatgen
data_Sm8Er9Tm3Si16
_symmetry_space_group_name_H-M   'P 1'
_cell_length_a   7.71887205
_cell_length_b   7.71887206
_cell_length_c   14.20305700
_cell_angle_alpha   89.99327493
_cell_angle_beta   90.00672507
_cell_angle_gamma   89.99814508
_symmetry_Int_Tables_number   1
_chemical_formula_structural   Sm8Er9Tm3Si16
_chemical_formula_sum   'Sm8 Er9 Tm3 Si16'
_cell_volume   846.23212539
_cell_formula_units_Z   1
loop_
 _symmetry_equiv_pos_site_id
 _symmetry_equiv_pos_as_xyz
  1  'x, y, z'
loop_
 _atom_site_type_symbol
 _atom_site_label
 _atom_site_symmetry_multiplicity
 _atom_site_fract_x
 _atom_site_fract_y
 _atom_site_fract_z
 _atom_site_occupancy
  Sm  Sm0  1  0.642361  0.992686  0.459239  1
  Sm  Sm1  1  0.357785  0.007199  0.959234  1
  Sm  Sm2  1  0.992686  0.642361  0.540761  1
  Sm  Sm3  1  0.492520  0.857645  0.209374  1
  Sm  Sm4  1  0.507491  0.142212  0.709283  1
  Sm  Sm5  1  0.857645  0.492520  0.790626  1
  Sm  Sm6  1  0.142212  0.507491  0.290717  1
  Sm  Sm7  1  0.007199  0.357785  0.040766  1
  Er  Er8  1  0.492613  0.360558  0.124240  1
  Er  Er9  1  0.992611  0.139474  0.625801  1
  Er  Er10  1  0.860509  0.007327  0.874422  1
  Er  Er11  1  0.139474  0.992611  0.374199  1
  Er  Er12  1  0.507422  0.639493  0.624584  1
  Er  Er13  1  0.360558  0.492613  0.875760  1
  Er  Er14  1  0.639493  0.507422  0.375416  1
  Er  Er15  1  0.007327  0.860509  0.125578  1
  Er  Er16  1  0.318083  0.318083  0.500000  1
  Tm  Tm17  1  0.182217  0.817617  0.750148  1
  Tm  Tm18  1  0.817617  0.182217  0.249852  1
  Tm  Tm19  1  0.682213  0.682213  0.000000  1
  Si  Si20  1  0.292120  0.938014  0.562105  1
  Si  Si21  1  0.707708  0.061614  0.062057  1
  Si  Si22  1  0.938014  0.292120  0.437895  1
  Si  Si23  1  0.438479  0.207452  0.311724  1
  Si  Si24  1  0.561680  0.792360  0.812297  1
  Si  Si25  1  0.207452  0.438479  0.688276  1
  Si  Si26  1  0.792360  0.561680  0.187703  1
  Si  Si27  1  0.061614  0.707708  0.937943  1
  Si  Si28  1  0.796747  0.846888  0.687304  1
  Si  Si29  1  0.203420  0.153027  0.187104  1
  Si  Si30  1  0.846888  0.796747  0.312696  1
  Si  Si31  1  0.347200  0.703515  0.437156  1
  Si  Si32  1  0.653036  0.296700  0.937208  1
  Si  Si33  1  0.703515  0.347200  0.562844  1
  Si  Si34  1  0.296700  0.653036  0.062792  1
  Si  Si35  1  0.153027  0.203420  0.812896  1
