# generated using pymatgen
data_Li30Si7As
_symmetry_space_group_name_H-M   'P 1'
_cell_length_a   9.15500800
_cell_length_b   9.15500768
_cell_length_c   9.13293600
_cell_angle_alpha   109.42239038
_cell_angle_beta   109.42238968
_cell_angle_gamma   109.52000812
_symmetry_Int_Tables_number   1
_chemical_formula_structural   Li30Si7As
_chemical_formula_sum   'Li30 Si7 As1'
_cell_volume   589.61337312
_cell_formula_units_Z   1
loop_
 _symmetry_equiv_pos_site_id
 _symmetry_equiv_pos_as_xyz
  1  'x, y, z'
loop_
 _atom_site_type_symbol
 _atom_site_label
 _atom_site_symmetry_multiplicity
 _atom_site_fract_x
 _atom_site_fract_y
 _atom_site_fract_z
 _atom_site_occupancy
  Li  Li0  1  0.339727  0.807565  0.724532  1
  Li  Li1  1  0.124295  0.750545  0.875166  1
  Li  Li2  1  0.723243  0.341911  0.809848  1
  Li  Li3  1  0.618668  0.776757  0.586605  1
  Li  Li4  1  0.030218  0.913029  0.690191  1
  Li  Li5  1  0.085604  0.276119  0.117039  1
  Li  Li6  1  0.912683  0.689888  0.030267  1
  Li  Li7  1  0.276527  0.117675  0.085699  1
  Li  Li8  1  0.190514  0.414396  0.531434  1
  Li  Li9  1  0.777205  0.587317  0.617584  1
  Li  Li10  1  0.692435  0.032161  0.916967  1
  Li  Li11  1  0.531586  0.191874  0.412497  1
  Li  Li12  1  0.626250  0.375705  0.250871  1
  Li  Li13  1  0.467839  0.160273  0.884806  1
  Li  Li14  1  0.878952  0.126393  0.752834  1
  Li  Li15  1  0.972819  0.385248  0.660296  1
  Li  Li16  1  0.412428  0.527181  0.187477  1
  Li  Li17  1  0.114752  0.087572  0.275049  1
  Li  Li18  1  0.308126  0.839712  0.220623  1
  Li  Li19  1  0.749455  0.873750  0.124621  1
  Li  Li20  1  0.882810  0.469782  0.159973  1
  Li  Li21  1  0.586971  0.617190  0.777163  1
  Li  Li22  1  0.382325  0.658851  0.968024  1
  Li  Li23  1  0.810112  0.722795  0.340379  1
  Li  Li24  1  0.660288  0.968414  0.380911  1
  Li  Li25  1  0.158089  0.881332  0.467937  1
  Li  Li26  1  0.223881  0.309486  0.840920  1
  Li  Li27  1  0.373607  0.252559  0.626440  1
  Li  Li28  1  0.841149  0.223473  0.309173  1
  Li  Li29  1  0.247441  0.621048  0.373881  1
  Si  Si30  1  0.584750  0.498176  0.998328  1
  Si  Si31  1  0.500000  0.000000  0.085687  1
  Si  Si32  1  0.999348  0.083727  0.500297  1
  Si  Si33  1  0.001824  0.586574  0.500152  1
  Si  Si34  1  0.084379  0.500652  0.000949  1
  Si  Si35  1  0.416273  0.415621  0.416570  1
  Si  Si36  1  0.913426  0.915250  0.913577  1
  As  As37  1  0.500000  0.000000  0.585234  1
