# generated using pymatgen
data_Sr2Si3PRu4
_symmetry_space_group_name_H-M   'P 1'
_cell_length_a   6.21805461
_cell_length_b   7.96532890
_cell_length_c   7.97811683
_cell_angle_alpha   79.79460490
_cell_angle_beta   90.09681169
_cell_angle_gamma   90.09701208
_symmetry_Int_Tables_number   1
_chemical_formula_structural   Sr2Si3PRu4
_chemical_formula_sum   'Sr4 Si6 P2 Ru8'
_cell_volume   388.89435940
_cell_formula_units_Z   2
loop_
 _symmetry_equiv_pos_site_id
 _symmetry_equiv_pos_as_xyz
  1  'x, y, z'
loop_
 _atom_site_type_symbol
 _atom_site_label
 _atom_site_symmetry_multiplicity
 _atom_site_fract_x
 _atom_site_fract_y
 _atom_site_fract_z
 _atom_site_occupancy
  Sr  Sr0  1  0.376638  0.001505  0.251040  1
  Sr  Sr1  1  0.871653  0.500581  0.748421  1
  Sr  Sr2  1  0.122561  0.500115  0.249699  1
  Sr  Sr3  1  0.628554  0.998959  0.752003  1
  Si  Si4  1  0.622436  0.322443  0.426044  1
  Si  Si5  1  0.874740  0.820594  0.430478  1
  Si  Si6  1  0.879534  0.178212  0.073783  1
  Si  Si7  1  0.623374  0.679884  0.069779  1
  Si  Si8  1  0.126350  0.820511  0.929335  1
  Si  Si9  1  0.372148  0.678580  0.570570  1
  P  P10  1  0.377360  0.319878  0.927577  1
  P  P11  1  0.124195  0.179270  0.572000  1
  Ru  Ru12  1  0.371353  0.371178  0.630821  1
  Ru  Ru13  1  0.622718  0.623026  0.371696  1
  Ru  Ru14  1  0.127784  0.884305  0.627126  1
  Ru  Ru15  1  0.129889  0.127850  0.869291  1
  Ru  Ru16  1  0.619797  0.375318  0.122218  1
  Ru  Ru17  1  0.876305  0.877767  0.127672  1
  Ru  Ru18  1  0.371343  0.615036  0.873181  1
  Ru  Ru19  1  0.881268  0.124987  0.377260  1
