# generated using pymatgen
data_YHo5Er14(Cd3Ru)2
_symmetry_space_group_name_H-M   'P 1'
_cell_length_a   9.53177101
_cell_length_b   9.53111859
_cell_length_c   9.77280200
_cell_angle_alpha   90.00000000
_cell_angle_beta   90.00000000
_cell_angle_gamma   119.99773779
_symmetry_Int_Tables_number   1
_chemical_formula_structural   YHo5Er14(Cd3Ru)2
_chemical_formula_sum   'Y1 Ho5 Er14 Cd6 Ru2'
_cell_volume   768.91282510
_cell_formula_units_Z   1
loop_
 _symmetry_equiv_pos_site_id
 _symmetry_equiv_pos_as_xyz
  1  'x, y, z'
loop_
 _atom_site_type_symbol
 _atom_site_label
 _atom_site_symmetry_multiplicity
 _atom_site_fract_x
 _atom_site_fract_y
 _atom_site_fract_z
 _atom_site_occupancy
  Y  Y0  1  0.082197  0.541098  0.750000  1
  Ho  Ho1  1  0.540998  0.459043  0.250000  1
  Ho  Ho2  1  0.540998  0.081955  0.250000  1
  Ho  Ho3  1  0.918051  0.459026  0.250000  1
  Ho  Ho4  1  0.459185  0.540945  0.750000  1
  Ho  Ho5  1  0.459185  0.918239  0.750000  1
  Er  Er6  1  0.999960  0.999980  0.500018  1
  Er  Er7  1  0.999960  0.999980  0.999982  1
  Er  Er8  1  0.209899  0.790308  0.440078  1
  Er  Er9  1  0.209899  0.419593  0.440078  1
  Er  Er10  1  0.580335  0.790168  0.440205  1
  Er  Er11  1  0.790002  0.209669  0.559763  1
  Er  Er12  1  0.790002  0.580331  0.559763  1
  Er  Er13  1  0.419655  0.209827  0.559822  1
  Er  Er14  1  0.790002  0.209669  0.940237  1
  Er  Er15  1  0.790002  0.580331  0.940237  1
  Er  Er16  1  0.419655  0.209827  0.940178  1
  Er  Er17  1  0.209899  0.790308  0.059922  1
  Er  Er18  1  0.209899  0.419593  0.059922  1
  Er  Er19  1  0.580335  0.790168  0.059795  1
  Cd  Cd20  1  0.885475  0.114506  0.250000  1
  Cd  Cd21  1  0.885475  0.770971  0.250000  1
  Cd  Cd22  1  0.229026  0.114514  0.250000  1
  Cd  Cd23  1  0.114574  0.885767  0.750000  1
  Cd  Cd24  1  0.114574  0.228806  0.750000  1
  Cd  Cd25  1  0.770908  0.885453  0.750000  1
  Ru  Ru26  1  0.333315  0.666658  0.250000  1
  Ru  Ru27  1  0.666533  0.333266  0.750000  1
