# generated using pymatgen
data_TbCdCuNi3
_symmetry_space_group_name_H-M   'P 1'
_cell_length_a   5.03303374
_cell_length_b   5.03303374
_cell_length_c   4.99610051
_cell_angle_alpha   59.75515527
_cell_angle_beta   59.75515610
_cell_angle_gamma   60.00000642
_symmetry_Int_Tables_number   1
_chemical_formula_structural   TbCdCuNi3
_chemical_formula_sum   'Tb1 Cd1 Cu1 Ni3'
_cell_volume   89.15766257
_cell_formula_units_Z   1
loop_
 _symmetry_equiv_pos_site_id
 _symmetry_equiv_pos_as_xyz
  1  'x, y, z'
loop_
 _atom_site_type_symbol
 _atom_site_label
 _atom_site_symmetry_multiplicity
 _atom_site_fract_x
 _atom_site_fract_y
 _atom_site_fract_z
 _atom_site_occupancy
  Tb  Tb0  1  0.249096  0.249096  0.252712  1
  Cd  Cd1  1  0.000552  0.000552  0.998345  1
  Cu  Cu2  1  0.625741  0.625741  0.122777  1
  Ni  Ni3  1  0.626144  0.122322  0.625388  1
  Ni  Ni4  1  0.122322  0.626144  0.625388  1
  Ni  Ni5  1  0.626144  0.626144  0.625388  1
