# generated using pymatgen
data_Tb12ZnFeCoNi2Bi
_symmetry_space_group_name_H-M   'P 1'
_cell_length_a   8.40177976
_cell_length_b   8.40178025
_cell_length_c   8.40178000
_cell_angle_alpha   109.09201208
_cell_angle_beta   111.65061411
_cell_angle_gamma   107.69609477
_symmetry_Int_Tables_number   1
_chemical_formula_structural   Tb12ZnFeCoNi2Bi
_chemical_formula_sum   'Tb12 Zn1 Fe1 Co1 Ni2 Bi1'
_cell_volume   455.99129884
_cell_formula_units_Z   1
loop_
 _symmetry_equiv_pos_site_id
 _symmetry_equiv_pos_as_xyz
  1  'x, y, z'
loop_
 _atom_site_type_symbol
 _atom_site_label
 _atom_site_symmetry_multiplicity
 _atom_site_fract_x
 _atom_site_fract_y
 _atom_site_fract_z
 _atom_site_occupancy
  Tb  Tb0  1  0.284064  0.178463  0.464255  1
  Tb  Tb1  1  0.714210  0.819810  0.535745  1
  Tb  Tb2  1  0.284064  0.819810  0.105602  1
  Tb  Tb3  1  0.714210  0.178463  0.894398  1
  Tb  Tb4  1  0.625537  0.315787  0.309751  1
  Tb  Tb5  1  0.375252  0.684853  0.690398  1
  Tb  Tb6  1  0.006036  0.315787  0.690249  1
  Tb  Tb7  1  0.994455  0.684853  0.309602  1
  Tb  Tb8  1  0.225529  0.429955  0.204425  1
  Tb  Tb9  1  0.775426  0.571382  0.795956  1
  Tb  Tb10  1  0.225529  0.021105  0.795575  1
  Tb  Tb11  1  0.775426  0.979468  0.204044  1
  Zn  Zn12  1  0.000045  0.000045  0.000000  1
  Fe  Fe13  1  0.389355  0.889355  0.500000  1
  Co  Co14  1  0.611959  0.111959  0.500000  1
  Ni  Ni15  1  0.999508  0.360678  0.361170  1
  Ni  Ni16  1  0.999508  0.638338  0.638830  1
  Bi  Bi17  1  0.499887  0.499887  0.000000  1
