# generated using pymatgen
data_Rb3Nd(NbS4)2
_symmetry_space_group_name_H-M   'P 1'
_cell_length_a   9.44163678
_cell_length_b   10.57098296
_cell_length_c   11.37640857
_cell_angle_alpha   107.16425778
_cell_angle_beta   103.01396664
_cell_angle_gamma   114.09860668
_symmetry_Int_Tables_number   1
_chemical_formula_structural   Rb3Nd(NbS4)2
_chemical_formula_sum   'Rb6 Nd2 Nb4 S16'
_cell_volume   909.22102606
_cell_formula_units_Z   2
loop_
 _symmetry_equiv_pos_site_id
 _symmetry_equiv_pos_as_xyz
  1  'x, y, z'
loop_
 _atom_site_type_symbol
 _atom_site_label
 _atom_site_symmetry_multiplicity
 _atom_site_fract_x
 _atom_site_fract_y
 _atom_site_fract_z
 _atom_site_occupancy
  Rb  Rb0  1  0.500001  0.500000  0.000000  1
  Rb  Rb1  1  0.000000  0.500001  0.000000  1
  Rb  Rb2  1  0.256675  0.006676  0.013338  1
  Rb  Rb3  1  0.486885  0.736872  0.473690  1
  Rb  Rb4  1  0.513115  0.263127  0.526312  1
  Rb  Rb5  1  0.743326  0.993325  0.986662  1
  Nd  Nd6  1  0.991507  0.241545  0.483050  1
  Nd  Nd7  1  0.008494  0.758455  0.516951  1
  Nb  Nb8  1  0.005256  0.905315  0.254958  1
  Nb  Nb9  1  0.749685  0.349664  0.254973  1
  Nb  Nb10  1  0.250316  0.650337  0.745028  1
  Nb  Nb11  1  0.994745  0.094685  0.745042  1
  S  S12  1  0.882391  0.758267  0.029913  1
  S  S13  1  0.647493  0.271671  0.029919  1
  S  S14  1  0.132437  0.161336  0.295560  1
  S  S15  1  0.663048  0.134209  0.295557  1
  S  S16  1  0.813608  0.867086  0.351451  1
  S  S17  1  0.037798  0.484293  0.351379  1
  S  S18  1  0.197626  0.851034  0.356979  1
  S  S19  1  0.659464  0.506010  0.357110  1
  S  S20  1  0.340536  0.493990  0.642889  1
  S  S21  1  0.802373  0.148965  0.643021  1
  S  S22  1  0.962203  0.515707  0.648621  1
  S  S23  1  0.186392  0.132913  0.648548  1
  S  S24  1  0.336949  0.865791  0.704443  1
  S  S25  1  0.867563  0.838663  0.704439  1
  S  S26  1  0.352508  0.728329  0.970082  1
  S  S27  1  0.117608  0.241733  0.970087  1
