# generated using pymatgen
data_CdMoF6
_symmetry_space_group_name_H-M   'P 1'
_cell_length_a   5.94453428
_cell_length_b   5.94453485
_cell_length_c   5.94453428
_cell_angle_alpha   55.06088043
_cell_angle_beta   55.06086921
_cell_angle_gamma   55.06086751
_symmetry_Int_Tables_number   1
_chemical_formula_structural   CdMoF6
_chemical_formula_sum   'Cd1 Mo1 F6'
_cell_volume   131.47277725
_cell_formula_units_Z   1
loop_
 _symmetry_equiv_pos_site_id
 _symmetry_equiv_pos_as_xyz
  1  'x, y, z'
loop_
 _atom_site_type_symbol
 _atom_site_label
 _atom_site_symmetry_multiplicity
 _atom_site_fract_x
 _atom_site_fract_y
 _atom_site_fract_z
 _atom_site_occupancy
  Cd  Cd0  1  0.500000  0.500000  0.500000  1
  Mo  Mo1  1  0.000000  0.000000  0.000000  1
  F  F2  1  0.110611  0.355071  0.771207  1
  F  F3  1  0.355071  0.771207  0.110611  1
  F  F4  1  0.228793  0.889389  0.644929  1
  F  F5  1  0.644929  0.228793  0.889389  1
  F  F6  1  0.889389  0.644929  0.228793  1
  F  F7  1  0.771207  0.110611  0.355071  1
