# generated using pymatgen
data_Nd19SmSi15S
_symmetry_space_group_name_H-M   'P 1'
_cell_length_a   7.83593254
_cell_length_b   7.92379891
_cell_length_c   15.19374600
_cell_angle_alpha   89.59138136
_cell_angle_beta   85.12054266
_cell_angle_gamma   89.85640985
_symmetry_Int_Tables_number   1
_chemical_formula_structural   Nd19SmSi15S
_chemical_formula_sum   'Nd19 Sm1 Si15 S1'
_cell_volume   939.94048862
_cell_formula_units_Z   1
loop_
 _symmetry_equiv_pos_site_id
 _symmetry_equiv_pos_as_xyz
  1  'x, y, z'
loop_
 _atom_site_type_symbol
 _atom_site_label
 _atom_site_symmetry_multiplicity
 _atom_site_fract_x
 _atom_site_fract_y
 _atom_site_fract_z
 _atom_site_occupancy
  Nd  Nd0  1  0.858804  0.346350  0.610676  1
  Nd  Nd1  1  0.465147  0.690026  0.895215  1
  Nd  Nd2  1  0.964773  0.811429  0.895919  1
  Nd  Nd3  1  0.178154  0.678194  0.121518  1
  Nd  Nd4  1  0.677677  0.818262  0.121703  1
  Nd  Nd5  1  0.322686  0.180827  0.879192  1
  Nd  Nd6  1  0.131929  0.661627  0.387033  1
  Nd  Nd7  1  0.035200  0.186972  0.104650  1
  Nd  Nd8  1  0.362179  0.164848  0.616131  1
  Nd  Nd9  1  0.831461  0.491439  0.250305  1
  Nd  Nd10  1  0.331505  0.003763  0.254611  1
  Nd  Nd11  1  0.493810  0.316583  0.398726  1
  Nd  Nd12  1  0.823038  0.321758  0.879095  1
  Nd  Nd13  1  0.013202  0.832122  0.606347  1
  Nd  Nd14  1  0.501451  0.687799  0.604175  1
  Nd  Nd15  1  0.994828  0.176032  0.397119  1
  Nd  Nd16  1  0.636993  0.830707  0.385069  1
  Nd  Nd17  1  0.668891  0.997217  0.744689  1
  Nd  Nd18  1  0.535381  0.308850  0.104884  1
  Sm  Sm19  1  0.167859  0.507716  0.745430  1
  Si  Si20  1  0.450263  0.602074  0.251581  1
  Si  Si21  1  0.223234  0.376364  0.249791  1
  Si  Si22  1  0.547721  0.399473  0.750654  1
  Si  Si23  1  0.636868  0.025495  0.957605  1
  Si  Si24  1  0.047032  0.108440  0.751643  1
  Si  Si25  1  0.777901  0.623000  0.751392  1
  Si  Si26  1  0.722600  0.119532  0.249547  1
  Si  Si27  1  0.290918  0.967548  0.454942  1
  Si  Si28  1  0.952076  0.894474  0.250116  1
  Si  Si29  1  0.365465  0.972942  0.042651  1
  Si  Si30  1  0.716138  0.031743  0.542413  1
  Si  Si31  1  0.136097  0.475192  0.956873  1
  Si  Si32  1  0.214434  0.473359  0.546963  1
  Si  Si33  1  0.865978  0.522881  0.043403  1
  Si  Si34  1  0.275532  0.877721  0.752316  1
  S  S35  1  0.782775  0.517239  0.445623  1
