# generated using pymatgen
data_Y3Sc3Bi2W
_symmetry_space_group_name_H-M   'P 1'
_cell_length_a   7.98310800
_cell_length_b   7.98310808
_cell_length_c   4.32349900
_cell_angle_alpha   90.00000000
_cell_angle_beta   90.00000000
_cell_angle_gamma   119.99999138
_symmetry_Int_Tables_number   1
_chemical_formula_structural   Y3Sc3Bi2W
_chemical_formula_sum   'Y3 Sc3 Bi2 W1'
_cell_volume   238.62176081
_cell_formula_units_Z   1
loop_
 _symmetry_equiv_pos_site_id
 _symmetry_equiv_pos_as_xyz
  1  'x, y, z'
loop_
 _atom_site_type_symbol
 _atom_site_label
 _atom_site_symmetry_multiplicity
 _atom_site_fract_x
 _atom_site_fract_y
 _atom_site_fract_z
 _atom_site_occupancy
  Y  Y0  1  0.607014  0.000000  0.000000  1
  Y  Y1  1  0.000000  0.607014  0.000000  1
  Y  Y2  1  0.392986  0.392986  0.000000  1
  Sc  Sc3  1  0.226051  0.000000  0.500000  1
  Sc  Sc4  1  0.000000  0.226051  0.500000  1
  Sc  Sc5  1  0.773949  0.773949  0.500000  1
  Bi  Bi6  1  0.333333  0.666667  0.500000  1
  Bi  Bi7  1  0.666667  0.333333  0.500000  1
  W  W8  1  0.000000  0.000000  0.000000  1
