# generated using pymatgen
data_Mg4Co2P6Ir5
_symmetry_space_group_name_H-M   'P 1'
_cell_length_a   6.77603798
_cell_length_b   6.76829071
_cell_length_c   6.76829040
_cell_angle_alpha   108.75372906
_cell_angle_beta   109.80752936
_cell_angle_gamma   109.80753014
_symmetry_Int_Tables_number   1
_chemical_formula_structural   Mg4Co2P6Ir5
_chemical_formula_sum   'Mg4 Co2 P6 Ir5'
_cell_volume   239.06476815
_cell_formula_units_Z   1
loop_
 _symmetry_equiv_pos_site_id
 _symmetry_equiv_pos_as_xyz
  1  'x, y, z'
loop_
 _atom_site_type_symbol
 _atom_site_label
 _atom_site_symmetry_multiplicity
 _atom_site_fract_x
 _atom_site_fract_y
 _atom_site_fract_z
 _atom_site_occupancy
  Mg  Mg0  1  0.000000  0.997931  0.501756  1
  Mg  Mg1  1  0.500000  0.001733  0.998267  1
  Mg  Mg2  1  0.000000  0.498244  0.002069  1
  Mg  Mg3  1  0.500000  0.501733  0.498267  1
  Co  Co4  1  0.242459  0.493055  0.749404  1
  Co  Co5  1  0.757541  0.250596  0.506945  1
  P  P6  1  0.675887  0.682788  0.993099  1
  P  P7  1  0.311538  0.319913  0.991625  1
  P  P8  1  0.000000  0.667028  0.684590  1
  P  P9  1  0.000000  0.315410  0.332972  1
  P  P10  1  0.688462  0.008375  0.680087  1
  P  P11  1  0.324113  0.006901  0.317212  1
  Ir  Ir12  1  0.000000  0.000447  0.999553  1
  Ir  Ir13  1  0.500000  0.257416  0.742584  1
  Ir  Ir14  1  0.500000  0.757416  0.242584  1
  Ir  Ir15  1  0.743914  0.492464  0.251451  1
  Ir  Ir16  1  0.256086  0.748549  0.507536  1
