# generated using pymatgen
data_Tm4As6Ir5Ru2
_symmetry_space_group_name_H-M   'P 1'
_cell_length_a   7.22981927
_cell_length_b   7.22981859
_cell_length_c   7.22981868
_cell_angle_alpha   109.43954449
_cell_angle_beta   109.53459033
_cell_angle_gamma   109.43953987
_symmetry_Int_Tables_number   1
_chemical_formula_structural   Tm4As6Ir5Ru2
_chemical_formula_sum   'Tm4 As6 Ir5 Ru2'
_cell_volume   290.91089631
_cell_formula_units_Z   1
loop_
 _symmetry_equiv_pos_site_id
 _symmetry_equiv_pos_as_xyz
  1  'x, y, z'
loop_
 _atom_site_type_symbol
 _atom_site_label
 _atom_site_symmetry_multiplicity
 _atom_site_fract_x
 _atom_site_fract_y
 _atom_site_fract_z
 _atom_site_occupancy
  Tm  Tm0  1  0.000193  0.000385  0.500193  1
  Tm  Tm1  1  0.499807  0.999615  0.999807  1
  Tm  Tm2  1  0.000193  0.500000  0.999807  1
  Tm  Tm3  1  0.499807  0.500000  0.500193  1
  As  As4  1  0.680683  0.683607  0.997075  1
  As  As5  1  0.313467  0.316393  0.997075  1
  As  As6  1  0.002925  0.683607  0.686533  1
  As  As7  1  0.002925  0.316393  0.319317  1
  As  As8  1  0.685635  0.000000  0.685635  1
  As  As9  1  0.314365  0.000000  0.314365  1
  Ir  Ir10  1  0.749301  0.249289  0.500011  1
  Ir  Ir11  1  0.499989  0.249289  0.749278  1
  Ir  Ir12  1  0.499989  0.750711  0.250699  1
  Ir  Ir13  1  0.750000  0.500000  0.250000  1
  Ir  Ir14  1  0.250722  0.750711  0.500011  1
  Ru  Ru15  1  0.000000  0.000000  0.000000  1
  Ru  Ru16  1  0.250000  0.500000  0.750000  1
