# generated using pymatgen
data_TiMn2NbP2
_symmetry_space_group_name_H-M   'P 1'
_cell_length_a   3.50133700
_cell_length_b   6.19628924
_cell_length_c   7.22640618
_cell_angle_alpha   89.72228069
_cell_angle_beta   90.00000000
_cell_angle_gamma   90.00000000
_symmetry_Int_Tables_number   1
_chemical_formula_structural   TiMn2NbP2
_chemical_formula_sum   'Ti2 Mn4 Nb2 P4'
_cell_volume   156.77718484
_cell_formula_units_Z   2
loop_
 _symmetry_equiv_pos_site_id
 _symmetry_equiv_pos_as_xyz
  1  'x, y, z'
loop_
 _atom_site_type_symbol
 _atom_site_label
 _atom_site_symmetry_multiplicity
 _atom_site_fract_x
 _atom_site_fract_y
 _atom_site_fract_z
 _atom_site_occupancy
  Ti  Ti0  1  0.250000  0.531003  0.671810  1
  Ti  Ti1  1  0.750000  0.468997  0.328190  1
  Mn  Mn2  1  0.750000  0.861434  0.559347  1
  Mn  Mn3  1  0.250000  0.138566  0.440653  1
  Mn  Mn4  1  0.750000  0.361285  0.939983  1
  Mn  Mn5  1  0.250000  0.638715  0.060017  1
  Nb  Nb6  1  0.250000  0.032135  0.827754  1
  Nb  Nb7  1  0.750000  0.967865  0.172246  1
  P  P8  1  0.250000  0.272815  0.135067  1
  P  P9  1  0.750000  0.727185  0.864933  1
  P  P10  1  0.250000  0.759993  0.372314  1
  P  P11  1  0.750000  0.240007  0.627686  1
