# generated using pymatgen
data_Ho4Si8Tc5Mo
_symmetry_space_group_name_H-M   'P 1'
_cell_length_a   6.82500776
_cell_length_b   6.71488090
_cell_length_c   6.81553444
_cell_angle_alpha   70.38320975
_cell_angle_beta   89.97932366
_cell_angle_gamma   89.89676912
_symmetry_Int_Tables_number   1
_chemical_formula_structural   Ho4Si8Tc5Mo
_chemical_formula_sum   'Ho4 Si8 Tc5 Mo1'
_cell_volume   294.22035241
_cell_formula_units_Z   1
loop_
 _symmetry_equiv_pos_site_id
 _symmetry_equiv_pos_as_xyz
  1  'x, y, z'
loop_
 _atom_site_type_symbol
 _atom_site_label
 _atom_site_symmetry_multiplicity
 _atom_site_fract_x
 _atom_site_fract_y
 _atom_site_fract_z
 _atom_site_occupancy
  Ho  Ho0  1  0.668518  0.440323  0.192596  1
  Ho  Ho1  1  0.167767  0.058502  0.809596  1
  Ho  Ho2  1  0.332466  0.559808  0.808206  1
  Ho  Ho3  1  0.831109  0.939849  0.194027  1
  Si  Si4  1  0.452620  0.125296  0.097955  1
  Si  Si5  1  0.949997  0.379451  0.896083  1
  Si  Si6  1  0.550194  0.877658  0.897834  1
  Si  Si7  1  0.045357  0.622514  0.098262  1
  Si  Si8  1  0.859217  0.132107  0.512655  1
  Si  Si9  1  0.361480  0.364584  0.490268  1
  Si  Si10  1  0.138322  0.870797  0.490829  1
  Si  Si11  1  0.641135  0.628740  0.513600  1
  Tc  Tc12  1  0.500810  0.999127  0.499252  1
  Tc  Tc13  1  0.000063  0.497919  0.500198  1
  Tc  Tc14  1  0.156430  0.245666  0.234512  1
  Tc  Tc15  1  0.653975  0.255678  0.763753  1
  Tc  Tc16  1  0.848213  0.758378  0.759607  1
  Mo  Mo17  1  0.342329  0.743602  0.240768  1
