# generated using pymatgen
data_Ho2Er2P7Ir8
_symmetry_space_group_name_H-M   'P 1'
_cell_length_a   3.94166100
_cell_length_b   12.64211739
_cell_length_c   13.08747830
_cell_angle_alpha   99.11081673
_cell_angle_beta   90.00000000
_cell_angle_gamma   90.00000000
_symmetry_Int_Tables_number   1
_chemical_formula_structural   Ho2Er2P7Ir8
_chemical_formula_sum   'Ho4 Er4 P14 Ir16'
_cell_volume   643.93364713
_cell_formula_units_Z   2
loop_
 _symmetry_equiv_pos_site_id
 _symmetry_equiv_pos_as_xyz
  1  'x, y, z'
loop_
 _atom_site_type_symbol
 _atom_site_label
 _atom_site_symmetry_multiplicity
 _atom_site_fract_x
 _atom_site_fract_y
 _atom_site_fract_z
 _atom_site_occupancy
  Ho  Ho0  1  0.750000  0.279331  0.897631  1
  Ho  Ho1  1  0.250000  0.720669  0.102369  1
  Ho  Ho2  1  0.750000  0.102016  0.210573  1
  Ho  Ho3  1  0.250000  0.897984  0.789427  1
  Er  Er4  1  0.750000  0.209062  0.561953  1
  Er  Er5  1  0.250000  0.790938  0.438047  1
  Er  Er6  1  0.750000  0.520603  0.706095  1
  Er  Er7  1  0.250000  0.479397  0.293905  1
  P  P8  1  0.750000  0.742331  0.920407  1
  P  P9  1  0.250000  0.257669  0.079593  1
  P  P10  1  0.750000  0.906025  0.587576  1
  P  P11  1  0.250000  0.093975  0.412424  1
  P  P12  1  0.750000  0.527636  0.129584  1
  P  P13  1  0.250000  0.472364  0.870416  1
  P  P14  1  0.750000  0.843469  0.282575  1
  P  P15  1  0.250000  0.156531  0.717425  1
  P  P16  1  0.750000  0.607724  0.432533  1
  P  P17  1  0.250000  0.392276  0.567467  1
  P  P18  1  0.750000  0.312090  0.310712  1
  P  P19  1  0.250000  0.687910  0.689288  1
  P  P20  1  0.750000  0.051636  0.899312  1
  P  P21  1  0.250000  0.948364  0.100688  1
  Ir  Ir22  1  0.750000  0.341484  0.142095  1
  Ir  Ir23  1  0.250000  0.658516  0.857905  1
  Ir  Ir24  1  0.750000  0.728802  0.604543  1
  Ir  Ir25  1  0.250000  0.271198  0.395457  1
  Ir  Ir26  1  0.750000  0.915226  0.002851  1
  Ir  Ir27  1  0.250000  0.084774  0.997149  1
  Ir  Ir28  1  0.750000  0.421772  0.476842  1
  Ir  Ir29  1  0.250000  0.578228  0.523158  1
  Ir  Ir30  1  0.750000  0.059367  0.726834  1
  Ir  Ir31  1  0.250000  0.940633  0.273166  1
  Ir  Ir32  1  0.750000  0.555446  0.955441  1
  Ir  Ir33  1  0.250000  0.444554  0.044559  1
  Ir  Ir34  1  0.750000  0.662630  0.268921  1
  Ir  Ir35  1  0.250000  0.337370  0.731079  1
  Ir  Ir36  1  0.750000  0.991136  0.424121  1
  Ir  Ir37  1  0.250000  0.008864  0.575879  1
