# generated using pymatgen
data_Ta2Nb4Al3Si(TcC)2
_symmetry_space_group_name_H-M   'P 1'
_cell_length_a   8.32555022
_cell_length_b   8.32336969
_cell_length_c   8.32813655
_cell_angle_alpha   59.98522811
_cell_angle_beta   59.94110769
_cell_angle_gamma   59.95045566
_symmetry_Int_Tables_number   1
_chemical_formula_structural   Ta2Nb4Al3Si(TcC)2
_chemical_formula_sum   'Ta4 Nb8 Al6 Si2 Tc4 C4'
_cell_volume   407.69946380
_cell_formula_units_Z   2
loop_
 _symmetry_equiv_pos_site_id
 _symmetry_equiv_pos_as_xyz
  1  'x, y, z'
loop_
 _atom_site_type_symbol
 _atom_site_label
 _atom_site_symmetry_multiplicity
 _atom_site_fract_x
 _atom_site_fract_y
 _atom_site_fract_z
 _atom_site_occupancy
  Ta  Ta0  1  0.559575  0.943419  0.943548  1
  Ta  Ta1  1  0.942341  0.940910  0.561312  1
  Ta  Ta2  1  0.694990  0.308798  0.688975  1
  Ta  Ta3  1  0.941914  0.561454  0.940805  1
  Nb  Nb4  1  0.556829  0.943038  0.557105  1
  Nb  Nb5  1  0.307323  0.693375  0.693032  1
  Nb  Nb6  1  0.696292  0.306793  0.307020  1
  Nb  Nb7  1  0.305377  0.694230  0.306191  1
  Nb  Nb8  1  0.694821  0.688731  0.309193  1
  Nb  Nb9  1  0.306268  0.306722  0.693492  1
  Nb  Nb10  1  0.555781  0.555936  0.944116  1
  Nb  Nb11  1  0.943636  0.556972  0.556937  1
  Al  Al12  1  0.336846  0.997071  0.334543  1
  Al  Al13  1  0.335993  0.334697  0.996843  1
  Al  Al14  1  0.918213  0.252785  0.916035  1
  Al  Al15  1  0.917435  0.916211  0.252532  1
  Al  Al16  1  0.251558  0.917144  0.916558  1
  Al  Al17  1  0.335911  0.332593  0.333206  1
  Si  Si18  1  0.916691  0.913443  0.914371  1
  Si  Si19  1  0.994890  0.335877  0.335269  1
  Tc  Tc20  1  0.121955  0.130069  0.130000  1
  Tc  Tc21  1  0.631854  0.120000  0.116322  1
  Tc  Tc22  1  0.115771  0.624952  0.123782  1
  Tc  Tc23  1  0.113541  0.124881  0.625304  1
  C  C24  1  0.625993  0.623222  0.626146  1
  C  C25  1  0.124000  0.626269  0.626569  1
  C  C26  1  0.627545  0.123871  0.627354  1
  C  C27  1  0.626657  0.626538  0.123443  1
