# generated using pymatgen
data_Zr5AlGaBi2
_symmetry_space_group_name_H-M   'P 1'
_cell_length_a   8.76721900
_cell_length_b   8.73545284
_cell_length_c   5.92106800
_cell_angle_alpha   90.00000000
_cell_angle_beta   90.00000000
_cell_angle_gamma   120.12036257
_symmetry_Int_Tables_number   1
_chemical_formula_structural   Zr5AlGaBi2
_chemical_formula_sum   'Zr10 Al2 Ga2 Bi4'
_cell_volume   392.23825185
_cell_formula_units_Z   2
loop_
 _symmetry_equiv_pos_site_id
 _symmetry_equiv_pos_as_xyz
  1  'x, y, z'
loop_
 _atom_site_type_symbol
 _atom_site_label
 _atom_site_symmetry_multiplicity
 _atom_site_fract_x
 _atom_site_fract_y
 _atom_site_fract_z
 _atom_site_occupancy
  Zr  Zr0  1  0.002194  0.259168  0.250000  1
  Zr  Zr1  1  0.732942  0.000000  0.750000  1
  Zr  Zr2  1  0.743027  0.740832  0.250000  1
  Zr  Zr3  1  0.672750  0.340754  0.508596  1
  Zr  Zr4  1  0.983159  0.715244  0.750000  1
  Zr  Zr5  1  0.267915  0.284756  0.750000  1
  Zr  Zr6  1  0.331995  0.659246  0.991404  1
  Zr  Zr7  1  0.672750  0.340754  0.991404  1
  Zr  Zr8  1  0.331995  0.659246  0.508596  1
  Zr  Zr9  1  0.259150  0.000000  0.250000  1
  Al  Al10  1  0.997512  0.384332  0.750000  1
  Al  Al11  1  0.613181  0.615668  0.750000  1
  Ga  Ga12  1  0.001175  0.000000  0.982740  1
  Ga  Ga13  1  0.001175  0.000000  0.517260  1
  Bi  Bi14  1  0.608596  0.000000  0.250000  1
  Bi  Bi15  1  0.380246  0.000000  0.750000  1
  Bi  Bi16  1  0.397103  0.393967  0.250000  1
  Bi  Bi17  1  0.003136  0.606033  0.250000  1
