# generated using pymatgen
data_NaYNi3P7Ru9
_symmetry_space_group_name_H-M   'P 1'
_cell_length_a   9.38162200
_cell_length_b   9.38162152
_cell_length_c   3.80712200
_cell_angle_alpha   90.00000000
_cell_angle_beta   90.00000000
_cell_angle_gamma   119.99999465
_symmetry_Int_Tables_number   1
_chemical_formula_structural   NaYNi3P7Ru9
_chemical_formula_sum   'Na1 Y1 Ni3 P7 Ru9'
_cell_volume   290.19056493
_cell_formula_units_Z   1
loop_
 _symmetry_equiv_pos_site_id
 _symmetry_equiv_pos_as_xyz
  1  'x, y, z'
loop_
 _atom_site_type_symbol
 _atom_site_label
 _atom_site_symmetry_multiplicity
 _atom_site_fract_x
 _atom_site_fract_y
 _atom_site_fract_z
 _atom_site_occupancy
  Na  Na0  1  0.666667  0.333333  0.000000  1
  Y  Y1  1  0.333333  0.666667  0.500000  1
  Ni  Ni2  1  0.271172  0.112331  0.000000  1
  Ni  Ni3  1  0.841160  0.728828  0.000000  1
  Ni  Ni4  1  0.887669  0.158840  0.000000  1
  P  P5  1  0.300349  0.889450  0.000000  1
  P  P6  1  0.589100  0.699651  0.000000  1
  P  P7  1  0.110550  0.410900  0.000000  1
  P  P8  1  0.404853  0.288026  0.500000  1
  P  P9  1  0.883172  0.595147  0.500000  1
  P  P10  1  0.711974  0.116828  0.500000  1
  P  P11  1  0.000000  0.000000  0.000000  1
  Ru  Ru12  1  0.061206  0.635535  0.000000  1
  Ru  Ru13  1  0.574328  0.938794  0.000000  1
  Ru  Ru14  1  0.364465  0.425672  0.000000  1
  Ru  Ru15  1  0.432773  0.048565  0.500000  1
  Ru  Ru16  1  0.615790  0.567227  0.500000  1
  Ru  Ru17  1  0.951435  0.384210  0.500000  1
  Ru  Ru18  1  0.081013  0.878028  0.500000  1
  Ru  Ru19  1  0.797015  0.918987  0.500000  1
  Ru  Ru20  1  0.121972  0.202985  0.500000  1
