# generated using pymatgen
data_TmLu2U2O10
_symmetry_space_group_name_H-M   'P 1'
_cell_length_a   6.38123814
_cell_length_b   6.38123701
_cell_length_c   8.26310190
_cell_angle_alpha   51.45692223
_cell_angle_beta   51.45693215
_cell_angle_gamma   48.95529783
_symmetry_Int_Tables_number   1
_chemical_formula_structural   TmLu2U2O10
_chemical_formula_sum   'Tm1 Lu2 U2 O10'
_cell_volume   184.96826078
_cell_formula_units_Z   1
loop_
 _symmetry_equiv_pos_site_id
 _symmetry_equiv_pos_as_xyz
  1  'x, y, z'
loop_
 _atom_site_type_symbol
 _atom_site_label
 _atom_site_symmetry_multiplicity
 _atom_site_fract_x
 _atom_site_fract_y
 _atom_site_fract_z
 _atom_site_occupancy
  Tm  Tm0  1  0.500000  0.500000  0.000000  1
  Lu  Lu1  1  0.103007  0.103007  0.595773  1
  Lu  Lu2  1  0.896993  0.896993  0.404227  1
  U  U3  1  0.301682  0.301682  0.794337  1
  U  U4  1  0.698318  0.698318  0.205663  1
  O  O5  1  0.552152  0.041990  0.294398  1
  O  O6  1  0.958010  0.447848  0.705602  1
  O  O7  1  0.041990  0.552152  0.294398  1
  O  O8  1  0.352700  0.853253  0.106252  1
  O  O9  1  0.447848  0.958010  0.705602  1
  O  O10  1  0.740122  0.259878  0.500000  1
  O  O11  1  0.853253  0.352700  0.106252  1
  O  O12  1  0.146747  0.647300  0.893748  1
  O  O13  1  0.259878  0.740122  0.500000  1
  O  O14  1  0.647300  0.146747  0.893748  1
