# generated using pymatgen
data_Sc2SnB2Ir2Rh3
_symmetry_space_group_name_H-M   'P 1'
_cell_length_a   9.40681202
_cell_length_b   9.40741502
_cell_length_c   3.23216700
_cell_angle_alpha   90.00000000
_cell_angle_beta   90.00000000
_cell_angle_gamma   89.99258154
_symmetry_Int_Tables_number   1
_chemical_formula_structural   Sc2SnB2Ir2Rh3
_chemical_formula_sum   'Sc4 Sn2 B4 Ir4 Rh6'
_cell_volume   286.02668816
_cell_formula_units_Z   2
loop_
 _symmetry_equiv_pos_site_id
 _symmetry_equiv_pos_as_xyz
  1  'x, y, z'
loop_
 _atom_site_type_symbol
 _atom_site_label
 _atom_site_symmetry_multiplicity
 _atom_site_fract_x
 _atom_site_fract_y
 _atom_site_fract_z
 _atom_site_occupancy
  Sc  Sc0  1  0.824586  0.323844  0.000000  1
  Sc  Sc1  1  0.323950  0.174903  0.000000  1
  Sc  Sc2  1  0.675012  0.823777  0.000000  1
  Sc  Sc3  1  0.175519  0.675333  0.000000  1
  Sn  Sn4  1  0.996016  0.998195  0.000000  1
  Sn  Sn5  1  0.500764  0.500802  0.000000  1
  B  B6  1  0.619408  0.120493  0.000000  1
  B  B7  1  0.119852  0.376759  0.000000  1
  B  B8  1  0.880674  0.619061  0.000000  1
  B  B9  1  0.377118  0.881144  0.000000  1
  Ir  Ir10  1  0.073362  0.222288  0.500000  1
  Ir  Ir11  1  0.223461  0.929349  0.500000  1
  Ir  Ir12  1  0.501757  0.000464  0.500000  1
  Ir  Ir13  1  0.999705  0.499690  0.500000  1
  Rh  Rh14  1  0.777884  0.073898  0.500000  1
  Rh  Rh15  1  0.928806  0.776877  0.500000  1
  Rh  Rh16  1  0.428431  0.722605  0.500000  1
  Rh  Rh17  1  0.572399  0.278528  0.500000  1
  Rh  Rh18  1  0.722618  0.572925  0.500000  1
  Rh  Rh19  1  0.278678  0.429064  0.500000  1
