# generated using pymatgen
data_LiGd2(ScGe2)2
_symmetry_space_group_name_H-M   'P 1'
_cell_length_a   7.07189900
_cell_length_b   7.58392000
_cell_length_c   14.43500100
_cell_angle_alpha   90.00000000
_cell_angle_beta   90.00000000
_cell_angle_gamma   90.00000000
_symmetry_Int_Tables_number   1
_chemical_formula_structural   LiGd2(ScGe2)2
_chemical_formula_sum   'Li4 Gd8 Sc8 Ge16'
_cell_volume   774.18831290
_cell_formula_units_Z   4
loop_
 _symmetry_equiv_pos_site_id
 _symmetry_equiv_pos_as_xyz
  1  'x, y, z'
loop_
 _atom_site_type_symbol
 _atom_site_label
 _atom_site_symmetry_multiplicity
 _atom_site_fract_x
 _atom_site_fract_y
 _atom_site_fract_z
 _atom_site_occupancy
  Li  Li0  1  0.159067  0.504566  0.750000  1
  Li  Li1  1  0.840933  0.495434  0.250000  1
  Li  Li2  1  0.340933  0.004566  0.250000  1
  Li  Li3  1  0.659067  0.995434  0.750000  1
  Gd  Gd4  1  0.012493  0.181576  0.099198  1
  Gd  Gd5  1  0.987507  0.818424  0.900802  1
  Gd  Gd6  1  0.487507  0.681576  0.900802  1
  Gd  Gd7  1  0.987507  0.818424  0.599198  1
  Gd  Gd8  1  0.512493  0.318424  0.099198  1
  Gd  Gd9  1  0.012493  0.181576  0.400802  1
  Gd  Gd10  1  0.512493  0.318424  0.400802  1
  Gd  Gd11  1  0.487507  0.681576  0.599198  1
  Sc  Sc12  1  0.330225  0.176606  0.625901  1
  Sc  Sc13  1  0.669775  0.823394  0.374099  1
  Sc  Sc14  1  0.169775  0.676606  0.374099  1
  Sc  Sc15  1  0.669775  0.823394  0.125901  1
  Sc  Sc16  1  0.830225  0.323394  0.625901  1
  Sc  Sc17  1  0.330225  0.176606  0.874099  1
  Sc  Sc18  1  0.830225  0.323394  0.874099  1
  Sc  Sc19  1  0.169775  0.676606  0.125901  1
  Ge  Ge20  1  0.026673  0.111793  0.750000  1
  Ge  Ge21  1  0.973327  0.888207  0.250000  1
  Ge  Ge22  1  0.473327  0.611793  0.250000  1
  Ge  Ge23  1  0.526673  0.388207  0.750000  1
  Ge  Ge24  1  0.288090  0.879547  0.750000  1
  Ge  Ge25  1  0.711910  0.120453  0.250000  1
  Ge  Ge26  1  0.211910  0.379547  0.250000  1
  Ge  Ge27  1  0.788090  0.620453  0.750000  1
  Ge  Ge28  1  0.165483  0.461628  0.536629  1
  Ge  Ge29  1  0.834517  0.538372  0.463371  1
  Ge  Ge30  1  0.334517  0.961628  0.463371  1
  Ge  Ge31  1  0.834517  0.538372  0.036629  1
  Ge  Ge32  1  0.665483  0.038372  0.536629  1
  Ge  Ge33  1  0.165483  0.461628  0.963371  1
  Ge  Ge34  1  0.665483  0.038372  0.963371  1
  Ge  Ge35  1  0.334517  0.961628  0.036629  1
