# generated using pymatgen
data_Eu2Co9P6W
_symmetry_space_group_name_H-M   'P 1'
_cell_length_a   3.68110900
_cell_length_b   10.42702500
_cell_length_c   11.91901000
_cell_angle_alpha   90.00000000
_cell_angle_beta   90.00000000
_cell_angle_gamma   90.00000000
_symmetry_Int_Tables_number   1
_chemical_formula_structural   Eu2Co9P6W
_chemical_formula_sum   'Eu4 Co18 P12 W2'
_cell_volume   457.48754642
_cell_formula_units_Z   2
loop_
 _symmetry_equiv_pos_site_id
 _symmetry_equiv_pos_as_xyz
  1  'x, y, z'
loop_
 _atom_site_type_symbol
 _atom_site_label
 _atom_site_symmetry_multiplicity
 _atom_site_fract_x
 _atom_site_fract_y
 _atom_site_fract_z
 _atom_site_occupancy
  Eu  Eu0  1  0.250000  0.582134  0.703677  1
  Eu  Eu1  1  0.250000  0.917866  0.203677  1
  Eu  Eu2  1  0.750000  0.416131  0.295317  1
  Eu  Eu3  1  0.750000  0.083869  0.795317  1
  Co  Co4  1  0.750000  0.289384  0.012428  1
  Co  Co5  1  0.750000  0.210616  0.512428  1
  Co  Co6  1  0.250000  0.403387  0.490327  1
  Co  Co7  1  0.250000  0.096613  0.990327  1
  Co  Co8  1  0.750000  0.592499  0.510756  1
  Co  Co9  1  0.750000  0.907501  0.010756  1
  Co  Co10  1  0.250000  0.218966  0.174962  1
  Co  Co11  1  0.250000  0.281034  0.674962  1
  Co  Co12  1  0.750000  0.779877  0.824641  1
  Co  Co13  1  0.750000  0.720123  0.324641  1
  Co  Co14  1  0.250000  0.885092  0.698431  1
  Co  Co15  1  0.250000  0.614908  0.198431  1
  Co  Co16  1  0.750000  0.120012  0.302549  1
  Co  Co17  1  0.750000  0.379988  0.802549  1
  Co  Co18  1  0.250000  0.461320  0.934493  1
  Co  Co19  1  0.250000  0.038680  0.434493  1
  Co  Co20  1  0.750000  0.530717  0.065567  1
  Co  Co21  1  0.750000  0.969283  0.565567  1
  P  P22  1  0.250000  0.417162  0.112357  1
  P  P23  1  0.250000  0.082838  0.612357  1
  P  P24  1  0.750000  0.577360  0.885500  1
  P  P25  1  0.750000  0.922640  0.385500  1
  P  P26  1  0.250000  0.269977  0.866431  1
  P  P27  1  0.250000  0.230023  0.366431  1
  P  P28  1  0.750000  0.726264  0.136085  1
  P  P29  1  0.750000  0.773736  0.636085  1
  P  P30  1  0.250000  0.595036  0.391625  1
  P  P31  1  0.250000  0.904964  0.891625  1
  P  P32  1  0.750000  0.395459  0.607521  1
  P  P33  1  0.750000  0.104541  0.107521  1
  W  W34  1  0.250000  0.706269  0.987332  1
  W  W35  1  0.250000  0.793731  0.487332  1
