# generated using pymatgen
data_Hf18Cr2GaRe6As
_symmetry_space_group_name_H-M   'P 1'
_cell_length_a   8.59526900
_cell_length_b   8.59526825
_cell_length_c   8.55346200
_cell_angle_alpha   90.00000000
_cell_angle_beta   90.00000000
_cell_angle_gamma   120.00315494
_symmetry_Int_Tables_number   1
_chemical_formula_structural   Hf18Cr2GaRe6As
_chemical_formula_sum   'Hf18 Cr2 Ga1 Re6 As1'
_cell_volume   547.23978364
_cell_formula_units_Z   1
loop_
 _symmetry_equiv_pos_site_id
 _symmetry_equiv_pos_as_xyz
  1  'x, y, z'
loop_
 _atom_site_type_symbol
 _atom_site_label
 _atom_site_symmetry_multiplicity
 _atom_site_fract_x
 _atom_site_fract_y
 _atom_site_fract_z
 _atom_site_occupancy
  Hf  Hf0  1  0.807957  0.615906  0.548452  1
  Hf  Hf1  1  0.807960  0.192040  0.548452  1
  Hf  Hf2  1  0.384094  0.192043  0.548452  1
  Hf  Hf3  1  0.192066  0.384161  0.452429  1
  Hf  Hf4  1  0.192071  0.807929  0.452411  1
  Hf  Hf5  1  0.615839  0.807934  0.452429  1
  Hf  Hf6  1  0.192066  0.384161  0.047571  1
  Hf  Hf7  1  0.192071  0.807929  0.047589  1
  Hf  Hf8  1  0.615839  0.807934  0.047571  1
  Hf  Hf9  1  0.807957  0.615906  0.951548  1
  Hf  Hf10  1  0.807960  0.192040  0.951548  1
  Hf  Hf11  1  0.384094  0.192043  0.951548  1
  Hf  Hf12  1  0.459263  0.918477  0.750000  1
  Hf  Hf13  1  0.459277  0.540723  0.750000  1
  Hf  Hf14  1  0.081523  0.540737  0.750000  1
  Hf  Hf15  1  0.541877  0.083818  0.250000  1
  Hf  Hf16  1  0.541858  0.458142  0.250000  1
  Hf  Hf17  1  0.916182  0.458123  0.250000  1
  Cr  Cr18  1  0.999995  0.000005  0.500538  1
  Cr  Cr19  1  0.999995  0.000005  0.999462  1
  Ga  Ga20  1  0.666735  0.333265  0.750000  1
  Re  Re21  1  0.107572  0.215108  0.750000  1
  Re  Re22  1  0.107592  0.892408  0.750000  1
  Re  Re23  1  0.784892  0.892428  0.750000  1
  Re  Re24  1  0.892630  0.785313  0.250000  1
  Re  Re25  1  0.892615  0.107385  0.250000  1
  Re  Re26  1  0.214687  0.107370  0.250000  1
  As  As27  1  0.333334  0.666666  0.250000  1
