# generated using pymatgen
data_Zr3In3NiRh2
_symmetry_space_group_name_H-M   'P 1'
_cell_length_a   7.58989300
_cell_length_b   7.58989262
_cell_length_c   3.38876100
_cell_angle_alpha   90.00000000
_cell_angle_beta   90.00000000
_cell_angle_gamma   119.99999730
_symmetry_Int_Tables_number   1
_chemical_formula_structural   Zr3In3NiRh2
_chemical_formula_sum   'Zr3 In3 Ni1 Rh2'
_cell_volume   169.06078020
_cell_formula_units_Z   1
loop_
 _symmetry_equiv_pos_site_id
 _symmetry_equiv_pos_as_xyz
  1  'x, y, z'
loop_
 _atom_site_type_symbol
 _atom_site_label
 _atom_site_symmetry_multiplicity
 _atom_site_fract_x
 _atom_site_fract_y
 _atom_site_fract_z
 _atom_site_occupancy
  Zr  Zr0  1  0.000000  0.397124  0.500000  1
  Zr  Zr1  1  0.602876  0.602876  0.500000  1
  Zr  Zr2  1  0.397124  0.000000  0.500000  1
  In  In3  1  0.000000  0.736935  0.000000  1
  In  In4  1  0.263065  0.263065  0.000000  1
  In  In5  1  0.736935  0.000000  0.000000  1
  Ni  Ni6  1  0.000000  0.000000  0.500000  1
  Rh  Rh7  1  0.333333  0.666667  0.000000  1
  Rh  Rh8  1  0.666667  0.333333  0.000000  1
