# generated using pymatgen
data_CaPu2(PO4)3
_symmetry_space_group_name_H-M   'P 1'
_cell_length_a   7.03066100
_cell_length_b   7.03066097
_cell_length_c   6.41605300
_cell_angle_alpha   90.00000000
_cell_angle_beta   90.00000000
_cell_angle_gamma   119.63156430
_symmetry_Int_Tables_number   1
_chemical_formula_structural   CaPu2(PO4)3
_chemical_formula_sum   'Ca1 Pu2 P3 O12'
_cell_volume   275.67114391
_cell_formula_units_Z   1
loop_
 _symmetry_equiv_pos_site_id
 _symmetry_equiv_pos_as_xyz
  1  'x, y, z'
loop_
 _atom_site_type_symbol
 _atom_site_label
 _atom_site_symmetry_multiplicity
 _atom_site_fract_x
 _atom_site_fract_y
 _atom_site_fract_z
 _atom_site_occupancy
  Ca  Ca0  1  0.500000  0.500000  0.166667  1
  Pu  Pu1  1  0.500000  0.000000  0.495624  1
  Pu  Pu2  1  0.000000  0.500000  0.837709  1
  P  P3  1  0.000000  0.500000  0.330478  1
  P  P4  1  0.500000  0.000000  0.002855  1
  P  P5  1  0.500000  0.500000  0.666667  1
  O  O6  1  0.138590  0.692279  0.485152  1
  O  O7  1  0.445173  0.301724  0.522747  1
  O  O8  1  0.307721  0.861410  0.848182  1
  O  O9  1  0.301724  0.445173  0.810586  1
  O  O10  1  0.444064  0.137340  0.151668  1
  O  O11  1  0.554827  0.698276  0.522747  1
  O  O12  1  0.862660  0.555936  0.181665  1
  O  O13  1  0.861410  0.307721  0.485152  1
  O  O14  1  0.555936  0.862660  0.151668  1
  O  O15  1  0.698276  0.554827  0.810586  1
  O  O16  1  0.692279  0.138590  0.848182  1
  O  O17  1  0.137340  0.444064  0.181665  1
