# generated using pymatgen
data_Ho15Er(ZnCo)4
_symmetry_space_group_name_H-M   'P 1'
_cell_length_a   9.30311658
_cell_length_b   9.30311731
_cell_length_c   9.30311803
_cell_angle_alpha   60.00792965
_cell_angle_beta   60.00792922
_cell_angle_gamma   60.00793277
_symmetry_Int_Tables_number   1
_chemical_formula_structural   Ho15Er(ZnCo)4
_chemical_formula_sum   'Ho15 Er1 Zn4 Co4'
_cell_volume   569.44078748
_cell_formula_units_Z   1
loop_
 _symmetry_equiv_pos_site_id
 _symmetry_equiv_pos_as_xyz
  1  'x, y, z'
loop_
 _atom_site_type_symbol
 _atom_site_label
 _atom_site_symmetry_multiplicity
 _atom_site_fract_x
 _atom_site_fract_y
 _atom_site_fract_z
 _atom_site_occupancy
  Ho  Ho0  1  0.350114  0.350114  0.949766  1
  Ho  Ho1  1  0.350114  0.949766  0.350114  1
  Ho  Ho2  1  0.949766  0.350114  0.350114  1
  Ho  Ho3  1  0.809381  0.190526  0.190526  1
  Ho  Ho4  1  0.190476  0.809525  0.809525  1
  Ho  Ho5  1  0.190526  0.809381  0.190526  1
  Ho  Ho6  1  0.809525  0.190476  0.809525  1
  Ho  Ho7  1  0.190526  0.190526  0.809381  1
  Ho  Ho8  1  0.809525  0.809525  0.190476  1
  Ho  Ho9  1  0.937823  0.562197  0.562197  1
  Ho  Ho10  1  0.562267  0.937708  0.937708  1
  Ho  Ho11  1  0.562197  0.937823  0.562197  1
  Ho  Ho12  1  0.937708  0.562267  0.937708  1
  Ho  Ho13  1  0.562197  0.562197  0.937823  1
  Ho  Ho14  1  0.937708  0.937708  0.562267  1
  Er  Er15  1  0.350058  0.350058  0.350058  1
  Zn  Zn16  1  0.577642  0.577642  0.577642  1
  Zn  Zn17  1  0.577571  0.577571  0.267091  1
  Zn  Zn18  1  0.577571  0.267091  0.577571  1
  Zn  Zn19  1  0.267091  0.577571  0.577571  1
  Co  Co20  1  0.141754  0.141754  0.141754  1
  Co  Co21  1  0.141976  0.141976  0.574509  1
  Co  Co22  1  0.141976  0.574509  0.141976  1
  Co  Co23  1  0.574509  0.141976  0.141976  1
