# generated using pymatgen
data_Yb5Ru(IO6)3
_symmetry_space_group_name_H-M   'P 1'
_cell_length_a   8.83871542
_cell_length_b   8.83871585
_cell_length_c   5.20717500
_cell_angle_alpha   92.31559943
_cell_angle_beta   87.68440046
_cell_angle_gamma   119.88481527
_symmetry_Int_Tables_number   1
_chemical_formula_structural   Yb5Ru(IO6)3
_chemical_formula_sum   'Yb5 Ru1 I3 O18'
_cell_volume   352.32245289
_cell_formula_units_Z   1
loop_
 _symmetry_equiv_pos_site_id
 _symmetry_equiv_pos_as_xyz
  1  'x, y, z'
loop_
 _atom_site_type_symbol
 _atom_site_label
 _atom_site_symmetry_multiplicity
 _atom_site_fract_x
 _atom_site_fract_y
 _atom_site_fract_z
 _atom_site_occupancy
  Yb  Yb0  1  0.008971  0.266674  0.488721  1
  Yb  Yb1  1  0.266674  0.008971  0.511279  1
  Yb  Yb2  1  0.378163  0.378163  0.000000  1
  Yb  Yb3  1  0.997284  0.605895  0.009829  1
  Yb  Yb4  1  0.605895  0.997284  0.990171  1
  Ru  Ru5  1  0.694667  0.694667  0.500000  1
  I  I6  1  0.671178  0.329254  0.505900  1
  I  I7  1  0.329254  0.671178  0.494100  1
  I  I8  1  0.995550  0.995550  0.000000  1
  O  O9  1  0.766361  0.240635  0.727339  1
  O  O10  1  0.775969  0.563047  0.697499  1
  O  O11  1  0.474727  0.251988  0.718689  1
  O  O12  1  0.563047  0.775969  0.302501  1
  O  O13  1  0.251988  0.474727  0.281311  1
  O  O14  1  0.240635  0.766361  0.272661  1
  O  O15  1  0.600771  0.472547  0.300106  1
  O  O16  1  0.538699  0.143528  0.287321  1
  O  O17  1  0.870951  0.406787  0.303988  1
  O  O18  1  0.089580  0.868124  0.848561  1
  O  O19  1  0.126027  0.172465  0.768774  1
  O  O20  1  0.795845  0.894314  0.753849  1
  O  O21  1  0.172465  0.126027  0.231226  1
  O  O22  1  0.894314  0.795845  0.246151  1
  O  O23  1  0.868124  0.089580  0.151439  1
  O  O24  1  0.472547  0.600771  0.699894  1
  O  O25  1  0.406787  0.870951  0.696012  1
  O  O26  1  0.143528  0.538699  0.712679  1
