# generated using pymatgen
data_NdTmSn5Rh3
_symmetry_space_group_name_H-M   'P 1'
_cell_length_a   13.50203828
_cell_length_b   13.50203825
_cell_length_c   7.26364100
_cell_angle_alpha   90.00000000
_cell_angle_beta   90.00000000
_cell_angle_gamma   160.98156405
_symmetry_Int_Tables_number   1
_chemical_formula_structural   NdTmSn5Rh3
_chemical_formula_sum   'Nd2 Tm2 Sn10 Rh6'
_cell_volume   431.51965930
_cell_formula_units_Z   2
loop_
 _symmetry_equiv_pos_site_id
 _symmetry_equiv_pos_as_xyz
  1  'x, y, z'
loop_
 _atom_site_type_symbol
 _atom_site_label
 _atom_site_symmetry_multiplicity
 _atom_site_fract_x
 _atom_site_fract_y
 _atom_site_fract_z
 _atom_site_occupancy
  Nd  Nd0  1  0.171788  0.828212  0.752926  1
  Nd  Nd1  1  0.828212  0.171788  0.252926  1
  Tm  Tm2  1  0.476223  0.523777  0.738679  1
  Tm  Tm3  1  0.523777  0.476223  0.238679  1
  Sn  Sn4  1  0.881462  0.118538  0.731694  1
  Sn  Sn5  1  0.118538  0.881462  0.231694  1
  Sn  Sn6  1  0.704113  0.295887  0.049430  1
  Sn  Sn7  1  0.295887  0.704113  0.549430  1
  Sn  Sn8  1  0.594592  0.405408  0.613961  1
  Sn  Sn9  1  0.405408  0.594592  0.113961  1
  Sn  Sn10  1  0.953349  0.046651  0.398564  1
  Sn  Sn11  1  0.046651  0.953349  0.898564  1
  Sn  Sn12  1  0.290462  0.709538  0.974704  1
  Sn  Sn13  1  0.709538  0.290462  0.474704  1
  Rh  Rh14  1  0.049507  0.950493  0.517754  1
  Rh  Rh15  1  0.950493  0.049507  0.017754  1
  Rh  Rh16  1  0.778118  0.221882  0.762052  1
  Rh  Rh17  1  0.221882  0.778118  0.262052  1
  Rh  Rh18  1  0.395893  0.604107  0.488235  1
  Rh  Rh19  1  0.604107  0.395893  0.988235  1
