# generated using pymatgen
data_Ho4PbC2S
_symmetry_space_group_name_H-M   'P 1'
_cell_length_a   3.65104100
_cell_length_b   3.65104016
_cell_length_c   14.50736200
_cell_angle_alpha   90.00000000
_cell_angle_beta   90.00000000
_cell_angle_gamma   120.00001665
_symmetry_Int_Tables_number   1
_chemical_formula_structural   Ho4PbC2S
_chemical_formula_sum   'Ho4 Pb1 C2 S1'
_cell_volume   167.47590263
_cell_formula_units_Z   1
loop_
 _symmetry_equiv_pos_site_id
 _symmetry_equiv_pos_as_xyz
  1  'x, y, z'
loop_
 _atom_site_type_symbol
 _atom_site_label
 _atom_site_symmetry_multiplicity
 _atom_site_fract_x
 _atom_site_fract_y
 _atom_site_fract_z
 _atom_site_occupancy
  Ho  Ho0  1  0.333333  0.666667  0.438040  1
  Ho  Ho1  1  0.666667  0.333333  0.879031  1
  Ho  Ho2  1  0.666667  0.333333  0.620969  1
  Ho  Ho3  1  0.333333  0.666667  0.061960  1
  Pb  Pb4  1  0.666667  0.333333  0.250000  1
  C  C5  1  0.000000  0.000000  0.526460  1
  C  C6  1  0.000000  0.000000  0.973540  1
  S  S7  1  0.333333  0.666667  0.750000  1
