# generated using pymatgen
data_Zr3ReSi3Ru2
_symmetry_space_group_name_H-M   'P 1'
_cell_length_a   6.81657844
_cell_length_b   6.87205197
_cell_length_c   3.60359800
_cell_angle_alpha   90.00000000
_cell_angle_beta   90.00000000
_cell_angle_gamma   120.26957057
_symmetry_Int_Tables_number   1
_chemical_formula_structural   Zr3ReSi3Ru2
_chemical_formula_sum   'Zr3 Re1 Si3 Ru2'
_cell_volume   145.79200713
_cell_formula_units_Z   1
loop_
 _symmetry_equiv_pos_site_id
 _symmetry_equiv_pos_as_xyz
  1  'x, y, z'
loop_
 _atom_site_type_symbol
 _atom_site_label
 _atom_site_symmetry_multiplicity
 _atom_site_fract_x
 _atom_site_fract_y
 _atom_site_fract_z
 _atom_site_occupancy
  Zr  Zr0  1  0.408199  0.411192  0.500000  1
  Zr  Zr1  1  0.591801  0.002993  0.500000  1
  Zr  Zr2  1  0.000000  0.589028  0.500000  1
  Re  Re3  1  0.000000  0.247049  0.000000  1
  Si  Si4  1  0.000000  0.991550  0.500000  1
  Si  Si5  1  0.665658  0.334252  0.000000  1
  Si  Si6  1  0.334342  0.668595  0.000000  1
  Ru  Ru7  1  0.246550  0.000945  0.000000  1
  Ru  Ru8  1  0.753450  0.754395  0.000000  1
