# generated using pymatgen
data_Er3CoNiSn3Ir
_symmetry_space_group_name_H-M   'P 1'
_cell_length_a   7.42795600
_cell_length_b   7.42795549
_cell_length_c   3.77478600
_cell_angle_alpha   90.00000000
_cell_angle_beta   90.00000000
_cell_angle_gamma   120.00000229
_symmetry_Int_Tables_number   1
_chemical_formula_structural   Er3CoNiSn3Ir
_chemical_formula_sum   'Er3 Co1 Ni1 Sn3 Ir1'
_cell_volume   180.36886493
_cell_formula_units_Z   1
loop_
 _symmetry_equiv_pos_site_id
 _symmetry_equiv_pos_as_xyz
  1  'x, y, z'
loop_
 _atom_site_type_symbol
 _atom_site_label
 _atom_site_symmetry_multiplicity
 _atom_site_fract_x
 _atom_site_fract_y
 _atom_site_fract_z
 _atom_site_occupancy
  Er  Er0  1  0.402066  0.408051  0.500000  1
  Er  Er1  1  0.591949  0.994015  0.500000  1
  Er  Er2  1  0.005985  0.597934  0.500000  1
  Co  Co3  1  0.000000  0.000000  0.500000  1
  Ni  Ni4  1  0.666667  0.333333  0.000000  1
  Sn  Sn5  1  0.747272  0.741118  0.000000  1
  Sn  Sn6  1  0.258882  0.006155  0.000000  1
  Sn  Sn7  1  0.993845  0.252728  0.000000  1
  Ir  Ir8  1  0.333333  0.666667  0.000000  1
