# generated using pymatgen
data_Tb2Dy14Cd4FeNi3
_symmetry_space_group_name_H-M   'P 1'
_cell_length_a   9.54436988
_cell_length_b   9.54436924
_cell_length_c   9.54230082
_cell_angle_alpha   59.81516421
_cell_angle_beta   59.81516503
_cell_angle_gamma   59.84602724
_symmetry_Int_Tables_number   1
_chemical_formula_structural   Tb2Dy14Cd4FeNi3
_chemical_formula_sum   'Tb2 Dy14 Cd4 Fe1 Ni3'
_cell_volume   612.22142992
_cell_formula_units_Z   1
loop_
 _symmetry_equiv_pos_site_id
 _symmetry_equiv_pos_as_xyz
  1  'x, y, z'
loop_
 _atom_site_type_symbol
 _atom_site_label
 _atom_site_symmetry_multiplicity
 _atom_site_fract_x
 _atom_site_fract_y
 _atom_site_fract_z
 _atom_site_occupancy
  Tb  Tb0  1  0.597688  0.597688  0.598195  1
  Tb  Tb1  1  0.597456  0.597456  0.205794  1
  Dy  Dy2  1  0.597406  0.205977  0.597702  1
  Dy  Dy3  1  0.205977  0.597406  0.597702  1
  Dy  Dy4  1  0.065838  0.438039  0.438002  1
  Dy  Dy5  1  0.437056  0.061867  0.061571  1
  Dy  Dy6  1  0.438039  0.065838  0.438002  1
  Dy  Dy7  1  0.061867  0.437056  0.061571  1
  Dy  Dy8  1  0.437879  0.437879  0.065687  1
  Dy  Dy9  1  0.061614  0.061614  0.437138  1
  Dy  Dy10  1  0.186490  0.814502  0.814437  1
  Dy  Dy11  1  0.809353  0.187990  0.188125  1
  Dy  Dy12  1  0.814502  0.186490  0.814437  1
  Dy  Dy13  1  0.187990  0.809353  0.188125  1
  Dy  Dy14  1  0.814466  0.814466  0.186413  1
  Dy  Dy15  1  0.188127  0.188127  0.809237  1
  Cd  Cd16  1  0.829777  0.829777  0.829447  1
  Cd  Cd17  1  0.830450  0.830450  0.505889  1
  Cd  Cd18  1  0.830506  0.505814  0.830287  1
  Cd  Cd19  1  0.505814  0.830506  0.830287  1
  Fe  Fe20  1  0.392886  0.392886  0.392951  1
  Ni  Ni21  1  0.392022  0.392022  0.824749  1
  Ni  Ni22  1  0.391820  0.824976  0.392126  1
  Ni  Ni23  1  0.824976  0.391820  0.392126  1
