# generated using pymatgen
data_HoGePRu2
_symmetry_space_group_name_H-M   'P 1'
_cell_length_a   5.68304158
_cell_length_b   5.68304212
_cell_length_c   5.68304135
_cell_angle_alpha   137.16854796
_cell_angle_beta   137.16855248
_cell_angle_gamma   62.17882116
_symmetry_Int_Tables_number   1
_chemical_formula_structural   HoGePRu2
_chemical_formula_sum   'Ho1 Ge1 P1 Ru2'
_cell_volume   83.82251366
_cell_formula_units_Z   1
loop_
 _symmetry_equiv_pos_site_id
 _symmetry_equiv_pos_as_xyz
  1  'x, y, z'
loop_
 _atom_site_type_symbol
 _atom_site_label
 _atom_site_symmetry_multiplicity
 _atom_site_fract_x
 _atom_site_fract_y
 _atom_site_fract_z
 _atom_site_occupancy
  Ho  Ho0  1  0.001720  0.001720  0.000000  1
  Ge  Ge1  1  0.378900  0.378900  0.000000  1
  P  P2  1  0.634441  0.634441  0.000000  1
  Ru  Ru3  1  0.242470  0.742470  0.500000  1
  Ru  Ru4  1  0.742470  0.242470  0.500000  1
