# generated using pymatgen
data_Y8Ho9(TmBi4)3
_symmetry_space_group_name_H-M   'P 1'
_cell_length_a   8.24149899
_cell_length_b   9.49381300
_cell_length_c   12.05687045
_cell_angle_alpha   90.00000000
_cell_angle_beta   90.05611781
_cell_angle_gamma   90.00000000
_symmetry_Int_Tables_number   1
_chemical_formula_structural   Y8Ho9(TmBi4)3
_chemical_formula_sum   'Y8 Ho9 Tm3 Bi12'
_cell_volume   943.36827884
_cell_formula_units_Z   1
loop_
 _symmetry_equiv_pos_site_id
 _symmetry_equiv_pos_as_xyz
  1  'x, y, z'
loop_
 _atom_site_type_symbol
 _atom_site_label
 _atom_site_symmetry_multiplicity
 _atom_site_fract_x
 _atom_site_fract_y
 _atom_site_fract_z
 _atom_site_occupancy
  Y  Y0  1  0.186270  0.750000  0.718878  1
  Y  Y1  1  0.686550  0.750000  0.781337  1
  Y  Y2  1  0.813317  0.250000  0.281085  1
  Y  Y3  1  0.313820  0.250000  0.218714  1
  Y  Y4  1  0.354156  0.750000  0.215587  1
  Y  Y5  1  0.853875  0.750000  0.284388  1
  Y  Y6  1  0.646097  0.250000  0.784713  1
  Y  Y7  1  0.145717  0.250000  0.715692  1
  Ho  Ho8  1  0.474182  0.250000  0.488881  1
  Ho  Ho9  1  0.306280  0.436134  0.940162  1
  Ho  Ho10  1  0.806477  0.063786  0.559841  1
  Ho  Ho11  1  0.693646  0.936100  0.059843  1
  Ho  Ho12  1  0.193639  0.563825  0.440108  1
  Ho  Ho13  1  0.693646  0.563900  0.059843  1
  Ho  Ho14  1  0.193639  0.936175  0.440108  1
  Ho  Ho15  1  0.306280  0.063866  0.940162  1
  Ho  Ho16  1  0.806477  0.436214  0.559841  1
  Tm  Tm17  1  0.025275  0.750000  0.988931  1
  Tm  Tm18  1  0.525710  0.750000  0.511016  1
  Tm  Tm19  1  0.974410  0.250000  0.010993  1
  Bi  Bi20  1  0.434048  0.003338  0.672921  1
  Bi  Bi21  1  0.934019  0.496205  0.827609  1
  Bi  Bi22  1  0.566445  0.504436  0.326999  1
  Bi  Bi23  1  0.066196  0.996127  0.172342  1
  Bi  Bi24  1  0.566445  0.995564  0.326999  1
  Bi  Bi25  1  0.066196  0.503873  0.172342  1
  Bi  Bi26  1  0.434048  0.496662  0.672921  1
  Bi  Bi27  1  0.934019  0.003795  0.827609  1
  Bi  Bi28  1  0.407455  0.750000  0.958017  1
  Bi  Bi29  1  0.907430  0.750000  0.542047  1
  Bi  Bi30  1  0.592520  0.250000  0.042181  1
  Bi  Bi31  1  0.091714  0.250000  0.457890  1
