# generated using pymatgen
data_DyEr4Si12Ir19
_symmetry_space_group_name_H-M   'P 1'
_cell_length_a   12.82099000
_cell_length_b   12.82098960
_cell_length_c   3.97803000
_cell_angle_alpha   90.00000000
_cell_angle_beta   90.00000000
_cell_angle_gamma   120.00000620
_symmetry_Int_Tables_number   1
_chemical_formula_structural   DyEr4Si12Ir19
_chemical_formula_sum   'Dy1 Er4 Si12 Ir19'
_cell_volume   566.29374917
_cell_formula_units_Z   1
loop_
 _symmetry_equiv_pos_site_id
 _symmetry_equiv_pos_as_xyz
  1  'x, y, z'
loop_
 _atom_site_type_symbol
 _atom_site_label
 _atom_site_symmetry_multiplicity
 _atom_site_fract_x
 _atom_site_fract_y
 _atom_site_fract_z
 _atom_site_occupancy
  Dy  Dy0  1  0.666667  0.333333  0.000000  1
  Er  Er1  1  0.333333  0.666667  0.000000  1
  Er  Er2  1  0.814853  0.814846  0.500000  1
  Er  Er3  1  0.185154  0.000007  0.500000  1
  Er  Er4  1  0.999993  0.185147  0.500000  1
  Si  Si5  1  0.688045  0.168801  0.500000  1
  Si  Si6  1  0.831199  0.519243  0.500000  1
  Si  Si7  1  0.480757  0.311955  0.500000  1
  Si  Si8  1  0.169122  0.688001  0.500000  1
  Si  Si9  1  0.518878  0.830878  0.500000  1
  Si  Si10  1  0.311999  0.481122  0.500000  1
  Si  Si11  1  0.632233  0.632215  0.000000  1
  Si  Si12  1  0.367785  0.000018  0.000000  1
  Si  Si13  1  0.999982  0.367767  0.000000  1
  Si  Si14  1  0.180897  0.180939  0.000000  1
  Si  Si15  1  0.819061  0.999958  0.000000  1
  Si  Si16  1  0.000042  0.819103  0.000000  1
  Ir  Ir17  1  0.806381  0.182491  0.000000  1
  Ir  Ir18  1  0.817509  0.623890  0.000000  1
  Ir  Ir19  1  0.376110  0.193619  0.000000  1
  Ir  Ir20  1  0.182659  0.806255  0.000000  1
  Ir  Ir21  1  0.623597  0.817341  0.000000  1
  Ir  Ir22  1  0.193745  0.376403  0.000000  1
  Ir  Ir23  1  0.447036  0.446999  0.000000  1
  Ir  Ir24  1  0.553001  0.000037  0.000000  1
  Ir  Ir25  1  0.999963  0.552964  0.000000  1
  Ir  Ir26  1  0.282381  0.282470  0.500000  1
  Ir  Ir27  1  0.717530  0.999911  0.500000  1
  Ir  Ir28  1  0.000089  0.717619  0.500000  1
  Ir  Ir29  1  0.873910  0.361599  0.500000  1
  Ir  Ir30  1  0.638401  0.512314  0.500000  1
  Ir  Ir31  1  0.487686  0.126090  0.500000  1
  Ir  Ir32  1  0.361577  0.873392  0.500000  1
  Ir  Ir33  1  0.511817  0.638423  0.500000  1
  Ir  Ir34  1  0.126608  0.488183  0.500000  1
  Ir  Ir35  1  0.000000  0.000000  0.000000  1
