# generated using pymatgen
data_BaSrSc2(Ge4N7)2
_symmetry_space_group_name_H-M   'P 1'
_cell_length_a   6.21221800
_cell_length_b   6.21221698
_cell_length_c   10.12863300
_cell_angle_alpha   90.00000000
_cell_angle_beta   90.00000000
_cell_angle_gamma   119.99999479
_symmetry_Int_Tables_number   1
_chemical_formula_structural   BaSrSc2(Ge4N7)2
_chemical_formula_sum   'Ba1 Sr1 Sc2 Ge8 N14'
_cell_volume   338.51256504
_cell_formula_units_Z   1
loop_
 _symmetry_equiv_pos_site_id
 _symmetry_equiv_pos_as_xyz
  1  'x, y, z'
loop_
 _atom_site_type_symbol
 _atom_site_label
 _atom_site_symmetry_multiplicity
 _atom_site_fract_x
 _atom_site_fract_y
 _atom_site_fract_z
 _atom_site_occupancy
  Ba  Ba0  1  0.666667  0.333333  0.577941  1
  Sr  Sr1  1  0.333333  0.666667  0.080461  1
  Sc  Sc2  1  0.666667  0.333333  0.951939  1
  Sc  Sc3  1  0.333333  0.666667  0.450281  1
  Ge  Ge4  1  0.174044  0.348088  0.762152  1
  Ge  Ge5  1  0.826435  0.173565  0.260263  1
  Ge  Ge6  1  0.347130  0.173565  0.260263  1
  Ge  Ge7  1  0.651912  0.825956  0.762152  1
  Ge  Ge8  1  0.174044  0.825956  0.762152  1
  Ge  Ge9  1  0.826435  0.652870  0.260263  1
  Ge  Ge10  1  0.000000  0.000000  0.023173  1
  Ge  Ge11  1  0.000000  0.000000  0.524194  1
  N  N12  1  0.000000  0.000000  0.830576  1
  N  N13  1  0.000000  0.000000  0.330710  1
  N  N14  1  0.837069  0.674136  0.078086  1
  N  N15  1  0.163397  0.836603  0.579031  1
  N  N16  1  0.673205  0.836603  0.579031  1
  N  N17  1  0.325864  0.162931  0.078086  1
  N  N18  1  0.837069  0.162931  0.078086  1
  N  N19  1  0.163397  0.326795  0.579031  1
  N  N20  1  0.497225  0.502775  0.825254  1
  N  N21  1  0.998014  0.499007  0.320670  1
  N  N22  1  0.500993  0.001986  0.320670  1
  N  N23  1  0.497225  0.994450  0.825254  1
  N  N24  1  0.500993  0.499007  0.320670  1
  N  N25  1  0.005550  0.502775  0.825254  1
