# generated using pymatgen
data_YbPrAl20Os3Ru
_symmetry_space_group_name_H-M   'P 1'
_cell_length_a   6.88675689
_cell_length_b   6.89066749
_cell_length_c   9.18782501
_cell_angle_alpha   90.10591471
_cell_angle_beta   89.95798482
_cell_angle_gamma   96.44416000
_symmetry_Int_Tables_number   1
_chemical_formula_structural   YbPrAl20Os3Ru
_chemical_formula_sum   'Yb1 Pr1 Al20 Os3 Ru1'
_cell_volume   433.24669139
_cell_formula_units_Z   1
loop_
 _symmetry_equiv_pos_site_id
 _symmetry_equiv_pos_as_xyz
  1  'x, y, z'
loop_
 _atom_site_type_symbol
 _atom_site_label
 _atom_site_symmetry_multiplicity
 _atom_site_fract_x
 _atom_site_fract_y
 _atom_site_fract_z
 _atom_site_occupancy
  Yb  Yb0  1  0.372979  0.625417  0.250006  1
  Pr  Pr1  1  0.624649  0.376199  0.750310  1
  Al  Al2  1  0.280532  0.017181  0.749571  1
  Al  Al3  1  0.020729  0.284266  0.249390  1
  Al  Al4  1  0.716893  0.979147  0.250261  1
  Al  Al5  1  0.982803  0.719214  0.750525  1
  Al  Al6  1  0.877943  0.122122  0.951008  1
  Al  Al7  1  0.123215  0.876624  0.046067  1
  Al  Al8  1  0.877710  0.122603  0.547830  1
  Al  Al9  1  0.123555  0.876123  0.454946  1
  Al  Al10  1  0.643382  0.913477  0.750368  1
  Al  Al11  1  0.915517  0.644815  0.249710  1
  Al  Al12  1  0.354983  0.083134  0.249673  1
  Al  Al13  1  0.088446  0.357057  0.750155  1
  Al  Al14  1  0.340922  0.659283  0.899096  1
  Al  Al15  1  0.660566  0.339249  0.103589  1
  Al  Al16  1  0.342206  0.658264  0.599618  1
  Al  Al17  1  0.659276  0.339740  0.397557  1
  Al  Al18  1  0.723878  0.727087  0.002031  1
  Al  Al19  1  0.723648  0.725290  0.498701  1
  Al  Al20  1  0.274523  0.275285  0.002582  1
  Al  Al21  1  0.274404  0.276192  0.497096  1
  Os  Os22  1  0.999353  0.500639  0.000586  1
  Os  Os23  1  0.499165  0.000299  0.499385  1
  Os  Os24  1  0.999478  0.500711  0.499086  1
  Ru  Ru25  1  0.499246  0.000578  0.000850  1
