# generated using pymatgen
data_Li2Y11Er7(Cd3Ru)2
_symmetry_space_group_name_H-M   'P 1'
_cell_length_a   9.45946460
_cell_length_b   9.45944876
_cell_length_c   9.69787175
_cell_angle_alpha   89.96166367
_cell_angle_beta   90.03964430
_cell_angle_gamma   120.05372405
_symmetry_Int_Tables_number   1
_chemical_formula_structural   Li2Y11Er7(Cd3Ru)2
_chemical_formula_sum   'Li2 Y11 Er7 Cd6 Ru2'
_cell_volume   751.11071141
_cell_formula_units_Z   1
loop_
 _symmetry_equiv_pos_site_id
 _symmetry_equiv_pos_as_xyz
  1  'x, y, z'
loop_
 _atom_site_type_symbol
 _atom_site_label
 _atom_site_symmetry_multiplicity
 _atom_site_fract_x
 _atom_site_fract_y
 _atom_site_fract_z
 _atom_site_occupancy
  Li  Li0  1  0.999998  0.000018  0.500073  1
  Li  Li1  1  0.999785  0.000202  0.999891  1
  Y  Y2  1  0.792285  0.583895  0.941621  1
  Y  Y3  1  0.416059  0.207732  0.941648  1
  Y  Y4  1  0.207634  0.792267  0.059232  1
  Y  Y5  1  0.206783  0.415003  0.058502  1
  Y  Y6  1  0.584905  0.793109  0.058476  1
  Y  Y7  1  0.541949  0.458114  0.252581  1
  Y  Y8  1  0.542677  0.084381  0.252012  1
  Y  Y9  1  0.915677  0.457374  0.252061  1
  Y  Y10  1  0.457794  0.542274  0.747475  1
  Y  Y11  1  0.458685  0.916831  0.747696  1
  Y  Y12  1  0.083134  0.541287  0.747647  1
  Er  Er13  1  0.208777  0.791243  0.441741  1
  Er  Er14  1  0.208733  0.417540  0.441961  1
  Er  Er15  1  0.582490  0.791293  0.441935  1
  Er  Er16  1  0.791362  0.208640  0.558281  1
  Er  Er17  1  0.791106  0.582271  0.557946  1
  Er  Er18  1  0.417667  0.208856  0.557963  1
  Er  Er19  1  0.791142  0.208899  0.940295  1
  Cd  Cd20  1  0.891928  0.108129  0.249935  1
  Cd  Cd21  1  0.891774  0.783443  0.250477  1
  Cd  Cd22  1  0.216553  0.108253  0.250502  1
  Cd  Cd23  1  0.108132  0.891919  0.749879  1
  Cd  Cd24  1  0.108097  0.216301  0.749657  1
  Cd  Cd25  1  0.783691  0.891920  0.749636  1
  Ru  Ru26  1  0.333294  0.666678  0.253405  1
  Ru  Ru27  1  0.667891  0.332125  0.747472  1
