# generated using pymatgen
data_Pu2B8RhW
_symmetry_space_group_name_H-M   'P 1'
_cell_length_a   6.02293028
_cell_length_b   11.65431872
_cell_length_c   3.57960300
_cell_angle_alpha   90.00000000
_cell_angle_beta   90.00000000
_cell_angle_gamma   90.11143003
_symmetry_Int_Tables_number   1
_chemical_formula_structural   Pu2B8RhW
_chemical_formula_sum   'Pu4 B16 Rh2 W2'
_cell_volume   251.26313171
_cell_formula_units_Z   2
loop_
 _symmetry_equiv_pos_site_id
 _symmetry_equiv_pos_as_xyz
  1  'x, y, z'
loop_
 _atom_site_type_symbol
 _atom_site_label
 _atom_site_symmetry_multiplicity
 _atom_site_fract_x
 _atom_site_fract_y
 _atom_site_fract_z
 _atom_site_occupancy
  Pu  Pu0  1  0.627913  0.352292  0.000000  1
  Pu  Pu1  1  0.372087  0.647708  0.000000  1
  Pu  Pu2  1  0.125804  0.151348  0.000000  1
  Pu  Pu3  1  0.874196  0.848652  0.000000  1
  B  B4  1  0.789139  0.189148  0.500000  1
  B  B5  1  0.210861  0.810852  0.500000  1
  B  B6  1  0.285543  0.314134  0.500000  1
  B  B7  1  0.714457  0.685866  0.500000  1
  B  B8  1  0.867428  0.032391  0.500000  1
  B  B9  1  0.132572  0.967609  0.500000  1
  B  B10  1  0.364894  0.468308  0.500000  1
  B  B11  1  0.635106  0.531692  0.500000  1
  B  B12  1  0.885466  0.452990  0.500000  1
  B  B13  1  0.114534  0.547010  0.500000  1
  B  B14  1  0.383566  0.047036  0.500000  1
  B  B15  1  0.616434  0.952964  0.500000  1
  B  B16  1  0.976107  0.308373  0.500000  1
  B  B17  1  0.023893  0.691627  0.500000  1
  B  B18  1  0.472519  0.193830  0.500000  1
  B  B19  1  0.527481  0.806170  0.500000  1
  Rh  Rh20  1  0.138565  0.408000  0.000000  1
  Rh  Rh21  1  0.861435  0.592000  0.000000  1
  W  W22  1  0.631110  0.088322  0.000000  1
  W  W23  1  0.368890  0.911678  0.000000  1
