# generated using pymatgen
data_Gd2YLu5(WO6)4
_symmetry_space_group_name_H-M   'P 1'
_cell_length_a   5.36807500
_cell_length_b   7.65395267
_cell_length_c   11.37315260
_cell_angle_alpha   75.46162898
_cell_angle_beta   90.00000000
_cell_angle_gamma   90.00000000
_symmetry_Int_Tables_number   1
_chemical_formula_structural   Gd2YLu5(WO6)4
_chemical_formula_sum   'Gd2 Y1 Lu5 W4 O24'
_cell_volume   452.32592787
_cell_formula_units_Z   1
loop_
 _symmetry_equiv_pos_site_id
 _symmetry_equiv_pos_as_xyz
  1  'x, y, z'
loop_
 _atom_site_type_symbol
 _atom_site_label
 _atom_site_symmetry_multiplicity
 _atom_site_fract_x
 _atom_site_fract_y
 _atom_site_fract_z
 _atom_site_occupancy
  Gd  Gd0  1  0.315492  0.500000  0.750000  1
  Gd  Gd1  1  0.685543  0.500000  0.250000  1
  Y  Y2  1  0.256222  0.000000  0.750000  1
  Lu  Lu3  1  0.183286  0.795712  0.078987  1
  Lu  Lu4  1  0.183286  0.204288  0.421013  1
  Lu  Lu5  1  0.742603  0.000000  0.250000  1
  Lu  Lu6  1  0.815944  0.204711  0.922327  1
  Lu  Lu7  1  0.815944  0.795289  0.577673  1
  W  W8  1  0.744548  0.725592  0.885549  1
  W  W9  1  0.255708  0.727093  0.384631  1
  W  W10  1  0.744548  0.274408  0.614451  1
  W  W11  1  0.255708  0.272907  0.115369  1
  O  O12  1  0.541623  0.154359  0.069282  1
  O  O13  1  0.042258  0.056455  0.104627  1
  O  O14  1  0.017128  0.716298  0.769042  1
  O  O15  1  0.459790  0.157069  0.567063  1
  O  O16  1  0.352009  0.489482  0.386326  1
  O  O17  1  0.952603  0.057315  0.601690  1
  O  O18  1  0.546660  0.793634  0.724650  1
  O  O19  1  0.457714  0.797557  0.224581  1
  O  O20  1  0.144964  0.639109  0.548147  1
  O  O21  1  0.042258  0.943545  0.395373  1
  O  O22  1  0.459790  0.842931  0.932937  1
  O  O23  1  0.457714  0.202443  0.275419  1
  O  O24  1  0.856268  0.362594  0.451209  1
  O  O25  1  0.647264  0.488161  0.887277  1
  O  O26  1  0.352009  0.510518  0.113674  1
  O  O27  1  0.952603  0.942685  0.898310  1
  O  O28  1  0.541623  0.845641  0.430718  1
  O  O29  1  0.982304  0.281706  0.231476  1
  O  O30  1  0.546660  0.206366  0.775350  1
  O  O31  1  0.856268  0.637406  0.048791  1
  O  O32  1  0.017128  0.283702  0.730958  1
  O  O33  1  0.144964  0.360891  0.951853  1
  O  O34  1  0.982304  0.718294  0.268524  1
  O  O35  1  0.647264  0.511839  0.612723  1
