# generated using pymatgen
data_Hf9BeRe3W
_symmetry_space_group_name_H-M   'P 1'
_cell_length_a   8.57373700
_cell_length_b   8.57373721
_cell_length_c   8.56028200
_cell_angle_alpha   90.00000000
_cell_angle_beta   90.00000000
_cell_angle_gamma   120.00000305
_symmetry_Int_Tables_number   1
_chemical_formula_structural   Hf9BeRe3W
_chemical_formula_sum   'Hf18 Be2 Re6 W2'
_cell_volume   544.95295949
_cell_formula_units_Z   2
loop_
 _symmetry_equiv_pos_site_id
 _symmetry_equiv_pos_as_xyz
  1  'x, y, z'
loop_
 _atom_site_type_symbol
 _atom_site_label
 _atom_site_symmetry_multiplicity
 _atom_site_fract_x
 _atom_site_fract_y
 _atom_site_fract_z
 _atom_site_occupancy
  Hf  Hf0  1  0.198514  0.801486  0.445834  1
  Hf  Hf1  1  0.198514  0.397026  0.445834  1
  Hf  Hf2  1  0.602974  0.801486  0.445834  1
  Hf  Hf3  1  0.801486  0.198514  0.554166  1
  Hf  Hf4  1  0.801486  0.602974  0.554166  1
  Hf  Hf5  1  0.397026  0.198514  0.554166  1
  Hf  Hf6  1  0.801486  0.198514  0.945834  1
  Hf  Hf7  1  0.801486  0.602974  0.945834  1
  Hf  Hf8  1  0.397026  0.198514  0.945834  1
  Hf  Hf9  1  0.198514  0.801486  0.054166  1
  Hf  Hf10  1  0.198514  0.397026  0.054166  1
  Hf  Hf11  1  0.602974  0.801486  0.054166  1
  Hf  Hf12  1  0.540143  0.459857  0.250000  1
  Hf  Hf13  1  0.540143  0.080286  0.250000  1
  Hf  Hf14  1  0.919714  0.459857  0.250000  1
  Hf  Hf15  1  0.459857  0.540143  0.750000  1
  Hf  Hf16  1  0.459857  0.919714  0.750000  1
  Hf  Hf17  1  0.080286  0.540143  0.750000  1
  Be  Be18  1  0.333333  0.666667  0.250000  1
  Be  Be19  1  0.666667  0.333333  0.750000  1
  Re  Re20  1  0.888538  0.111462  0.250000  1
  Re  Re21  1  0.888538  0.777073  0.250000  1
  Re  Re22  1  0.222927  0.111462  0.250000  1
  Re  Re23  1  0.111462  0.888538  0.750000  1
  Re  Re24  1  0.111462  0.222927  0.750000  1
  Re  Re25  1  0.777073  0.888538  0.750000  1
  W  W26  1  0.000000  0.000000  0.500000  1
  W  W27  1  0.000000  0.000000  0.000000  1
