# generated using pymatgen
data_BaSr5Yb4(SiN3)4
_symmetry_space_group_name_H-M   'P 1'
_cell_length_a   5.97610104
_cell_length_b   5.93007999
_cell_length_c   13.08698299
_cell_angle_alpha   81.14943085
_cell_angle_beta   81.58480682
_cell_angle_gamma   66.58360459
_symmetry_Int_Tables_number   1
_chemical_formula_structural   BaSr5Yb4(SiN3)4
_chemical_formula_sum   'Ba1 Sr5 Yb4 Si4 N12'
_cell_volume   418.66124798
_cell_formula_units_Z   1
loop_
 _symmetry_equiv_pos_site_id
 _symmetry_equiv_pos_as_xyz
  1  'x, y, z'
loop_
 _atom_site_type_symbol
 _atom_site_label
 _atom_site_symmetry_multiplicity
 _atom_site_fract_x
 _atom_site_fract_y
 _atom_site_fract_z
 _atom_site_occupancy
  Ba  Ba0  1  0.675764  0.203212  0.491109  1
  Sr  Sr1  1  0.605246  0.393027  0.751658  1
  Sr  Sr2  1  0.395786  0.614083  0.245344  1
  Sr  Sr3  1  0.205531  0.680408  0.991645  1
  Sr  Sr4  1  0.316815  0.806338  0.509660  1
  Sr  Sr5  1  0.793414  0.322715  0.008004  1
  Yb  Yb6  1  0.914751  0.778111  0.717438  1
  Yb  Yb7  1  0.220576  0.087997  0.787406  1
  Yb  Yb8  1  0.088159  0.220679  0.283605  1
  Yb  Yb9  1  0.781330  0.913960  0.212517  1
  Si  Si10  1  0.075423  0.363825  0.581384  1
  Si  Si11  1  0.637869  0.919804  0.922387  1
  Si  Si12  1  0.923635  0.629476  0.419008  1
  Si  Si13  1  0.362447  0.083997  0.077696  1
  N  N14  1  0.014742  0.105681  0.636450  1
  N  N15  1  0.893216  0.986941  0.872706  1
  N  N16  1  0.007402  0.875295  0.366411  1
  N  N17  1  0.107098  0.016461  0.127087  1
  N  N18  1  0.798167  0.638565  0.555639  1
  N  N19  1  0.366391  0.205469  0.941672  1
  N  N20  1  0.186810  0.342966  0.444700  1
  N  N21  1  0.634825  0.798907  0.058487  1
  N  N22  1  0.255029  0.427481  0.658380  1
  N  N23  1  0.578421  0.739066  0.844310  1
  N  N24  1  0.739621  0.582979  0.338531  1
  N  N25  1  0.421532  0.262556  0.156765  1
