# generated using pymatgen
data_SrLi2SmSi4
_symmetry_space_group_name_H-M   'P 1'
_cell_length_a   3.86983300
_cell_length_b   7.95639646
_cell_length_c   10.75409192
_cell_angle_alpha   89.54776106
_cell_angle_beta   90.00000000
_cell_angle_gamma   90.00000000
_symmetry_Int_Tables_number   1
_chemical_formula_structural   SrLi2SmSi4
_chemical_formula_sum   'Sr2 Li4 Sm2 Si8'
_cell_volume   331.10737546
_cell_formula_units_Z   2
loop_
 _symmetry_equiv_pos_site_id
 _symmetry_equiv_pos_as_xyz
  1  'x, y, z'
loop_
 _atom_site_type_symbol
 _atom_site_label
 _atom_site_symmetry_multiplicity
 _atom_site_fract_x
 _atom_site_fract_y
 _atom_site_fract_z
 _atom_site_occupancy
  Sr  Sr0  1  0.250000  0.639217  0.634319  1
  Sr  Sr1  1  0.750000  0.360783  0.365681  1
  Li  Li2  1  0.250000  0.001278  0.388366  1
  Li  Li3  1  0.750000  0.998722  0.611634  1
  Li  Li4  1  0.250000  0.493110  0.108307  1
  Li  Li5  1  0.750000  0.506890  0.891693  1
  Sm  Sm6  1  0.250000  0.128270  0.867034  1
  Sm  Sm7  1  0.750000  0.871730  0.132966  1
  Si  Si8  1  0.750000  0.262343  0.062334  1
  Si  Si9  1  0.250000  0.737657  0.937666  1
  Si  Si10  1  0.750000  0.780619  0.419992  1
  Si  Si11  1  0.250000  0.219381  0.580008  1
  Si  Si12  1  0.750000  0.841231  0.831159  1
  Si  Si13  1  0.250000  0.158769  0.168841  1
  Si  Si14  1  0.750000  0.322146  0.686349  1
  Si  Si15  1  0.250000  0.677854  0.313651  1
