# generated using pymatgen
data_Y20Si15Au
_symmetry_space_group_name_H-M   'P 1'
_cell_length_a   7.47076701
_cell_length_b   7.70719902
_cell_length_c   14.69084672
_cell_angle_alpha   90.13755855
_cell_angle_beta   90.49872942
_cell_angle_gamma   90.14743865
_symmetry_Int_Tables_number   1
_chemical_formula_structural   Y20Si15Au
_chemical_formula_sum   'Y20 Si15 Au1'
_cell_volume   845.84235281
_cell_formula_units_Z   1
loop_
 _symmetry_equiv_pos_site_id
 _symmetry_equiv_pos_as_xyz
  1  'x, y, z'
loop_
 _atom_site_type_symbol
 _atom_site_label
 _atom_site_symmetry_multiplicity
 _atom_site_fract_x
 _atom_site_fract_y
 _atom_site_fract_z
 _atom_site_occupancy
  Y  Y0  1  0.680167  0.174366  0.623306  1
  Y  Y1  1  0.182715  0.321586  0.877321  1
  Y  Y2  1  0.318313  0.819368  0.121482  1
  Y  Y3  1  0.823591  0.677673  0.377460  1
  Y  Y4  1  0.318775  0.824581  0.377619  1
  Y  Y5  1  0.817477  0.678815  0.121852  1
  Y  Y6  1  0.680994  0.179680  0.877538  1
  Y  Y7  1  0.178695  0.321163  0.623470  1
  Y  Y8  1  0.526273  0.679113  0.601010  1
  Y  Y9  1  0.028802  0.816623  0.901180  1
  Y  Y10  1  0.470024  0.317835  0.098626  1
  Y  Y11  1  0.976482  0.181952  0.399798  1
  Y  Y12  1  0.470775  0.321866  0.400037  1
  Y  Y13  1  0.970113  0.183362  0.098338  1
  Y  Y14  1  0.530453  0.682658  0.900182  1
  Y  Y15  1  0.025096  0.817924  0.600795  1
  Y  Y16  1  0.851180  0.508678  0.750007  1
  Y  Y17  1  0.349419  0.988868  0.748782  1
  Y  Y18  1  0.150139  0.488498  0.249986  1
  Y  Y19  1  0.651591  0.011184  0.250831  1
  Si  Si20  1  0.145227  0.528157  0.040194  1
  Si  Si21  1  0.353874  0.029375  0.959950  1
  Si  Si22  1  0.850979  0.471842  0.541848  1
  Si  Si23  1  0.342214  0.028023  0.542911  1
  Si  Si24  1  0.854994  0.471214  0.959250  1
  Si  Si25  1  0.644500  0.970971  0.039417  1
  Si  Si26  1  0.148398  0.530436  0.461011  1
  Si  Si27  1  0.478147  0.395400  0.750286  1
  Si  Si28  1  0.976388  0.104247  0.752024  1
  Si  Si29  1  0.522930  0.607129  0.248718  1
  Si  Si30  1  0.024892  0.894884  0.247263  1
  Si  Si31  1  0.734102  0.871309  0.752287  1
  Si  Si32  1  0.233867  0.626883  0.751178  1
  Si  Si33  1  0.268055  0.126307  0.247024  1
  Si  Si34  1  0.765565  0.375071  0.248721  1
  Au  Au35  1  0.654794  0.972959  0.458297  1
