# generated using pymatgen
data_LaCe2Y2Ga2Ru3
_symmetry_space_group_name_H-M   'P 1'
_cell_length_a   8.52403496
_cell_length_b   8.51245829
_cell_length_c   8.50278875
_cell_angle_alpha   110.36646200
_cell_angle_beta   110.57298658
_cell_angle_gamma   110.35877061
_symmetry_Int_Tables_number   1
_chemical_formula_structural   LaCe2Y2Ga2Ru3
_chemical_formula_sum   'La2 Ce4 Y4 Ga4 Ru6'
_cell_volume   457.25184263
_cell_formula_units_Z   2
loop_
 _symmetry_equiv_pos_site_id
 _symmetry_equiv_pos_as_xyz
  1  'x, y, z'
loop_
 _atom_site_type_symbol
 _atom_site_label
 _atom_site_symmetry_multiplicity
 _atom_site_fract_x
 _atom_site_fract_y
 _atom_site_fract_z
 _atom_site_occupancy
  La  La0  1  0.725159  0.501630  0.994425  1
  La  La1  1  0.999339  0.728034  0.508885  1
  Ce  Ce2  1  0.501676  0.988660  0.705911  1
  Ce  Ce3  1  0.250584  0.199230  0.946821  1
  Ce  Ce4  1  0.942975  0.243027  0.191807  1
  Ce  Ce5  1  0.197153  0.945187  0.245873  1
  Y  Y6  1  0.769313  0.772318  0.770912  1
  Y  Y7  1  0.312819  0.564404  0.754223  1
  Y  Y8  1  0.754789  0.311160  0.562257  1
  Y  Y9  1  0.563666  0.753421  0.310455  1
  Ga  Ga10  1  0.403316  0.402912  0.406835  1
  Ga  Ga11  1  0.105500  0.498740  0.009358  1
  Ga  Ga12  1  0.002860  0.103517  0.501362  1
  Ga  Ga13  1  0.495552  0.003595  0.091674  1
  Ru  Ru14  1  0.893906  0.116188  0.752695  1
  Ru  Ru15  1  0.751876  0.908062  0.117840  1
  Ru  Ru16  1  0.116593  0.752416  0.908901  1
  Ru  Ru17  1  0.245845  0.618479  0.389714  1
  Ru  Ru18  1  0.371120  0.219127  0.602883  1
  Ru  Ru19  1  0.595958  0.369892  0.227170  1
