# generated using pymatgen
data_Yb2OsRhO6
_symmetry_space_group_name_H-M   'P 1'
_cell_length_a   5.24208700
_cell_length_b   5.68222668
_cell_length_c   7.61004014
_cell_angle_alpha   88.76027228
_cell_angle_beta   90.00000000
_cell_angle_gamma   90.00000000
_symmetry_Int_Tables_number   1
_chemical_formula_structural   Yb2OsRhO6
_chemical_formula_sum   'Yb4 Os2 Rh2 O12'
_cell_volume   226.62512505
_cell_formula_units_Z   2
loop_
 _symmetry_equiv_pos_site_id
 _symmetry_equiv_pos_as_xyz
  1  'x, y, z'
loop_
 _atom_site_type_symbol
 _atom_site_label
 _atom_site_symmetry_multiplicity
 _atom_site_fract_x
 _atom_site_fract_y
 _atom_site_fract_z
 _atom_site_occupancy
  Yb  Yb0  1  0.026679  0.423728  0.266328  1
  Yb  Yb1  1  0.973321  0.576272  0.733672  1
  Yb  Yb2  1  0.526679  0.076272  0.733672  1
  Yb  Yb3  1  0.473321  0.923728  0.266328  1
  Os  Os4  1  0.000000  0.000000  0.000000  1
  Os  Os5  1  0.500000  0.500000  0.000000  1
  Rh  Rh6  1  0.000000  0.000000  0.500000  1
  Rh  Rh7  1  0.500000  0.500000  0.500000  1
  O  O8  1  0.307738  0.197902  0.052626  1
  O  O9  1  0.692262  0.802098  0.947374  1
  O  O10  1  0.807738  0.302098  0.947374  1
  O  O11  1  0.681643  0.805289  0.557202  1
  O  O12  1  0.192262  0.697902  0.052626  1
  O  O13  1  0.318357  0.194711  0.442798  1
  O  O14  1  0.181643  0.694711  0.442798  1
  O  O15  1  0.818357  0.305289  0.557202  1
  O  O16  1  0.612245  0.535469  0.243457  1
  O  O17  1  0.387755  0.464531  0.756543  1
  O  O18  1  0.112245  0.964531  0.756543  1
  O  O19  1  0.887755  0.035469  0.243457  1
