# generated using pymatgen
data_Dy20CoTc3Bi8
_symmetry_space_group_name_H-M   'P 1'
_cell_length_a   7.99637648
_cell_length_b   9.02887800
_cell_length_c   12.44078003
_cell_angle_alpha   90.00000000
_cell_angle_beta   90.27181580
_cell_angle_gamma   90.00000000
_symmetry_Int_Tables_number   1
_chemical_formula_structural   Dy20CoTc3Bi8
_chemical_formula_sum   'Dy20 Co1 Tc3 Bi8'
_cell_volume   898.19315639
_cell_formula_units_Z   1
loop_
 _symmetry_equiv_pos_site_id
 _symmetry_equiv_pos_as_xyz
  1  'x, y, z'
loop_
 _atom_site_type_symbol
 _atom_site_label
 _atom_site_symmetry_multiplicity
 _atom_site_fract_x
 _atom_site_fract_y
 _atom_site_fract_z
 _atom_site_occupancy
  Dy  Dy0  1  0.843237  0.750000  0.796854  1
  Dy  Dy1  1  0.156708  0.250000  0.208493  1
  Dy  Dy2  1  0.343314  0.250000  0.708125  1
  Dy  Dy3  1  0.653112  0.750000  0.295543  1
  Dy  Dy4  1  0.378548  0.750000  0.690870  1
  Dy  Dy5  1  0.622273  0.250000  0.308496  1
  Dy  Dy6  1  0.877373  0.250000  0.808008  1
  Dy  Dy7  1  0.120549  0.750000  0.187705  1
  Dy  Dy8  1  0.946969  0.750000  0.505358  1
  Dy  Dy9  1  0.052399  0.250000  0.495451  1
  Dy  Dy10  1  0.447850  0.250000  0.995473  1
  Dy  Dy11  1  0.555237  0.750000  0.004915  1
  Dy  Dy12  1  0.675022  0.040409  0.565019  1
  Dy  Dy13  1  0.323826  0.960637  0.434607  1
  Dy  Dy14  1  0.175091  0.958298  0.935435  1
  Dy  Dy15  1  0.323826  0.539363  0.434607  1
  Dy  Dy16  1  0.826068  0.035127  0.063121  1
  Dy  Dy17  1  0.675022  0.459591  0.565019  1
  Dy  Dy18  1  0.826068  0.464873  0.063121  1
  Dy  Dy19  1  0.175091  0.541702  0.935435  1
  Co  Co20  1  0.928747  0.750000  0.008561  1
  Tc  Tc21  1  0.578228  0.750000  0.512512  1
  Tc  Tc22  1  0.420775  0.250000  0.488190  1
  Tc  Tc23  1  0.075674  0.250000  0.989414  1
  Bi  Bi24  1  0.569747  0.494576  0.827871  1
  Bi  Bi25  1  0.430139  0.506670  0.171658  1
  Bi  Bi26  1  0.070428  0.506354  0.673552  1
  Bi  Bi27  1  0.430139  0.993330  0.171658  1
  Bi  Bi28  1  0.929184  0.495213  0.326753  1
  Bi  Bi29  1  0.569747  0.005424  0.827871  1
  Bi  Bi30  1  0.929184  0.004787  0.326753  1
  Bi  Bi31  1  0.070428  0.993646  0.673552  1
