# generated using pymatgen
data_LiNd4Al17Pd6
_symmetry_space_group_name_H-M   'P 1'
_cell_length_a   7.67473127
_cell_length_b   7.67473265
_cell_length_c   9.61078300
_cell_angle_alpha   90.00000000
_cell_angle_beta   90.00000000
_cell_angle_gamma   119.34026644
_symmetry_Int_Tables_number   1
_chemical_formula_structural   LiNd4Al17Pd6
_chemical_formula_sum   'Li1 Nd4 Al17 Pd6'
_cell_volume   493.47456135
_cell_formula_units_Z   1
loop_
 _symmetry_equiv_pos_site_id
 _symmetry_equiv_pos_as_xyz
  1  'x, y, z'
loop_
 _atom_site_type_symbol
 _atom_site_label
 _atom_site_symmetry_multiplicity
 _atom_site_fract_x
 _atom_site_fract_y
 _atom_site_fract_z
 _atom_site_occupancy
  Li  Li0  1  0.130739  0.130739  0.250000  1
  Nd  Nd1  1  0.994880  0.664653  0.250000  1
  Nd  Nd2  1  0.007635  0.331344  0.750000  1
  Nd  Nd3  1  0.664653  0.994880  0.250000  1
  Nd  Nd4  1  0.331344  0.007635  0.750000  1
  Al  Al5  1  0.865021  0.865021  0.750000  1
  Al  Al6  1  0.003824  0.328764  0.078026  1
  Al  Al7  1  0.998443  0.665360  0.926075  1
  Al  Al8  1  0.998443  0.665360  0.573925  1
  Al  Al9  1  0.328764  0.003824  0.421974  1
  Al  Al10  1  0.003824  0.328764  0.421974  1
  Al  Al11  1  0.665360  0.998442  0.573925  1
  Al  Al12  1  0.665360  0.998442  0.926075  1
  Al  Al13  1  0.328764  0.003824  0.078026  1
  Al  Al14  1  0.336118  0.336118  0.545042  1
  Al  Al15  1  0.669129  0.669129  0.443315  1
  Al  Al16  1  0.669129  0.669129  0.056685  1
  Al  Al17  1  0.336118  0.336118  0.954958  1
  Al  Al18  1  0.340145  0.540107  0.250000  1
  Al  Al19  1  0.659643  0.454627  0.750000  1
  Al  Al20  1  0.540107  0.340144  0.250000  1
  Al  Al21  1  0.454627  0.659643  0.750000  1
  Pd  Pd22  1  0.674108  0.330463  0.000004  1
  Pd  Pd23  1  0.330463  0.674108  0.000004  1
  Pd  Pd24  1  0.330463  0.674108  0.499996  1
  Pd  Pd25  1  0.674108  0.330463  0.499996  1
  Pd  Pd26  1  0.999395  0.999395  0.992824  1
  Pd  Pd27  1  0.999395  0.999395  0.507176  1
