# generated using pymatgen
data_TbTh2Cu(Ni6B)2
_symmetry_space_group_name_H-M   'P 1'
_cell_length_a   4.95343475
_cell_length_b   4.95343497
_cell_length_c   11.02208700
_cell_angle_alpha   90.00000000
_cell_angle_beta   90.00000000
_cell_angle_gamma   119.70201411
_symmetry_Int_Tables_number   1
_chemical_formula_structural   TbTh2Cu(Ni6B)2
_chemical_formula_sum   'Tb1 Th2 Cu1 Ni12 B2'
_cell_volume   234.91114427
_cell_formula_units_Z   1
loop_
 _symmetry_equiv_pos_site_id
 _symmetry_equiv_pos_as_xyz
  1  'x, y, z'
loop_
 _atom_site_type_symbol
 _atom_site_label
 _atom_site_symmetry_multiplicity
 _atom_site_fract_x
 _atom_site_fract_y
 _atom_site_fract_z
 _atom_site_occupancy
  Tb  Tb0  1  0.000000  0.000000  0.000000  1
  Th  Th1  1  0.000000  0.000000  0.324550  1
  Th  Th2  1  0.000000  0.000000  0.675450  1
  Cu  Cu3  1  0.500000  0.500000  0.500000  1
  Ni  Ni4  1  0.500000  0.000000  0.500000  1
  Ni  Ni5  1  0.000000  0.500000  0.500000  1
  Ni  Ni6  1  0.332008  0.667992  0.316535  1
  Ni  Ni7  1  0.667992  0.332008  0.316535  1
  Ni  Ni8  1  0.667992  0.332008  0.683465  1
  Ni  Ni9  1  0.332008  0.667992  0.683465  1
  Ni  Ni10  1  0.500000  0.000000  0.131001  1
  Ni  Ni11  1  0.500000  0.500000  0.130685  1
  Ni  Ni12  1  0.000000  0.500000  0.131001  1
  Ni  Ni13  1  0.500000  0.000000  0.868999  1
  Ni  Ni14  1  0.500000  0.500000  0.869315  1
  Ni  Ni15  1  0.000000  0.500000  0.868999  1
  B  B16  1  0.332837  0.667163  0.000000  1
  B  B17  1  0.667163  0.332837  0.000000  1
