# generated using pymatgen
data_Yb2Th2Al17SiRh6
_symmetry_space_group_name_H-M   'P 1'
_cell_length_a   7.60623789
_cell_length_b   7.62856508
_cell_length_c   9.50763706
_cell_angle_alpha   90.10359407
_cell_angle_beta   89.88392283
_cell_angle_gamma   119.31002063
_symmetry_Int_Tables_number   1
_chemical_formula_structural   Yb2Th2Al17SiRh6
_chemical_formula_sum   'Yb2 Th2 Al17 Si1 Rh6'
_cell_volume   481.05266457
_cell_formula_units_Z   1
loop_
 _symmetry_equiv_pos_site_id
 _symmetry_equiv_pos_as_xyz
  1  'x, y, z'
loop_
 _atom_site_type_symbol
 _atom_site_label
 _atom_site_symmetry_multiplicity
 _atom_site_fract_x
 _atom_site_fract_y
 _atom_site_fract_z
 _atom_site_occupancy
  Yb  Yb0  1  0.677250  0.001436  0.746842  1
  Yb  Yb1  1  0.328447  0.006602  0.250033  1
  Th  Th2  1  0.995982  0.664628  0.746224  1
  Th  Th3  1  0.003898  0.328099  0.256631  1
  Al  Al4  1  0.131116  0.128940  0.749026  1
  Al  Al5  1  0.865992  0.871221  0.249042  1
  Al  Al6  1  0.998789  0.676284  0.418513  1
  Al  Al7  1  0.999183  0.669490  0.078076  1
  Al  Al8  1  0.339792  0.002987  0.927376  1
  Al  Al9  1  0.001908  0.329940  0.927679  1
  Al  Al10  1  0.658724  0.995605  0.071192  1
  Al  Al11  1  0.653287  0.989934  0.426625  1
  Al  Al12  1  0.340066  0.003786  0.572755  1
  Al  Al13  1  0.336642  0.332423  0.048325  1
  Al  Al14  1  0.665679  0.669193  0.951082  1
  Al  Al15  1  0.664139  0.668727  0.549657  1
  Al  Al16  1  0.340298  0.332969  0.453701  1
  Al  Al17  1  0.344439  0.548991  0.749808  1
  Al  Al18  1  0.658332  0.450751  0.250704  1
  Al  Al19  1  0.543234  0.337662  0.749633  1
  Al  Al20  1  0.452142  0.659477  0.249281  1
  Si  Si21  1  0.002984  0.330252  0.579677  1
  Rh  Rh22  1  0.682874  0.331702  0.501618  1
  Rh  Rh23  1  0.316672  0.661085  0.500723  1
  Rh  Rh24  1  0.324721  0.668427  0.998098  1
  Rh  Rh25  1  0.674844  0.330534  0.999282  1
  Rh  Rh26  1  0.998809  0.007878  0.499327  1
  Rh  Rh27  1  0.999758  0.000979  0.999068  1
