# generated using pymatgen
data_Nb12Al4Zn4CN3
_symmetry_space_group_name_H-M   'P 1'
_cell_length_a   7.07418345
_cell_length_b   7.07418345
_cell_length_c   7.07418345
_cell_angle_alpha   90.09083785
_cell_angle_beta   89.90916215
_cell_angle_gamma   89.90916215
_symmetry_Int_Tables_number   1
_chemical_formula_structural   Nb12Al4Zn4CN3
_chemical_formula_sum   'Nb12 Al4 Zn4 C1 N3'
_cell_volume   354.01960591
_cell_formula_units_Z   1
loop_
 _symmetry_equiv_pos_site_id
 _symmetry_equiv_pos_as_xyz
  1  'x, y, z'
loop_
 _atom_site_type_symbol
 _atom_site_label
 _atom_site_symmetry_multiplicity
 _atom_site_fract_x
 _atom_site_fract_y
 _atom_site_fract_z
 _atom_site_occupancy
  Nb  Nb0  1  0.792744  0.955601  0.373377  1
  Nb  Nb1  1  0.706414  0.043688  0.874844  1
  Nb  Nb2  1  0.207474  0.456525  0.125827  1
  Nb  Nb3  1  0.292531  0.543432  0.625872  1
  Nb  Nb4  1  0.956312  0.374844  0.793586  1
  Nb  Nb5  1  0.044399  0.873377  0.707256  1
  Nb  Nb6  1  0.456568  0.125872  0.207469  1
  Nb  Nb7  1  0.543475  0.625827  0.292526  1
  Nb  Nb8  1  0.374173  0.792526  0.956525  1
  Nb  Nb9  1  0.874128  0.707469  0.043432  1
  Nb  Nb10  1  0.126623  0.207256  0.455601  1
  Nb  Nb11  1  0.625156  0.293586  0.543688  1
  Al  Al12  1  0.572580  0.427420  0.927420  1
  Al  Al13  1  0.427694  0.927562  0.572875  1
  Al  Al14  1  0.927125  0.572306  0.427562  1
  Al  Al15  1  0.072438  0.072875  0.072306  1
  Zn  Zn16  1  0.179648  0.820352  0.320352  1
  Zn  Zn17  1  0.320349  0.179535  0.820189  1
  Zn  Zn18  1  0.820465  0.320189  0.179651  1
  Zn  Zn19  1  0.679811  0.679651  0.679535  1
  C  C20  1  0.876437  0.123563  0.623563  1
  N  N21  1  0.622839  0.875875  0.123509  1
  N  N22  1  0.124125  0.623509  0.877161  1
  N  N23  1  0.376491  0.377161  0.375875  1
