# generated using pymatgen
data_TmLu7(V3Si4)4
_symmetry_space_group_name_H-M   'P 1'
_cell_length_a   6.60383901
_cell_length_b   6.79352305
_cell_length_c   12.77517907
_cell_angle_alpha   89.98807684
_cell_angle_beta   90.00225328
_cell_angle_gamma   89.99352531
_symmetry_Int_Tables_number   1
_chemical_formula_structural   TmLu7(V3Si4)4
_chemical_formula_sum   'Tm1 Lu7 V12 Si16'
_cell_volume   573.13709030
_cell_formula_units_Z   1
loop_
 _symmetry_equiv_pos_site_id
 _symmetry_equiv_pos_as_xyz
  1  'x, y, z'
loop_
 _atom_site_type_symbol
 _atom_site_label
 _atom_site_symmetry_multiplicity
 _atom_site_fract_x
 _atom_site_fract_y
 _atom_site_fract_z
 _atom_site_occupancy
  Tm  Tm0  1  0.498735  0.330573  0.095233  1
  Lu  Lu1  1  0.998624  0.169581  0.404705  1
  Lu  Lu2  1  0.501372  0.669574  0.595341  1
  Lu  Lu3  1  0.001361  0.830433  0.904629  1
  Lu  Lu4  1  0.501389  0.669630  0.904599  1
  Lu  Lu5  1  0.001366  0.830406  0.595342  1
  Lu  Lu6  1  0.498632  0.330423  0.404658  1
  Lu  Lu7  1  0.998606  0.169498  0.095332  1
  V  V8  1  0.837511  0.326870  0.626111  1
  V  V9  1  0.337397  0.173033  0.873794  1
  V  V10  1  0.162401  0.673244  0.126130  1
  V  V11  1  0.662510  0.826888  0.373906  1
  V  V12  1  0.162450  0.673180  0.373934  1
  V  V13  1  0.662509  0.826979  0.126120  1
  V  V14  1  0.837544  0.326873  0.873853  1
  V  V15  1  0.337525  0.173116  0.626109  1
  V  V16  1  0.665476  0.013011  0.749989  1
  V  V17  1  0.165481  0.486962  0.749978  1
  V  V18  1  0.334462  0.986894  0.250041  1
  V  V19  1  0.834619  0.513124  0.250080  1
  Si  Si20  1  0.662356  0.041747  0.543237  1
  Si  Si21  1  0.162169  0.458292  0.956659  1
  Si  Si22  1  0.337521  0.957886  0.043184  1
  Si  Si23  1  0.837614  0.541750  0.456773  1
  Si  Si24  1  0.337674  0.958265  0.456761  1
  Si  Si25  1  0.838039  0.542005  0.043168  1
  Si  Si26  1  0.662430  0.041525  0.956649  1
  Si  Si27  1  0.162337  0.458246  0.543259  1
  Si  Si28  1  0.539826  0.368119  0.750003  1
  Si  Si29  1  0.039870  0.131889  0.749991  1
  Si  Si30  1  0.460132  0.632099  0.250105  1
  Si  Si31  1  0.960127  0.868133  0.250018  1
  Si  Si32  1  0.803764  0.621795  0.749994  1
  Si  Si33  1  0.303732  0.878198  0.749998  1
  Si  Si34  1  0.196009  0.378249  0.250151  1
  Si  Si35  1  0.696429  0.121510  0.250169  1
