# generated using pymatgen
data_Gd6MoO12
_symmetry_space_group_name_H-M   'P 1'
_cell_length_a   6.57393074
_cell_length_b   6.57393118
_cell_length_c   6.57393032
_cell_angle_alpha   98.59518103
_cell_angle_beta   98.59518167
_cell_angle_gamma   98.59519108
_symmetry_Int_Tables_number   1
_chemical_formula_structural   Gd6MoO12
_chemical_formula_sum   'Gd6 Mo1 O12'
_cell_volume   273.43550091
_cell_formula_units_Z   1
loop_
 _symmetry_equiv_pos_site_id
 _symmetry_equiv_pos_as_xyz
  1  'x, y, z'
loop_
 _atom_site_type_symbol
 _atom_site_label
 _atom_site_symmetry_multiplicity
 _atom_site_fract_x
 _atom_site_fract_y
 _atom_site_fract_z
 _atom_site_occupancy
  Gd  Gd0  1  0.856558  0.389268  0.687545  1
  Gd  Gd1  1  0.610732  0.312455  0.143442  1
  Gd  Gd2  1  0.312455  0.143442  0.610732  1
  Gd  Gd3  1  0.687545  0.856558  0.389268  1
  Gd  Gd4  1  0.389268  0.687545  0.856558  1
  Gd  Gd5  1  0.143442  0.610732  0.312455  1
  Mo  Mo6  1  0.000000  0.000000  0.000000  1
  O  O7  1  0.926511  0.032386  0.706553  1
  O  O8  1  0.967614  0.293447  0.073489  1
  O  O9  1  0.591504  0.177160  0.434219  1
  O  O10  1  0.822840  0.565781  0.408496  1
  O  O11  1  0.293447  0.073489  0.967614  1
  O  O12  1  0.565781  0.408496  0.822840  1
  O  O13  1  0.434219  0.591504  0.177160  1
  O  O14  1  0.706553  0.926511  0.032386  1
  O  O15  1  0.177160  0.434219  0.591504  1
  O  O16  1  0.408496  0.822840  0.565781  1
  O  O17  1  0.032386  0.706553  0.926511  1
  O  O18  1  0.073489  0.967614  0.293447  1
