# generated using pymatgen
data_CePuF7
_symmetry_space_group_name_H-M   'P 1'
_cell_length_a   6.13868900
_cell_length_b   6.46981044
_cell_length_c   8.81296000
_cell_angle_alpha   103.11623976
_cell_angle_beta   90.00000000
_cell_angle_gamma   90.00000000
_symmetry_Int_Tables_number   1
_chemical_formula_structural   CePuF7
_chemical_formula_sum   'Ce2 Pu2 F14'
_cell_volume   340.88552826
_cell_formula_units_Z   2
loop_
 _symmetry_equiv_pos_site_id
 _symmetry_equiv_pos_as_xyz
  1  'x, y, z'
loop_
 _atom_site_type_symbol
 _atom_site_label
 _atom_site_symmetry_multiplicity
 _atom_site_fract_x
 _atom_site_fract_y
 _atom_site_fract_z
 _atom_site_occupancy
  Ce  Ce0  1  0.702902  0.653977  0.687604  1
  Ce  Ce1  1  0.202902  0.346023  0.312396  1
  Pu  Pu2  1  0.705269  0.814400  0.226215  1
  Pu  Pu3  1  0.205269  0.185600  0.773785  1
  F  F4  1  0.925884  0.483076  0.491251  1
  F  F5  1  0.425884  0.516924  0.508749  1
  F  F6  1  0.438351  0.919102  0.756325  1
  F  F7  1  0.938351  0.080898  0.243675  1
  F  F8  1  0.953650  0.931535  0.752751  1
  F  F9  1  0.453650  0.068465  0.247249  1
  F  F10  1  0.964740  0.443254  0.788164  1
  F  F11  1  0.464740  0.556746  0.211836  1
  F  F12  1  0.699334  0.765716  0.971671  1
  F  F13  1  0.199334  0.234284  0.028329  1
  F  F14  1  0.701646  0.851727  0.478866  1
  F  F15  1  0.201646  0.148273  0.521134  1
  F  F16  1  0.484584  0.405160  0.782641  1
  F  F17  1  0.984584  0.594840  0.217359  1
