# generated using pymatgen
data_LiLa8InRh2
_symmetry_space_group_name_H-M   'P 1'
_cell_length_a   10.14758612
_cell_length_b   10.14758590
_cell_length_c   10.13451500
_cell_angle_alpha   60.04260344
_cell_angle_beta   60.04260416
_cell_angle_gamma   59.97502521
_symmetry_Int_Tables_number   1
_chemical_formula_structural   LiLa8InRh2
_chemical_formula_sum   'Li2 La16 In2 Rh4'
_cell_volume   738.26227464
_cell_formula_units_Z   2
loop_
 _symmetry_equiv_pos_site_id
 _symmetry_equiv_pos_as_xyz
  1  'x, y, z'
loop_
 _atom_site_type_symbol
 _atom_site_label
 _atom_site_symmetry_multiplicity
 _atom_site_fract_x
 _atom_site_fract_y
 _atom_site_fract_z
 _atom_site_occupancy
  Li  Li0  1  0.821207  0.821207  0.825962  1
  Li  Li1  1  0.821207  0.821207  0.531625  1
  La  La2  1  0.190325  0.190325  0.809675  1
  La  La3  1  0.597242  0.597242  0.207840  1
  La  La4  1  0.440033  0.060186  0.441571  1
  La  La5  1  0.444958  0.444958  0.055042  1
  La  La6  1  0.809301  0.188461  0.812346  1
  La  La7  1  0.188461  0.809301  0.189893  1
  La  La8  1  0.440033  0.060186  0.058210  1
  La  La9  1  0.188461  0.809301  0.812346  1
  La  La10  1  0.060186  0.440033  0.058210  1
  La  La11  1  0.812012  0.812012  0.187988  1
  La  La12  1  0.210520  0.596163  0.596658  1
  La  La13  1  0.060186  0.440033  0.441571  1
  La  La14  1  0.067045  0.067045  0.432955  1
  La  La15  1  0.809301  0.188461  0.189893  1
  La  La16  1  0.596163  0.210520  0.596658  1
  La  La17  1  0.597242  0.597242  0.597678  1
  In  In18  1  0.509021  0.832545  0.829218  1
  In  In19  1  0.832545  0.509021  0.829218  1
  Rh  Rh20  1  0.391936  0.827731  0.390167  1
  Rh  Rh21  1  0.392445  0.392445  0.390177  1
  Rh  Rh22  1  0.827731  0.391936  0.390167  1
  Rh  Rh23  1  0.392445  0.392445  0.824935  1
