# generated using pymatgen
data_TbSm7(PI6)2
_symmetry_space_group_name_H-M   'P 1'
_cell_length_a   4.27189000
_cell_length_b   14.05934626
_cell_length_c   14.89583807
_cell_angle_alpha   89.88180571
_cell_angle_beta   90.00000000
_cell_angle_gamma   90.00000000
_symmetry_Int_Tables_number   1
_chemical_formula_structural   TbSm7(PI6)2
_chemical_formula_sum   'Tb1 Sm7 P2 I12'
_cell_volume   894.64184319
_cell_formula_units_Z   1
loop_
 _symmetry_equiv_pos_site_id
 _symmetry_equiv_pos_as_xyz
  1  'x, y, z'
loop_
 _atom_site_type_symbol
 _atom_site_label
 _atom_site_symmetry_multiplicity
 _atom_site_fract_x
 _atom_site_fract_y
 _atom_site_fract_z
 _atom_site_occupancy
  Tb  Tb0  1  0.000000  0.392776  0.071244  1
  Sm  Sm1  1  0.500000  0.113546  0.348792  1
  Sm  Sm2  1  0.500000  0.886928  0.650797  1
  Sm  Sm3  1  0.500000  0.612664  0.150988  1
  Sm  Sm4  1  0.500000  0.386530  0.849477  1
  Sm  Sm5  1  0.000000  0.108357  0.571869  1
  Sm  Sm6  1  0.000000  0.891828  0.427679  1
  Sm  Sm7  1  0.000000  0.607620  0.928347  1
  P  P8  1  0.500000  0.000155  0.499666  1
  P  P9  1  0.500000  0.498171  0.001167  1
  I  I10  1  0.500000  0.250224  0.159632  1
  I  I11  1  0.500000  0.753416  0.839329  1
  I  I12  1  0.500000  0.745171  0.338683  1
  I  I13  1  0.500000  0.254176  0.661717  1
  I  I14  1  0.000000  0.260574  0.414070  1
  I  I15  1  0.000000  0.739780  0.585711  1
  I  I16  1  0.000000  0.759812  0.085508  1
  I  I17  1  0.000000  0.240654  0.917705  1
  I  I18  1  0.000000  0.999501  0.238860  1
  I  I19  1  0.000000  0.001261  0.760640  1
  I  I20  1  0.000000  0.495581  0.258250  1
  I  I21  1  0.000000  0.501275  0.739868  1
