# generated using pymatgen
data_TbGdAs4O9
_symmetry_space_group_name_H-M   'P 1'
_cell_length_a   6.81333515
_cell_length_b   7.60050059
_cell_length_c   9.86926350
_cell_angle_alpha   94.92606785
_cell_angle_beta   104.11958848
_cell_angle_gamma   104.78579637
_symmetry_Int_Tables_number   1
_chemical_formula_structural   TbGdAs4O9
_chemical_formula_sum   'Tb2 Gd2 As8 O18'
_cell_volume   473.20753181
_cell_formula_units_Z   2
loop_
 _symmetry_equiv_pos_site_id
 _symmetry_equiv_pos_as_xyz
  1  'x, y, z'
loop_
 _atom_site_type_symbol
 _atom_site_label
 _atom_site_symmetry_multiplicity
 _atom_site_fract_x
 _atom_site_fract_y
 _atom_site_fract_z
 _atom_site_occupancy
  Tb  Tb0  1  0.720165  0.530318  0.408772  1
  Tb  Tb1  1  0.279835  0.469682  0.591228  1
  Gd  Gd2  1  0.244996  0.939078  0.615673  1
  Gd  Gd3  1  0.755004  0.060922  0.384327  1
  As  As4  1  0.680505  0.775437  0.076414  1
  As  As5  1  0.319495  0.224563  0.923586  1
  As  As6  1  0.173589  0.752751  0.913280  1
  As  As7  1  0.826411  0.247249  0.086720  1
  As  As8  1  0.745084  0.915358  0.709498  1
  As  As9  1  0.254916  0.084642  0.290502  1
  As  As10  1  0.809120  0.351195  0.701190  1
  As  As11  1  0.190880  0.648805  0.298810  1
  O  O12  1  0.721466  0.748386  0.255753  1
  O  O13  1  0.278534  0.251614  0.744247  1
  O  O14  1  0.316452  0.979043  0.872689  1
  O  O15  1  0.683548  0.020957  0.127311  1
  O  O16  1  0.606674  0.321777  0.985463  1
  O  O17  1  0.393326  0.678223  0.014537  1
  O  O18  1  0.131964  0.647544  0.739307  1
  O  O19  1  0.868036  0.352456  0.260693  1
  O  O20  1  0.844438  0.870833  0.559618  1
  O  O21  1  0.155562  0.129167  0.440382  1
  O  O22  1  0.487107  0.768500  0.667301  1
  O  O23  1  0.512893  0.231500  0.332699  1
  O  O24  1  0.373410  0.536619  0.379835  1
  O  O25  1  0.626590  0.463381  0.620165  1
  O  O26  1  0.089056  0.667090  0.452451  1
  O  O27  1  0.910944  0.332910  0.547549  1
  O  O28  1  0.372076  0.899297  0.358847  1
  O  O29  1  0.627924  0.100703  0.641153  1
