# generated using pymatgen
data_Tb18Y2Cd6TcRu
_symmetry_space_group_name_H-M   'P 1'
_cell_length_a   9.62387307
_cell_length_b   9.62387250
_cell_length_c   9.96905200
_cell_angle_alpha   90.00000000
_cell_angle_beta   90.00000000
_cell_angle_gamma   119.94587237
_symmetry_Int_Tables_number   1
_chemical_formula_structural   Tb18Y2Cd6TcRu
_chemical_formula_sum   'Tb18 Y2 Cd6 Tc1 Ru1'
_cell_volume   800.05686759
_cell_formula_units_Z   1
loop_
 _symmetry_equiv_pos_site_id
 _symmetry_equiv_pos_as_xyz
  1  'x, y, z'
loop_
 _atom_site_type_symbol
 _atom_site_label
 _atom_site_symmetry_multiplicity
 _atom_site_fract_x
 _atom_site_fract_y
 _atom_site_fract_z
 _atom_site_occupancy
  Tb  Tb0  1  0.000043  0.999957  0.500020  1
  Tb  Tb1  1  0.000043  0.999957  0.999980  1
  Tb  Tb2  1  0.209932  0.790068  0.441110  1
  Tb  Tb3  1  0.209894  0.419770  0.441048  1
  Tb  Tb4  1  0.580230  0.790106  0.441048  1
  Tb  Tb5  1  0.789801  0.210199  0.559384  1
  Tb  Tb6  1  0.789812  0.579642  0.559338  1
  Tb  Tb7  1  0.420358  0.210188  0.559338  1
  Tb  Tb8  1  0.789801  0.210199  0.940616  1
  Tb  Tb9  1  0.789812  0.579642  0.940662  1
  Tb  Tb10  1  0.420358  0.210188  0.940662  1
  Tb  Tb11  1  0.209932  0.790068  0.058890  1
  Tb  Tb12  1  0.209894  0.419770  0.058952  1
  Tb  Tb13  1  0.580230  0.790106  0.058952  1
  Tb  Tb14  1  0.540084  0.459916  0.250000  1
  Tb  Tb15  1  0.458662  0.541338  0.750000  1
  Tb  Tb16  1  0.458648  0.917350  0.750000  1
  Tb  Tb17  1  0.082650  0.541352  0.750000  1
  Y  Y18  1  0.540172  0.080246  0.250000  1
  Y  Y19  1  0.919754  0.459828  0.250000  1
  Cd  Cd20  1  0.885367  0.114633  0.250000  1
  Cd  Cd21  1  0.885331  0.770800  0.250000  1
  Cd  Cd22  1  0.229200  0.114669  0.250000  1
  Cd  Cd23  1  0.114391  0.885609  0.750000  1
  Cd  Cd24  1  0.114450  0.228845  0.750000  1
  Cd  Cd25  1  0.771155  0.885550  0.750000  1
  Tc  Tc26  1  0.333295  0.666705  0.250000  1
  Ru  Ru27  1  0.666705  0.333295  0.750000  1
