# generated using pymatgen
data_Sc4Zn2SnRu
_symmetry_space_group_name_H-M   'P 1'
_cell_length_a   6.74141700
_cell_length_b   6.70889600
_cell_length_c   6.74155600
_cell_angle_alpha   90.00000000
_cell_angle_beta   90.00015298
_cell_angle_gamma   90.00000000
_symmetry_Int_Tables_number   1
_chemical_formula_structural   Sc4Zn2SnRu
_chemical_formula_sum   'Sc8 Zn4 Sn2 Ru2'
_cell_volume   304.90349171
_cell_formula_units_Z   2
loop_
 _symmetry_equiv_pos_site_id
 _symmetry_equiv_pos_as_xyz
  1  'x, y, z'
loop_
 _atom_site_type_symbol
 _atom_site_label
 _atom_site_symmetry_multiplicity
 _atom_site_fract_x
 _atom_site_fract_y
 _atom_site_fract_z
 _atom_site_occupancy
  Sc  Sc0  1  0.232886  0.000067  0.267123  1
  Sc  Sc1  1  0.232886  0.499932  0.267123  1
  Sc  Sc2  1  0.767144  0.500067  0.267151  1
  Sc  Sc3  1  0.767144  0.999932  0.267151  1
  Sc  Sc4  1  0.232857  0.000067  0.732850  1
  Sc  Sc5  1  0.232857  0.499934  0.732850  1
  Sc  Sc6  1  0.767114  0.500067  0.732878  1
  Sc  Sc7  1  0.767114  0.999932  0.732878  1
  Zn  Zn8  1  0.999885  0.250000  0.000002  1
  Zn  Zn9  1  0.000116  0.750000  0.999998  1
  Zn  Zn10  1  0.500135  0.250000  0.499999  1
  Zn  Zn11  1  0.499864  0.750000  0.500001  1
  Sn  Sn12  1  0.500091  0.250000  0.000004  1
  Sn  Sn13  1  0.499909  0.750000  0.999996  1
  Ru  Ru14  1  0.999929  0.250000  0.499998  1
  Ru  Ru15  1  0.000071  0.750000  0.500002  1
