# generated using pymatgen
data_Lu4ZnRu6W
_symmetry_space_group_name_H-M   'P 1'
_cell_length_a   5.40156214
_cell_length_b   5.19672827
_cell_length_c   8.84883100
_cell_angle_alpha   90.00000000
_cell_angle_beta   90.00000000
_cell_angle_gamma   121.28656810
_symmetry_Int_Tables_number   1
_chemical_formula_structural   Lu4ZnRu6W
_chemical_formula_sum   'Lu4 Zn1 Ru6 W1'
_cell_volume   212.26985092
_cell_formula_units_Z   1
loop_
 _symmetry_equiv_pos_site_id
 _symmetry_equiv_pos_as_xyz
  1  'x, y, z'
loop_
 _atom_site_type_symbol
 _atom_site_label
 _atom_site_symmetry_multiplicity
 _atom_site_fract_x
 _atom_site_fract_y
 _atom_site_fract_z
 _atom_site_occupancy
  Lu  Lu0  1  0.333304  0.665603  0.436234  1
  Lu  Lu1  1  0.673004  0.346282  0.564208  1
  Lu  Lu2  1  0.673004  0.346282  0.935792  1
  Lu  Lu3  1  0.333304  0.665603  0.063766  1
  Zn  Zn4  1  0.335075  0.162670  0.250000  1
  Ru  Ru5  1  0.173031  0.821750  0.750000  1
  Ru  Ru6  1  0.834741  0.649223  0.250000  1
  Ru  Ru7  1  0.652910  0.825381  0.750000  1
  Ru  Ru8  1  0.996280  0.012018  0.001809  1
  Ru  Ru9  1  0.834561  0.170095  0.250000  1
  Ru  Ru10  1  0.996280  0.012018  0.498191  1
  W  W11  1  0.164505  0.323075  0.750000  1
