# generated using pymatgen
data_Dy2Ho3Zr2P12Ir17
_symmetry_space_group_name_H-M   'P 1'
_cell_length_a   12.66175101
_cell_length_b   12.89207938
_cell_length_c   3.98479500
_cell_angle_alpha   90.00000000
_cell_angle_beta   90.00000000
_cell_angle_gamma   119.40558216
_symmetry_Int_Tables_number   1
_chemical_formula_structural   Dy2Ho3Zr2P12Ir17
_chemical_formula_sum   'Dy2 Ho3 Zr2 P12 Ir17'
_cell_volume   566.66140113
_cell_formula_units_Z   1
loop_
 _symmetry_equiv_pos_site_id
 _symmetry_equiv_pos_as_xyz
  1  'x, y, z'
loop_
 _atom_site_type_symbol
 _atom_site_label
 _atom_site_symmetry_multiplicity
 _atom_site_fract_x
 _atom_site_fract_y
 _atom_site_fract_z
 _atom_site_occupancy
  Dy  Dy0  1  0.184975  0.184417  0.000000  1
  Dy  Dy1  1  0.812860  0.999991  0.000000  1
  Ho  Ho2  1  0.330126  0.661385  0.500000  1
  Ho  Ho3  1  0.668732  0.338606  0.500000  1
  Ho  Ho4  1  0.000398  0.815489  0.000000  1
  Zr  Zr5  1  0.997634  0.447056  0.500000  1
  Zr  Zr6  1  0.550666  0.553016  0.500000  1
  P  P7  1  0.005855  0.651175  0.500000  1
  P  P8  1  0.354934  0.349090  0.500000  1
  P  P9  1  0.644966  0.999998  0.500000  1
  P  P10  1  0.514651  0.686423  0.000000  1
  P  P11  1  0.309754  0.824949  0.000000  1
  P  P12  1  0.164655  0.481121  0.000000  1
  P  P13  1  0.484763  0.175045  0.000000  1
  P  P14  1  0.683516  0.518858  0.000000  1
  P  P15  1  0.828210  0.313594  0.000000  1
  P  P16  1  0.999316  0.173994  0.500000  1
  P  P17  1  0.825374  0.825906  0.500000  1
  P  P18  1  0.181604  0.999872  0.500000  1
  Ir  Ir19  1  0.504735  0.864602  0.000000  1
  Ir  Ir20  1  0.128058  0.644164  0.000000  1
  Ir  Ir21  1  0.354840  0.495881  0.000000  1
  Ir  Ir22  1  0.483932  0.355884  0.000000  1
  Ir  Ir23  1  0.858939  0.504111  0.000000  1
  Ir  Ir24  1  0.640114  0.135399  0.000000  1
  Ir  Ir25  1  0.464546  0.000002  0.500000  1
  Ir  Ir26  1  0.996674  0.277474  0.000000  1
  Ir  Ir27  1  0.719362  0.722594  0.000000  1
  Ir  Ir28  1  0.290357  0.999905  0.000000  1
  Ir  Ir29  1  0.623960  0.808405  0.500000  1
  Ir  Ir30  1  0.203782  0.825693  0.500000  1
  Ir  Ir31  1  0.177807  0.365819  0.500000  1
  Ir  Ir32  1  0.378343  0.174255  0.500000  1
  Ir  Ir33  1  0.812378  0.634523  0.500000  1
  Ir  Ir34  1  0.815534  0.191577  0.500000  1
  Ir  Ir35  1  0.003652  0.999727  0.500000  1
