# generated using pymatgen
data_K5BaTaAs4
_symmetry_space_group_name_H-M   'P 1'
_cell_length_a   10.49382985
_cell_length_b   10.49382948
_cell_length_c   8.20404350
_cell_angle_alpha   89.23795058
_cell_angle_beta   89.23795308
_cell_angle_gamma   120.27746903
_symmetry_Int_Tables_number   1
_chemical_formula_structural   K5BaTaAs4
_chemical_formula_sum   'K10 Ba2 Ta2 As8'
_cell_volume   779.92086475
_cell_formula_units_Z   2
loop_
 _symmetry_equiv_pos_site_id
 _symmetry_equiv_pos_as_xyz
  1  'x, y, z'
loop_
 _atom_site_type_symbol
 _atom_site_label
 _atom_site_symmetry_multiplicity
 _atom_site_fract_x
 _atom_site_fract_y
 _atom_site_fract_z
 _atom_site_occupancy
  K  K0  1  0.466139  0.527275  0.610420  1
  K  K1  1  0.060176  0.527903  0.610301  1
  K  K2  1  0.527275  0.466139  0.110420  1
  K  K3  1  0.527903  0.060176  0.110301  1
  K  K4  1  0.863404  0.142914  0.783929  1
  K  K5  1  0.294207  0.153845  0.810360  1
  K  K6  1  0.852627  0.712286  0.770053  1
  K  K7  1  0.142914  0.863404  0.283929  1
  K  K8  1  0.712286  0.852627  0.270053  1
  K  K9  1  0.153845  0.294207  0.310360  1
  Ba  Ba10  1  0.464975  0.934603  0.604474  1
  Ba  Ba11  1  0.934603  0.464975  0.104474  1
  Ta  Ta12  1  0.668331  0.333283  0.502278  1
  Ta  Ta13  1  0.333283  0.668331  0.002278  1
  As  As14  1  0.678398  0.334775  0.808148  1
  As  As15  1  0.334775  0.678398  0.308148  1
  As  As16  1  0.198603  0.795921  0.898882  1
  As  As17  1  0.592199  0.799638  0.888533  1
  As  As18  1  0.195604  0.402893  0.919822  1
  As  As19  1  0.795921  0.198603  0.398882  1
  As  As20  1  0.402893  0.195604  0.419822  1
  As  As21  1  0.799638  0.592199  0.388533  1
