# generated using pymatgen
data_Bi2IrRhO7
_symmetry_space_group_name_H-M   'P 1'
_cell_length_a   7.36942162
_cell_length_b   7.38638152
_cell_length_c   7.36942150
_cell_angle_alpha   59.92384404
_cell_angle_beta   59.85184281
_cell_angle_gamma   59.92384208
_symmetry_Int_Tables_number   1
_chemical_formula_structural   Bi2IrRhO7
_chemical_formula_sum   'Bi4 Ir2 Rh2 O14'
_cell_volume   283.00567131
_cell_formula_units_Z   2
loop_
 _symmetry_equiv_pos_site_id
 _symmetry_equiv_pos_as_xyz
  1  'x, y, z'
loop_
 _atom_site_type_symbol
 _atom_site_label
 _atom_site_symmetry_multiplicity
 _atom_site_fract_x
 _atom_site_fract_y
 _atom_site_fract_z
 _atom_site_occupancy
  Bi  Bi0  1  0.125000  0.125000  0.125000  1
  Bi  Bi1  1  0.125000  0.625000  0.125000  1
  Bi  Bi2  1  0.625000  0.125000  0.125000  1
  Bi  Bi3  1  0.125000  0.125000  0.625000  1
  Ir  Ir4  1  0.625000  0.625000  0.125000  1
  Ir  Ir5  1  0.125000  0.625000  0.625000  1
  Rh  Rh6  1  0.625000  0.625000  0.625000  1
  Rh  Rh7  1  0.625000  0.125000  0.625000  1
  O  O8  1  0.248930  0.251070  0.248930  1
  O  O9  1  0.294714  0.705286  0.294714  1
  O  O10  1  0.959810  0.953529  0.542333  1
  O  O11  1  0.541532  0.958468  0.541532  1
  O  O12  1  0.707667  0.705672  0.290190  1
  O  O13  1  0.959810  0.544328  0.542333  1
  O  O14  1  0.708468  0.291532  0.708468  1
  O  O15  1  0.290190  0.296471  0.707667  1
  O  O16  1  0.707667  0.296471  0.290190  1
  O  O17  1  0.290190  0.705672  0.707667  1
  O  O18  1  0.955286  0.544714  0.955286  1
  O  O19  1  0.542333  0.544328  0.959810  1
  O  O20  1  0.001070  0.998930  0.001070  1
  O  O21  1  0.542333  0.953529  0.959810  1
