# generated using pymatgen
data_KNd6RuI12
_symmetry_space_group_name_H-M   'P 1'
_cell_length_a   10.09201023
_cell_length_b   10.09201001
_cell_length_c   10.09200994
_cell_angle_alpha   105.98144536
_cell_angle_beta   105.98144684
_cell_angle_gamma   105.98143352
_symmetry_Int_Tables_number   1
_chemical_formula_structural   KNd6RuI12
_chemical_formula_sum   'K1 Nd6 Ru1 I12'
_cell_volume   878.71016682
_cell_formula_units_Z   1
loop_
 _symmetry_equiv_pos_site_id
 _symmetry_equiv_pos_as_xyz
  1  'x, y, z'
loop_
 _atom_site_type_symbol
 _atom_site_label
 _atom_site_symmetry_multiplicity
 _atom_site_fract_x
 _atom_site_fract_y
 _atom_site_fract_z
 _atom_site_occupancy
  K  K0  1  0.500000  0.500000  0.500000  1
  Nd  Nd1  1  0.903169  0.699725  0.976610  1
  Nd  Nd2  1  0.976610  0.903169  0.699725  1
  Nd  Nd3  1  0.699725  0.976610  0.903169  1
  Nd  Nd4  1  0.096831  0.300275  0.023390  1
  Nd  Nd5  1  0.023390  0.096831  0.300275  1
  Nd  Nd6  1  0.300275  0.023390  0.096831  1
  Ru  Ru7  1  0.000000  0.000000  0.000000  1
  I  I8  1  0.641578  0.876922  0.559449  1
  I  I9  1  0.559449  0.641578  0.876922  1
  I  I10  1  0.876922  0.559449  0.641578  1
  I  I11  1  0.358422  0.123078  0.440551  1
  I  I12  1  0.440551  0.358422  0.123078  1
  I  I13  1  0.123078  0.440551  0.358422  1
  I  I14  1  0.681808  0.075796  0.223756  1
  I  I15  1  0.223756  0.681808  0.075796  1
  I  I16  1  0.075796  0.223756  0.681808  1
  I  I17  1  0.318192  0.924204  0.776244  1
  I  I18  1  0.776244  0.318192  0.924204  1
  I  I19  1  0.924204  0.776244  0.318192  1
