# generated using pymatgen
data_AuSeBr5
_symmetry_space_group_name_H-M   'P 1'
_cell_length_a   8.64208155
_cell_length_b   13.33722616
_cell_length_c   9.23819400
_cell_angle_alpha   90.00000000
_cell_angle_beta   90.00000000
_cell_angle_gamma   99.97739765
_symmetry_Int_Tables_number   1
_chemical_formula_structural   AuSeBr5
_chemical_formula_sum   'Au4 Se4 Br20'
_cell_volume   1048.70318460
_cell_formula_units_Z   4
loop_
 _symmetry_equiv_pos_site_id
 _symmetry_equiv_pos_as_xyz
  1  'x, y, z'
loop_
 _atom_site_type_symbol
 _atom_site_label
 _atom_site_symmetry_multiplicity
 _atom_site_fract_x
 _atom_site_fract_y
 _atom_site_fract_z
 _atom_site_occupancy
  Au  Au0  1  0.067594  0.153016  0.171227  1
  Au  Au1  1  0.567594  0.653016  0.328773  1
  Au  Au2  1  0.432405  0.346985  0.671227  1
  Au  Au3  1  0.932405  0.846984  0.828774  1
  Se  Se4  1  0.806867  0.041064  0.217181  1
  Se  Se5  1  0.306867  0.541064  0.282819  1
  Se  Se6  1  0.693132  0.458936  0.717181  1
  Se  Se7  1  0.193133  0.958936  0.782819  1
  Br  Br8  1  0.306693  0.547424  0.028982  1
  Br  Br9  1  0.335647  0.247422  0.114780  1
  Br  Br10  1  0.150754  0.983212  0.158254  1
  Br  Br11  1  0.598827  0.131050  0.164647  1
  Br  Br12  1  0.973903  0.315178  0.198083  1
  Br  Br13  1  0.473903  0.815178  0.301917  1
  Br  Br14  1  0.098827  0.631049  0.335353  1
  Br  Br15  1  0.650754  0.483212  0.341746  1
  Br  Br16  1  0.835646  0.747422  0.385220  1
  Br  Br17  1  0.806693  0.047425  0.471018  1
  Br  Br18  1  0.193308  0.952575  0.528982  1
  Br  Br19  1  0.164353  0.252578  0.614780  1
  Br  Br20  1  0.349246  0.516788  0.658254  1
  Br  Br21  1  0.901173  0.368950  0.664647  1
  Br  Br22  1  0.526097  0.184822  0.698082  1
  Br  Br23  1  0.026097  0.684822  0.801917  1
  Br  Br24  1  0.401173  0.868950  0.835353  1
  Br  Br25  1  0.849246  0.016788  0.841746  1
  Br  Br26  1  0.664354  0.752578  0.885221  1
  Br  Br27  1  0.693308  0.452576  0.971019  1
