# generated using pymatgen
data_Ca4HoEr3(BO4)4
_symmetry_space_group_name_H-M   'P 1'
_cell_length_a   3.59062200
_cell_length_b   9.63438832
_cell_length_c   10.49881734
_cell_angle_alpha   90.02933021
_cell_angle_beta   90.00000000
_cell_angle_gamma   90.00000000
_symmetry_Int_Tables_number   1
_chemical_formula_structural   Ca4HoEr3(BO4)4
_chemical_formula_sum   'Ca4 Ho1 Er3 B4 O16'
_cell_volume   363.19023001
_cell_formula_units_Z   1
loop_
 _symmetry_equiv_pos_site_id
 _symmetry_equiv_pos_as_xyz
  1  'x, y, z'
loop_
 _atom_site_type_symbol
 _atom_site_label
 _atom_site_symmetry_multiplicity
 _atom_site_fract_x
 _atom_site_fract_y
 _atom_site_fract_z
 _atom_site_occupancy
  Ca  Ca0  1  0.250000  0.669977  0.083707  1
  Ca  Ca1  1  0.750000  0.329965  0.916579  1
  Ca  Ca2  1  0.750000  0.169702  0.416071  1
  Ca  Ca3  1  0.250000  0.830249  0.583624  1
  Ho  Ho4  1  0.250000  0.412541  0.611291  1
  Er  Er5  1  0.250000  0.087341  0.111245  1
  Er  Er6  1  0.750000  0.912594  0.888796  1
  Er  Er7  1  0.750000  0.587653  0.388364  1
  B  B8  1  0.250000  0.367721  0.200394  1
  B  B9  1  0.750000  0.632515  0.799924  1
  B  B10  1  0.750000  0.867799  0.299585  1
  B  B11  1  0.250000  0.131867  0.700691  1
  O  O12  1  0.250000  0.499933  0.252706  1
  O  O13  1  0.750000  0.500184  0.747724  1
  O  O14  1  0.750000  0.999883  0.247098  1
  O  O15  1  0.250000  0.999672  0.752858  1
  O  O16  1  0.250000  0.247894  0.275238  1
  O  O17  1  0.750000  0.752032  0.724776  1
  O  O18  1  0.750000  0.748011  0.224568  1
  O  O19  1  0.250000  0.251318  0.776100  1
  O  O20  1  0.250000  0.350581  0.067881  1
  O  O21  1  0.750000  0.649708  0.932357  1
  O  O22  1  0.750000  0.850893  0.432074  1
  O  O23  1  0.250000  0.149182  0.568163  1
  O  O24  1  0.250000  0.613954  0.505253  1
  O  O25  1  0.750000  0.386882  0.492835  1
  O  O26  1  0.750000  0.113135  0.994238  1
  O  O27  1  0.250000  0.886811  0.005858  1
