# generated using pymatgen
data_Sc5(Sn3Os)6
_symmetry_space_group_name_H-M   'P 1'
_cell_length_a   9.75197741
_cell_length_b   9.75197727
_cell_length_c   9.75197800
_cell_angle_alpha   59.99999753
_cell_angle_beta   59.99999799
_cell_angle_gamma   60.00000016
_symmetry_Int_Tables_number   1
_chemical_formula_structural   Sc5(Sn3Os)6
_chemical_formula_sum   'Sc5 Sn18 Os6'
_cell_volume   655.78739937
_cell_formula_units_Z   1
loop_
 _symmetry_equiv_pos_site_id
 _symmetry_equiv_pos_as_xyz
  1  'x, y, z'
loop_
 _atom_site_type_symbol
 _atom_site_label
 _atom_site_symmetry_multiplicity
 _atom_site_fract_x
 _atom_site_fract_y
 _atom_site_fract_z
 _atom_site_occupancy
  Sc  Sc0  1  0.000000  0.000000  0.000000  1
  Sc  Sc1  1  0.373440  0.373441  0.879680  1
  Sc  Sc2  1  0.373441  0.879679  0.373440  1
  Sc  Sc3  1  0.879679  0.373441  0.373440  1
  Sc  Sc4  1  0.373441  0.373440  0.373440  1
  Sn  Sn5  1  0.592119  0.592119  0.223645  1
  Sn  Sn6  1  0.592119  0.223645  0.592119  1
  Sn  Sn7  1  0.223645  0.592119  0.592119  1
  Sn  Sn8  1  0.592119  0.592119  0.592119  1
  Sn  Sn9  1  0.750000  0.750000  0.750000  1
  Sn  Sn10  1  0.998622  0.351445  0.651313  1
  Sn  Sn11  1  0.998622  0.998622  0.651313  1
  Sn  Sn12  1  0.351445  0.998622  0.651313  1
  Sn  Sn13  1  0.998622  0.651313  0.351445  1
  Sn  Sn14  1  0.351445  0.651313  0.998622  1
  Sn  Sn15  1  0.998622  0.651313  0.998622  1
  Sn  Sn16  1  0.651313  0.998622  0.998622  1
  Sn  Sn17  1  0.651313  0.351445  0.998622  1
  Sn  Sn18  1  0.651313  0.998622  0.351445  1
  Sn  Sn19  1  0.351445  0.998622  0.998622  1
  Sn  Sn20  1  0.998622  0.998622  0.351445  1
  Sn  Sn21  1  0.998622  0.351445  0.998622  1
  Sn  Sn22  1  0.250000  0.250000  0.250000  1
  Os  Os23  1  0.258364  0.258364  0.741636  1
  Os  Os24  1  0.741636  0.258364  0.741636  1
  Os  Os25  1  0.258364  0.741636  0.741636  1
  Os  Os26  1  0.741636  0.741636  0.258364  1
  Os  Os27  1  0.258364  0.741636  0.258364  1
  Os  Os28  1  0.741636  0.258364  0.258364  1
