# generated using pymatgen
data_CeNd5H18
_symmetry_space_group_name_H-M   'P 1'
_cell_length_a   6.74189700
_cell_length_b   6.73038775
_cell_length_c   6.97180436
_cell_angle_alpha   90.13364534
_cell_angle_beta   90.00000000
_cell_angle_gamma   120.05658880
_symmetry_Int_Tables_number   1
_chemical_formula_structural   CeNd5H18
_chemical_formula_sum   'Ce1 Nd5 H18'
_cell_volume   273.80950289
_cell_formula_units_Z   1
loop_
 _symmetry_equiv_pos_site_id
 _symmetry_equiv_pos_as_xyz
  1  'x, y, z'
loop_
 _atom_site_type_symbol
 _atom_site_label
 _atom_site_symmetry_multiplicity
 _atom_site_fract_x
 _atom_site_fract_y
 _atom_site_fract_z
 _atom_site_occupancy
  Ce  Ce0  1  0.665026  0.000000  0.250000  1
  Nd  Nd1  1  0.999938  0.663796  0.250109  1
  Nd  Nd2  1  0.336142  0.336204  0.249891  1
  Nd  Nd3  1  0.663809  0.663520  0.750163  1
  Nd  Nd4  1  0.000289  0.336480  0.749837  1
  Nd  Nd5  1  0.335683  0.000000  0.750000  1
  H  H6  1  0.678019  0.657269  0.095453  1
  H  H7  1  0.350377  0.025802  0.094227  1
  H  H8  1  0.972914  0.321054  0.092966  1
  H  H9  1  0.334055  0.666995  0.187142  1
  H  H10  1  0.000692  0.000000  0.250000  1
  H  H11  1  0.667061  0.333005  0.312858  1
  H  H12  1  0.020750  0.342731  0.404547  1
  H  H13  1  0.324575  0.974198  0.405773  1
  H  H14  1  0.651859  0.678946  0.407034  1
  H  H15  1  0.677664  0.027451  0.591284  1
  H  H16  1  0.348740  0.322020  0.592988  1
  H  H17  1  0.973412  0.651078  0.593110  1
  H  H18  1  0.333615  0.666999  0.685020  1
  H  H19  1  0.999496  0.000000  0.750000  1
  H  H20  1  0.666617  0.333001  0.814980  1
  H  H21  1  0.026720  0.677980  0.907012  1
  H  H22  1  0.650213  0.972549  0.908716  1
  H  H23  1  0.322334  0.348922  0.906890  1
