# generated using pymatgen
data_Ce(Th2Os)3
_symmetry_space_group_name_H-M   'P 1'
_cell_length_a   10.02426000
_cell_length_b   10.00095671
_cell_length_c   6.30130402
_cell_angle_alpha   89.99178967
_cell_angle_beta   90.00000000
_cell_angle_gamma   120.07710927
_symmetry_Int_Tables_number   1
_chemical_formula_structural   Ce(Th2Os)3
_chemical_formula_sum   'Ce2 Th12 Os6'
_cell_volume   546.65957049
_cell_formula_units_Z   2
loop_
 _symmetry_equiv_pos_site_id
 _symmetry_equiv_pos_as_xyz
  1  'x, y, z'
loop_
 _atom_site_type_symbol
 _atom_site_label
 _atom_site_symmetry_multiplicity
 _atom_site_fract_x
 _atom_site_fract_y
 _atom_site_fract_z
 _atom_site_occupancy
  Ce  Ce0  1  0.460973  0.538888  0.302870  1
  Ce  Ce1  1  0.077914  0.538888  0.302870  1
  Th  Th2  1  0.924287  0.462595  0.799498  1
  Th  Th3  1  0.253384  0.126974  0.506652  1
  Th  Th4  1  0.539841  0.079682  0.796778  1
  Th  Th5  1  0.746046  0.872635  0.007260  1
  Th  Th6  1  0.667467  0.334934  0.283278  1
  Th  Th7  1  0.126589  0.872635  0.007260  1
  Th  Th8  1  0.459973  0.919947  0.297614  1
  Th  Th9  1  0.538308  0.462595  0.799498  1
  Th  Th10  1  0.873590  0.126974  0.506652  1
  Th  Th11  1  0.127717  0.255434  0.009551  1
  Th  Th12  1  0.873934  0.747867  0.505747  1
  Th  Th13  1  0.333445  0.666891  0.784610  1
  Os  Os14  1  0.813430  0.626860  0.046584  1
  Os  Os15  1  0.812666  0.186195  0.045923  1
  Os  Os16  1  0.624852  0.809773  0.546268  1
  Os  Os17  1  0.373529  0.186195  0.045923  1
  Os  Os18  1  0.187133  0.374266  0.542895  1
  Os  Os19  1  0.184920  0.809773  0.546268  1
