# generated using pymatgen
data_NdSm2BiO7
_symmetry_space_group_name_H-M   'P 1'
_cell_length_a   6.70663194
_cell_length_b   6.71341926
_cell_length_c   7.89782166
_cell_angle_alpha   106.93886217
_cell_angle_beta   89.83120417
_cell_angle_gamma   98.57715349
_symmetry_Int_Tables_number   1
_chemical_formula_structural   NdSm2BiO7
_chemical_formula_sum   'Nd2 Sm4 Bi2 O14'
_cell_volume   336.05486456
_cell_formula_units_Z   2
loop_
 _symmetry_equiv_pos_site_id
 _symmetry_equiv_pos_as_xyz
  1  'x, y, z'
loop_
 _atom_site_type_symbol
 _atom_site_label
 _atom_site_symmetry_multiplicity
 _atom_site_fract_x
 _atom_site_fract_y
 _atom_site_fract_z
 _atom_site_occupancy
  Nd  Nd0  1  0.738877  0.479834  0.616139  1
  Nd  Nd1  1  0.261123  0.520166  0.383861  1
  Sm  Sm2  1  0.461577  0.004257  0.251770  1
  Sm  Sm3  1  0.538423  0.995743  0.748230  1
  Sm  Sm4  1  0.269840  0.536828  0.883322  1
  Sm  Sm5  1  0.730160  0.463172  0.116678  1
  Bi  Bi6  1  0.000000  0.000000  0.500000  1
  Bi  Bi7  1  0.000000  0.000000  0.000000  1
  O  O8  1  0.445114  0.646405  0.164418  1
  O  O9  1  0.554886  0.353595  0.835582  1
  O  O10  1  0.298267  0.925400  0.953551  1
  O  O11  1  0.701733  0.074600  0.046449  1
  O  O12  1  0.295379  0.927137  0.511804  1
  O  O13  1  0.704621  0.072863  0.488196  1
  O  O14  1  0.548881  0.362278  0.342902  1
  O  O15  1  0.451119  0.637722  0.657098  1
  O  O16  1  0.926191  0.671182  0.957607  1
  O  O17  1  0.073809  0.328818  0.042393  1
  O  O18  1  0.073648  0.339858  0.618741  1
  O  O19  1  0.926352  0.660142  0.381259  1
  O  O20  1  0.882779  0.909580  0.726766  1
  O  O21  1  0.117221  0.090420  0.273234  1
