# generated using pymatgen
data_Sc4Al24Pt8Au
_symmetry_space_group_name_H-M   'P 1'
_cell_length_a   7.48246628
_cell_length_b   7.49664330
_cell_length_c   13.04489171
_cell_angle_alpha   84.60177925
_cell_angle_beta   79.04791241
_cell_angle_gamma   59.90076103
_symmetry_Int_Tables_number   1
_chemical_formula_structural   Sc4Al24Pt8Au
_chemical_formula_sum   'Sc4 Al24 Pt8 Au1'
_cell_volume   621.53292537
_cell_formula_units_Z   1
loop_
 _symmetry_equiv_pos_site_id
 _symmetry_equiv_pos_as_xyz
  1  'x, y, z'
loop_
 _atom_site_type_symbol
 _atom_site_label
 _atom_site_symmetry_multiplicity
 _atom_site_fract_x
 _atom_site_fract_y
 _atom_site_fract_z
 _atom_site_occupancy
  Sc  Sc0  1  0.392094  0.169741  0.809702  1
  Sc  Sc1  1  0.606051  0.831465  0.192050  1
  Sc  Sc2  1  0.734080  0.499573  0.809517  1
  Sc  Sc3  1  0.267063  0.500395  0.191230  1
  Al  Al4  1  0.680981  0.834128  0.942944  1
  Al  Al5  1  0.318190  0.166180  0.058520  1
  Al  Al6  1  0.146390  0.839520  0.561138  1
  Al  Al7  1  0.854795  0.167054  0.435040  1
  Al  Al8  1  0.488793  0.159005  0.558479  1
  Al  Al9  1  0.520281  0.833522  0.438493  1
  Al  Al10  1  0.222480  0.165303  0.322418  1
  Al  Al11  1  0.772003  0.838985  0.680375  1
  Al  Al12  1  0.441307  0.503667  0.680708  1
  Al  Al13  1  0.562255  0.496155  0.322018  1
  Al  Al14  1  0.106831  0.158155  0.678407  1
  Al  Al15  1  0.892593  0.836825  0.323011  1
  Al  Al16  1  0.357235  0.495926  0.942682  1
  Al  Al17  1  0.642986  0.504092  0.058614  1
  Al  Al18  1  0.016479  0.170517  0.950142  1
  Al  Al19  1  0.982818  0.829157  0.051607  1
  Al  Al20  1  0.188412  0.499655  0.434900  1
  Al  Al21  1  0.806011  0.499877  0.558441  1
  Al  Al22  1  0.730374  0.163899  0.182837  1
  Al  Al23  1  0.270642  0.835754  0.817402  1
  Al  Al24  1  0.060307  0.629806  0.818254  1
  Al  Al25  1  0.938948  0.372573  0.184031  1
  Al  Al26  1  0.849629  0.046858  0.816773  1
  Al  Al27  1  0.149077  0.953924  0.183363  1
  Pt  Pt28  1  0.879453  0.508928  0.360505  1
  Pt  Pt29  1  0.657787  0.171193  0.999580  1
  Pt  Pt30  1  0.342347  0.828641  0.999944  1
  Pt  Pt31  1  0.537544  0.166561  0.360595  1
  Pt  Pt32  1  0.462438  0.833121  0.638664  1
  Pt  Pt33  1  0.779236  0.175040  0.637075  1
  Pt  Pt34  1  0.221457  0.824474  0.362005  1
  Pt  Pt35  1  0.000002  0.499941  0.000327  1
  Au  Au36  1  0.120633  0.490386  0.638218  1
