# generated using pymatgen
data_YbSmDy2Ni13C4
_symmetry_space_group_name_H-M   'P 1'
_cell_length_a   8.36180888
_cell_length_b   8.36421685
_cell_length_c   3.85766800
_cell_angle_alpha   90.00000000
_cell_angle_beta   90.00000000
_cell_angle_gamma   90.85376233
_symmetry_Int_Tables_number   1
_chemical_formula_structural   YbSmDy2Ni13C4
_chemical_formula_sum   'Yb1 Sm1 Dy2 Ni13 C4'
_cell_volume   269.77528020
_cell_formula_units_Z   1
loop_
 _symmetry_equiv_pos_site_id
 _symmetry_equiv_pos_as_xyz
  1  'x, y, z'
loop_
 _atom_site_type_symbol
 _atom_site_label
 _atom_site_symmetry_multiplicity
 _atom_site_fract_x
 _atom_site_fract_y
 _atom_site_fract_z
 _atom_site_occupancy
  Yb  Yb0  1  0.192158  0.807437  0.500000  1
  Sm  Sm1  1  0.345616  0.348739  0.500000  1
  Dy  Dy2  1  0.812910  0.187020  0.500000  1
  Dy  Dy3  1  0.651293  0.654286  0.500000  1
  Ni  Ni4  1  0.999717  0.998154  0.000000  1
  Ni  Ni5  1  0.215760  0.572451  0.000000  1
  Ni  Ni6  1  0.785508  0.431518  0.000000  1
  Ni  Ni7  1  0.429653  0.785985  0.000000  1
  Ni  Ni8  1  0.570141  0.216104  0.000000  1
  Ni  Ni9  1  0.993918  0.503918  0.500000  1
  Ni  Ni10  1  0.500834  0.999690  0.500000  1
  Ni  Ni11  1  0.070518  0.289130  0.000000  1
  Ni  Ni12  1  0.924867  0.709650  0.000000  1
  Ni  Ni13  1  0.709448  0.926930  0.000000  1
  Ni  Ni14  1  0.288722  0.072068  0.000000  1
  Ni  Ni15  1  0.122801  0.114345  0.500000  1
  Ni  Ni16  1  0.882597  0.874583  0.500000  1
  C  C17  1  0.002022  0.501210  0.000000  1
  C  C18  1  0.498519  0.001062  0.000000  1
  C  C19  1  0.444452  0.560010  0.000000  1
  C  C20  1  0.558546  0.445711  0.000000  1
