# generated using pymatgen
data_Y6AlNiOs
_symmetry_space_group_name_H-M   'P 1'
_cell_length_a   8.42172022
_cell_length_b   8.42172015
_cell_length_c   8.42171987
_cell_angle_alpha   112.74862762
_cell_angle_beta   110.58300738
_cell_angle_gamma   105.17374875
_symmetry_Int_Tables_number   1
_chemical_formula_structural   Y6AlNiOs
_chemical_formula_sum   'Y12 Al2 Ni2 Os2'
_cell_volume   457.71378006
_cell_formula_units_Z   2
loop_
 _symmetry_equiv_pos_site_id
 _symmetry_equiv_pos_as_xyz
  1  'x, y, z'
loop_
 _atom_site_type_symbol
 _atom_site_label
 _atom_site_symmetry_multiplicity
 _atom_site_fract_x
 _atom_site_fract_y
 _atom_site_fract_z
 _atom_site_occupancy
  Y  Y0  1  0.435318  0.241784  0.193534  1
  Y  Y1  1  0.564682  0.758216  0.806466  1
  Y  Y2  1  0.048251  0.241784  0.806466  1
  Y  Y3  1  0.951749  0.758216  0.193534  1
  Y  Y4  1  0.180707  0.278899  0.459606  1
  Y  Y5  1  0.819293  0.721101  0.540394  1
  Y  Y6  1  0.180707  0.721101  0.901809  1
  Y  Y7  1  0.819293  0.278899  0.098191  1
  Y  Y8  1  0.330647  0.643691  0.313044  1
  Y  Y9  1  0.669353  0.356309  0.686956  1
  Y  Y10  1  0.330647  0.017602  0.686956  1
  Y  Y11  1  0.669353  0.982398  0.313044  1
  Al  Al12  1  0.500000  0.500000  0.000000  1
  Al  Al13  1  0.000000  0.000000  0.000000  1
  Ni  Ni14  1  0.115598  0.615598  0.500000  1
  Ni  Ni15  1  0.884402  0.384402  0.500000  1
  Os  Os16  1  0.325474  0.000000  0.325474  1
  Os  Os17  1  0.674526  0.000000  0.674526  1
