# generated using pymatgen
data_Dy9Er(Bi2Pt)2
_symmetry_space_group_name_H-M   'P 1'
_cell_length_a   8.07399498
_cell_length_b   9.04380625
_cell_length_c   12.43111543
_cell_angle_alpha   89.98350422
_cell_angle_beta   90.05239146
_cell_angle_gamma   89.97901136
_symmetry_Int_Tables_number   1
_chemical_formula_structural   Dy9Er(Bi2Pt)2
_chemical_formula_sum   'Dy18 Er2 Bi8 Pt4'
_cell_volume   907.71517260
_cell_formula_units_Z   2
loop_
 _symmetry_equiv_pos_site_id
 _symmetry_equiv_pos_as_xyz
  1  'x, y, z'
loop_
 _atom_site_type_symbol
 _atom_site_label
 _atom_site_symmetry_multiplicity
 _atom_site_fract_x
 _atom_site_fract_y
 _atom_site_fract_z
 _atom_site_occupancy
  Dy  Dy0  1  0.838415  0.750072  0.790337  1
  Dy  Dy1  1  0.161585  0.249928  0.209663  1
  Dy  Dy2  1  0.338733  0.249860  0.709444  1
  Dy  Dy3  1  0.661267  0.750140  0.290556  1
  Dy  Dy4  1  0.371439  0.750204  0.697164  1
  Dy  Dy5  1  0.628561  0.249796  0.302836  1
  Dy  Dy6  1  0.871234  0.249927  0.802531  1
  Dy  Dy7  1  0.128766  0.750073  0.197469  1
  Dy  Dy8  1  0.949765  0.750286  0.499976  1
  Dy  Dy9  1  0.050235  0.249714  0.500024  1
  Dy  Dy10  1  0.449962  0.250004  0.000026  1
  Dy  Dy11  1  0.550038  0.749996  0.999974  1
  Dy  Dy12  1  0.179376  0.954105  0.933192  1
  Dy  Dy13  1  0.320703  0.545917  0.433249  1
  Dy  Dy14  1  0.820624  0.045895  0.066808  1
  Dy  Dy15  1  0.679297  0.454083  0.566751  1
  Dy  Dy16  1  0.820636  0.454104  0.066785  1
  Dy  Dy17  1  0.179364  0.545896  0.933215  1
  Er  Er18  1  0.677893  0.045941  0.566430  1
  Er  Er19  1  0.322107  0.954059  0.433570  1
  Bi  Bi20  1  0.568869  0.491163  0.827306  1
  Bi  Bi21  1  0.431131  0.508837  0.172694  1
  Bi  Bi22  1  0.068857  0.508827  0.672654  1
  Bi  Bi23  1  0.431053  0.991128  0.172796  1
  Bi  Bi24  1  0.931143  0.491173  0.327346  1
  Bi  Bi25  1  0.568947  0.008872  0.827204  1
  Bi  Bi26  1  0.931543  0.008819  0.327440  1
  Bi  Bi27  1  0.068457  0.991181  0.672560  1
  Pt  Pt28  1  0.574737  0.751058  0.511360  1
  Pt  Pt29  1  0.425263  0.248942  0.488640  1
  Pt  Pt30  1  0.074882  0.250004  0.988535  1
  Pt  Pt31  1  0.925118  0.749996  0.011465  1
