# generated using pymatgen
data_PrNd(Ho2Rh9)2
_symmetry_space_group_name_H-M   'P 1'
_cell_length_a   5.30236100
_cell_length_b   5.30236047
_cell_length_c   17.51474900
_cell_angle_alpha   90.00000000
_cell_angle_beta   90.00000000
_cell_angle_gamma   119.99999708
_symmetry_Int_Tables_number   1
_chemical_formula_structural   PrNd(Ho2Rh9)2
_chemical_formula_sum   'Pr1 Nd1 Ho4 Rh18'
_cell_volume   426.45489487
_cell_formula_units_Z   1
loop_
 _symmetry_equiv_pos_site_id
 _symmetry_equiv_pos_as_xyz
  1  'x, y, z'
loop_
 _atom_site_type_symbol
 _atom_site_label
 _atom_site_symmetry_multiplicity
 _atom_site_fract_x
 _atom_site_fract_y
 _atom_site_fract_z
 _atom_site_occupancy
  Pr  Pr0  1  0.333333  0.666667  0.750000  1
  Nd  Nd1  1  0.666667  0.333333  0.250000  1
  Ho  Ho2  1  0.333333  0.666667  0.542078  1
  Ho  Ho3  1  0.666667  0.333333  0.041249  1
  Ho  Ho4  1  0.666667  0.333333  0.458751  1
  Ho  Ho5  1  0.333333  0.666667  0.957922  1
  Rh  Rh6  1  0.167407  0.334813  0.124673  1
  Rh  Rh7  1  0.832647  0.665295  0.625251  1
  Rh  Rh8  1  0.665187  0.832593  0.124673  1
  Rh  Rh9  1  0.167407  0.832593  0.124673  1
  Rh  Rh10  1  0.832647  0.167353  0.625251  1
  Rh  Rh11  1  0.334705  0.167353  0.625251  1
  Rh  Rh12  1  0.832647  0.665295  0.874749  1
  Rh  Rh13  1  0.832647  0.167353  0.874749  1
  Rh  Rh14  1  0.334705  0.167353  0.874749  1
  Rh  Rh15  1  0.665187  0.832593  0.375327  1
  Rh  Rh16  1  0.167407  0.832593  0.375327  1
  Rh  Rh17  1  0.167407  0.334813  0.375327  1
  Rh  Rh18  1  0.000000  0.000000  0.250000  1
  Rh  Rh19  1  0.000000  0.000000  0.750000  1
  Rh  Rh20  1  0.333333  0.666667  0.250000  1
  Rh  Rh21  1  0.666667  0.333333  0.750000  1
  Rh  Rh22  1  0.000000  0.000000  0.999625  1
  Rh  Rh23  1  0.000000  0.000000  0.500375  1
