# generated using pymatgen
data_La3HgPd3Au2
_symmetry_space_group_name_H-M   'P 1'
_cell_length_a   7.80761631
_cell_length_b   7.69886417
_cell_length_c   4.03935400
_cell_angle_alpha   90.00000000
_cell_angle_beta   90.00000000
_cell_angle_gamma   119.54029200
_symmetry_Int_Tables_number   1
_chemical_formula_structural   La3HgPd3Au2
_chemical_formula_sum   'La3 Hg1 Pd3 Au2'
_cell_volume   211.24229534
_cell_formula_units_Z   1
loop_
 _symmetry_equiv_pos_site_id
 _symmetry_equiv_pos_as_xyz
  1  'x, y, z'
loop_
 _atom_site_type_symbol
 _atom_site_label
 _atom_site_symmetry_multiplicity
 _atom_site_fract_x
 _atom_site_fract_y
 _atom_site_fract_z
 _atom_site_occupancy
  La  La0  1  0.403562  0.394920  0.500000  1
  La  La1  1  0.596438  0.991358  0.500000  1
  La  La2  1  0.000000  0.620173  0.500000  1
  Hg  Hg3  1  0.000000  0.260381  0.000000  1
  Pd  Pd4  1  0.666841  0.330450  0.000000  1
  Pd  Pd5  1  0.333159  0.663611  0.000000  1
  Pd  Pd6  1  0.000000  0.002228  0.500000  1
  Au  Au7  1  0.736566  0.736723  0.000000  1
  Au  Au8  1  0.263434  0.000157  0.000000  1
