# generated using pymatgen
data_Sc2SeBr2
_symmetry_space_group_name_H-M   'P 1'
_cell_length_a   3.88326800
_cell_length_b   3.88326823
_cell_length_c   10.62737600
_cell_angle_alpha   90.00000000
_cell_angle_beta   90.00000000
_cell_angle_gamma   119.99999806
_symmetry_Int_Tables_number   1
_chemical_formula_structural   Sc2SeBr2
_chemical_formula_sum   'Sc2 Se1 Br2'
_cell_volume   138.78784739
_cell_formula_units_Z   1
loop_
 _symmetry_equiv_pos_site_id
 _symmetry_equiv_pos_as_xyz
  1  'x, y, z'
loop_
 _atom_site_type_symbol
 _atom_site_label
 _atom_site_symmetry_multiplicity
 _atom_site_fract_x
 _atom_site_fract_y
 _atom_site_fract_z
 _atom_site_occupancy
  Sc  Sc0  1  0.666667  0.333333  0.636278  1
  Sc  Sc1  1  0.333333  0.666667  0.363722  1
  Se  Se2  1  0.000000  0.000000  0.500000  1
  Br  Br3  1  0.666667  0.333333  0.203299  1
  Br  Br4  1  0.333333  0.666667  0.796701  1
