# generated using pymatgen
data_Ba2V3Fe3(PO4)6
_symmetry_space_group_name_H-M   'P 1'
_cell_length_a   9.33222780
_cell_length_b   9.33222736
_cell_length_c   9.33667389
_cell_angle_alpha   137.65160166
_cell_angle_beta   110.12059948
_cell_angle_gamma   85.20587284
_symmetry_Int_Tables_number   1
_chemical_formula_structural   Ba2V3Fe3(PO4)6
_chemical_formula_sum   'Ba2 V3 Fe3 P6 O24'
_cell_volume   495.25458563
_cell_formula_units_Z   1
loop_
 _symmetry_equiv_pos_site_id
 _symmetry_equiv_pos_as_xyz
  1  'x, y, z'
loop_
 _atom_site_type_symbol
 _atom_site_label
 _atom_site_symmetry_multiplicity
 _atom_site_fract_x
 _atom_site_fract_y
 _atom_site_fract_z
 _atom_site_occupancy
  Ba  Ba0  1  0.748779  0.141065  0.390979  1
  Ba  Ba1  1  0.250085  0.857799  0.609021  1
  V  V2  1  0.999945  0.000076  0.000316  1
  V  V3  1  0.499760  0.499629  0.999684  1
  V  V4  1  0.381517  0.381517  0.500000  1
  Fe  Fe5  1  0.617921  0.617921  0.500000  1
  Fe  Fe6  1  0.882336  0.382336  0.000000  1
  Fe  Fe7  1  0.117735  0.617735  0.000000  1
  P  P8  1  0.821902  0.821902  0.500000  1
  P  P9  1  0.678220  0.178220  0.000000  1
  P  P10  1  0.321831  0.821831  0.000000  1
  P  P11  1  0.177791  0.177791  0.500000  1
  P  P12  1  0.750671  0.648811  0.899078  1
  P  P13  1  0.249733  0.351593  0.100922  1
  O  O14  1  0.633512  0.510801  0.643406  1
  O  O15  1  0.132451  0.490886  0.123274  1
  O  O16  1  0.367396  0.490108  0.356594  1
  O  O17  1  0.867611  0.509177  0.876726  1
  O  O18  1  0.157420  0.129646  0.972256  1
  O  O19  1  0.843358  0.871479  0.029554  1
  O  O20  1  0.657389  0.685164  0.027744  1
  O  O21  1  0.341926  0.313804  0.970446  1
  O  O22  1  0.859888  0.794366  0.657014  1
  O  O23  1  0.862784  0.205840  0.065372  1
  O  O24  1  0.359254  0.701794  0.064668  1
  O  O25  1  0.362781  0.297025  0.656801  1
  O  O26  1  0.140225  0.205979  0.343199  1
  O  O27  1  0.137124  0.794586  0.935332  1
  O  O28  1  0.640468  0.297411  0.934628  1
  O  O29  1  0.637351  0.702874  0.342986  1
  O  O30  1  0.847792  0.065405  0.646913  1
  O  O31  1  0.581704  0.934902  0.782542  1
  O  O32  1  0.347459  0.703106  0.783800  1
  O  O33  1  0.081469  0.298983  0.646731  1
  O  O34  1  0.152252  0.934737  0.353269  1
  O  O35  1  0.419306  0.063660  0.216200  1
  O  O36  1  0.652361  0.299162  0.217458  1
  O  O37  1  0.918491  0.700878  0.353087  1
