# generated using pymatgen
data_Dy6Al16IrOs6
_symmetry_space_group_name_H-M   'P 1'
_cell_length_a   8.94655397
_cell_length_b   8.94655401
_cell_length_c   8.94655400
_cell_angle_alpha   60.00000002
_cell_angle_beta   59.99999987
_cell_angle_gamma   60.00000434
_symmetry_Int_Tables_number   1
_chemical_formula_structural   Dy6Al16IrOs6
_chemical_formula_sum   'Dy6 Al16 Ir1 Os6'
_cell_volume   506.35182251
_cell_formula_units_Z   1
loop_
 _symmetry_equiv_pos_site_id
 _symmetry_equiv_pos_as_xyz
  1  'x, y, z'
loop_
 _atom_site_type_symbol
 _atom_site_label
 _atom_site_symmetry_multiplicity
 _atom_site_fract_x
 _atom_site_fract_y
 _atom_site_fract_z
 _atom_site_occupancy
  Dy  Dy0  1  0.212304  0.787696  0.787696  1
  Dy  Dy1  1  0.787696  0.212304  0.212304  1
  Dy  Dy2  1  0.787696  0.212304  0.787696  1
  Dy  Dy3  1  0.787696  0.787696  0.212304  1
  Dy  Dy4  1  0.212304  0.787696  0.212304  1
  Dy  Dy5  1  0.212304  0.212304  0.787696  1
  Al  Al6  1  0.833105  0.833105  0.833105  1
  Al  Al7  1  0.833105  0.833105  0.500686  1
  Al  Al8  1  0.500686  0.833105  0.833105  1
  Al  Al9  1  0.833105  0.500686  0.833105  1
  Al  Al10  1  0.166895  0.166895  0.166895  1
  Al  Al11  1  0.166895  0.166895  0.499314  1
  Al  Al12  1  0.166895  0.499314  0.166895  1
  Al  Al13  1  0.499314  0.166895  0.166895  1
  Al  Al14  1  0.622103  0.622103  0.622103  1
  Al  Al15  1  0.622103  0.622103  0.133689  1
  Al  Al16  1  0.133689  0.622103  0.622103  1
  Al  Al17  1  0.622103  0.133689  0.622103  1
  Al  Al18  1  0.377897  0.377897  0.377897  1
  Al  Al19  1  0.377897  0.377897  0.866311  1
  Al  Al20  1  0.377897  0.866311  0.377897  1
  Al  Al21  1  0.866311  0.377897  0.377897  1
  Ir  Ir22  1  0.500000  0.500000  0.500000  1
  Os  Os23  1  0.000000  0.500000  0.500000  1
  Os  Os24  1  0.500000  0.000000  0.000000  1
  Os  Os25  1  0.500000  0.000000  0.500000  1
  Os  Os26  1  0.500000  0.500000  0.000000  1
  Os  Os27  1  0.000000  0.500000  0.000000  1
  Os  Os28  1  0.000000  0.000000  0.500000  1
