# generated using pymatgen
data_Sm2Gd4Si3Ag
_symmetry_space_group_name_H-M   'P 1'
_cell_length_a   7.70054600
_cell_length_b   7.70054546
_cell_length_c   4.27681500
_cell_angle_alpha   90.00000000
_cell_angle_beta   90.00000000
_cell_angle_gamma   87.06189423
_symmetry_Int_Tables_number   1
_chemical_formula_structural   Sm2Gd4Si3Ag
_chemical_formula_sum   'Sm2 Gd4 Si3 Ag1'
_cell_volume   253.27493483
_cell_formula_units_Z   1
loop_
 _symmetry_equiv_pos_site_id
 _symmetry_equiv_pos_as_xyz
  1  'x, y, z'
loop_
 _atom_site_type_symbol
 _atom_site_label
 _atom_site_symmetry_multiplicity
 _atom_site_fract_x
 _atom_site_fract_y
 _atom_site_fract_z
 _atom_site_occupancy
  Sm  Sm0  1  0.171382  0.312553  0.500000  1
  Sm  Sm1  1  0.812553  0.671382  0.500000  1
  Gd  Gd2  1  0.501698  0.507130  0.000000  1
  Gd  Gd3  1  0.007130  0.001698  0.000000  1
  Gd  Gd4  1  0.675104  0.175104  0.500000  1
  Gd  Gd5  1  0.342403  0.842403  0.500000  1
  Si  Si6  1  0.868814  0.368814  0.000000  1
  Si  Si7  1  0.619158  0.886628  0.000000  1
  Si  Si8  1  0.386628  0.119158  0.000000  1
  Ag  Ag9  1  0.115133  0.615133  0.000000  1
