# generated using pymatgen
data_Y7Er(Si4Tc3)4
_symmetry_space_group_name_H-M   'P 1'
_cell_length_a   6.80388892
_cell_length_b   6.80587304
_cell_length_c   12.72061823
_cell_angle_alpha   90.07876768
_cell_angle_beta   89.71273895
_cell_angle_gamma   90.00537235
_symmetry_Int_Tables_number   1
_chemical_formula_structural   Y7Er(Si4Tc3)4
_chemical_formula_sum   'Y7 Er1 Si16 Tc12'
_cell_volume   589.03812752
_cell_formula_units_Z   1
loop_
 _symmetry_equiv_pos_site_id
 _symmetry_equiv_pos_as_xyz
  1  'x, y, z'
loop_
 _atom_site_type_symbol
 _atom_site_label
 _atom_site_symmetry_multiplicity
 _atom_site_fract_x
 _atom_site_fract_y
 _atom_site_fract_z
 _atom_site_occupancy
  Y  Y0  1  0.336987  0.997045  0.469689  1
  Y  Y1  1  0.503734  0.838281  0.719514  1
  Y  Y2  1  0.497189  0.162690  0.219459  1
  Y  Y3  1  0.838501  0.504034  0.280530  1
  Y  Y4  1  0.162903  0.497635  0.780327  1
  Y  Y5  1  0.662027  0.003704  0.969423  1
  Y  Y6  1  0.996323  0.337665  0.530618  1
  Er  Er7  1  0.003422  0.661702  0.030117  1
  Si  Si8  1  0.191823  0.113739  0.688407  1
  Si  Si9  1  0.384051  0.692501  0.938514  1
  Si  Si10  1  0.614300  0.307532  0.437542  1
  Si  Si11  1  0.693912  0.384504  0.062190  1
  Si  Si12  1  0.307878  0.613621  0.562039  1
  Si  Si13  1  0.808067  0.883769  0.187103  1
  Si  Si14  1  0.114693  0.192264  0.311567  1
  Si  Si15  1  0.885305  0.807318  0.812876  1
  Si  Si16  1  0.276767  0.975424  0.064788  1
  Si  Si17  1  0.522867  0.777004  0.313662  1
  Si  Si18  1  0.478555  0.226745  0.813863  1
  Si  Si19  1  0.773907  0.520989  0.687346  1
  Si  Si20  1  0.222964  0.477140  0.184746  1
  Si  Si21  1  0.726253  0.020776  0.562821  1
  Si  Si22  1  0.976830  0.278667  0.935894  1
  Si  Si23  1  0.021228  0.726280  0.436689  1
  Tc  Tc24  1  0.333852  0.335757  0.000118  1
  Tc  Tc25  1  0.165473  0.834470  0.249062  1
  Tc  Tc26  1  0.834499  0.166344  0.750463  1
  Tc  Tc27  1  0.665658  0.665918  0.499910  1
  Tc  Tc28  1  0.179820  0.981834  0.875393  1
  Tc  Tc29  1  0.520157  0.680931  0.123255  1
  Tc  Tc30  1  0.480682  0.314641  0.622642  1
  Tc  Tc31  1  0.685654  0.521558  0.879193  1
  Tc  Tc32  1  0.318324  0.482611  0.375209  1
  Tc  Tc33  1  0.814453  0.020358  0.371149  1
  Tc  Tc34  1  0.981558  0.180390  0.125770  1
  Tc  Tc35  1  0.019383  0.814163  0.628112  1
