# generated using pymatgen
data_Sc5GaNiBi
_symmetry_space_group_name_H-M   'P 1'
_cell_length_a   8.09510932
_cell_length_b   8.09510909
_cell_length_c   8.22746293
_cell_angle_alpha   125.41230452
_cell_angle_beta   125.41230055
_cell_angle_gamma   79.75485066
_symmetry_Int_Tables_number   1
_chemical_formula_structural   Sc5GaNiBi
_chemical_formula_sum   'Sc10 Ga2 Ni2 Bi2'
_cell_volume   347.85422602
_cell_formula_units_Z   2
loop_
 _symmetry_equiv_pos_site_id
 _symmetry_equiv_pos_as_xyz
  1  'x, y, z'
loop_
 _atom_site_type_symbol
 _atom_site_label
 _atom_site_symmetry_multiplicity
 _atom_site_fract_x
 _atom_site_fract_y
 _atom_site_fract_z
 _atom_site_occupancy
  Sc  Sc0  1  0.000000  0.000000  0.000000  1
  Sc  Sc1  1  0.500000  0.500000  0.000000  1
  Sc  Sc2  1  0.779312  0.279312  0.789970  1
  Sc  Sc3  1  0.220688  0.720688  0.210030  1
  Sc  Sc4  1  0.489343  0.989343  0.210030  1
  Sc  Sc5  1  0.307365  0.460058  0.500000  1
  Sc  Sc6  1  0.039942  0.192635  0.500000  1
  Sc  Sc7  1  0.510657  0.010657  0.789970  1
  Sc  Sc8  1  0.692635  0.539942  0.500000  1
  Sc  Sc9  1  0.960058  0.807365  0.500000  1
  Ga  Ga10  1  0.137235  0.637235  0.774470  1
  Ga  Ga11  1  0.862765  0.362765  0.225530  1
  Ni  Ni12  1  0.629830  0.870170  0.500000  1
  Ni  Ni13  1  0.370170  0.129830  0.500000  1
  Bi  Bi14  1  0.250000  0.250000  0.000000  1
  Bi  Bi15  1  0.750000  0.750000  0.000000  1
