# generated using pymatgen
data_Tb3LuSc6(Si5Ir2)4
_symmetry_space_group_name_H-M   'P 1'
_cell_length_a   12.48306908
_cell_length_b   12.48306998
_cell_length_c   4.15495800
_cell_angle_alpha   90.00000000
_cell_angle_beta   90.00000000
_cell_angle_gamma   90.10644393
_symmetry_Int_Tables_number   1
_chemical_formula_structural   Tb3LuSc6(Si5Ir2)4
_chemical_formula_sum   'Tb3 Lu1 Sc6 Si20 Ir8'
_cell_volume   647.45362657
_cell_formula_units_Z   1
loop_
 _symmetry_equiv_pos_site_id
 _symmetry_equiv_pos_as_xyz
  1  'x, y, z'
loop_
 _atom_site_type_symbol
 _atom_site_label
 _atom_site_symmetry_multiplicity
 _atom_site_fract_x
 _atom_site_fract_y
 _atom_site_fract_z
 _atom_site_occupancy
  Tb  Tb0  1  0.115675  0.615604  0.500000  1
  Tb  Tb1  1  0.884396  0.384325  0.500000  1
  Tb  Tb2  1  0.615278  0.884722  0.500000  1
  Lu  Lu3  1  0.384534  0.115466  0.500000  1
  Sc  Sc4  1  0.673465  0.174165  0.500000  1
  Sc  Sc5  1  0.325835  0.826535  0.500000  1
  Sc  Sc6  1  0.174744  0.325256  0.500000  1
  Sc  Sc7  1  0.825892  0.674108  0.500000  1
  Sc  Sc8  1  0.000475  0.000003  0.000000  1
  Sc  Sc9  1  0.499997  0.499525  0.000000  1
  Si  Si10  1  0.567176  0.067546  0.000000  1
  Si  Si11  1  0.432454  0.932824  0.000000  1
  Si  Si12  1  0.068084  0.431916  0.000000  1
  Si  Si13  1  0.932215  0.567785  0.000000  1
  Si  Si14  1  0.200350  0.165560  0.000000  1
  Si  Si15  1  0.800345  0.834664  0.000000  1
  Si  Si16  1  0.165837  0.801086  0.000000  1
  Si  Si17  1  0.698914  0.334163  0.000000  1
  Si  Si18  1  0.834302  0.199708  0.000000  1
  Si  Si19  1  0.300292  0.665698  0.000000  1
  Si  Si20  1  0.665336  0.699655  0.000000  1
  Si  Si21  1  0.334440  0.299650  0.000000  1
  Si  Si22  1  0.007730  0.150566  0.500000  1
  Si  Si23  1  0.992879  0.849559  0.500000  1
  Si  Si24  1  0.151851  0.993725  0.500000  1
  Si  Si25  1  0.506275  0.348149  0.500000  1
  Si  Si26  1  0.849175  0.007997  0.500000  1
  Si  Si27  1  0.492003  0.650825  0.500000  1
  Si  Si28  1  0.650441  0.507121  0.500000  1
  Si  Si29  1  0.349434  0.492270  0.500000  1
  Ir  Ir30  1  0.020888  0.243575  0.000000  1
  Ir  Ir31  1  0.979491  0.756407  0.000000  1
  Ir  Ir32  1  0.245582  0.980725  0.000000  1
  Ir  Ir33  1  0.519275  0.254418  0.000000  1
  Ir  Ir34  1  0.755560  0.020634  0.000000  1
  Ir  Ir35  1  0.479366  0.744440  0.000000  1
  Ir  Ir36  1  0.743593  0.520509  0.000000  1
  Ir  Ir37  1  0.256425  0.479112  0.000000  1
