# generated using pymatgen
data_NdFe8P5
_symmetry_space_group_name_H-M   'P 1'
_cell_length_a   3.59187800
_cell_length_b   9.10941500
_cell_length_c   10.56128900
_cell_angle_alpha   90.00000000
_cell_angle_beta   90.00000000
_cell_angle_gamma   90.00000000
_symmetry_Int_Tables_number   1
_chemical_formula_structural   NdFe8P5
_chemical_formula_sum   'Nd2 Fe16 P10'
_cell_volume   345.56439738
_cell_formula_units_Z   2
loop_
 _symmetry_equiv_pos_site_id
 _symmetry_equiv_pos_as_xyz
  1  'x, y, z'
loop_
 _atom_site_type_symbol
 _atom_site_label
 _atom_site_symmetry_multiplicity
 _atom_site_fract_x
 _atom_site_fract_y
 _atom_site_fract_z
 _atom_site_occupancy
  Nd  Nd0  1  0.500000  0.181549  0.500000  1
  Nd  Nd1  1  0.000000  0.818451  0.000000  1
  Fe  Fe2  1  0.000000  0.518702  0.170792  1
  Fe  Fe3  1  0.000000  0.456090  0.500000  1
  Fe  Fe4  1  0.500000  0.890501  0.258938  1
  Fe  Fe5  1  0.500000  0.481298  0.329208  1
  Fe  Fe6  1  0.500000  0.847398  0.500000  1
  Fe  Fe7  1  0.500000  0.307440  0.144207  1
  Fe  Fe8  1  0.500000  0.543910  0.000000  1
  Fe  Fe9  1  0.000000  0.692560  0.644207  1
  Fe  Fe10  1  0.000000  0.152602  0.000000  1
  Fe  Fe11  1  0.000000  0.692560  0.355793  1
  Fe  Fe12  1  0.500000  0.481298  0.670792  1
  Fe  Fe13  1  0.500000  0.307440  0.855793  1
  Fe  Fe14  1  0.000000  0.109499  0.241062  1
  Fe  Fe15  1  0.500000  0.890501  0.741062  1
  Fe  Fe16  1  0.000000  0.518702  0.829208  1
  Fe  Fe17  1  0.000000  0.109499  0.758938  1
  P  P18  1  0.000000  0.338098  0.688789  1
  P  P19  1  0.000000  0.934417  0.380914  1
  P  P20  1  0.000000  0.390170  0.000000  1
  P  P21  1  0.500000  0.661902  0.188789  1
  P  P22  1  0.500000  0.065583  0.119086  1
  P  P23  1  0.500000  0.661902  0.811211  1
  P  P24  1  0.000000  0.934417  0.619086  1
  P  P25  1  0.000000  0.338098  0.311211  1
  P  P26  1  0.500000  0.609830  0.500000  1
  P  P27  1  0.500000  0.065583  0.880914  1
