# generated using pymatgen
data_Ga3Ni2Pt2Rh
_symmetry_space_group_name_H-M   'P 1'
_cell_length_a   5.30711516
_cell_length_b   5.30711420
_cell_length_c   3.92476800
_cell_angle_alpha   90.00000000
_cell_angle_beta   90.00000000
_cell_angle_gamma   96.15623728
_symmetry_Int_Tables_number   1
_chemical_formula_structural   Ga3Ni2Pt2Rh
_chemical_formula_sum   'Ga3 Ni2 Pt2 Rh1'
_cell_volume   109.90543759
_cell_formula_units_Z   1
loop_
 _symmetry_equiv_pos_site_id
 _symmetry_equiv_pos_as_xyz
  1  'x, y, z'
loop_
 _atom_site_type_symbol
 _atom_site_label
 _atom_site_symmetry_multiplicity
 _atom_site_fract_x
 _atom_site_fract_y
 _atom_site_fract_z
 _atom_site_occupancy
  Ga  Ga0  1  0.004853  0.004853  0.000000  1
  Ga  Ga1  1  0.705399  0.288111  0.500000  1
  Ga  Ga2  1  0.288111  0.705399  0.500000  1
  Ni  Ni3  1  0.498834  0.498834  0.000000  1
  Ni  Ni4  1  0.225408  0.225408  0.500000  1
  Pt  Pt5  1  0.487018  0.002074  0.000000  1
  Pt  Pt6  1  0.002074  0.487018  0.000000  1
  Rh  Rh7  1  0.788303  0.788303  0.500000  1
