# generated using pymatgen
data_LiTm16In3Co4
_symmetry_space_group_name_H-M   'P 1'
_cell_length_a   9.39586505
_cell_length_b   9.36694600
_cell_length_c   9.36925627
_cell_angle_alpha   59.87029098
_cell_angle_beta   60.05182611
_cell_angle_gamma   60.04898022
_symmetry_Int_Tables_number   1
_chemical_formula_structural   LiTm16In3Co4
_chemical_formula_sum   'Li1 Tm16 In3 Co4'
_cell_volume   582.94444483
_cell_formula_units_Z   1
loop_
 _symmetry_equiv_pos_site_id
 _symmetry_equiv_pos_as_xyz
  1  'x, y, z'
loop_
 _atom_site_type_symbol
 _atom_site_label
 _atom_site_symmetry_multiplicity
 _atom_site_fract_x
 _atom_site_fract_y
 _atom_site_fract_z
 _atom_site_occupancy
  Li  Li0  1  0.282231  0.572336  0.572338  1
  Tm  Tm1  1  0.346409  0.342688  0.342446  1
  Tm  Tm2  1  0.348923  0.346429  0.962925  1
  Tm  Tm3  1  0.349051  0.962808  0.346295  1
  Tm  Tm4  1  0.957621  0.348065  0.347803  1
  Tm  Tm5  1  0.808780  0.188837  0.188857  1
  Tm  Tm6  1  0.184474  0.813813  0.814107  1
  Tm  Tm7  1  0.186333  0.812031  0.186696  1
  Tm  Tm8  1  0.808793  0.189271  0.810770  1
  Tm  Tm9  1  0.186384  0.186721  0.812164  1
  Tm  Tm10  1  0.808932  0.810659  0.189262  1
  Tm  Tm11  1  0.939713  0.561984  0.562026  1
  Tm  Tm12  1  0.560960  0.938498  0.938484  1
  Tm  Tm13  1  0.562688  0.937634  0.562596  1
  Tm  Tm14  1  0.941307  0.560048  0.939501  1
  Tm  Tm15  1  0.562726  0.562605  0.937614  1
  Tm  Tm16  1  0.941351  0.939536  0.560037  1
  In  In17  1  0.577950  0.583611  0.583628  1
  In  In18  1  0.577730  0.583170  0.255416  1
  In  In19  1  0.577723  0.255417  0.583197  1
  Co  Co20  1  0.136854  0.142580  0.142568  1
  Co  Co21  1  0.137659  0.141894  0.578383  1
  Co  Co22  1  0.137696  0.578364  0.141896  1
  Co  Co23  1  0.577709  0.141001  0.140995  1
