# generated using pymatgen
data_Sr4ZnFe(Si2O7)2
_symmetry_space_group_name_H-M   'P 1'
_cell_length_a   8.15156500
_cell_length_b   13.23909706
_cell_length_c   13.23940906
_cell_angle_alpha   104.00732123
_cell_angle_beta   89.99878102
_cell_angle_gamma   89.99863244
_symmetry_Int_Tables_number   1
_chemical_formula_structural   Sr4ZnFe(Si2O7)2
_chemical_formula_sum   'Sr16 Zn4 Fe4 Si16 O56'
_cell_volume   1386.30325004
_cell_formula_units_Z   4
loop_
 _symmetry_equiv_pos_site_id
 _symmetry_equiv_pos_as_xyz
  1  'x, y, z'
loop_
 _atom_site_type_symbol
 _atom_site_label
 _atom_site_symmetry_multiplicity
 _atom_site_fract_x
 _atom_site_fract_y
 _atom_site_fract_z
 _atom_site_occupancy
  Sr  Sr0  1  0.334264  0.707217  0.460581  1
  Sr  Sr1  1  0.334296  0.957190  0.210549  1
  Sr  Sr2  1  0.334236  0.457235  0.710533  1
  Sr  Sr3  1  0.334349  0.207284  0.960593  1
  Sr  Sr4  1  0.167825  0.959573  0.706199  1
  Sr  Sr5  1  0.167792  0.209529  0.456209  1
  Sr  Sr6  1  0.167681  0.709572  0.956272  1
  Sr  Sr7  1  0.167855  0.459495  0.206225  1
  Sr  Sr8  1  0.665622  0.039397  0.792704  1
  Sr  Sr9  1  0.665780  0.289473  0.542765  1
  Sr  Sr10  1  0.665699  0.789465  0.042814  1
  Sr  Sr11  1  0.665755  0.539435  0.292783  1
  Sr  Sr12  1  0.832157  0.793770  0.540493  1
  Sr  Sr13  1  0.832312  0.043721  0.290418  1
  Sr  Sr14  1  0.832228  0.543785  0.790456  1
  Sr  Sr15  1  0.832177  0.293804  0.040446  1
  Zn  Zn16  1  0.500036  0.000033  0.499941  1
  Zn  Zn17  1  0.500065  0.249974  0.250025  1
  Zn  Zn18  1  0.499920  0.749976  0.750037  1
  Zn  Zn19  1  0.499979  0.500055  0.999961  1
  Fe  Fe20  1  0.000068  0.499894  0.500026  1
  Fe  Fe21  1  0.999861  0.250029  0.749981  1
  Fe  Fe22  1  0.000151  0.749915  0.250092  1
  Fe  Fe23  1  0.999878  0.999953  0.999994  1
  Si  Si24  1  0.139454  0.695819  0.668747  1
  Si  Si25  1  0.139542  0.945731  0.418674  1
  Si  Si26  1  0.139474  0.445772  0.918680  1
  Si  Si27  1  0.139566  0.195738  0.168701  1
  Si  Si28  1  0.364617  0.166724  0.693717  1
  Si  Si29  1  0.364590  0.416696  0.443765  1
  Si  Si30  1  0.364426  0.916712  0.943781  1
  Si  Si31  1  0.364615  0.666691  0.193773  1
  Si  Si32  1  0.860429  0.831294  0.804252  1
  Si  Si33  1  0.860524  0.081316  0.554225  1
  Si  Si34  1  0.860470  0.581336  0.054272  1
  Si  Si35  1  0.860547  0.331260  0.304180  1
  Si  Si36  1  0.635414  0.806229  0.333296  1
  Si  Si37  1  0.635509  0.056236  0.083291  1
  Si  Si38  1  0.635424  0.556246  0.583294  1
  Si  Si39  1  0.635391  0.306274  0.833292  1
  O  O40  1  0.500012  0.709007  0.290988  1
  O  O41  1  0.499975  0.959054  0.040966  1
  O  O42  1  0.500009  0.459025  0.540974  1
  O  O43  1  0.500008  0.209030  0.790963  1
  O  O44  1  0.000070  0.791081  0.709115  1
  O  O45  1  0.999974  0.040915  0.458980  1
  O  O46  1  0.000030  0.541018  0.959080  1
  O  O47  1  0.999929  0.290885  0.208922  1
  O  O48  1  0.308870  0.762116  0.661747  1
  O  O49  1  0.308894  0.012100  0.411743  1
  O  O50  1  0.308887  0.512058  0.911693  1
  O  O51  1  0.308920  0.262157  0.161838  1
  O  O52  1  0.691075  0.838161  0.737849  1
  O  O53  1  0.691120  0.088307  0.487936  1
  O  O54  1  0.691117  0.588275  0.987911  1
  O  O55  1  0.691128  0.338264  0.237896  1
  O  O56  1  0.576085  0.854272  0.454672  1
  O  O57  1  0.576282  0.104282  0.204662  1
  O  O58  1  0.576106  0.604263  0.704669  1
  O  O59  1  0.576005  0.354285  0.954656  1
  O  O60  1  0.424011  0.045350  0.645714  1
  O  O61  1  0.423903  0.295329  0.395739  1
  O  O62  1  0.423694  0.795346  0.895731  1
  O  O63  1  0.423941  0.545326  0.145726  1
  O  O64  1  0.194431  0.158549  0.758127  1
  O  O65  1  0.194542  0.408570  0.508328  1
  O  O66  1  0.194430  0.908555  0.008364  1
  O  O67  1  0.194551  0.658543  0.258317  1
  O  O68  1  0.805501  0.741703  0.341424  1
  O  O69  1  0.805506  0.991643  0.091442  1
  O  O70  1  0.805493  0.491697  0.591398  1
  O  O71  1  0.805541  0.241844  0.841488  1
  O  O72  1  0.916557  0.952731  0.853001  1
  O  O73  1  0.917016  0.202701  0.602850  1
  O  O74  1  0.916739  0.702739  0.102990  1
  O  O75  1  0.916976  0.452644  0.352891  1
  O  O76  1  0.083038  0.647088  0.547368  1
  O  O77  1  0.083289  0.897012  0.297269  1
  O  O78  1  0.082970  0.397150  0.797298  1
  O  O79  1  0.083420  0.146972  0.047278  1
  O  O80  1  0.140129  0.867114  0.495061  1
  O  O81  1  0.140274  0.117136  0.245114  1
  O  O82  1  0.140098  0.617202  0.745135  1
  O  O83  1  0.140108  0.367107  0.995024  1
  O  O84  1  0.362184  0.993904  0.865965  1
  O  O85  1  0.362482  0.243878  0.615862  1
  O  O86  1  0.362410  0.743838  0.115908  1
  O  O87  1  0.362375  0.493863  0.365924  1
  O  O88  1  0.859889  0.004969  0.632885  1
  O  O89  1  0.859913  0.254880  0.382806  1
  O  O90  1  0.859727  0.754902  0.882872  1
  O  O91  1  0.859879  0.504945  0.132885  1
  O  O92  1  0.637593  0.634093  0.506132  1
  O  O93  1  0.637564  0.884105  0.256155  1
  O  O94  1  0.637576  0.384123  0.756132  1
  O  O95  1  0.637774  0.134044  0.006092  1
