# generated using pymatgen
data_TbY5ReB14Ru
_symmetry_space_group_name_H-M   'P 1'
_cell_length_a   8.09652798
_cell_length_b   8.09652764
_cell_length_c   9.36060917
_cell_angle_alpha   89.94406783
_cell_angle_beta   90.05593096
_cell_angle_gamma   154.72583225
_symmetry_Int_Tables_number   1
_chemical_formula_structural   TbY5ReB14Ru
_chemical_formula_sum   'Tb1 Y5 Re1 B14 Ru1'
_cell_volume   261.98640060
_cell_formula_units_Z   1
loop_
 _symmetry_equiv_pos_site_id
 _symmetry_equiv_pos_as_xyz
  1  'x, y, z'
loop_
 _atom_site_type_symbol
 _atom_site_label
 _atom_site_symmetry_multiplicity
 _atom_site_fract_x
 _atom_site_fract_y
 _atom_site_fract_z
 _atom_site_occupancy
  Tb  Tb0  1  0.894472  0.105528  0.939582  1
  Y  Y1  1  0.105594  0.894406  0.061074  1
  Y  Y2  1  0.756864  0.243136  0.250094  1
  Y  Y3  1  0.243119  0.756881  0.750033  1
  Y  Y4  1  0.894499  0.105501  0.560267  1
  Y  Y5  1  0.105643  0.894357  0.439028  1
  Re  Re6  1  0.947196  0.052804  0.250107  1
  B  B7  1  0.543171  0.456829  0.249972  1
  B  B8  1  0.457957  0.542043  0.749844  1
  B  B9  1  0.520796  0.479204  0.903200  1
  B  B10  1  0.479390  0.520610  0.095833  1
  B  B11  1  0.479415  0.520585  0.404355  1
  B  B12  1  0.520780  0.479220  0.596533  1
  B  B13  1  0.631272  0.368728  0.848443  1
  B  B14  1  0.368010  0.631990  0.151083  1
  B  B15  1  0.726680  0.273320  0.965322  1
  B  B16  1  0.272529  0.727471  0.033500  1
  B  B17  1  0.272600  0.727400  0.466531  1
  B  B18  1  0.726819  0.273181  0.534706  1
  B  B19  1  0.631267  0.368733  0.651580  1
  B  B20  1  0.367982  0.632018  0.349025  1
  Ru  Ru21  1  0.053942  0.946058  0.749889  1
