# generated using pymatgen
data_Sc6Mn3Co8Os
_symmetry_space_group_name_H-M   'P 1'
_cell_length_a   4.86064435
_cell_length_b   4.85456703
_cell_length_c   12.18498122
_cell_angle_alpha   91.45769334
_cell_angle_beta   88.74014045
_cell_angle_gamma   117.66397244
_symmetry_Int_Tables_number   1
_chemical_formula_structural   Sc6Mn3Co8Os
_chemical_formula_sum   'Sc6 Mn3 Co8 Os1'
_cell_volume   254.55381555
_cell_formula_units_Z   1
loop_
 _symmetry_equiv_pos_site_id
 _symmetry_equiv_pos_as_xyz
  1  'x, y, z'
loop_
 _atom_site_type_symbol
 _atom_site_label
 _atom_site_symmetry_multiplicity
 _atom_site_fract_x
 _atom_site_fract_y
 _atom_site_fract_z
 _atom_site_occupancy
  Sc  Sc0  1  0.333208  0.658575  0.913560  1
  Sc  Sc1  1  0.004054  0.005200  0.251979  1
  Sc  Sc2  1  0.668559  0.332200  0.583448  1
  Sc  Sc3  1  0.331441  0.667800  0.666552  1
  Sc  Sc4  1  0.995946  0.994800  0.998021  1
  Sc  Sc5  1  0.666792  0.341425  0.336440  1
  Mn  Mn6  1  0.500000  0.500000  0.125000  1
  Mn  Mn7  1  0.167562  0.834996  0.459565  1
  Mn  Mn8  1  0.832438  0.165004  0.790435  1
  Co  Co9  1  0.166757  0.334946  0.460748  1
  Co  Co10  1  0.833243  0.665054  0.789252  1
  Co  Co11  1  0.333948  0.667194  0.295108  1
  Co  Co12  1  0.000000  0.000000  0.625000  1
  Co  Co13  1  0.666052  0.332806  0.954892  1
  Co  Co14  1  0.000000  0.500000  0.125000  1
  Co  Co15  1  0.667196  0.835460  0.459525  1
  Co  Co16  1  0.332804  0.164540  0.790475  1
  Os  Os17  1  0.500000  0.000000  0.125000  1
