# generated using pymatgen
data_TbZr(Ni2As)4
_symmetry_space_group_name_H-M   'P 1'
_cell_length_a   7.18820123
_cell_length_b   7.18820123
_cell_length_c   3.77182000
_cell_angle_alpha   90.00000000
_cell_angle_beta   90.00000000
_cell_angle_gamma   89.35966969
_symmetry_Int_Tables_number   1
_chemical_formula_structural   TbZr(Ni2As)4
_chemical_formula_sum   'Tb1 Zr1 Ni8 As4'
_cell_volume   194.87866198
_cell_formula_units_Z   1
loop_
 _symmetry_equiv_pos_site_id
 _symmetry_equiv_pos_as_xyz
  1  'x, y, z'
loop_
 _atom_site_type_symbol
 _atom_site_label
 _atom_site_symmetry_multiplicity
 _atom_site_fract_x
 _atom_site_fract_y
 _atom_site_fract_z
 _atom_site_occupancy
  Tb  Tb0  1  0.500000  0.500000  0.000000  1
  Zr  Zr1  1  0.000000  0.000000  0.500000  1
  Ni  Ni2  1  0.590355  0.153980  0.500000  1
  Ni  Ni3  1  0.409645  0.846020  0.500000  1
  Ni  Ni4  1  0.088154  0.345399  0.000000  1
  Ni  Ni5  1  0.911846  0.654601  0.000000  1
  Ni  Ni6  1  0.153980  0.590355  0.500000  1
  Ni  Ni7  1  0.846020  0.409645  0.500000  1
  Ni  Ni8  1  0.345399  0.088154  0.000000  1
  Ni  Ni9  1  0.654601  0.911846  0.000000  1
  As  As10  1  0.724421  0.724421  0.500000  1
  As  As11  1  0.275579  0.275579  0.500000  1
  As  As12  1  0.210530  0.789470  0.000000  1
  As  As13  1  0.789470  0.210530  0.000000  1
