# generated using pymatgen
data_Gd3DyF12
_symmetry_space_group_name_H-M   'P 1'
_cell_length_a   7.03069800
_cell_length_b   4.45268221
_cell_length_c   6.55782068
_cell_angle_alpha   89.64788999
_cell_angle_beta   90.00000000
_cell_angle_gamma   90.00000000
_symmetry_Int_Tables_number   1
_chemical_formula_structural   Gd3DyF12
_chemical_formula_sum   'Gd3 Dy1 F12'
_cell_volume   205.29174196
_cell_formula_units_Z   1
loop_
 _symmetry_equiv_pos_site_id
 _symmetry_equiv_pos_as_xyz
  1  'x, y, z'
loop_
 _atom_site_type_symbol
 _atom_site_label
 _atom_site_symmetry_multiplicity
 _atom_site_fract_x
 _atom_site_fract_y
 _atom_site_fract_z
 _atom_site_occupancy
  Gd  Gd0  1  0.000000  0.563537  0.631586  1
  Gd  Gd1  1  0.500000  0.061835  0.869525  1
  Gd  Gd2  1  0.500000  0.436847  0.366821  1
  Dy  Dy3  1  0.000000  0.936666  0.131428  1
  F  F4  1  0.000000  0.083377  0.474661  1
  F  F5  1  0.000000  0.412419  0.982168  1
  F  F6  1  0.500000  0.916462  0.521065  1
  F  F7  1  0.500000  0.582602  0.020993  1
  F  F8  1  0.185070  0.619950  0.332381  1
  F  F9  1  0.816012  0.883342  0.839237  1
  F  F10  1  0.686591  0.384010  0.664409  1
  F  F11  1  0.310666  0.115827  0.164848  1
  F  F12  1  0.313409  0.384010  0.664409  1
  F  F13  1  0.689334  0.115827  0.164848  1
  F  F14  1  0.814930  0.619950  0.332381  1
  F  F15  1  0.183988  0.883342  0.839237  1
