# generated using pymatgen
data_Sr20Si11I
_symmetry_space_group_name_H-M   'P 1'
_cell_length_a   8.13939800
_cell_length_b   8.13939800
_cell_length_c   15.76101300
_cell_angle_alpha   90.00000000
_cell_angle_beta   90.00000000
_cell_angle_gamma   90.00000000
_symmetry_Int_Tables_number   1
_chemical_formula_structural   Sr20Si11I
_chemical_formula_sum   'Sr20 Si11 I1'
_cell_volume   1044.16395593
_cell_formula_units_Z   1
loop_
 _symmetry_equiv_pos_site_id
 _symmetry_equiv_pos_as_xyz
  1  'x, y, z'
loop_
 _atom_site_type_symbol
 _atom_site_label
 _atom_site_symmetry_multiplicity
 _atom_site_fract_x
 _atom_site_fract_y
 _atom_site_fract_z
 _atom_site_occupancy
  Sr  Sr0  1  0.337761  0.687738  0.113805  1
  Sr  Sr1  1  0.187738  0.162239  0.113805  1
  Sr  Sr2  1  0.500000  0.000000  0.723813  1
  Sr  Sr3  1  0.326076  0.677340  0.394451  1
  Sr  Sr4  1  0.656685  0.693628  0.886376  1
  Sr  Sr5  1  0.177340  0.173924  0.394451  1
  Sr  Sr6  1  0.673924  0.322660  0.394451  1
  Sr  Sr7  1  0.169749  0.819120  0.605538  1
  Sr  Sr8  1  0.343315  0.306372  0.886376  1
  Sr  Sr9  1  0.193628  0.843315  0.886376  1
  Sr  Sr10  1  0.500000  0.000000  0.262724  1
  Sr  Sr11  1  0.830251  0.180880  0.605538  1
  Sr  Sr12  1  0.319120  0.330251  0.605538  1
  Sr  Sr13  1  0.822660  0.826076  0.394451  1
  Sr  Sr14  1  0.806372  0.156685  0.886376  1
  Sr  Sr15  1  0.812262  0.837761  0.113805  1
  Sr  Sr16  1  0.000000  0.500000  0.268061  1
  Sr  Sr17  1  0.000000  0.500000  0.743698  1
  Sr  Sr18  1  0.662239  0.312262  0.113805  1
  Sr  Sr19  1  0.680880  0.669749  0.605538  1
  Si  Si20  1  0.107200  0.111823  0.749595  1
  Si  Si21  1  0.388177  0.607200  0.749595  1
  Si  Si22  1  0.611732  0.607249  0.250702  1
  Si  Si23  1  0.500000  0.000000  0.004130  1
  Si  Si24  1  0.107249  0.888268  0.250702  1
  Si  Si25  1  0.611823  0.392800  0.749595  1
  Si  Si26  1  0.892800  0.888177  0.749595  1
  Si  Si27  1  0.388268  0.392751  0.250702  1
  Si  Si28  1  0.892751  0.111732  0.250702  1
  Si  Si29  1  0.500000  0.000000  0.501653  1
  Si  Si30  1  0.000000  0.500000  0.498221  1
  I  I31  1  0.000000  0.500000  0.995834  1
