# generated using pymatgen
data_Tb19YCd6TcRu
_symmetry_space_group_name_H-M   'P 1'
_cell_length_a   9.63042696
_cell_length_b   9.62296735
_cell_length_c   9.96922600
_cell_angle_alpha   90.00000000
_cell_angle_beta   90.00000000
_cell_angle_gamma   119.97438388
_symmetry_Int_Tables_number   1
_chemical_formula_structural   Tb19YCd6TcRu
_chemical_formula_sum   'Tb19 Y1 Cd6 Tc1 Ru1'
_cell_volume   800.31078933
_cell_formula_units_Z   1
loop_
 _symmetry_equiv_pos_site_id
 _symmetry_equiv_pos_as_xyz
  1  'x, y, z'
loop_
 _atom_site_type_symbol
 _atom_site_label
 _atom_site_symmetry_multiplicity
 _atom_site_fract_x
 _atom_site_fract_y
 _atom_site_fract_z
 _atom_site_occupancy
  Tb  Tb0  1  0.000106  0.000053  0.500069  1
  Tb  Tb1  1  0.000106  0.000053  0.999931  1
  Tb  Tb2  1  0.209947  0.790064  0.441053  1
  Tb  Tb3  1  0.209947  0.419883  0.441053  1
  Tb  Tb4  1  0.580228  0.790114  0.441030  1
  Tb  Tb5  1  0.789760  0.210216  0.559421  1
  Tb  Tb6  1  0.789760  0.579542  0.559421  1
  Tb  Tb7  1  0.420397  0.210198  0.559347  1
  Tb  Tb8  1  0.789760  0.210216  0.940579  1
  Tb  Tb9  1  0.789760  0.579542  0.940579  1
  Tb  Tb10  1  0.420397  0.210198  0.940653  1
  Tb  Tb11  1  0.209947  0.790064  0.058947  1
  Tb  Tb12  1  0.209947  0.419883  0.058947  1
  Tb  Tb13  1  0.580228  0.790114  0.058970  1
  Tb  Tb14  1  0.540089  0.459940  0.250000  1
  Tb  Tb15  1  0.540089  0.080149  0.250000  1
  Tb  Tb16  1  0.458675  0.541298  0.750000  1
  Tb  Tb17  1  0.458675  0.917378  0.750000  1
  Tb  Tb18  1  0.082610  0.541306  0.750000  1
  Y  Y19  1  0.919761  0.459881  0.250000  1
  Cd  Cd20  1  0.885374  0.114502  0.250000  1
  Cd  Cd21  1  0.885374  0.770873  0.250000  1
  Cd  Cd22  1  0.229080  0.114541  0.250000  1
  Cd  Cd23  1  0.114384  0.885628  0.750000  1
  Cd  Cd24  1  0.114384  0.228757  0.750000  1
  Cd  Cd25  1  0.771192  0.885596  0.750000  1
  Tc  Tc26  1  0.333288  0.666644  0.250000  1
  Ru  Ru27  1  0.666736  0.333368  0.750000  1
