# generated using pymatgen
data_PrNd5Zn4IrPd12
_symmetry_space_group_name_H-M   'P 1'
_cell_length_a   8.38163114
_cell_length_b   8.38163123
_cell_length_c   8.38163201
_cell_angle_alpha   109.46784722
_cell_angle_beta   109.46784260
_cell_angle_gamma   109.47796723
_symmetry_Int_Tables_number   1
_chemical_formula_structural   PrNd5Zn4IrPd12
_chemical_formula_sum   'Pr1 Nd5 Zn4 Ir1 Pd12'
_cell_volume   453.27713798
_cell_formula_units_Z   1
loop_
 _symmetry_equiv_pos_site_id
 _symmetry_equiv_pos_as_xyz
  1  'x, y, z'
loop_
 _atom_site_type_symbol
 _atom_site_label
 _atom_site_symmetry_multiplicity
 _atom_site_fract_x
 _atom_site_fract_y
 _atom_site_fract_z
 _atom_site_occupancy
  Pr  Pr0  1  0.703212  0.703212  0.000000  1
  Nd  Nd1  1  0.297374  0.000092  0.297282  1
  Nd  Nd2  1  0.000092  0.297374  0.297282  1
  Nd  Nd3  1  0.296939  0.296939  0.000000  1
  Nd  Nd4  1  0.702810  0.000092  0.702718  1
  Nd  Nd5  1  0.000092  0.702810  0.702718  1
  Zn  Zn6  1  0.000091  0.000091  0.500234  1
  Zn  Zn7  1  0.000091  0.499857  0.000000  1
  Zn  Zn8  1  0.499857  0.000091  0.000000  1
  Zn  Zn9  1  0.499857  0.499857  0.499766  1
  Ir  Ir10  1  0.000791  0.000791  0.000000  1
  Pd  Pd11  1  0.331284  0.331284  0.663035  1
  Pd  Pd12  1  0.668156  0.000218  0.332062  1
  Pd  Pd13  1  0.000218  0.668156  0.332062  1
  Pd  Pd14  1  0.668248  0.331284  0.000000  1
  Pd  Pd15  1  0.331777  0.663567  0.331790  1
  Pd  Pd16  1  0.999987  0.331777  0.668210  1
  Pd  Pd17  1  0.331284  0.668248  0.000000  1
  Pd  Pd18  1  0.331777  0.999987  0.668210  1
  Pd  Pd19  1  0.663567  0.331777  0.331790  1
  Pd  Pd20  1  0.668248  0.668248  0.336965  1
  Pd  Pd21  1  0.668156  0.336094  0.667938  1
  Pd  Pd22  1  0.336094  0.668156  0.667938  1
