# generated using pymatgen
data_Tb4Ho8TcRu3
_symmetry_space_group_name_H-M   'P 1'
_cell_length_a   6.28119619
_cell_length_b   7.32846212
_cell_length_c   9.18733100
_cell_angle_alpha   90.00000000
_cell_angle_beta   90.00000000
_cell_angle_gamma   90.04560450
_symmetry_Int_Tables_number   1
_chemical_formula_structural   Tb4Ho8TcRu3
_chemical_formula_sum   'Tb4 Ho8 Tc1 Ru3'
_cell_volume   422.90656950
_cell_formula_units_Z   1
loop_
 _symmetry_equiv_pos_site_id
 _symmetry_equiv_pos_as_xyz
  1  'x, y, z'
loop_
 _atom_site_type_symbol
 _atom_site_label
 _atom_site_symmetry_multiplicity
 _atom_site_fract_x
 _atom_site_fract_y
 _atom_site_fract_z
 _atom_site_occupancy
  Tb  Tb0  1  0.869109  0.539804  0.250000  1
  Tb  Tb1  1  0.626842  0.041452  0.250000  1
  Tb  Tb2  1  0.133618  0.457801  0.750000  1
  Tb  Tb3  1  0.366984  0.958218  0.750000  1
  Ho  Ho4  1  0.333627  0.675892  0.065054  1
  Ho  Ho5  1  0.166722  0.175912  0.435156  1
  Ho  Ho6  1  0.667615  0.324061  0.565128  1
  Ho  Ho7  1  0.835130  0.824960  0.936371  1
  Ho  Ho8  1  0.667615  0.324061  0.934872  1
  Ho  Ho9  1  0.835130  0.824960  0.563629  1
  Ho  Ho10  1  0.333627  0.675892  0.434946  1
  Ho  Ho11  1  0.166722  0.175912  0.064844  1
  Tc  Tc12  1  0.038410  0.885782  0.250000  1
  Ru  Ru13  1  0.459899  0.385023  0.250000  1
  Ru  Ru14  1  0.958633  0.115980  0.750000  1
  Ru  Ru15  1  0.540318  0.614293  0.750000  1
