# generated using pymatgen
data_Nd2Cu2Ni5
_symmetry_space_group_name_H-M   'P 1'
_cell_length_a   5.07626109
_cell_length_b   5.07626077
_cell_length_c   12.59976342
_cell_angle_alpha   78.37865658
_cell_angle_beta   78.37865531
_cell_angle_gamma   60.00000565
_symmetry_Int_Tables_number   1
_chemical_formula_structural   Nd2Cu2Ni5
_chemical_formula_sum   'Nd4 Cu4 Ni10'
_cell_volume   273.46531190
_cell_formula_units_Z   2
loop_
 _symmetry_equiv_pos_site_id
 _symmetry_equiv_pos_as_xyz
  1  'x, y, z'
loop_
 _atom_site_type_symbol
 _atom_site_label
 _atom_site_symmetry_multiplicity
 _atom_site_fract_x
 _atom_site_fract_y
 _atom_site_fract_z
 _atom_site_occupancy
  Nd  Nd0  1  0.950209  0.950209  0.149373  1
  Nd  Nd1  1  0.049791  0.049791  0.850627  1
  Nd  Nd2  1  0.853101  0.853101  0.440698  1
  Nd  Nd3  1  0.146899  0.146899  0.559302  1
  Cu  Cu4  1  0.721669  0.721669  0.834995  1
  Cu  Cu5  1  0.278331  0.278331  0.165005  1
  Cu  Cu6  1  0.611818  0.611818  0.164546  1
  Cu  Cu7  1  0.388182  0.388182  0.835454  1
  Ni  Ni8  1  0.500000  0.500000  0.500000  1
  Ni  Ni9  1  0.000000  0.500000  0.000000  1
  Ni  Ni10  1  0.500000  0.000000  0.000000  1
  Ni  Ni11  1  0.500000  0.500000  0.000000  1
  Ni  Ni12  1  0.390847  0.390847  0.328987  1
  Ni  Ni13  1  0.889318  0.390847  0.328987  1
  Ni  Ni14  1  0.390847  0.889318  0.328987  1
  Ni  Ni15  1  0.609153  0.609153  0.671013  1
  Ni  Ni16  1  0.110682  0.609153  0.671013  1
  Ni  Ni17  1  0.609153  0.110682  0.671013  1
