# generated using pymatgen
data_Nb4GaRe24
_symmetry_space_group_name_H-M   'P 1'
_cell_length_a   8.40343106
_cell_length_b   8.40260447
_cell_length_c   8.40293004
_cell_angle_alpha   109.46266740
_cell_angle_beta   109.47047267
_cell_angle_gamma   109.48300339
_symmetry_Int_Tables_number   1
_chemical_formula_structural   Nb4GaRe24
_chemical_formula_sum   'Nb4 Ga1 Re24'
_cell_volume   456.73690801
_cell_formula_units_Z   1
loop_
 _symmetry_equiv_pos_site_id
 _symmetry_equiv_pos_as_xyz
  1  'x, y, z'
loop_
 _atom_site_type_symbol
 _atom_site_label
 _atom_site_symmetry_multiplicity
 _atom_site_fract_x
 _atom_site_fract_y
 _atom_site_fract_z
 _atom_site_occupancy
  Nb  Nb0  1  0.363749  0.363746  0.363743  1
  Nb  Nb1  1  0.000010  0.636275  0.000012  1
  Nb  Nb2  1  0.636231  0.000008  0.000000  1
  Nb  Nb3  1  0.000033  0.000016  0.636267  1
  Ga  Ga4  1  0.999905  0.999845  0.999883  1
  Re  Re5  1  0.999979  0.398395  0.680404  1
  Re  Re6  1  0.282131  0.601634  0.601609  1
  Re  Re7  1  0.717867  0.319537  0.319598  1
  Re  Re8  1  0.319730  0.717927  0.319523  1
  Re  Re9  1  0.680302  0.999821  0.398208  1
  Re  Re10  1  0.000052  0.680466  0.398443  1
  Re  Re11  1  0.601797  0.601547  0.282145  1
  Re  Re12  1  0.805962  0.805913  0.181534  1
  Re  Re13  1  0.375423  0.194059  0.000019  1
  Re  Re14  1  0.194022  0.375580  0.999948  1
  Re  Re15  1  0.624759  0.818809  0.624756  1
  Re  Re16  1  0.375189  0.000003  0.193973  1
  Re  Re17  1  0.000036  0.375475  0.194173  1
  Re  Re18  1  0.818739  0.624871  0.624893  1
  Re  Re19  1  0.181344  0.806172  0.806158  1
  Re  Re20  1  0.805992  0.181353  0.805959  1
  Re  Re21  1  0.193970  0.999954  0.375338  1
  Re  Re22  1  0.000002  0.194143  0.375424  1
  Re  Re23  1  0.624502  0.624525  0.818616  1
  Re  Re24  1  0.398217  0.999756  0.680335  1
  Re  Re25  1  0.601816  0.282141  0.601548  1
  Re  Re26  1  0.680320  0.398191  0.999824  1
  Re  Re27  1  0.398208  0.680364  0.999775  1
  Re  Re28  1  0.319714  0.319473  0.717889  1
