# generated using pymatgen
data_Ti4BCl6
_symmetry_space_group_name_H-M   'P 1'
_cell_length_a   3.36806800
_cell_length_b   11.38479500
_cell_length_c   11.80216200
_cell_angle_alpha   90.00000000
_cell_angle_beta   90.00000000
_cell_angle_gamma   90.00000000
_symmetry_Int_Tables_number   1
_chemical_formula_structural   Ti4BCl6
_chemical_formula_sum   'Ti8 B2 Cl12'
_cell_volume   452.55111335
_cell_formula_units_Z   2
loop_
 _symmetry_equiv_pos_site_id
 _symmetry_equiv_pos_as_xyz
  1  'x, y, z'
loop_
 _atom_site_type_symbol
 _atom_site_label
 _atom_site_symmetry_multiplicity
 _atom_site_fract_x
 _atom_site_fract_y
 _atom_site_fract_z
 _atom_site_occupancy
  Ti  Ti0  1  0.000000  0.098680  0.078688  1
  Ti  Ti1  1  0.000000  0.901320  0.921312  1
  Ti  Ti2  1  0.000000  0.598680  0.421312  1
  Ti  Ti3  1  0.000000  0.401320  0.578688  1
  Ti  Ti4  1  0.500000  0.118601  0.861334  1
  Ti  Ti5  1  0.500000  0.881399  0.138666  1
  Ti  Ti6  1  0.500000  0.618601  0.638666  1
  Ti  Ti7  1  0.500000  0.381399  0.361334  1
  B  B8  1  0.500000  0.000000  0.000000  1
  B  B9  1  0.500000  0.500000  0.500000  1
  Cl  Cl10  1  0.500000  0.268981  0.680011  1
  Cl  Cl11  1  0.500000  0.731019  0.319989  1
  Cl  Cl12  1  0.500000  0.768981  0.819989  1
  Cl  Cl13  1  0.500000  0.231019  0.180011  1
  Cl  Cl14  1  0.000000  0.256042  0.934322  1
  Cl  Cl15  1  0.000000  0.743958  0.065678  1
  Cl  Cl16  1  0.000000  0.482104  0.244670  1
  Cl  Cl17  1  0.000000  0.517896  0.755330  1
  Cl  Cl18  1  0.000000  0.982104  0.255330  1
  Cl  Cl19  1  0.000000  0.017896  0.744670  1
  Cl  Cl20  1  0.000000  0.243958  0.434322  1
  Cl  Cl21  1  0.000000  0.756042  0.565678  1
