# generated using pymatgen
data_Sm4B16Mo3W
_symmetry_space_group_name_H-M   'P 1'
_cell_length_a   6.08984820
_cell_length_b   11.77701660
_cell_length_c   3.67588900
_cell_angle_alpha   90.00000000
_cell_angle_beta   90.00000000
_cell_angle_gamma   90.00370015
_symmetry_Int_Tables_number   1
_chemical_formula_structural   Sm4B16Mo3W
_chemical_formula_sum   'Sm4 B16 Mo3 W1'
_cell_volume   263.63565293
_cell_formula_units_Z   1
loop_
 _symmetry_equiv_pos_site_id
 _symmetry_equiv_pos_as_xyz
  1  'x, y, z'
loop_
 _atom_site_type_symbol
 _atom_site_label
 _atom_site_symmetry_multiplicity
 _atom_site_fract_x
 _atom_site_fract_y
 _atom_site_fract_z
 _atom_site_occupancy
  Sm  Sm0  1  0.626168  0.350144  0.000000  1
  Sm  Sm1  1  0.373842  0.650171  0.000000  1
  Sm  Sm2  1  0.126314  0.150073  0.000000  1
  Sm  Sm3  1  0.874001  0.849695  0.000000  1
  B  B4  1  0.784850  0.185707  0.500000  1
  B  B5  1  0.215798  0.814658  0.500000  1
  B  B6  1  0.284096  0.314788  0.500000  1
  B  B7  1  0.715845  0.685302  0.500000  1
  B  B8  1  0.864719  0.031913  0.500000  1
  B  B9  1  0.135768  0.967615  0.500000  1
  B  B10  1  0.364577  0.467936  0.500000  1
  B  B11  1  0.635452  0.532163  0.500000  1
  B  B12  1  0.887330  0.453419  0.500000  1
  B  B13  1  0.112555  0.546758  0.500000  1
  B  B14  1  0.387181  0.046430  0.500000  1
  B  B15  1  0.612377  0.953156  0.500000  1
  B  B16  1  0.976224  0.308022  0.500000  1
  B  B17  1  0.023938  0.692052  0.500000  1
  B  B18  1  0.475583  0.192095  0.500000  1
  B  B19  1  0.523671  0.807961  0.500000  1
  Mo  Mo20  1  0.370841  0.916443  0.000000  1
  Mo  Mo21  1  0.128472  0.416995  0.000000  1
  Mo  Mo22  1  0.871443  0.583033  0.000000  1
  W  W23  1  0.628955  0.083472  0.000000  1
