# generated using pymatgen
data_Ho8CdInNi2
_symmetry_space_group_name_H-M   'P 1'
_cell_length_a   9.51505523
_cell_length_b   9.51505506
_cell_length_c   9.50933200
_cell_angle_alpha   60.01990155
_cell_angle_beta   60.01990217
_cell_angle_gamma   60.16348016
_symmetry_Int_Tables_number   1
_chemical_formula_structural   Ho8CdInNi2
_chemical_formula_sum   'Ho16 Cd2 In2 Ni4'
_cell_volume   609.70847617
_cell_formula_units_Z   2
loop_
 _symmetry_equiv_pos_site_id
 _symmetry_equiv_pos_as_xyz
  1  'x, y, z'
loop_
 _atom_site_type_symbol
 _atom_site_label
 _atom_site_symmetry_multiplicity
 _atom_site_fract_x
 _atom_site_fract_y
 _atom_site_fract_z
 _atom_site_occupancy
  Ho  Ho0  1  0.347757  0.347757  0.347651  1
  Ho  Ho1  1  0.347757  0.347757  0.956833  1
  Ho  Ho2  1  0.349799  0.953119  0.348541  1
  Ho  Ho3  1  0.953119  0.349799  0.348541  1
  Ho  Ho4  1  0.811742  0.188921  0.188310  1
  Ho  Ho5  1  0.188921  0.811742  0.811026  1
  Ho  Ho6  1  0.188921  0.811742  0.188310  1
  Ho  Ho7  1  0.811742  0.188921  0.811026  1
  Ho  Ho8  1  0.188074  0.188074  0.811926  1
  Ho  Ho9  1  0.810710  0.810710  0.189290  1
  Ho  Ho10  1  0.937878  0.563745  0.563870  1
  Ho  Ho11  1  0.563745  0.937878  0.934507  1
  Ho  Ho12  1  0.563745  0.937878  0.563870  1
  Ho  Ho13  1  0.937878  0.563745  0.934507  1
  Ho  Ho14  1  0.564252  0.564252  0.935748  1
  Ho  Ho15  1  0.937415  0.937415  0.562585  1
  Cd  Cd16  1  0.580450  0.254262  0.582645  1
  Cd  Cd17  1  0.254262  0.580450  0.582645  1
  In  In18  1  0.581263  0.581263  0.582816  1
  In  In19  1  0.581263  0.581263  0.254658  1
  Ni  Ni20  1  0.142245  0.142245  0.142999  1
  Ni  Ni21  1  0.142245  0.142245  0.572512  1
  Ni  Ni22  1  0.142047  0.572770  0.142592  1
  Ni  Ni23  1  0.572770  0.142047  0.142592  1
