# generated using pymatgen
data_TiSn5PdRh9
_symmetry_space_group_name_H-M   'P 1'
_cell_length_a   4.18741100
_cell_length_b   5.63100673
_cell_length_c   11.05982195
_cell_angle_alpha   90.19145601
_cell_angle_beta   90.00000000
_cell_angle_gamma   90.00000000
_symmetry_Int_Tables_number   1
_chemical_formula_structural   TiSn5PdRh9
_chemical_formula_sum   'Ti1 Sn5 Pd1 Rh9'
_cell_volume   260.78184109
_cell_formula_units_Z   1
loop_
 _symmetry_equiv_pos_site_id
 _symmetry_equiv_pos_as_xyz
  1  'x, y, z'
loop_
 _atom_site_type_symbol
 _atom_site_label
 _atom_site_symmetry_multiplicity
 _atom_site_fract_x
 _atom_site_fract_y
 _atom_site_fract_z
 _atom_site_occupancy
  Ti  Ti0  1  0.500000  0.158604  0.644097  1
  Sn  Sn1  1  0.000000  0.004347  0.995426  1
  Sn  Sn2  1  0.000000  0.473813  0.507809  1
  Sn  Sn3  1  0.500000  0.352590  0.145985  1
  Sn  Sn4  1  0.500000  0.664347  0.852149  1
  Sn  Sn5  1  0.500000  0.829052  0.360350  1
  Pd  Pd6  1  0.000000  0.084890  0.240553  1
  Rh  Rh7  1  0.000000  0.983697  0.503358  1
  Rh  Rh8  1  0.000000  0.498768  0.001352  1
  Rh  Rh9  1  0.000000  0.938081  0.748216  1
  Rh  Rh10  1  0.000000  0.585739  0.266289  1
  Rh  Rh11  1  0.000000  0.417933  0.744096  1
  Rh  Rh12  1  0.500000  0.297057  0.393772  1
  Rh  Rh13  1  0.500000  0.701839  0.610933  1
  Rh  Rh14  1  0.500000  0.821421  0.106526  1
  Rh  Rh15  1  0.500000  0.187821  0.879087  1
