# generated using pymatgen
data_U4Mn2Ge6Ru5
_symmetry_space_group_name_H-M   'P 1'
_cell_length_a   7.12950251
_cell_length_b   7.14422170
_cell_length_c   7.13445979
_cell_angle_alpha   109.49137680
_cell_angle_beta   109.40840695
_cell_angle_gamma   109.48102102
_symmetry_Int_Tables_number   1
_chemical_formula_structural   U4Mn2Ge6Ru5
_chemical_formula_sum   'U4 Mn2 Ge6 Ru5'
_cell_volume   279.85246203
_cell_formula_units_Z   1
loop_
 _symmetry_equiv_pos_site_id
 _symmetry_equiv_pos_as_xyz
  1  'x, y, z'
loop_
 _atom_site_type_symbol
 _atom_site_label
 _atom_site_symmetry_multiplicity
 _atom_site_fract_x
 _atom_site_fract_y
 _atom_site_fract_z
 _atom_site_occupancy
  U  U0  1  0.500013  0.503133  0.496928  1
  U  U1  1  0.000013  0.989387  0.496364  1
  U  U2  1  0.499986  0.003089  0.996892  1
  U  U3  1  0.999952  0.503641  0.010580  1
  Mn  Mn4  1  0.750980  0.500994  0.249625  1
  Mn  Mn5  1  0.249003  0.750315  0.499067  1
  Ge  Ge6  1  0.311370  0.309873  0.001330  1
  Ge  Ge7  1  0.999698  0.315414  0.311995  1
  Ge  Ge8  1  0.000040  0.687819  0.684432  1
  Ge  Ge9  1  0.688791  0.998836  0.690186  1
  Ge  Ge10  1  0.308692  0.998480  0.310058  1
  Ge  Ge11  1  0.691405  0.689876  0.001675  1
  Ru  Ru12  1  0.748924  0.250014  0.498644  1
  Ru  Ru13  1  0.500007  0.248865  0.751263  1
  Ru  Ru14  1  0.499979  0.748961  0.250919  1
  Ru  Ru15  1  0.251141  0.501352  0.750019  1
  Ru  Ru16  1  0.000006  0.999951  0.000020  1
