# generated using pymatgen
data_Nd2TlCuS4
_symmetry_space_group_name_H-M   'P 1'
_cell_length_a   4.08876300
_cell_length_b   7.32151896
_cell_length_c   13.85093400
_cell_angle_alpha   90.00000000
_cell_angle_beta   90.00000000
_cell_angle_gamma   73.78580084
_symmetry_Int_Tables_number   1
_chemical_formula_structural   Nd2TlCuS4
_chemical_formula_sum   'Nd4 Tl2 Cu2 S8'
_cell_volume   398.14840400
_cell_formula_units_Z   2
loop_
 _symmetry_equiv_pos_site_id
 _symmetry_equiv_pos_as_xyz
  1  'x, y, z'
loop_
 _atom_site_type_symbol
 _atom_site_label
 _atom_site_symmetry_multiplicity
 _atom_site_fract_x
 _atom_site_fract_y
 _atom_site_fract_z
 _atom_site_occupancy
  Nd  Nd0  1  0.634097  0.731806  0.060938  1
  Nd  Nd1  1  0.634097  0.731806  0.439062  1
  Nd  Nd2  1  0.365902  0.268195  0.560938  1
  Nd  Nd3  1  0.365902  0.268195  0.939062  1
  Tl  Tl4  1  0.895982  0.208035  0.250000  1
  Tl  Tl5  1  0.104018  0.791965  0.750000  1
  Cu  Cu6  1  0.163713  0.672571  0.250000  1
  Cu  Cu7  1  0.836287  0.327428  0.750000  1
  S  S8  1  0.000000  0.000000  0.000000  1
  S  S9  1  0.260700  0.478597  0.114542  1
  S  S10  1  0.570607  0.858787  0.250000  1
  S  S11  1  0.260700  0.478597  0.385458  1
  S  S12  1  0.000000  0.000000  0.500000  1
  S  S13  1  0.739300  0.521402  0.614541  1
  S  S14  1  0.429393  0.141214  0.750000  1
  S  S15  1  0.739300  0.521402  0.885458  1
