# generated using pymatgen
data_YbHf2U4InSb10
_symmetry_space_group_name_H-M   'P 1'
_cell_length_a   9.31734312
_cell_length_b   9.25440739
_cell_length_c   6.21046700
_cell_angle_alpha   90.00000000
_cell_angle_beta   90.00000000
_cell_angle_gamma   119.85422722
_symmetry_Int_Tables_number   1
_chemical_formula_structural   YbHf2U4InSb10
_chemical_formula_sum   'Yb1 Hf2 U4 In1 Sb10'
_cell_volume   464.44218272
_cell_formula_units_Z   1
loop_
 _symmetry_equiv_pos_site_id
 _symmetry_equiv_pos_as_xyz
  1  'x, y, z'
loop_
 _atom_site_type_symbol
 _atom_site_label
 _atom_site_symmetry_multiplicity
 _atom_site_fract_x
 _atom_site_fract_y
 _atom_site_fract_z
 _atom_site_occupancy
  Yb  Yb0  1  0.379925  0.006611  0.750000  1
  Hf  Hf1  1  0.999198  0.000390  0.498828  1
  Hf  Hf2  1  0.999198  0.000390  0.001172  1
  U  U3  1  0.002428  0.617696  0.250000  1
  U  U4  1  0.009429  0.390561  0.750000  1
  U  U5  1  0.595523  0.595329  0.750000  1
  U  U6  1  0.614468  0.996237  0.250000  1
  In  In7  1  0.388776  0.384284  0.250000  1
  Sb  Sb8  1  0.334800  0.671575  0.499522  1
  Sb  Sb9  1  0.679898  0.336015  0.000120  1
  Sb  Sb10  1  0.679898  0.336015  0.499880  1
  Sb  Sb11  1  0.334800  0.671575  0.000478  1
  Sb  Sb12  1  0.728010  0.996515  0.750000  1
  Sb  Sb13  1  0.732583  0.730371  0.250000  1
  Sb  Sb14  1  0.000694  0.272517  0.250000  1
  Sb  Sb15  1  0.988843  0.725178  0.750000  1
  Sb  Sb16  1  0.269329  0.002765  0.250000  1
  Sb  Sb17  1  0.262203  0.265974  0.750000  1
