# generated using pymatgen
data_Pm2CrWN5
_symmetry_space_group_name_H-M   'P 1'
_cell_length_a   7.67415200
_cell_length_b   3.88960200
_cell_length_c   3.88960200
_cell_angle_alpha   90.00000000
_cell_angle_beta   90.00000000
_cell_angle_gamma   90.00000000
_symmetry_Int_Tables_number   1
_chemical_formula_structural   Pm2CrWN5
_chemical_formula_sum   'Pm2 Cr1 W1 N5'
_cell_volume   116.10227414
_cell_formula_units_Z   1
loop_
 _symmetry_equiv_pos_site_id
 _symmetry_equiv_pos_as_xyz
  1  'x, y, z'
loop_
 _atom_site_type_symbol
 _atom_site_label
 _atom_site_symmetry_multiplicity
 _atom_site_fract_x
 _atom_site_fract_y
 _atom_site_fract_z
 _atom_site_occupancy
  Pm  Pm0  1  0.999223  0.000000  0.000000  1
  Pm  Pm1  1  0.556977  0.000000  0.000000  1
  Cr  Cr2  1  0.751656  0.499999  0.499999  1
  W  W3  1  0.257666  0.499999  0.499999  1
  N  N4  1  0.201257  0.499999  0.000000  1
  N  N5  1  0.767191  0.499999  0.000000  1
  N  N6  1  0.201257  0.000000  0.499999  1
  N  N7  1  0.767191  0.000000  0.499999  1
  N  N8  1  0.497587  0.499999  0.499999  1
