# generated using pymatgen
data_CeTh3Re2(TcB3)4
_symmetry_space_group_name_H-M   'P 1'
_cell_length_a   6.34234642
_cell_length_b   6.32062916
_cell_length_c   7.63243258
_cell_angle_alpha   90.83855065
_cell_angle_beta   90.84073615
_cell_angle_gamma   114.88497163
_symmetry_Int_Tables_number   1
_chemical_formula_structural   CeTh3Re2(TcB3)4
_chemical_formula_sum   'Ce1 Th3 Re2 Tc4 B12'
_cell_volume   277.45553384
_cell_formula_units_Z   1
loop_
 _symmetry_equiv_pos_site_id
 _symmetry_equiv_pos_as_xyz
  1  'x, y, z'
loop_
 _atom_site_type_symbol
 _atom_site_label
 _atom_site_symmetry_multiplicity
 _atom_site_fract_x
 _atom_site_fract_y
 _atom_site_fract_z
 _atom_site_occupancy
  Ce  Ce0  1  0.443129  0.099599  0.826824  1
  Th  Th1  1  0.096679  0.438177  0.326332  1
  Th  Th2  1  0.558265  0.906536  0.169688  1
  Th  Th3  1  0.904061  0.560296  0.674898  1
  Re  Re4  1  0.009997  0.194247  0.912393  1
  Re  Re5  1  0.803806  0.992531  0.587778  1
  Tc  Tc6  1  0.588785  0.411740  0.249990  1
  Tc  Tc7  1  0.411169  0.589613  0.750481  1
  Tc  Tc8  1  0.990849  0.804165  0.086802  1
  Tc  Tc9  1  0.194371  0.008644  0.413220  1
  B  B10  1  0.247159  0.153038  0.130325  1
  B  B11  1  0.845083  0.755814  0.367140  1
  B  B12  1  0.752999  0.846113  0.864762  1
  B  B13  1  0.155189  0.244834  0.635967  1
  B  B14  1  0.580624  0.159459  0.484979  1
  B  B15  1  0.839599  0.415011  0.017265  1
  B  B16  1  0.416696  0.840416  0.518208  1
  B  B17  1  0.160871  0.582741  0.982824  1
  B  B18  1  0.443363  0.348869  0.535324  1
  B  B19  1  0.650460  0.554761  0.965978  1
  B  B20  1  0.555426  0.650160  0.466173  1
  B  B21  1  0.351422  0.443234  0.032651  1
