# generated using pymatgen
data_Pr8Ho11TmSi16
_symmetry_space_group_name_H-M   'P 1'
_cell_length_a   7.51450903
_cell_length_b   7.79368203
_cell_length_c   14.80589900
_cell_angle_alpha   90.00000000
_cell_angle_beta   90.00000000
_cell_angle_gamma   90.01002319
_symmetry_Int_Tables_number   1
_chemical_formula_structural   Pr8Ho11TmSi16
_chemical_formula_sum   'Pr8 Ho11 Tm1 Si16'
_cell_volume   867.11773667
_cell_formula_units_Z   1
loop_
 _symmetry_equiv_pos_site_id
 _symmetry_equiv_pos_as_xyz
  1  'x, y, z'
loop_
 _atom_site_type_symbol
 _atom_site_label
 _atom_site_symmetry_multiplicity
 _atom_site_fract_x
 _atom_site_fract_y
 _atom_site_fract_z
 _atom_site_occupancy
  Pr  Pr0  1  0.975717  0.820999  0.098032  1
  Pr  Pr1  1  0.475934  0.679116  0.401988  1
  Pr  Pr2  1  0.524162  0.320883  0.902052  1
  Pr  Pr3  1  0.024172  0.179141  0.597952  1
  Pr  Pr4  1  0.024172  0.179141  0.902048  1
  Pr  Pr5  1  0.524162  0.320883  0.597948  1
  Pr  Pr6  1  0.475934  0.679116  0.098012  1
  Pr  Pr7  1  0.975717  0.820999  0.401968  1
  Ho  Ho8  1  0.149687  0.510108  0.250000  1
  Ho  Ho9  1  0.850272  0.489765  0.750000  1
  Ho  Ho10  1  0.350321  0.010182  0.750000  1
  Ho  Ho11  1  0.680844  0.821838  0.876755  1
  Ho  Ho12  1  0.180883  0.678157  0.623262  1
  Ho  Ho13  1  0.818979  0.321792  0.123274  1
  Ho  Ho14  1  0.319251  0.178068  0.376721  1
  Ho  Ho15  1  0.319251  0.178068  0.123279  1
  Ho  Ho16  1  0.818979  0.321792  0.376726  1
  Ho  Ho17  1  0.180883  0.678157  0.876738  1
  Ho  Ho18  1  0.680844  0.821838  0.623245  1
  Tm  Tm19  1  0.649849  0.989716  0.250000  1
  Si  Si20  1  0.768816  0.621020  0.250000  1
  Si  Si21  1  0.269487  0.879637  0.250000  1
  Si  Si22  1  0.731096  0.120386  0.750000  1
  Si  Si23  1  0.231183  0.379614  0.750000  1
  Si  Si24  1  0.023605  0.112405  0.250000  1
  Si  Si25  1  0.524197  0.387368  0.250000  1
  Si  Si26  1  0.475765  0.612487  0.750000  1
  Si  Si27  1  0.975784  0.887443  0.750000  1
  Si  Si28  1  0.856125  0.531121  0.959985  1
  Si  Si29  1  0.356098  0.968881  0.539988  1
  Si  Si30  1  0.643920  0.031032  0.040229  1
  Si  Si31  1  0.143885  0.468905  0.459958  1
  Si  Si32  1  0.143885  0.468905  0.040042  1
  Si  Si33  1  0.643920  0.031032  0.459771  1
  Si  Si34  1  0.356098  0.968881  0.960012  1
  Si  Si35  1  0.856125  0.531121  0.540015  1
