# generated using pymatgen
data_BaLaAu4
_symmetry_space_group_name_H-M   'P 1'
_cell_length_a   4.86175600
_cell_length_b   4.86175619
_cell_length_c   8.04230200
_cell_angle_alpha   90.00000000
_cell_angle_beta   90.00000000
_cell_angle_gamma   119.99998510
_symmetry_Int_Tables_number   1
_chemical_formula_structural   BaLaAu4
_chemical_formula_sum   'Ba1 La1 Au4'
_cell_volume   164.62561449
_cell_formula_units_Z   1
loop_
 _symmetry_equiv_pos_site_id
 _symmetry_equiv_pos_as_xyz
  1  'x, y, z'
loop_
 _atom_site_type_symbol
 _atom_site_label
 _atom_site_symmetry_multiplicity
 _atom_site_fract_x
 _atom_site_fract_y
 _atom_site_fract_z
 _atom_site_occupancy
  Ba  Ba0  1  0.000000  0.000000  0.702199  1
  La  La1  1  0.000000  0.000000  0.202731  1
  Au  Au2  1  0.333333  0.666667  0.410309  1
  Au  Au3  1  0.666667  0.333333  0.983631  1
  Au  Au4  1  0.666667  0.333333  0.416686  1
  Au  Au5  1  0.333333  0.666667  0.998103  1
