# generated using pymatgen
data_Er3Tm9Fe2Co3Bi
_symmetry_space_group_name_H-M   'P 1'
_cell_length_a   8.20110223
_cell_length_b   8.20131894
_cell_length_c   8.20110327
_cell_angle_alpha   111.08740881
_cell_angle_beta   111.77774781
_cell_angle_gamma   105.61574105
_symmetry_Int_Tables_number   1
_chemical_formula_structural   Er3Tm9Fe2Co3Bi
_chemical_formula_sum   'Er3 Tm9 Fe2 Co3 Bi1'
_cell_volume   423.18528841
_cell_formula_units_Z   1
loop_
 _symmetry_equiv_pos_site_id
 _symmetry_equiv_pos_as_xyz
  1  'x, y, z'
loop_
 _atom_site_type_symbol
 _atom_site_label
 _atom_site_symmetry_multiplicity
 _atom_site_fract_x
 _atom_site_fract_y
 _atom_site_fract_z
 _atom_site_occupancy
  Er  Er0  1  0.791272  0.594894  0.803622  1
  Er  Er1  1  0.208720  0.012464  0.803746  1
  Er  Er2  1  0.791281  0.987655  0.196373  1
  Tm  Tm3  1  0.284590  0.185057  0.469460  1
  Tm  Tm4  1  0.715191  0.814918  0.530249  1
  Tm  Tm5  1  0.284669  0.814918  0.099727  1
  Tm  Tm6  1  0.715598  0.185057  0.900467  1
  Tm  Tm7  1  0.618654  0.310540  0.308269  1
  Tm  Tm8  1  0.381154  0.689320  0.691479  1
  Tm  Tm9  1  0.002272  0.310540  0.691886  1
  Tm  Tm10  1  0.997839  0.689320  0.308166  1
  Tm  Tm11  1  0.208556  0.405096  0.196540  1
  Fe  Fe12  1  0.000124  0.382209  0.382085  1
  Fe  Fe13  1  0.999962  0.617739  0.617777  1
  Co  Co14  1  0.388941  0.888841  0.499899  1
  Co  Co15  1  0.611052  0.111019  0.499967  1
  Co  Co16  1  0.000224  0.000446  0.000223  1
  Bi  Bi17  1  0.499903  0.499966  0.000063  1
