# generated using pymatgen
data_DyEr3Al15(GaIr2)3
_symmetry_space_group_name_H-M   'P 1'
_cell_length_a   7.52419151
_cell_length_b   7.52300397
_cell_length_c   9.50388700
_cell_angle_alpha   90.00000000
_cell_angle_beta   90.00000000
_cell_angle_gamma   119.43867831
_symmetry_Int_Tables_number   1
_chemical_formula_structural   DyEr3Al15(GaIr2)3
_chemical_formula_sum   'Dy1 Er3 Al15 Ga3 Ir6'
_cell_volume   468.50240069
_cell_formula_units_Z   1
loop_
 _symmetry_equiv_pos_site_id
 _symmetry_equiv_pos_as_xyz
  1  'x, y, z'
loop_
 _atom_site_type_symbol
 _atom_site_label
 _atom_site_symmetry_multiplicity
 _atom_site_fract_x
 _atom_site_fract_y
 _atom_site_fract_z
 _atom_site_occupancy
  Dy  Dy0  1  0.329244  0.008340  0.250000  1
  Er  Er1  1  0.994174  0.674079  0.750000  1
  Er  Er2  1  0.003005  0.325671  0.250000  1
  Er  Er3  1  0.674627  0.995721  0.750000  1
  Al  Al4  1  0.001109  0.335745  0.574038  1
  Al  Al5  1  0.998557  0.664268  0.427228  1
  Al  Al6  1  0.998557  0.664268  0.072772  1
  Al  Al7  1  0.335611  0.000616  0.925742  1
  Al  Al8  1  0.001109  0.335745  0.925962  1
  Al  Al9  1  0.664310  0.997539  0.073021  1
  Al  Al10  1  0.664310  0.997539  0.426979  1
  Al  Al11  1  0.335611  0.000616  0.574258  1
  Al  Al12  1  0.333453  0.334094  0.051388  1
  Al  Al13  1  0.666231  0.666252  0.944037  1
  Al  Al14  1  0.666231  0.666252  0.555963  1
  Al  Al15  1  0.333453  0.334094  0.448612  1
  Al  Al16  1  0.337878  0.549839  0.750000  1
  Al  Al17  1  0.549677  0.338170  0.750000  1
  Al  Al18  1  0.449741  0.659869  0.250000  1
  Ga  Ga19  1  0.133708  0.133987  0.750000  1
  Ga  Ga20  1  0.868620  0.868430  0.250000  1
  Ga  Ga21  1  0.660894  0.453273  0.250000  1
  Ir  Ir22  1  0.671804  0.327224  0.502282  1
  Ir  Ir23  1  0.328492  0.671109  0.499957  1
  Ir  Ir24  1  0.328492  0.671109  0.000043  1
  Ir  Ir25  1  0.671804  0.327224  0.997718  1
  Ir  Ir26  1  0.999648  0.999463  0.500256  1
  Ir  Ir27  1  0.999648  0.999463  0.999744  1
