# generated using pymatgen
data_Li(Er2B7)2
_symmetry_space_group_name_H-M   'P 1'
_cell_length_a   7.17466900
_cell_length_b   7.17466900
_cell_length_c   7.51185600
_cell_angle_alpha   90.00000000
_cell_angle_beta   90.00000000
_cell_angle_gamma   90.00000000
_symmetry_Int_Tables_number   1
_chemical_formula_structural   Li(Er2B7)2
_chemical_formula_sum   'Li2 Er8 B28'
_cell_volume   386.67936242
_cell_formula_units_Z   2
loop_
 _symmetry_equiv_pos_site_id
 _symmetry_equiv_pos_as_xyz
  1  'x, y, z'
loop_
 _atom_site_type_symbol
 _atom_site_label
 _atom_site_symmetry_multiplicity
 _atom_site_fract_x
 _atom_site_fract_y
 _atom_site_fract_z
 _atom_site_occupancy
  Li  Li0  1  0.000000  0.000000  0.000000  1
  Li  Li1  1  0.500000  0.500000  0.500000  1
  Er  Er2  1  0.196273  0.327269  0.000000  1
  Er  Er3  1  0.672731  0.196273  0.000000  1
  Er  Er4  1  0.327269  0.803727  0.000000  1
  Er  Er5  1  0.696273  0.172731  0.500000  1
  Er  Er6  1  0.303727  0.827269  0.500000  1
  Er  Er7  1  0.803727  0.672731  0.000000  1
  Er  Er8  1  0.827269  0.696273  0.500000  1
  Er  Er9  1  0.172731  0.303727  0.500000  1
  B  B10  1  0.175102  0.038438  0.235358  1
  B  B11  1  0.961562  0.175102  0.235358  1
  B  B12  1  0.038438  0.824898  0.235358  1
  B  B13  1  0.675102  0.461562  0.264642  1
  B  B14  1  0.324898  0.538438  0.264642  1
  B  B15  1  0.824898  0.961562  0.235358  1
  B  B16  1  0.538438  0.675102  0.264642  1
  B  B17  1  0.461562  0.324898  0.264642  1
  B  B18  1  0.824898  0.961562  0.764642  1
  B  B19  1  0.038438  0.824898  0.764642  1
  B  B20  1  0.961562  0.175102  0.764642  1
  B  B21  1  0.324898  0.538438  0.735358  1
  B  B22  1  0.675102  0.461562  0.735358  1
  B  B23  1  0.175102  0.038438  0.764642  1
  B  B24  1  0.461562  0.324898  0.735358  1
  B  B25  1  0.538438  0.675102  0.735358  1
  B  B26  1  0.088622  0.588622  0.250000  1
  B  B27  1  0.411378  0.088622  0.250000  1
  B  B28  1  0.588622  0.911378  0.250000  1
  B  B29  1  0.911378  0.411378  0.250000  1
  B  B30  1  0.911378  0.411378  0.750000  1
  B  B31  1  0.588622  0.911378  0.750000  1
  B  B32  1  0.411378  0.088622  0.750000  1
  B  B33  1  0.088622  0.588622  0.750000  1
  B  B34  1  0.000000  0.000000  0.389904  1
  B  B35  1  0.500000  0.500000  0.110096  1
  B  B36  1  0.000000  0.000000  0.610096  1
  B  B37  1  0.500000  0.500000  0.889904  1
