# generated using pymatgen
data_TiBMoC
_symmetry_space_group_name_H-M   'P 1'
_cell_length_a   8.87958004
_cell_length_b   8.87958051
_cell_length_c   3.09054600
_cell_angle_alpha   90.00000000
_cell_angle_beta   90.00000000
_cell_angle_gamma   159.80209474
_symmetry_Int_Tables_number   1
_chemical_formula_structural   TiBMoC
_chemical_formula_sum   'Ti2 B2 Mo2 C2'
_cell_volume   84.13394313
_cell_formula_units_Z   2
loop_
 _symmetry_equiv_pos_site_id
 _symmetry_equiv_pos_as_xyz
  1  'x, y, z'
loop_
 _atom_site_type_symbol
 _atom_site_label
 _atom_site_symmetry_multiplicity
 _atom_site_fract_x
 _atom_site_fract_y
 _atom_site_fract_z
 _atom_site_occupancy
  Ti  Ti0  1  0.308688  0.691313  0.250000  1
  Ti  Ti1  1  0.691313  0.308687  0.750000  1
  B  B2  1  0.529726  0.470274  0.750000  1
  B  B3  1  0.470274  0.529726  0.250000  1
  Mo  Mo4  1  0.070956  0.929044  0.250000  1
  Mo  Mo5  1  0.929044  0.070956  0.750000  1
  C  C6  1  0.810586  0.189414  0.750000  1
  C  C7  1  0.189414  0.810586  0.250000  1
