# generated using pymatgen
data_Tm5BiPbO12
_symmetry_space_group_name_H-M   'P 1'
_cell_length_a   6.45030752
_cell_length_b   6.47988872
_cell_length_c   6.41375600
_cell_angle_alpha   98.80785417
_cell_angle_beta   99.25177312
_cell_angle_gamma   99.56074022
_symmetry_Int_Tables_number   1
_chemical_formula_structural   Tm5BiPbO12
_chemical_formula_sum   'Tm5 Bi1 Pb1 O12'
_cell_volume   256.42302021
_cell_formula_units_Z   1
loop_
 _symmetry_equiv_pos_site_id
 _symmetry_equiv_pos_as_xyz
  1  'x, y, z'
loop_
 _atom_site_type_symbol
 _atom_site_label
 _atom_site_symmetry_multiplicity
 _atom_site_fract_x
 _atom_site_fract_y
 _atom_site_fract_z
 _atom_site_occupancy
  Tm  Tm0  1  0.856579  0.387449  0.681964  1
  Tm  Tm1  1  0.692292  0.859462  0.393832  1
  Tm  Tm2  1  0.610954  0.312884  0.146861  1
  Tm  Tm3  1  0.133780  0.607338  0.311232  1
  Tm  Tm4  1  0.313026  0.142373  0.608188  1
  Bi  Bi5  1  0.004091  0.002905  0.999230  1
  Pb  Pb6  1  0.395503  0.678612  0.856744  1
  O  O7  1  0.177466  0.425716  0.579809  1
  O  O8  1  0.582470  0.172082  0.429762  1
  O  O9  1  0.426262  0.590542  0.174597  1
  O  O10  1  0.817164  0.569691  0.414496  1
  O  O11  1  0.415065  0.818188  0.578755  1
  O  O12  1  0.576701  0.419221  0.822020  1
  O  O13  1  0.924949  0.052340  0.680963  1
  O  O14  1  0.945803  0.316541  0.078412  1
  O  O15  1  0.318669  0.091277  0.950725  1
  O  O16  1  0.073896  0.945941  0.319160  1
  O  O17  1  0.054968  0.683164  0.922679  1
  O  O18  1  0.680363  0.924275  0.050572  1
