# generated using pymatgen
data_NaSb12Ir3Ru
_symmetry_space_group_name_H-M   'P 1'
_cell_length_a   8.16295968
_cell_length_b   8.16295884
_cell_length_c   8.16295938
_cell_angle_alpha   109.51112925
_cell_angle_beta   109.51112434
_cell_angle_gamma   109.51112475
_symmetry_Int_Tables_number   1
_chemical_formula_structural   NaSb12Ir3Ru
_chemical_formula_sum   'Na1 Sb12 Ir3 Ru1'
_cell_volume   418.09761156
_cell_formula_units_Z   1
loop_
 _symmetry_equiv_pos_site_id
 _symmetry_equiv_pos_as_xyz
  1  'x, y, z'
loop_
 _atom_site_type_symbol
 _atom_site_label
 _atom_site_symmetry_multiplicity
 _atom_site_fract_x
 _atom_site_fract_y
 _atom_site_fract_z
 _atom_site_occupancy
  Na  Na0  1  0.000000  0.000000  0.000000  1
  Sb  Sb1  1  0.657402  0.811848  0.154224  1
  Sb  Sb2  1  0.845776  0.342598  0.188152  1
  Sb  Sb3  1  0.505560  0.841982  0.660198  1
  Sb  Sb4  1  0.841982  0.660198  0.505560  1
  Sb  Sb5  1  0.494440  0.158018  0.339802  1
  Sb  Sb6  1  0.154224  0.657402  0.811848  1
  Sb  Sb7  1  0.811848  0.154224  0.657402  1
  Sb  Sb8  1  0.188152  0.845776  0.342598  1
  Sb  Sb9  1  0.158018  0.339802  0.494440  1
  Sb  Sb10  1  0.660198  0.505560  0.841982  1
  Sb  Sb11  1  0.339802  0.494440  0.158018  1
  Sb  Sb12  1  0.342598  0.188152  0.845776  1
  Ir  Ir13  1  0.000000  0.000000  0.500000  1
  Ir  Ir14  1  0.000000  0.500000  0.000000  1
  Ir  Ir15  1  0.500000  0.000000  0.000000  1
  Ru  Ru16  1  0.500000  0.500000  0.500000  1
