# generated using pymatgen
data_K3SrNdUTe6
_symmetry_space_group_name_H-M   'P 1'
_cell_length_a   8.06329406
_cell_length_b   8.06329329
_cell_length_c   8.69158167
_cell_angle_alpha   81.10468832
_cell_angle_beta   81.10468170
_cell_angle_gamma   120.07289938
_symmetry_Int_Tables_number   1
_chemical_formula_structural   K3SrNdUTe6
_chemical_formula_sum   'K3 Sr1 Nd1 U1 Te6'
_cell_volume   465.00173392
_cell_formula_units_Z   1
loop_
 _symmetry_equiv_pos_site_id
 _symmetry_equiv_pos_as_xyz
  1  'x, y, z'
loop_
 _atom_site_type_symbol
 _atom_site_label
 _atom_site_symmetry_multiplicity
 _atom_site_fract_x
 _atom_site_fract_y
 _atom_site_fract_z
 _atom_site_occupancy
  K  K0  1  0.340354  0.659646  0.500000  1
  K  K1  1  0.659479  0.340521  0.500000  1
  K  K2  1  0.000095  0.999905  0.500000  1
  Sr  Sr3  1  0.500068  0.499932  0.000000  1
  Nd  Nd4  1  0.167600  0.832400  0.000000  1
  U  U5  1  0.832288  0.167712  0.000000  1
  Te  Te6  1  0.776095  0.785513  0.212178  1
  Te  Te7  1  0.436940  0.079924  0.214859  1
  Te  Te8  1  0.070017  0.417499  0.214361  1
  Te  Te9  1  0.582501  0.929983  0.785639  1
  Te  Te10  1  0.920076  0.563060  0.785141  1
  Te  Te11  1  0.214487  0.223905  0.787822  1
