# generated using pymatgen
data_La3Y5Ho2C4I15
_symmetry_space_group_name_H-M   'P 1'
_cell_length_a   9.72380692
_cell_length_b   10.50720735
_cell_length_c   11.66815156
_cell_angle_alpha   93.20745363
_cell_angle_beta   114.28938635
_cell_angle_gamma   109.50771085
_symmetry_Int_Tables_number   1
_chemical_formula_structural   La3Y5Ho2C4I15
_chemical_formula_sum   'La3 Y5 Ho2 C4 I15'
_cell_volume   997.96880262
_cell_formula_units_Z   1
loop_
 _symmetry_equiv_pos_site_id
 _symmetry_equiv_pos_as_xyz
  1  'x, y, z'
loop_
 _atom_site_type_symbol
 _atom_site_label
 _atom_site_symmetry_multiplicity
 _atom_site_fract_x
 _atom_site_fract_y
 _atom_site_fract_z
 _atom_site_occupancy
  La  La0  1  0.705673  0.568772  0.045000  1
  La  La1  1  0.292987  0.432695  0.955346  1
  La  La2  1  0.663153  0.253503  0.835353  1
  Y  Y3  1  0.591131  0.543329  0.336672  1
  Y  Y4  1  0.352229  0.743513  0.163315  1
  Y  Y5  1  0.766986  0.874111  0.252570  1
  Y  Y6  1  0.525737  0.186945  0.097696  1
  Y  Y7  1  0.236746  0.124261  0.750233  1
  Ho  Ho8  1  0.405080  0.456320  0.663134  1
  Ho  Ho9  1  0.473041  0.813796  0.902181  1
  C  C10  1  0.482668  0.297753  0.937686  1
  C  C11  1  0.517420  0.705003  0.061707  1
  C  C12  1  0.453656  0.361967  0.831984  1
  C  C13  1  0.545447  0.638819  0.166615  1
  I  I14  1  0.218088  0.907990  0.940677  1
  I  I15  1  0.113838  0.193630  0.480635  1
  I  I16  1  0.167018  0.566296  0.698523  1
  I  I17  1  0.393365  0.961407  0.652536  1
  I  I18  1  0.695828  0.737615  0.810378  1
  I  I19  1  0.299383  0.261704  0.187418  1
  I  I20  1  0.832167  0.433473  0.302093  1
  I  I21  1  0.885718  0.805542  0.522053  1
  I  I22  1  0.358466  0.628240  0.407063  1
  I  I23  1  0.051761  0.844091  0.226357  1
  I  I24  1  0.784702  0.087566  0.068732  1
  I  I25  1  0.636117  0.380270  0.582674  1
  I  I26  1  0.948854  0.155125  0.774229  1
  I  I27  1  0.592081  0.025124  0.340745  1
  I  I28  1  0.010661  0.511142  0.006392  1
