# generated using pymatgen
data_EuDyZr2(NiAs)4
_symmetry_space_group_name_H-M   'P 1'
_cell_length_a   3.99689900
_cell_length_b   3.99689919
_cell_length_c   15.07816900
_cell_angle_alpha   90.00000000
_cell_angle_beta   90.00000000
_cell_angle_gamma   120.00000671
_symmetry_Int_Tables_number   1
_chemical_formula_structural   EuDyZr2(NiAs)4
_chemical_formula_sum   'Eu1 Dy1 Zr2 Ni4 As4'
_cell_volume   208.60541489
_cell_formula_units_Z   1
loop_
 _symmetry_equiv_pos_site_id
 _symmetry_equiv_pos_as_xyz
  1  'x, y, z'
loop_
 _atom_site_type_symbol
 _atom_site_label
 _atom_site_symmetry_multiplicity
 _atom_site_fract_x
 _atom_site_fract_y
 _atom_site_fract_z
 _atom_site_occupancy
  Eu  Eu0  1  0.000000  0.000000  0.000000  1
  Dy  Dy1  1  0.000000  0.000000  0.500000  1
  Zr  Zr2  1  0.000000  0.000000  0.253591  1
  Zr  Zr3  1  0.000000  0.000000  0.746409  1
  Ni  Ni4  1  0.333333  0.666667  0.164250  1
  Ni  Ni5  1  0.666667  0.333333  0.835750  1
  Ni  Ni6  1  0.666667  0.333333  0.649838  1
  Ni  Ni7  1  0.333333  0.666667  0.350162  1
  As  As8  1  0.333333  0.666667  0.619493  1
  As  As9  1  0.666667  0.333333  0.380507  1
  As  As10  1  0.666667  0.333333  0.130415  1
  As  As11  1  0.333333  0.666667  0.869585  1
