# generated using pymatgen
data_Sm5Dy3Sc12Si15Ag
_symmetry_space_group_name_H-M   'P 1'
_cell_length_a   7.18697524
_cell_length_b   7.42128767
_cell_length_c   14.16480106
_cell_angle_alpha   89.85213133
_cell_angle_beta   89.66403831
_cell_angle_gamma   90.21039665
_symmetry_Int_Tables_number   1
_chemical_formula_structural   Sm5Dy3Sc12Si15Ag
_chemical_formula_sum   'Sm5 Dy3 Sc12 Si15 Ag1'
_cell_volume   755.48184000
_cell_formula_units_Z   1
loop_
 _symmetry_equiv_pos_site_id
 _symmetry_equiv_pos_as_xyz
  1  'x, y, z'
loop_
 _atom_site_type_symbol
 _atom_site_label
 _atom_site_symmetry_multiplicity
 _atom_site_fract_x
 _atom_site_fract_y
 _atom_site_fract_z
 _atom_site_occupancy
  Sm  Sm0  1  0.011593  0.173454  0.098444  1
  Sm  Sm1  1  0.988748  0.828375  0.903126  1
  Sm  Sm2  1  0.487935  0.674158  0.903925  1
  Sm  Sm3  1  0.989596  0.831595  0.596304  1
  Sm  Sm4  1  0.511395  0.326250  0.097132  1
  Dy  Dy5  1  0.008576  0.172275  0.398130  1
  Dy  Dy6  1  0.511921  0.322652  0.399534  1
  Dy  Dy7  1  0.493966  0.678274  0.600030  1
  Sc  Sc8  1  0.163663  0.500435  0.752739  1
  Sc  Sc9  1  0.837035  0.499281  0.251922  1
  Sc  Sc10  1  0.337292  0.998922  0.249696  1
  Sc  Sc11  1  0.666039  0.998295  0.751181  1
  Sc  Sc12  1  0.343348  0.173921  0.626562  1
  Sc  Sc13  1  0.664569  0.822712  0.374368  1
  Sc  Sc14  1  0.166939  0.674753  0.372277  1
  Sc  Sc15  1  0.669854  0.824877  0.125728  1
  Sc  Sc16  1  0.825069  0.325773  0.624123  1
  Sc  Sc17  1  0.329018  0.174634  0.875634  1
  Sc  Sc18  1  0.830348  0.323475  0.875616  1
  Sc  Sc19  1  0.168850  0.675665  0.126211  1
  Si  Si20  1  0.037400  0.126236  0.749109  1
  Si  Si21  1  0.964248  0.880100  0.250382  1
  Si  Si22  1  0.465912  0.618184  0.249442  1
  Si  Si23  1  0.535378  0.383172  0.751268  1
  Si  Si24  1  0.288364  0.877346  0.749471  1
  Si  Si25  1  0.711060  0.124236  0.250732  1
  Si  Si26  1  0.213304  0.373887  0.251000  1
  Si  Si27  1  0.788002  0.623522  0.750680  1
  Si  Si28  1  0.834687  0.535017  0.458085  1
  Si  Si29  1  0.339651  0.962662  0.460367  1
  Si  Si30  1  0.846401  0.536945  0.039393  1
  Si  Si31  1  0.655485  0.037169  0.536915  1
  Si  Si32  1  0.152172  0.463477  0.961704  1
  Si  Si33  1  0.654401  0.036469  0.960707  1
  Si  Si34  1  0.345050  0.963073  0.040171  1
  Ag  Ag35  1  0.162732  0.458729  0.537893  1
