# generated using pymatgen
data_TmHf9(In2Rh)4
_symmetry_space_group_name_H-M   'P 1'
_cell_length_a   3.37584500
_cell_length_b   7.67384897
_cell_length_c   17.56967066
_cell_angle_alpha   90.15372920
_cell_angle_beta   90.00000000
_cell_angle_gamma   90.00000000
_symmetry_Int_Tables_number   1
_chemical_formula_structural   TmHf9(In2Rh)4
_chemical_formula_sum   'Tm1 Hf9 In8 Rh4'
_cell_volume   455.15341254
_cell_formula_units_Z   1
loop_
 _symmetry_equiv_pos_site_id
 _symmetry_equiv_pos_as_xyz
  1  'x, y, z'
loop_
 _atom_site_type_symbol
 _atom_site_label
 _atom_site_symmetry_multiplicity
 _atom_site_fract_x
 _atom_site_fract_y
 _atom_site_fract_z
 _atom_site_occupancy
  Tm  Tm0  1  0.000000  0.259696  0.220757  1
  Hf  Hf1  1  0.000000  0.638225  0.079401  1
  Hf  Hf2  1  0.000000  0.762584  0.277745  1
  Hf  Hf3  1  0.000000  0.861546  0.581296  1
  Hf  Hf4  1  0.000000  0.239492  0.723049  1
  Hf  Hf5  1  0.000000  0.739661  0.777277  1
  Hf  Hf6  1  0.000000  0.137028  0.420523  1
  Hf  Hf7  1  0.000000  0.000197  0.999414  1
  Hf  Hf8  1  0.000000  0.362513  0.918126  1
  Hf  Hf9  1  0.000000  0.500608  0.500842  1
  In  In10  1  0.500000  0.798889  0.434826  1
  In  In11  1  0.500000  0.699338  0.932750  1
  In  In12  1  0.500000  0.060380  0.850734  1
  In  In13  1  0.500000  0.560714  0.648964  1
  In  In14  1  0.500000  0.199224  0.566804  1
  In  In15  1  0.500000  0.936500  0.148902  1
  In  In16  1  0.500000  0.441079  0.352341  1
  In  In17  1  0.500000  0.302905  0.064288  1
  Rh  Rh18  1  0.500000  0.451624  0.806414  1
  Rh  Rh19  1  0.500000  0.558244  0.191916  1
  Rh  Rh20  1  0.500000  0.951174  0.693177  1
  Rh  Rh21  1  0.500000  0.038380  0.310456  1
