# generated using pymatgen
data_U2TiIr3
_symmetry_space_group_name_H-M   'P 1'
_cell_length_a   5.63459419
_cell_length_b   5.63459333
_cell_length_c   5.10572650
_cell_angle_alpha   56.50999199
_cell_angle_beta   56.50999819
_cell_angle_gamma   60.00000036
_symmetry_Int_Tables_number   1
_chemical_formula_structural   U2TiIr3
_chemical_formula_sum   'U2 Ti1 Ir3'
_cell_volume   108.19803125
_cell_formula_units_Z   1
loop_
 _symmetry_equiv_pos_site_id
 _symmetry_equiv_pos_as_xyz
  1  'x, y, z'
loop_
 _atom_site_type_symbol
 _atom_site_label
 _atom_site_symmetry_multiplicity
 _atom_site_fract_x
 _atom_site_fract_y
 _atom_site_fract_z
 _atom_site_occupancy
  U  U0  1  0.740239  0.740239  0.779285  1
  U  U1  1  0.509761  0.509761  0.470715  1
  Ti  Ti2  1  0.125000  0.125000  0.625000  1
  Ir  Ir3  1  0.125000  0.625000  0.125000  1
  Ir  Ir4  1  0.625000  0.125000  0.125000  1
  Ir  Ir5  1  0.125000  0.125000  0.125000  1
