# generated using pymatgen
data_MnZn22AgRh2
_symmetry_space_group_name_H-M   'P 1'
_cell_length_a   7.88563003
_cell_length_b   7.95342147
_cell_length_c   7.96178933
_cell_angle_alpha   109.56659199
_cell_angle_beta   109.22205247
_cell_angle_gamma   109.40986589
_symmetry_Int_Tables_number   1
_chemical_formula_structural   MnZn22AgRh2
_chemical_formula_sum   'Mn1 Zn22 Ag1 Rh2'
_cell_volume   385.41095927
_cell_formula_units_Z   1
loop_
 _symmetry_equiv_pos_site_id
 _symmetry_equiv_pos_as_xyz
  1  'x, y, z'
loop_
 _atom_site_type_symbol
 _atom_site_label
 _atom_site_symmetry_multiplicity
 _atom_site_fract_x
 _atom_site_fract_y
 _atom_site_fract_z
 _atom_site_occupancy
  Mn  Mn0  1  0.344746  0.001799  0.000000  1
  Zn  Zn1  1  0.000594  0.789589  0.000000  1
  Zn  Zn2  1  0.778938  0.992948  0.000000  1
  Zn  Zn3  1  0.000787  0.993292  0.781219  1
  Zn  Zn4  1  0.219568  0.212072  0.218781  1
  Zn  Zn5  1  0.354964  0.622425  0.355205  1
  Zn  Zn6  1  0.269852  0.002978  0.652004  1
  Zn  Zn7  1  0.649002  0.002846  0.267846  1
  Zn  Zn8  1  0.279368  0.657368  0.000000  1
  Zn  Zn9  1  0.731734  0.734803  0.382223  1
  Zn  Zn10  1  0.381156  0.735000  0.732154  1
  Zn  Zn11  1  0.000337  0.655683  0.278595  1
  Zn  Zn12  1  0.999759  0.267221  0.644795  1
  Zn  Zn13  1  0.643470  0.266437  0.000000  1
  Zn  Zn14  1  0.349511  0.352580  0.617777  1
  Zn  Zn15  1  0.617848  0.350973  0.347996  1
  Zn  Zn16  1  0.721742  0.377088  0.721405  1
  Zn  Zn17  1  0.357491  0.354760  0.000000  1
  Zn  Zn18  1  0.001991  0.638538  0.648879  1
  Zn  Zn19  1  0.998045  0.354811  0.356427  1
  Zn  Zn20  1  0.353112  0.989660  0.351121  1
  Zn  Zn21  1  0.641619  0.998384  0.643573  1
  Zn  Zn22  1  0.647160  0.638705  0.000000  1
  Ag  Ag23  1  0.000163  0.351100  0.000000  1
  Rh  Rh24  1  0.000930  0.001879  0.344816  1
  Rh  Rh25  1  0.656113  0.657063  0.655184  1
