# generated using pymatgen
data_Nd3Si2Ag3Sn
_symmetry_space_group_name_H-M   'P 1'
_cell_length_a   7.32898600
_cell_length_b   7.32898645
_cell_length_c   4.44681100
_cell_angle_alpha   90.00000000
_cell_angle_beta   90.00000000
_cell_angle_gamma   120.00000700
_symmetry_Int_Tables_number   1
_chemical_formula_structural   Nd3Si2Ag3Sn
_chemical_formula_sum   'Nd3 Si2 Ag3 Sn1'
_cell_volume   206.85550496
_cell_formula_units_Z   1
loop_
 _symmetry_equiv_pos_site_id
 _symmetry_equiv_pos_as_xyz
  1  'x, y, z'
loop_
 _atom_site_type_symbol
 _atom_site_label
 _atom_site_symmetry_multiplicity
 _atom_site_fract_x
 _atom_site_fract_y
 _atom_site_fract_z
 _atom_site_occupancy
  Nd  Nd0  1  0.000000  0.567393  0.000000  1
  Nd  Nd1  1  0.432607  0.432607  0.000000  1
  Nd  Nd2  1  0.567393  0.000000  0.000000  1
  Si  Si3  1  0.666667  0.333333  0.500000  1
  Si  Si4  1  0.333333  0.666667  0.500000  1
  Ag  Ag5  1  0.000000  0.260780  0.500000  1
  Ag  Ag6  1  0.739220  0.739220  0.500000  1
  Ag  Ag7  1  0.260780  0.000000  0.500000  1
  Sn  Sn8  1  0.000000  0.000000  0.000000  1
