# generated using pymatgen
data_Dy4Cr4Co7(P4Ir3)3
_symmetry_space_group_name_H-M   'P 1'
_cell_length_a   3.77165800
_cell_length_b   10.66463867
_cell_length_c   12.29048498
_cell_angle_alpha   89.96929538
_cell_angle_beta   90.00000000
_cell_angle_gamma   90.00000000
_symmetry_Int_Tables_number   1
_chemical_formula_structural   Dy4Cr4Co7(P4Ir3)3
_chemical_formula_sum   'Dy4 Cr4 Co7 P12 Ir9'
_cell_volume   494.36465077
_cell_formula_units_Z   1
loop_
 _symmetry_equiv_pos_site_id
 _symmetry_equiv_pos_as_xyz
  1  'x, y, z'
loop_
 _atom_site_type_symbol
 _atom_site_label
 _atom_site_symmetry_multiplicity
 _atom_site_fract_x
 _atom_site_fract_y
 _atom_site_fract_z
 _atom_site_occupancy
  Dy  Dy0  1  0.250000  0.581170  0.712532  1
  Dy  Dy1  1  0.250000  0.916523  0.210779  1
  Dy  Dy2  1  0.750000  0.417073  0.288670  1
  Dy  Dy3  1  0.750000  0.086434  0.790714  1
  Cr  Cr4  1  0.250000  0.706339  0.989515  1
  Cr  Cr5  1  0.250000  0.791096  0.485601  1
  Cr  Cr6  1  0.750000  0.292186  0.011517  1
  Cr  Cr7  1  0.750000  0.210318  0.509259  1
  Co  Co8  1  0.250000  0.613456  0.195001  1
  Co  Co9  1  0.750000  0.113361  0.304159  1
  Co  Co10  1  0.750000  0.384959  0.805565  1
  Co  Co11  1  0.250000  0.461815  0.935299  1
  Co  Co12  1  0.250000  0.037140  0.431472  1
  Co  Co13  1  0.750000  0.536208  0.067435  1
  Co  Co14  1  0.750000  0.964334  0.562436  1
  P  P15  1  0.250000  0.428131  0.110042  1
  P  P16  1  0.250000  0.079561  0.603988  1
  P  P17  1  0.750000  0.568684  0.892218  1
  P  P18  1  0.750000  0.927692  0.388861  1
  P  P19  1  0.250000  0.274427  0.870780  1
  P  P20  1  0.250000  0.226422  0.369749  1
  P  P21  1  0.750000  0.725152  0.129530  1
  P  P22  1  0.750000  0.770903  0.627354  1
  P  P23  1  0.250000  0.597052  0.380809  1
  P  P24  1  0.250000  0.902675  0.889763  1
  P  P25  1  0.750000  0.403023  0.618166  1
  P  P26  1  0.750000  0.097913  0.118924  1
  Ir  Ir27  1  0.250000  0.404004  0.480247  1
  Ir  Ir28  1  0.250000  0.097796  0.983254  1
  Ir  Ir29  1  0.750000  0.595529  0.517957  1
  Ir  Ir30  1  0.750000  0.903720  0.018818  1
  Ir  Ir31  1  0.250000  0.226784  0.180272  1
  Ir  Ir32  1  0.250000  0.276396  0.679645  1
  Ir  Ir33  1  0.750000  0.766582  0.822692  1
  Ir  Ir34  1  0.750000  0.725672  0.319570  1
  Ir  Ir35  1  0.250000  0.889474  0.697407  1
