# generated using pymatgen
data_Na2Mn(PdSe2)3
_symmetry_space_group_name_H-M   'P 1'
_cell_length_a   7.45585200
_cell_length_b   7.45585266
_cell_length_c   11.78971500
_cell_angle_alpha   90.00000000
_cell_angle_beta   90.00000000
_cell_angle_gamma   119.99999708
_symmetry_Int_Tables_number   1
_chemical_formula_structural   Na2Mn(PdSe2)3
_chemical_formula_sum   'Na4 Mn2 Pd6 Se12'
_cell_volume   567.58191224
_cell_formula_units_Z   2
loop_
 _symmetry_equiv_pos_site_id
 _symmetry_equiv_pos_as_xyz
  1  'x, y, z'
loop_
 _atom_site_type_symbol
 _atom_site_label
 _atom_site_symmetry_multiplicity
 _atom_site_fract_x
 _atom_site_fract_y
 _atom_site_fract_z
 _atom_site_occupancy
  Na  Na0  1  0.333333  0.666667  0.310317  1
  Na  Na1  1  0.666667  0.333333  0.810317  1
  Na  Na2  1  0.000000  0.000000  0.697026  1
  Na  Na3  1  0.000000  0.000000  0.197026  1
  Mn  Mn4  1  0.666667  0.333333  0.499310  1
  Mn  Mn5  1  0.333333  0.666667  0.999310  1
  Pd  Pd6  1  0.834438  0.165562  0.006090  1
  Pd  Pd7  1  0.668875  0.834438  0.506090  1
  Pd  Pd8  1  0.165562  0.331125  0.506090  1
  Pd  Pd9  1  0.834438  0.668875  0.006090  1
  Pd  Pd10  1  0.331125  0.165562  0.006090  1
  Pd  Pd11  1  0.165562  0.834438  0.506090  1
  Se  Se12  1  0.500617  0.499383  0.611955  1
  Se  Se13  1  0.001234  0.500617  0.111955  1
  Se  Se14  1  0.499383  0.998766  0.111955  1
  Se  Se15  1  0.500617  0.001234  0.611955  1
  Se  Se16  1  0.162483  0.837517  0.895003  1
  Se  Se17  1  0.324968  0.162483  0.395003  1
  Se  Se18  1  0.837517  0.675032  0.395003  1
  Se  Se19  1  0.162483  0.324968  0.895003  1
  Se  Se20  1  0.675032  0.837517  0.895003  1
  Se  Se21  1  0.837517  0.162483  0.395003  1
  Se  Se22  1  0.499383  0.500617  0.111955  1
  Se  Se23  1  0.998766  0.499383  0.611955  1
