# generated using pymatgen
data_Ho2Er7Th5Rh6
_symmetry_space_group_name_H-M   'P 1'
_cell_length_a   9.72432706
_cell_length_b   9.72432525
_cell_length_c   6.38969500
_cell_angle_alpha   89.77942044
_cell_angle_beta   90.22057952
_cell_angle_gamma   119.25481526
_symmetry_Int_Tables_number   1
_chemical_formula_structural   Ho2Er7Th5Rh6
_chemical_formula_sum   'Ho2 Er7 Th5 Rh6'
_cell_volume   527.15440971
_cell_formula_units_Z   1
loop_
 _symmetry_equiv_pos_site_id
 _symmetry_equiv_pos_as_xyz
  1  'x, y, z'
loop_
 _atom_site_type_symbol
 _atom_site_label
 _atom_site_symmetry_multiplicity
 _atom_site_fract_x
 _atom_site_fract_y
 _atom_site_fract_z
 _atom_site_occupancy
  Ho  Ho0  1  0.666814  0.333186  0.529557  1
  Ho  Ho1  1  0.332656  0.667344  0.027837  1
  Er  Er2  1  0.128276  0.871724  0.256550  1
  Er  Er3  1  0.459490  0.920929  0.550064  1
  Er  Er4  1  0.079071  0.540510  0.550064  1
  Er  Er5  1  0.459952  0.540048  0.550898  1
  Er  Er6  1  0.537671  0.077094  0.054678  1
  Er  Er7  1  0.922906  0.462329  0.054678  1
  Er  Er8  1  0.539638  0.460362  0.053022  1
  Th  Th9  1  0.873538  0.744120  0.757800  1
  Th  Th10  1  0.255880  0.126462  0.757800  1
  Th  Th11  1  0.870923  0.129077  0.756518  1
  Th  Th12  1  0.130364  0.255558  0.258271  1
  Th  Th13  1  0.744442  0.869636  0.258271  1
  Rh  Rh14  1  0.184114  0.367233  0.793841  1
  Rh  Rh15  1  0.632767  0.815886  0.793841  1
  Rh  Rh16  1  0.184075  0.815925  0.790919  1
  Rh  Rh17  1  0.808616  0.628199  0.297176  1
  Rh  Rh18  1  0.371801  0.191384  0.297176  1
  Rh  Rh19  1  0.817008  0.182992  0.292477  1
