# generated using pymatgen
data_HoEr2Hf3(GaPt)6
_symmetry_space_group_name_H-M   'P 1'
_cell_length_a   7.26425201
_cell_length_b   7.26369920
_cell_length_c   7.33244100
_cell_angle_alpha   90.00000000
_cell_angle_beta   90.00000000
_cell_angle_gamma   119.99731883
_symmetry_Int_Tables_number   1
_chemical_formula_structural   HoEr2Hf3(GaPt)6
_chemical_formula_sum   'Ho1 Er2 Hf3 Ga6 Pt6'
_cell_volume   335.07320133
_cell_formula_units_Z   1
loop_
 _symmetry_equiv_pos_site_id
 _symmetry_equiv_pos_as_xyz
  1  'x, y, z'
loop_
 _atom_site_type_symbol
 _atom_site_label
 _atom_site_symmetry_multiplicity
 _atom_site_fract_x
 _atom_site_fract_y
 _atom_site_fract_z
 _atom_site_occupancy
  Ho  Ho0  1  0.000515  0.592332  0.750000  1
  Er  Er1  1  0.591847  0.999474  0.750000  1
  Er  Er2  1  0.407633  0.408136  0.750000  1
  Hf  Hf3  1  0.390790  0.390309  0.250000  1
  Hf  Hf4  1  0.999518  0.609213  0.250000  1
  Hf  Hf5  1  0.609696  0.000496  0.250000  1
  Ga  Ga6  1  0.263471  0.999840  0.007290  1
  Ga  Ga7  1  0.263471  0.999840  0.492710  1
  Ga  Ga8  1  0.000189  0.263615  0.492690  1
  Ga  Ga9  1  0.000189  0.263615  0.007310  1
  Ga  Ga10  1  0.736342  0.736557  0.007289  1
  Ga  Ga11  1  0.736342  0.736557  0.492711  1
  Pt  Pt12  1  0.666615  0.333293  0.472017  1
  Pt  Pt13  1  0.000001  0.000064  0.750000  1
  Pt  Pt14  1  0.666615  0.333293  0.027983  1
  Pt  Pt15  1  0.333382  0.666678  0.029005  1
  Pt  Pt16  1  0.333382  0.666678  0.470995  1
  Pt  Pt17  1  0.000002  0.000008  0.250000  1
