# generated using pymatgen
data_TbEr5Co16(TcP6)2
_symmetry_space_group_name_H-M   'P 1'
_cell_length_a   3.70563900
_cell_length_b   10.51469800
_cell_length_c   12.20927900
_cell_angle_alpha   90.00000000
_cell_angle_beta   90.00000000
_cell_angle_gamma   90.00000000
_symmetry_Int_Tables_number   1
_chemical_formula_structural   TbEr5Co16(TcP6)2
_chemical_formula_sum   'Tb1 Er5 Co16 Tc2 P12'
_cell_volume   475.71837872
_cell_formula_units_Z   1
loop_
 _symmetry_equiv_pos_site_id
 _symmetry_equiv_pos_as_xyz
  1  'x, y, z'
loop_
 _atom_site_type_symbol
 _atom_site_label
 _atom_site_symmetry_multiplicity
 _atom_site_fract_x
 _atom_site_fract_y
 _atom_site_fract_z
 _atom_site_occupancy
  Tb  Tb0  1  0.750000  0.250000  0.475371  1
  Er  Er1  1  0.250000  0.750000  0.524427  1
  Er  Er2  1  0.250000  0.931921  0.794067  1
  Er  Er3  1  0.250000  0.568079  0.794067  1
  Er  Er4  1  0.750000  0.067838  0.205774  1
  Er  Er5  1  0.750000  0.432162  0.205774  1
  Co  Co6  1  0.250000  0.250000  0.296777  1
  Co  Co7  1  0.750000  0.750000  0.702340  1
  Co  Co8  1  0.750000  0.250000  0.012959  1
  Co  Co9  1  0.250000  0.750000  0.986956  1
  Co  Co10  1  0.250000  0.417767  0.010359  1
  Co  Co11  1  0.250000  0.082233  0.010359  1
  Co  Co12  1  0.750000  0.582257  0.989630  1
  Co  Co13  1  0.750000  0.917743  0.989630  1
  Co  Co14  1  0.250000  0.454153  0.569059  1
  Co  Co15  1  0.250000  0.045847  0.569059  1
  Co  Co16  1  0.750000  0.547338  0.431087  1
  Co  Co17  1  0.750000  0.952662  0.431087  1
  Co  Co18  1  0.250000  0.871180  0.292369  1
  Co  Co19  1  0.250000  0.628820  0.292369  1
  Co  Co20  1  0.750000  0.128393  0.707981  1
  Co  Co21  1  0.750000  0.371607  0.707981  1
  Tc  Tc22  1  0.250000  0.250000  0.843780  1
  Tc  Tc23  1  0.750000  0.750000  0.156905  1
  P  P24  1  0.250000  0.250000  0.119228  1
  P  P25  1  0.750000  0.750000  0.880333  1
  P  P26  1  0.250000  0.250000  0.651533  1
  P  P27  1  0.750000  0.750000  0.349438  1
  P  P28  1  0.250000  0.438694  0.383219  1
  P  P29  1  0.250000  0.061306  0.383219  1
  P  P30  1  0.750000  0.562357  0.616320  1
  P  P31  1  0.750000  0.937643  0.616320  1
  P  P32  1  0.250000  0.903996  0.107695  1
  P  P33  1  0.250000  0.596004  0.107695  1
  P  P34  1  0.750000  0.095871  0.892415  1
  P  P35  1  0.750000  0.404129  0.892415  1
