# generated using pymatgen
data_LiHo16Cd(Ni2Hg)2
_symmetry_space_group_name_H-M   'P 1'
_cell_length_a   9.49105565
_cell_length_b   9.45084700
_cell_length_c   9.45084660
_cell_angle_alpha   60.25646498
_cell_angle_beta   60.10125600
_cell_angle_gamma   60.10126210
_symmetry_Int_Tables_number   1
_chemical_formula_structural   LiHo16Cd(Ni2Hg)2
_chemical_formula_sum   'Li1 Ho16 Cd1 Ni4 Hg2'
_cell_volume   601.50778920
_cell_formula_units_Z   1
loop_
 _symmetry_equiv_pos_site_id
 _symmetry_equiv_pos_as_xyz
  1  'x, y, z'
loop_
 _atom_site_type_symbol
 _atom_site_label
 _atom_site_symmetry_multiplicity
 _atom_site_fract_x
 _atom_site_fract_y
 _atom_site_fract_z
 _atom_site_occupancy
  Li  Li0  1  0.571182  0.565880  0.565880  1
  Ho  Ho1  1  0.347539  0.348186  0.348186  1
  Ho  Ho2  1  0.349719  0.348915  0.952205  1
  Ho  Ho3  1  0.349719  0.952205  0.348915  1
  Ho  Ho4  1  0.950757  0.349970  0.349970  1
  Ho  Ho5  1  0.810320  0.192614  0.192614  1
  Ho  Ho6  1  0.186640  0.814889  0.814889  1
  Ho  Ho7  1  0.190574  0.812346  0.191574  1
  Ho  Ho8  1  0.814090  0.187383  0.814899  1
  Ho  Ho9  1  0.190574  0.191574  0.812346  1
  Ho  Ho10  1  0.814090  0.814899  0.187383  1
  Ho  Ho11  1  0.934834  0.564886  0.564886  1
  Ho  Ho12  1  0.562793  0.937324  0.937324  1
  Ho  Ho13  1  0.563505  0.936935  0.564499  1
  Ho  Ho14  1  0.936508  0.563635  0.937722  1
  Ho  Ho15  1  0.563505  0.564499  0.936935  1
  Ho  Ho16  1  0.936508  0.937722  0.563635  1
  Cd  Cd17  1  0.255893  0.581171  0.581171  1
  Ni  Ni18  1  0.142505  0.145203  0.145203  1
  Ni  Ni19  1  0.142677  0.142054  0.572740  1
  Ni  Ni20  1  0.142677  0.572740  0.142054  1
  Ni  Ni21  1  0.572076  0.142663  0.142663  1
  Hg  Hg22  1  0.585657  0.587335  0.244974  1
  Hg  Hg23  1  0.585657  0.244974  0.587335  1
