# generated using pymatgen
data_DyHo(Co3Si2)2
_symmetry_space_group_name_H-M   'P 1'
_cell_length_a   6.25211454
_cell_length_b   6.25207666
_cell_length_c   6.25211528
_cell_angle_alpha   130.54913184
_cell_angle_beta   113.08139142
_cell_angle_gamma   87.58515730
_symmetry_Int_Tables_number   1
_chemical_formula_structural   DyHo(Co3Si2)2
_chemical_formula_sum   'Dy1 Ho1 Co6 Si4'
_cell_volume   162.72909971
_cell_formula_units_Z   1
loop_
 _symmetry_equiv_pos_site_id
 _symmetry_equiv_pos_as_xyz
  1  'x, y, z'
loop_
 _atom_site_type_symbol
 _atom_site_label
 _atom_site_symmetry_multiplicity
 _atom_site_fract_x
 _atom_site_fract_y
 _atom_site_fract_z
 _atom_site_occupancy
  Dy  Dy0  1  0.749986  0.469782  0.719796  1
  Ho  Ho1  1  0.250027  0.530814  0.280787  1
  Co  Co2  1  0.000062  0.999850  0.499918  1
  Co  Co3  1  0.499932  0.999850  0.999786  1
  Co  Co4  1  0.723643  0.999622  0.723645  1
  Co  Co5  1  0.224014  0.499998  0.723649  1
  Co  Co6  1  0.275978  0.999622  0.275979  1
  Co  Co7  1  0.776350  0.499998  0.275983  1
  Si  Si8  1  0.080975  0.874370  0.793396  1
  Si  Si9  1  0.919413  0.126245  0.206832  1
  Si  Si10  1  0.580593  0.787436  0.206842  1
  Si  Si11  1  0.419029  0.212414  0.793386  1
