# generated using pymatgen
data_Ti3Re3BAs2
_symmetry_space_group_name_H-M   'P 1'
_cell_length_a   6.71326700
_cell_length_b   6.71326695
_cell_length_c   3.22394600
_cell_angle_alpha   90.00000000
_cell_angle_beta   90.00000000
_cell_angle_gamma   119.99999530
_symmetry_Int_Tables_number   1
_chemical_formula_structural   Ti3Re3BAs2
_chemical_formula_sum   'Ti3 Re3 B1 As2'
_cell_volume   125.83059459
_cell_formula_units_Z   1
loop_
 _symmetry_equiv_pos_site_id
 _symmetry_equiv_pos_as_xyz
  1  'x, y, z'
loop_
 _atom_site_type_symbol
 _atom_site_label
 _atom_site_symmetry_multiplicity
 _atom_site_fract_x
 _atom_site_fract_y
 _atom_site_fract_z
 _atom_site_occupancy
  Ti  Ti0  1  0.612817  0.000000  0.000000  1
  Ti  Ti1  1  0.387183  0.387183  0.000000  1
  Ti  Ti2  1  0.000000  0.612817  0.000000  1
  Re  Re3  1  0.241722  0.000000  0.500000  1
  Re  Re4  1  0.758278  0.758278  0.500000  1
  Re  Re5  1  0.000000  0.241722  0.500000  1
  B  B6  1  0.000000  0.000000  0.000000  1
  As  As7  1  0.333333  0.666667  0.500000  1
  As  As8  1  0.666667  0.333333  0.500000  1
