# generated using pymatgen
data_V11Si3GePd
_symmetry_space_group_name_H-M   'P 1'
_cell_length_a   4.72118700
_cell_length_b   4.69268700
_cell_length_c   9.54712700
_cell_angle_alpha   90.00000000
_cell_angle_beta   90.00000000
_cell_angle_gamma   90.00000000
_symmetry_Int_Tables_number   1
_chemical_formula_structural   V11Si3GePd
_chemical_formula_sum   'V11 Si3 Ge1 Pd1'
_cell_volume   211.51710334
_cell_formula_units_Z   1
loop_
 _symmetry_equiv_pos_site_id
 _symmetry_equiv_pos_as_xyz
  1  'x, y, z'
loop_
 _atom_site_type_symbol
 _atom_site_label
 _atom_site_symmetry_multiplicity
 _atom_site_fract_x
 _atom_site_fract_y
 _atom_site_fract_z
 _atom_site_occupancy
  V  V0  1  0.000000  0.500000  0.624651  1
  V  V1  1  0.500000  0.247639  0.747519  1
  V  V2  1  0.500000  0.239738  0.255279  1
  V  V3  1  0.748736  0.000000  0.996507  1
  V  V4  1  0.753606  0.000000  0.499360  1
  V  V5  1  0.000000  0.500000  0.862057  1
  V  V6  1  0.000000  0.500000  0.388190  1
  V  V7  1  0.500000  0.752361  0.747519  1
  V  V8  1  0.500000  0.760262  0.255279  1
  V  V9  1  0.251264  0.000000  0.996507  1
  V  V10  1  0.246394  0.000000  0.499360  1
  Si  Si11  1  0.500000  0.500000  0.500302  1
  Si  Si12  1  0.000000  0.000000  0.749763  1
  Si  Si13  1  0.000000  0.000000  0.257609  1
  Ge  Ge14  1  0.500000  0.500000  0.992708  1
  Pd  Pd15  1  0.000000  0.500000  0.127390  1
