# generated using pymatgen
data_Dy2Lu10InCo4Ru
_symmetry_space_group_name_H-M   'P 1'
_cell_length_a   8.13031433
_cell_length_b   8.13031477
_cell_length_c   8.12513783
_cell_angle_alpha   111.03182445
_cell_angle_beta   111.16840257
_cell_angle_gamma   106.28775302
_symmetry_Int_Tables_number   1
_chemical_formula_structural   Dy2Lu10InCo4Ru
_chemical_formula_sum   'Dy2 Lu10 In1 Co4 Ru1'
_cell_volume   412.35167463
_cell_formula_units_Z   1
loop_
 _symmetry_equiv_pos_site_id
 _symmetry_equiv_pos_as_xyz
  1  'x, y, z'
loop_
 _atom_site_type_symbol
 _atom_site_label
 _atom_site_symmetry_multiplicity
 _atom_site_fract_x
 _atom_site_fract_y
 _atom_site_fract_z
 _atom_site_occupancy
  Dy  Dy0  1  0.185102  0.283582  0.468683  1
  Dy  Dy1  1  0.814898  0.716418  0.531317  1
  Lu  Lu2  1  0.185060  0.717789  0.902849  1
  Lu  Lu3  1  0.814940  0.282211  0.097151  1
  Lu  Lu4  1  0.313311  0.620863  0.305375  1
  Lu  Lu5  1  0.686689  0.379137  0.694625  1
  Lu  Lu6  1  0.315488  0.007937  0.694625  1
  Lu  Lu7  1  0.684512  0.992063  0.305375  1
  Lu  Lu8  1  0.412954  0.217956  0.192465  1
  Lu  Lu9  1  0.587046  0.782044  0.807535  1
  Lu  Lu10  1  0.025491  0.220489  0.807535  1
  Lu  Lu11  1  0.974509  0.779511  0.192465  1
  In  In12  1  0.500000  0.500000  0.000000  1
  Co  Co13  1  0.113082  0.613082  0.500000  1
  Co  Co14  1  0.886918  0.386918  0.500000  1
  Co  Co15  1  0.375469  0.998696  0.374165  1
  Co  Co16  1  0.624531  0.001304  0.625835  1
  Ru  Ru17  1  0.000000  0.000000  0.000000  1
