# generated using pymatgen
data_CsGaGeSe4
_symmetry_space_group_name_H-M   'P 1'
_cell_length_a   17.48295800
_cell_length_b   7.40206595
_cell_length_c   8.08781262
_cell_angle_alpha   69.93932193
_cell_angle_beta   90.00000000
_cell_angle_gamma   90.00000000
_symmetry_Int_Tables_number   1
_chemical_formula_structural   CsGaGeSe4
_chemical_formula_sum   'Cs4 Ga4 Ge4 Se16'
_cell_volume   983.14388969
_cell_formula_units_Z   4
loop_
 _symmetry_equiv_pos_site_id
 _symmetry_equiv_pos_as_xyz
  1  'x, y, z'
loop_
 _atom_site_type_symbol
 _atom_site_label
 _atom_site_symmetry_multiplicity
 _atom_site_fract_x
 _atom_site_fract_y
 _atom_site_fract_z
 _atom_site_occupancy
  Cs  Cs0  1  0.398233  0.969080  0.177745  1
  Cs  Cs1  1  0.898233  0.030920  0.822255  1
  Cs  Cs2  1  0.601631  0.520587  0.825509  1
  Cs  Cs3  1  0.101631  0.479413  0.174491  1
  Ga  Ga4  1  0.584064  0.169409  0.472059  1
  Ga  Ga5  1  0.084064  0.830591  0.527941  1
  Ga  Ga6  1  0.271773  0.594972  0.708513  1
  Ga  Ga7  1  0.771773  0.405028  0.291487  1
  Ge  Ge8  1  0.419464  0.330040  0.534645  1
  Ge  Ge9  1  0.919464  0.669960  0.465355  1
  Ge  Ge10  1  0.725558  0.909992  0.274899  1
  Ge  Ge11  1  0.225558  0.090008  0.725101  1
  Se  Se12  1  0.596232  0.892434  0.373824  1
  Se  Se13  1  0.096232  0.107566  0.626176  1
  Se  Se14  1  0.407610  0.600609  0.629073  1
  Se  Se15  1  0.907610  0.399391  0.370927  1
  Se  Se16  1  0.799390  0.780135  0.543468  1
  Se  Se17  1  0.299390  0.219865  0.456532  1
  Se  Se18  1  0.201506  0.725684  0.439723  1
  Se  Se19  1  0.701506  0.274316  0.560277  1
  Se  Se20  1  0.765255  0.222561  0.088974  1
  Se  Se21  1  0.265255  0.777439  0.911026  1
  Se  Se22  1  0.236606  0.274954  0.914044  1
  Se  Se23  1  0.736606  0.725046  0.085956  1
  Se  Se24  1  0.998389  0.912733  0.267000  1
  Se  Se25  1  0.498389  0.087267  0.733000  1
  Se  Se26  1  0.994285  0.595105  0.728762  1
  Se  Se27  1  0.494285  0.404895  0.271238  1
