# generated using pymatgen
data_Er12InCo2Cu3
_symmetry_space_group_name_H-M   'P 1'
_cell_length_a   8.29526060
_cell_length_b   8.29525975
_cell_length_c   8.29526049
_cell_angle_alpha   110.19026578
_cell_angle_beta   111.95673378
_cell_angle_gamma   106.31720505
_symmetry_Int_Tables_number   1
_chemical_formula_structural   Er12InCo2Cu3
_chemical_formula_sum   'Er12 In1 Co2 Cu3'
_cell_volume   438.30599766
_cell_formula_units_Z   1
loop_
 _symmetry_equiv_pos_site_id
 _symmetry_equiv_pos_as_xyz
  1  'x, y, z'
loop_
 _atom_site_type_symbol
 _atom_site_label
 _atom_site_symmetry_multiplicity
 _atom_site_fract_x
 _atom_site_fract_y
 _atom_site_fract_z
 _atom_site_occupancy
  Er  Er0  1  0.289734  0.181037  0.470771  1
  Er  Er1  1  0.710266  0.818963  0.529229  1
  Er  Er2  1  0.289734  0.818963  0.108696  1
  Er  Er3  1  0.710266  0.181037  0.891304  1
  Er  Er4  1  0.618535  0.311474  0.307062  1
  Er  Er5  1  0.381465  0.688526  0.692938  1
  Er  Er6  1  0.004413  0.311474  0.692938  1
  Er  Er7  1  0.995587  0.688526  0.307062  1
  Er  Er8  1  0.229136  0.421173  0.192036  1
  Er  Er9  1  0.770864  0.578827  0.807964  1
  Er  Er10  1  0.229136  0.037100  0.807964  1
  Er  Er11  1  0.770864  0.962900  0.192036  1
  In  In12  1  0.500000  0.500000  0.000000  1
  Co  Co13  1  0.385960  0.885960  0.500000  1
  Co  Co14  1  0.614040  0.114040  0.500000  1
  Cu  Cu15  1  0.000000  0.360364  0.360364  1
  Cu  Cu16  1  0.000000  0.639636  0.639636  1
  Cu  Cu17  1  0.000000  0.000000  0.000000  1
