# generated using pymatgen
data_YLu5Bi2Mo
_symmetry_space_group_name_H-M   'P 1'
_cell_length_a   8.16829400
_cell_length_b   8.13621787
_cell_length_c   4.34050500
_cell_angle_alpha   90.00000000
_cell_angle_beta   90.00000000
_cell_angle_gamma   120.13049092
_symmetry_Int_Tables_number   1
_chemical_formula_structural   YLu5Bi2Mo
_chemical_formula_sum   'Y1 Lu5 Bi2 Mo1'
_cell_volume   249.48949301
_cell_formula_units_Z   1
loop_
 _symmetry_equiv_pos_site_id
 _symmetry_equiv_pos_as_xyz
  1  'x, y, z'
loop_
 _atom_site_type_symbol
 _atom_site_label
 _atom_site_symmetry_multiplicity
 _atom_site_fract_x
 _atom_site_fract_y
 _atom_site_fract_z
 _atom_site_occupancy
  Y  Y0  1  0.609985  0.000000  0.500000  1
  Lu  Lu1  1  0.384424  0.384645  0.500000  1
  Lu  Lu2  1  0.999779  0.615355  0.500000  1
  Lu  Lu3  1  0.002020  0.234798  0.000000  1
  Lu  Lu4  1  0.767223  0.765202  0.000000  1
  Lu  Lu5  1  0.234218  0.000000  0.000000  1
  Bi  Bi6  1  0.667175  0.334751  0.000000  1
  Bi  Bi7  1  0.332423  0.665249  0.000000  1
  Mo  Mo8  1  0.002753  0.000000  0.500000  1
