# generated using pymatgen
data_La5Tm2ThBi10
_symmetry_space_group_name_H-M   'P 1'
_cell_length_a   9.87513032
_cell_length_b   9.89153498
_cell_length_c   6.71439200
_cell_angle_alpha   90.00000000
_cell_angle_beta   90.00000000
_cell_angle_gamma   120.05495800
_symmetry_Int_Tables_number   1
_chemical_formula_structural   La5Tm2ThBi10
_chemical_formula_sum   'La5 Tm2 Th1 Bi10'
_cell_volume   567.67932187
_cell_formula_units_Z   1
loop_
 _symmetry_equiv_pos_site_id
 _symmetry_equiv_pos_as_xyz
  1  'x, y, z'
loop_
 _atom_site_type_symbol
 _atom_site_label
 _atom_site_symmetry_multiplicity
 _atom_site_fract_x
 _atom_site_fract_y
 _atom_site_fract_z
 _atom_site_occupancy
  La  La0  1  0.380127  0.380493  0.250000  1
  La  La1  1  0.383876  0.001567  0.750000  1
  La  La2  1  0.616124  0.617690  0.750000  1
  La  La3  1  0.619873  0.000365  0.250000  1
  La  La4  1  0.000000  0.380134  0.750000  1
  Tm  Tm5  1  0.000000  0.000215  0.999282  1
  Tm  Tm6  1  0.000000  0.000215  0.500718  1
  Th  Th7  1  0.000000  0.617962  0.250000  1
  Bi  Bi8  1  0.000000  0.268906  0.250000  1
  Bi  Bi9  1  0.329848  0.666927  0.497539  1
  Bi  Bi10  1  0.670152  0.337078  0.002461  1
  Bi  Bi11  1  0.329848  0.666927  0.002461  1
  Bi  Bi12  1  0.267952  0.267146  0.750000  1
  Bi  Bi13  1  0.732048  0.999195  0.750000  1
  Bi  Bi14  1  0.000000  0.730469  0.750000  1
  Bi  Bi15  1  0.734246  0.730939  0.250000  1
  Bi  Bi16  1  0.265754  0.996692  0.250000  1
  Bi  Bi17  1  0.670152  0.337078  0.497539  1
