# generated using pymatgen
data_In9Hg2Ir4Au
_symmetry_space_group_name_H-M   'P 1'
_cell_length_a   7.20702437
_cell_length_b   7.14843373
_cell_length_c   7.17015000
_cell_angle_alpha   90.00000000
_cell_angle_beta   90.00000000
_cell_angle_gamma   91.23779209
_symmetry_Int_Tables_number   1
_chemical_formula_structural   In9Hg2Ir4Au
_chemical_formula_sum   'In9 Hg2 Ir4 Au1'
_cell_volume   369.31230157
_cell_formula_units_Z   1
loop_
 _symmetry_equiv_pos_site_id
 _symmetry_equiv_pos_as_xyz
  1  'x, y, z'
loop_
 _atom_site_type_symbol
 _atom_site_label
 _atom_site_symmetry_multiplicity
 _atom_site_fract_x
 _atom_site_fract_y
 _atom_site_fract_z
 _atom_site_occupancy
  In  In0  1  0.331641  0.350299  0.260085  1
  In  In1  1  0.153354  0.829999  0.770062  1
  In  In2  1  0.153354  0.829999  0.229938  1
  In  In3  1  0.846646  0.170001  0.229938  1
  In  In4  1  0.846646  0.170001  0.770062  1
  In  In5  1  0.668359  0.649701  0.260085  1
  In  In6  1  0.668359  0.649701  0.739915  1
  In  In7  1  0.331641  0.350299  0.739915  1
  In  In8  1  0.500000  0.000000  0.500000  1
  Hg  Hg9  1  0.500000  0.000000  0.000000  1
  Hg  Hg10  1  0.000000  0.500000  0.500000  1
  Ir  Ir11  1  0.155367  0.147869  0.000000  1
  Ir  Ir12  1  0.646047  0.340509  0.500000  1
  Ir  Ir13  1  0.353953  0.659491  0.500000  1
  Ir  Ir14  1  0.844633  0.852131  0.000000  1
  Au  Au15  1  0.000000  0.500000  0.000000  1
