# generated using pymatgen
data_Dy2Y8(SnSb)3
_symmetry_space_group_name_H-M   'P 1'
_cell_length_a   6.44086500
_cell_length_b   9.00417567
_cell_length_c   9.00429100
_cell_angle_alpha   119.99957833
_cell_angle_beta   90.00001266
_cell_angle_gamma   89.99998581
_symmetry_Int_Tables_number   1
_chemical_formula_structural   Dy2Y8(SnSb)3
_chemical_formula_sum   'Dy2 Y8 Sn3 Sb3'
_cell_volume   452.24123121
_cell_formula_units_Z   1
loop_
 _symmetry_equiv_pos_site_id
 _symmetry_equiv_pos_as_xyz
  1  'x, y, z'
loop_
 _atom_site_type_symbol
 _atom_site_label
 _atom_site_symmetry_multiplicity
 _atom_site_fract_x
 _atom_site_fract_y
 _atom_site_fract_z
 _atom_site_occupancy
  Dy  Dy0  1  0.500421  0.333332  0.666665  1
  Dy  Dy1  1  0.500421  0.666667  0.333335  1
  Y  Y2  1  0.999582  0.666667  0.333335  1
  Y  Y3  1  0.999582  0.333332  0.666665  1
  Y  Y4  1  0.749992  0.241827  0.000000  1
  Y  Y5  1  0.749994  0.758199  0.758197  1
  Y  Y6  1  0.749994  0.000001  0.241803  1
  Y  Y7  1  0.249994  0.757308  0.000000  1
  Y  Y8  1  0.250000  0.242661  0.242662  1
  Y  Y9  1  0.250000  0.999999  0.757338  1
  Sn  Sn10  1  0.749944  0.607641  0.000000  1
  Sn  Sn11  1  0.749946  0.392381  0.392371  1
  Sn  Sn12  1  0.749946  0.000009  0.607629  1
  Sb  Sb13  1  0.250056  0.390907  0.000000  1
  Sb  Sb14  1  0.250066  0.609076  0.609083  1
  Sb  Sb15  1  0.250066  0.999993  0.390917  1
