# generated using pymatgen
data_LiLu3In4Co
_symmetry_space_group_name_H-M   'P 1'
_cell_length_a   7.99366200
_cell_length_b   7.99366132
_cell_length_c   3.54585500
_cell_angle_alpha   90.00000000
_cell_angle_beta   90.00000000
_cell_angle_gamma   120.00001109
_symmetry_Int_Tables_number   1
_chemical_formula_structural   LiLu3In4Co
_chemical_formula_sum   'Li1 Lu3 In4 Co1'
_cell_volume   196.21991355
_cell_formula_units_Z   1
loop_
 _symmetry_equiv_pos_site_id
 _symmetry_equiv_pos_as_xyz
  1  'x, y, z'
loop_
 _atom_site_type_symbol
 _atom_site_label
 _atom_site_symmetry_multiplicity
 _atom_site_fract_x
 _atom_site_fract_y
 _atom_site_fract_z
 _atom_site_occupancy
  Li  Li0  1  0.666667  0.333333  0.500000  1
  Lu  Lu1  1  0.045030  0.281862  0.500000  1
  Lu  Lu2  1  0.718138  0.763167  0.500000  1
  Lu  Lu3  1  0.236833  0.954970  0.500000  1
  In  In4  1  0.665298  0.067148  0.000000  1
  In  In5  1  0.932852  0.598151  0.000000  1
  In  In6  1  0.401849  0.334702  0.000000  1
  In  In7  1  0.333333  0.666667  0.000000  1
  Co  Co8  1  0.000000  0.000000  0.000000  1
