# generated using pymatgen
data_Er8P(Pd11Pt)2
_symmetry_space_group_name_H-M   'P 1'
_cell_length_a   8.32759700
_cell_length_b   8.32423502
_cell_length_c   8.32423500
_cell_angle_alpha   90.00415734
_cell_angle_beta   90.00000000
_cell_angle_gamma   90.00000000
_symmetry_Int_Tables_number   1
_chemical_formula_structural   Er8P(Pd11Pt)2
_chemical_formula_sum   'Er8 P1 Pd22 Pt2'
_cell_volume   577.04324902
_cell_formula_units_Z   1
loop_
 _symmetry_equiv_pos_site_id
 _symmetry_equiv_pos_as_xyz
  1  'x, y, z'
loop_
 _atom_site_type_symbol
 _atom_site_label
 _atom_site_symmetry_multiplicity
 _atom_site_fract_x
 _atom_site_fract_y
 _atom_site_fract_z
 _atom_site_occupancy
  Er  Er0  1  0.256524  0.256139  0.743861  1
  Er  Er1  1  0.255594  0.744269  0.255731  1
  Er  Er2  1  0.743819  0.255602  0.256249  1
  Er  Er3  1  0.743819  0.743751  0.744398  1
  Er  Er4  1  0.744406  0.744269  0.255731  1
  Er  Er5  1  0.743476  0.256139  0.743861  1
  Er  Er6  1  0.256181  0.743751  0.744398  1
  Er  Er7  1  0.256181  0.255602  0.256249  1
  P  P8  1  0.000000  0.000346  0.999654  1
  Pd  Pd9  1  0.252260  0.500315  0.499685  1
  Pd  Pd10  1  0.500000  0.500248  0.252441  1
  Pd  Pd11  1  0.500000  0.747559  0.499752  1
  Pd  Pd12  1  0.747740  0.500315  0.499685  1
  Pd  Pd13  1  0.000000  0.999955  0.725425  1
  Pd  Pd14  1  0.000000  0.274575  0.000045  1
  Pd  Pd15  1  0.274277  0.999909  0.000091  1
  Pd  Pd16  1  0.000000  0.999834  0.274170  1
  Pd  Pd17  1  0.000000  0.725830  0.000166  1
  Pd  Pd18  1  0.725723  0.999909  0.000091  1
  Pd  Pd19  1  0.000000  0.500135  0.743999  1
  Pd  Pd20  1  0.500000  0.256079  0.000200  1
  Pd  Pd21  1  0.255984  0.999751  0.499913  1
  Pd  Pd22  1  0.000000  0.256001  0.499865  1
  Pd  Pd23  1  0.500000  0.999800  0.743921  1
  Pd  Pd24  1  0.255984  0.500087  0.000249  1
  Pd  Pd25  1  0.000000  0.500041  0.255965  1
  Pd  Pd26  1  0.500000  0.743844  0.000207  1
  Pd  Pd27  1  0.000000  0.744035  0.499959  1
  Pd  Pd28  1  0.500000  0.999793  0.256156  1
  Pd  Pd29  1  0.744016  0.999751  0.499913  1
  Pd  Pd30  1  0.744016  0.500087  0.000249  1
  Pt  Pt31  1  0.500000  0.500186  0.747909  1
  Pt  Pt32  1  0.500000  0.252091  0.499814  1
