# generated using pymatgen
data_Er8Ta7Ti4Si16Mo
_symmetry_space_group_name_H-M   'P 1'
_cell_length_a   7.00709148
_cell_length_b   7.00948407
_cell_length_c   12.88877653
_cell_angle_alpha   89.99429283
_cell_angle_beta   89.97013688
_cell_angle_gamma   89.92395344
_symmetry_Int_Tables_number   1
_chemical_formula_structural   Er8Ta7Ti4Si16Mo
_chemical_formula_sum   'Er8 Ta7 Ti4 Si16 Mo1'
_cell_volume   633.04574006
_cell_formula_units_Z   1
loop_
 _symmetry_equiv_pos_site_id
 _symmetry_equiv_pos_as_xyz
  1  'x, y, z'
loop_
 _atom_site_type_symbol
 _atom_site_label
 _atom_site_symmetry_multiplicity
 _atom_site_fract_x
 _atom_site_fract_y
 _atom_site_fract_z
 _atom_site_occupancy
  Er  Er0  1  0.342036  0.002045  0.467129  1
  Er  Er1  1  0.497715  0.841596  0.717988  1
  Er  Er2  1  0.500203  0.158240  0.216253  1
  Er  Er3  1  0.841937  0.498788  0.282452  1
  Er  Er4  1  0.158667  0.500815  0.783355  1
  Er  Er5  1  0.657673  0.999080  0.968190  1
  Er  Er6  1  0.002114  0.341549  0.532728  1
  Er  Er7  1  0.998172  0.658586  0.031900  1
  Ta  Ta8  1  0.173577  0.826470  0.249303  1
  Ta  Ta9  1  0.827126  0.173703  0.750612  1
  Ta  Ta10  1  0.672223  0.671564  0.500128  1
  Ta  Ta11  1  0.151247  0.006127  0.874721  1
  Ta  Ta12  1  0.492715  0.652972  0.123996  1
  Ta  Ta13  1  0.506447  0.348577  0.625863  1
  Ta  Ta14  1  0.651900  0.492366  0.875950  1
  Ti  Ti15  1  0.348139  0.506629  0.374752  1
  Ti  Ti16  1  0.847135  0.993228  0.374225  1
  Ti  Ti17  1  0.007264  0.151404  0.124554  1
  Ti  Ti18  1  0.991920  0.846449  0.625925  1
  Si  Si19  1  0.202851  0.132255  0.681616  1
  Si  Si20  1  0.366573  0.704491  0.931493  1
  Si  Si21  1  0.633335  0.295609  0.432557  1
  Si  Si22  1  0.704788  0.365325  0.069006  1
  Si  Si23  1  0.295228  0.635353  0.566840  1
  Si  Si24  1  0.797769  0.867957  0.183183  1
  Si  Si25  1  0.132953  0.202235  0.316715  1
  Si  Si26  1  0.865321  0.796571  0.817877  1
  Si  Si27  1  0.292080  0.955472  0.064555  1
  Si  Si28  1  0.547007  0.793920  0.314880  1
  Si  Si29  1  0.451637  0.205707  0.815261  1
  Si  Si30  1  0.797235  0.548253  0.684832  1
  Si  Si31  1  0.206143  0.451240  0.185070  1
  Si  Si32  1  0.709069  0.045918  0.563293  1
  Si  Si33  1  0.954917  0.293488  0.937375  1
  Si  Si34  1  0.046439  0.707131  0.435407  1
  Mo  Mo35  1  0.328446  0.328889  0.000014  1
