# generated using pymatgen
data_Er10Al5BiC8
_symmetry_space_group_name_H-M   'P 1'
_cell_length_a   10.85833500
_cell_length_b   10.85833500
_cell_length_c   3.51074000
_cell_angle_alpha   90.00000000
_cell_angle_beta   90.00000000
_cell_angle_gamma   90.00000000
_symmetry_Int_Tables_number   1
_chemical_formula_structural   Er10Al5BiC8
_chemical_formula_sum   'Er10 Al5 Bi1 C8'
_cell_volume   413.92831934
_cell_formula_units_Z   1
loop_
 _symmetry_equiv_pos_site_id
 _symmetry_equiv_pos_as_xyz
  1  'x, y, z'
loop_
 _atom_site_type_symbol
 _atom_site_label
 _atom_site_symmetry_multiplicity
 _atom_site_fract_x
 _atom_site_fract_y
 _atom_site_fract_z
 _atom_site_occupancy
  Er  Er0  1  0.550965  0.738000  0.500000  1
  Er  Er1  1  0.449035  0.262000  0.500000  1
  Er  Er2  1  0.049374  0.770297  0.500000  1
  Er  Er3  1  0.950626  0.229703  0.500000  1
  Er  Er4  1  0.262000  0.550965  0.500000  1
  Er  Er5  1  0.738000  0.449035  0.500000  1
  Er  Er6  1  0.229703  0.049374  0.500000  1
  Er  Er7  1  0.770297  0.950626  0.500000  1
  Er  Er8  1  0.500000  0.000000  0.000000  1
  Er  Er9  1  0.000000  0.500000  0.000000  1
  Al  Al10  1  0.710461  0.195549  0.000000  1
  Al  Al11  1  0.289539  0.804451  0.000000  1
  Al  Al12  1  0.195549  0.289539  0.000000  1
  Al  Al13  1  0.804451  0.710461  0.000000  1
  Al  Al14  1  0.000000  0.000000  0.000000  1
  Bi  Bi15  1  0.500000  0.500000  0.000000  1
  C  C16  1  0.629472  0.129797  0.500000  1
  C  C17  1  0.370528  0.870203  0.500000  1
  C  C18  1  0.129797  0.370528  0.500000  1
  C  C19  1  0.870203  0.629472  0.500000  1
  C  C20  1  0.162940  0.661721  0.000000  1
  C  C21  1  0.837060  0.338279  0.000000  1
  C  C22  1  0.661721  0.837060  0.000000  1
  C  C23  1  0.338279  0.162940  0.000000  1
