# generated using pymatgen
data_Ce7HoSi15Rh
_symmetry_space_group_name_H-M   'P 1'
_cell_length_a   8.15975700
_cell_length_b   8.17278960
_cell_length_c   8.30835100
_cell_angle_alpha   89.91524939
_cell_angle_beta   90.00000000
_cell_angle_gamma   119.94726800
_symmetry_Int_Tables_number   1
_chemical_formula_structural   Ce7HoSi15Rh
_chemical_formula_sum   'Ce7 Ho1 Si15 Rh1'
_cell_volume   480.09026709
_cell_formula_units_Z   1
loop_
 _symmetry_equiv_pos_site_id
 _symmetry_equiv_pos_as_xyz
  1  'x, y, z'
loop_
 _atom_site_type_symbol
 _atom_site_label
 _atom_site_symmetry_multiplicity
 _atom_site_fract_x
 _atom_site_fract_y
 _atom_site_fract_z
 _atom_site_occupancy
  Ce  Ce0  1  0.999739  0.999477  0.749348  1
  Ce  Ce1  1  0.000146  0.000291  0.251572  1
  Ce  Ce2  1  0.500192  0.499561  0.747234  1
  Ce  Ce3  1  0.499824  0.999649  0.748445  1
  Ce  Ce4  1  0.999367  0.499561  0.747234  1
  Ce  Ce5  1  0.500366  0.499554  0.252380  1
  Ce  Ce6  1  0.999189  0.499554  0.252380  1
  Ho  Ho7  1  0.501089  0.002175  0.252960  1
  Si  Si8  1  0.666586  0.333173  0.000294  1
  Si  Si9  1  0.666582  0.333163  0.500151  1
  Si  Si10  1  0.333562  0.667124  0.497561  1
  Si  Si11  1  0.834465  0.165291  0.000162  1
  Si  Si12  1  0.834903  0.669805  0.001307  1
  Si  Si13  1  0.330825  0.165291  0.000162  1
  Si  Si14  1  0.832474  0.166967  0.499119  1
  Si  Si15  1  0.832470  0.664942  0.498518  1
  Si  Si16  1  0.334492  0.166967  0.499119  1
  Si  Si17  1  0.166106  0.834055  0.498881  1
  Si  Si18  1  0.667948  0.834055  0.498881  1
  Si  Si19  1  0.166294  0.332588  0.498371  1
  Si  Si20  1  0.168705  0.833017  0.001766  1
  Si  Si21  1  0.664312  0.833017  0.001766  1
  Si  Si22  1  0.167160  0.334318  0.001759  1
  Rh  Rh23  1  0.333203  0.666407  0.000630  1
