# generated using pymatgen
data_Nd3Bi(SO6)2
_symmetry_space_group_name_H-M   'P 1'
_cell_length_a   4.26516789
_cell_length_b   7.43031903
_cell_length_c   8.29505116
_cell_angle_alpha   106.22871829
_cell_angle_beta   90.50805645
_cell_angle_gamma   106.43549169
_symmetry_Int_Tables_number   1
_chemical_formula_structural   Nd3Bi(SO6)2
_chemical_formula_sum   'Nd3 Bi1 S2 O12'
_cell_volume   240.98820099
_cell_formula_units_Z   1
loop_
 _symmetry_equiv_pos_site_id
 _symmetry_equiv_pos_as_xyz
  1  'x, y, z'
loop_
 _atom_site_type_symbol
 _atom_site_label
 _atom_site_symmetry_multiplicity
 _atom_site_fract_x
 _atom_site_fract_y
 _atom_site_fract_z
 _atom_site_occupancy
  Nd  Nd0  1  0.325903  0.669899  0.414827  1
  Nd  Nd1  1  0.338942  0.668234  0.919803  1
  Nd  Nd2  1  0.659331  0.332214  0.082838  1
  Bi  Bi3  1  0.677378  0.353994  0.588544  1
  S  S4  1  0.942179  0.996495  0.752875  1
  S  S5  1  0.055916  0.997756  0.245526  1
  O  O6  1  0.765046  0.508010  0.873919  1
  O  O7  1  0.230984  0.493863  0.123886  1
  O  O8  1  0.269154  0.500124  0.624062  1
  O  O9  1  0.742900  0.511135  0.381385  1
  O  O10  1  0.736092  0.984671  0.602365  1
  O  O11  1  0.253998  0.994016  0.392797  1
  O  O12  1  0.732639  0.997851  0.898030  1
  O  O13  1  0.266593  0.994587  0.100838  1
  O  O14  1  0.218864  0.180525  0.800489  1
  O  O15  1  0.767833  0.817537  0.197966  1
  O  O16  1  0.059431  0.819853  0.715017  1
  O  O17  1  0.956816  0.179237  0.284833  1
