# generated using pymatgen
data_HoLuRe2C3
_symmetry_space_group_name_H-M   'P 1'
_cell_length_a   6.01611997
_cell_length_b   6.01612078
_cell_length_c   5.61866737
_cell_angle_alpha   67.84043454
_cell_angle_beta   67.84043193
_cell_angle_gamma   31.63069131
_symmetry_Int_Tables_number   1
_chemical_formula_structural   HoLuRe2C3
_chemical_formula_sum   'Ho1 Lu1 Re2 C3'
_cell_volume   98.11372300
_cell_formula_units_Z   1
loop_
 _symmetry_equiv_pos_site_id
 _symmetry_equiv_pos_as_xyz
  1  'x, y, z'
loop_
 _atom_site_type_symbol
 _atom_site_label
 _atom_site_symmetry_multiplicity
 _atom_site_fract_x
 _atom_site_fract_y
 _atom_site_fract_z
 _atom_site_occupancy
  Ho  Ho0  1  0.608341  0.608341  0.181175  1
  Lu  Lu1  1  0.389358  0.389358  0.824020  1
  Re  Re2  1  0.156382  0.156382  0.677450  1
  Re  Re3  1  0.844086  0.844086  0.322119  1
  C  C4  1  0.755284  0.755284  0.733910  1
  C  C5  1  0.247623  0.247623  0.265179  1
  C  C6  1  0.998926  0.998926  0.996148  1
