# generated using pymatgen
data_Li5P12Ir19
_symmetry_space_group_name_H-M   'P 1'
_cell_length_a   12.56146200
_cell_length_b   12.56053346
_cell_length_c   3.90568300
_cell_angle_alpha   90.00000000
_cell_angle_beta   90.00000000
_cell_angle_gamma   120.00244546
_symmetry_Int_Tables_number   1
_chemical_formula_structural   Li5P12Ir19
_chemical_formula_sum   'Li5 P12 Ir19'
_cell_volume   533.66066647
_cell_formula_units_Z   1
loop_
 _symmetry_equiv_pos_site_id
 _symmetry_equiv_pos_as_xyz
  1  'x, y, z'
loop_
 _atom_site_type_symbol
 _atom_site_label
 _atom_site_symmetry_multiplicity
 _atom_site_fract_x
 _atom_site_fract_y
 _atom_site_fract_z
 _atom_site_occupancy
  Li  Li0  1  0.000058  0.834350  0.000000  1
  Li  Li1  1  0.165708  0.165650  0.000000  1
  Li  Li2  1  0.334076  0.666757  0.500000  1
  Li  Li3  1  0.667321  0.333243  0.500000  1
  Li  Li4  1  0.834543  0.000000  0.000000  1
  P  P5  1  0.999935  0.641797  0.500000  1
  P  P6  1  0.358138  0.358203  0.500000  1
  P  P7  1  0.642019  0.000000  0.500000  1
  P  P8  1  0.512365  0.688548  0.000000  1
  P  P9  1  0.311681  0.823822  0.000000  1
  P  P10  1  0.175832  0.487827  0.000000  1
  P  P11  1  0.487859  0.176178  0.000000  1
  P  P12  1  0.688005  0.512173  0.000000  1
  P  P13  1  0.823817  0.311452  0.000000  1
  P  P14  1  0.999941  0.177975  0.500000  1
  P  P15  1  0.821965  0.822025  0.500000  1
  P  P16  1  0.177998  0.000000  0.500000  1
  Ir  Ir17  1  0.508912  0.869383  0.000000  1
  Ir  Ir18  1  0.130483  0.639773  0.000000  1
  Ir  Ir19  1  0.360227  0.491449  0.000000  1
  Ir  Ir20  1  0.490711  0.360227  0.000000  1
  Ir  Ir21  1  0.868779  0.508551  0.000000  1
  Ir  Ir22  1  0.639530  0.130617  0.000000  1
  Ir  Ir23  1  0.999836  0.457890  0.500000  1
  Ir  Ir24  1  0.541946  0.542110  0.500000  1
  Ir  Ir25  1  0.458027  0.000000  0.500000  1
  Ir  Ir26  1  0.000077  0.291298  0.000000  1
  Ir  Ir27  1  0.708779  0.708702  0.000000  1
  Ir  Ir28  1  0.291485  0.000000  0.000000  1
  Ir  Ir29  1  0.623382  0.805309  0.500000  1
  Ir  Ir30  1  0.194700  0.818113  0.500000  1
  Ir  Ir31  1  0.182013  0.376793  0.500000  1
  Ir  Ir32  1  0.376588  0.181887  0.500000  1
  Ir  Ir33  1  0.805220  0.623207  0.500000  1
  Ir  Ir34  1  0.818073  0.194691  0.500000  1
  Ir  Ir35  1  0.999972  0.000000  0.500000  1
