# generated using pymatgen
data_Hf12Al9Ni3C4
_symmetry_space_group_name_H-M   'P 1'
_cell_length_a   8.52747837
_cell_length_b   8.56101332
_cell_length_c   8.52747800
_cell_angle_alpha   60.12949601
_cell_angle_beta   60.00000142
_cell_angle_gamma   60.12950223
_symmetry_Int_Tables_number   1
_chemical_formula_structural   Hf12Al9Ni3C4
_chemical_formula_sum   'Hf12 Al9 Ni3 C4'
_cell_volume   441.06106796
_cell_formula_units_Z   1
loop_
 _symmetry_equiv_pos_site_id
 _symmetry_equiv_pos_as_xyz
  1  'x, y, z'
loop_
 _atom_site_type_symbol
 _atom_site_label
 _atom_site_symmetry_multiplicity
 _atom_site_fract_x
 _atom_site_fract_y
 _atom_site_fract_z
 _atom_site_occupancy
  Hf  Hf0  1  0.810498  0.811976  0.188763  1
  Hf  Hf1  1  0.187020  0.192193  0.810393  1
  Hf  Hf2  1  0.810393  0.192193  0.810393  1
  Hf  Hf3  1  0.188763  0.811976  0.188763  1
  Hf  Hf4  1  0.188763  0.811976  0.810498  1
  Hf  Hf5  1  0.810393  0.192193  0.187020  1
  Hf  Hf6  1  0.439502  0.438024  0.061237  1
  Hf  Hf7  1  0.062980  0.057807  0.439607  1
  Hf  Hf8  1  0.439607  0.057807  0.439607  1
  Hf  Hf9  1  0.061237  0.438024  0.061237  1
  Hf  Hf10  1  0.061237  0.438024  0.439502  1
  Hf  Hf11  1  0.439607  0.057807  0.062980  1
  Al  Al12  1  0.625000  0.125000  0.625000  1
  Al  Al13  1  0.740275  0.436598  0.411564  1
  Al  Al14  1  0.418089  0.745734  0.418089  1
  Al  Al15  1  0.411564  0.436598  0.740275  1
  Al  Al16  1  0.411564  0.436598  0.411564  1
  Al  Al17  1  0.509725  0.813402  0.838436  1
  Al  Al18  1  0.831911  0.504266  0.831911  1
  Al  Al19  1  0.838436  0.813402  0.509725  1
  Al  Al20  1  0.838436  0.813402  0.838436  1
  Ni  Ni21  1  0.125000  0.625000  0.625000  1
  Ni  Ni22  1  0.625000  0.625000  0.125000  1
  Ni  Ni23  1  0.625000  0.625000  0.625000  1
  C  C24  1  0.625000  0.125000  0.125000  1
  C  C25  1  0.125000  0.625000  0.125000  1
  C  C26  1  0.125000  0.125000  0.625000  1
  C  C27  1  0.125000  0.125000  0.125000  1
