# generated using pymatgen
data_Gd10Si5Sn
_symmetry_space_group_name_H-M   'P 1'
_cell_length_a   7.54036618
_cell_length_b   7.54036626
_cell_length_c   8.63605700
_cell_angle_alpha   115.88479248
_cell_angle_beta   115.88479278
_cell_angle_gamma   90.00000359
_symmetry_Int_Tables_number   1
_chemical_formula_structural   Gd10Si5Sn
_chemical_formula_sum   'Gd10 Si5 Sn1'
_cell_volume   386.26420164
_cell_formula_units_Z   1
loop_
 _symmetry_equiv_pos_site_id
 _symmetry_equiv_pos_as_xyz
  1  'x, y, z'
loop_
 _atom_site_type_symbol
 _atom_site_label
 _atom_site_symmetry_multiplicity
 _atom_site_fract_x
 _atom_site_fract_y
 _atom_site_fract_z
 _atom_site_occupancy
  Gd  Gd0  1  0.509206  0.509206  0.018411  1
  Gd  Gd1  1  0.990794  0.990794  0.981589  1
  Gd  Gd2  1  0.983427  0.822153  0.288770  1
  Gd  Gd3  1  0.305344  0.466617  0.288770  1
  Gd  Gd4  1  0.822153  0.305344  0.288770  1
  Gd  Gd5  1  0.466617  0.983427  0.288770  1
  Gd  Gd6  1  0.033383  0.194656  0.711230  1
  Gd  Gd7  1  0.677847  0.516573  0.711230  1
  Gd  Gd8  1  0.194656  0.677847  0.711230  1
  Gd  Gd9  1  0.516573  0.033383  0.711230  1
  Si  Si10  1  0.250000  0.250000  0.500000  1
  Si  Si11  1  0.622459  0.877541  0.000000  1
  Si  Si12  1  0.377541  0.122459  0.000000  1
  Si  Si13  1  0.877541  0.377541  0.000000  1
  Si  Si14  1  0.122459  0.622459  0.000000  1
  Sn  Sn15  1  0.750000  0.750000  0.500000  1
