# generated using pymatgen
data_Sc2CuNiSn
_symmetry_space_group_name_H-M   'P 1'
_cell_length_a   7.26193100
_cell_length_b   7.21246600
_cell_length_c   3.37112300
_cell_angle_alpha   90.00000000
_cell_angle_beta   90.00000000
_cell_angle_gamma   90.00000000
_symmetry_Int_Tables_number   1
_chemical_formula_structural   Sc2CuNiSn
_chemical_formula_sum   'Sc4 Cu2 Ni2 Sn2'
_cell_volume   176.56738929
_cell_formula_units_Z   2
loop_
 _symmetry_equiv_pos_site_id
 _symmetry_equiv_pos_as_xyz
  1  'x, y, z'
loop_
 _atom_site_type_symbol
 _atom_site_label
 _atom_site_symmetry_multiplicity
 _atom_site_fract_x
 _atom_site_fract_y
 _atom_site_fract_z
 _atom_site_occupancy
  Sc  Sc0  1  0.669461  0.154692  0.500000  1
  Sc  Sc1  1  0.169461  0.345308  0.500000  1
  Sc  Sc2  1  0.833431  0.679320  0.500000  1
  Sc  Sc3  1  0.333431  0.820680  0.500000  1
  Cu  Cu4  1  0.874142  0.378899  0.000000  1
  Cu  Cu5  1  0.374142  0.121101  0.000000  1
  Ni  Ni6  1  0.620202  0.876872  0.000000  1
  Ni  Ni7  1  0.120202  0.623128  0.000000  1
  Sn  Sn8  1  0.002765  0.001111  0.000000  1
  Sn  Sn9  1  0.502765  0.498889  0.000000  1
