# generated using pymatgen
data_Sc6InSn5Ir12
_symmetry_space_group_name_H-M   'P 1'
_cell_length_a   4.34863500
_cell_length_b   7.23055800
_cell_length_c   12.96018700
_cell_angle_alpha   90.00000000
_cell_angle_beta   89.99941844
_cell_angle_gamma   90.00000000
_symmetry_Int_Tables_number   1
_chemical_formula_structural   Sc6InSn5Ir12
_chemical_formula_sum   'Sc6 In1 Sn5 Ir12'
_cell_volume   407.50790619
_cell_formula_units_Z   1
loop_
 _symmetry_equiv_pos_site_id
 _symmetry_equiv_pos_as_xyz
  1  'x, y, z'
loop_
 _atom_site_type_symbol
 _atom_site_label
 _atom_site_symmetry_multiplicity
 _atom_site_fract_x
 _atom_site_fract_y
 _atom_site_fract_z
 _atom_site_occupancy
  Sc  Sc0  1  0.000016  0.500001  0.998027  1
  Sc  Sc1  1  0.499954  0.000000  0.167047  1
  Sc  Sc2  1  0.999964  0.500001  0.333393  1
  Sc  Sc3  1  0.499984  0.000000  0.499563  1
  Sc  Sc4  1  0.000044  0.500001  0.668580  1
  Sc  Sc5  1  0.500066  0.000000  0.833321  1
  In  In6  1  0.500124  0.500001  0.833326  1
  Sn  Sn7  1  0.000000  0.000000  0.000659  1
  Sn  Sn8  1  0.499939  0.500001  0.165545  1
  Sn  Sn9  1  0.999941  0.000000  0.333309  1
  Sn  Sn10  1  0.499988  0.500001  0.501307  1
  Sn  Sn11  1  0.000020  0.000000  0.665847  1
  Ir  Ir12  1  0.500004  0.248291  0.001317  1
  Ir  Ir13  1  0.500004  0.751709  0.001317  1
  Ir  Ir14  1  0.999954  0.249904  0.167474  1
  Ir  Ir15  1  0.999954  0.750097  0.167474  1
  Ir  Ir16  1  0.499949  0.251644  0.333400  1
  Ir  Ir17  1  0.499949  0.748356  0.333400  1
  Ir  Ir18  1  0.999994  0.249804  0.499210  1
  Ir  Ir19  1  0.999994  0.750198  0.499210  1
  Ir  Ir20  1  0.500034  0.248289  0.665328  1
  Ir  Ir21  1  0.500034  0.751711  0.665328  1
  Ir  Ir22  1  0.000049  0.245379  0.833309  1
  Ir  Ir23  1  0.000049  0.754622  0.833309  1
