# generated using pymatgen
data_Pt4Rh4W
_symmetry_space_group_name_H-M   'P 1'
_cell_length_a   6.20216846
_cell_length_b   6.20216894
_cell_length_c   6.20216857
_cell_angle_alpha   95.68468039
_cell_angle_beta   95.68468461
_cell_angle_gamma   143.31121517
_symmetry_Int_Tables_number   1
_chemical_formula_structural   Pt4Rh4W
_chemical_formula_sum   'Pt4 Rh4 W1'
_cell_volume   135.29911211
_cell_formula_units_Z   1
loop_
 _symmetry_equiv_pos_site_id
 _symmetry_equiv_pos_as_xyz
  1  'x, y, z'
loop_
 _atom_site_type_symbol
 _atom_site_label
 _atom_site_symmetry_multiplicity
 _atom_site_fract_x
 _atom_site_fract_y
 _atom_site_fract_z
 _atom_site_occupancy
  Pt  Pt0  1  0.000000  0.326726  0.326726  1
  Pt  Pt1  1  0.000000  0.673274  0.673274  1
  Pt  Pt2  1  0.673274  0.000000  0.673274  1
  Pt  Pt3  1  0.326726  0.000000  0.326726  1
  Rh  Rh4  1  0.340092  0.340092  0.680183  1
  Rh  Rh5  1  0.659908  0.659908  0.319817  1
  Rh  Rh6  1  0.659908  0.340092  0.000000  1
  Rh  Rh7  1  0.340092  0.659908  0.000000  1
  W  W8  1  0.000000  0.000000  0.000000  1
