# generated using pymatgen
data_Pr10Cd(InRu2)3
_symmetry_space_group_name_H-M   'P 1'
_cell_length_a   8.78900152
_cell_length_b   8.78900141
_cell_length_c   8.78900117
_cell_angle_alpha   109.62616890
_cell_angle_beta   109.62615918
_cell_angle_gamma   109.62617926
_symmetry_Int_Tables_number   1
_chemical_formula_structural   Pr10Cd(InRu2)3
_chemical_formula_sum   'Pr10 Cd1 In3 Ru6'
_cell_volume   519.61298049
_cell_formula_units_Z   1
loop_
 _symmetry_equiv_pos_site_id
 _symmetry_equiv_pos_as_xyz
  1  'x, y, z'
loop_
 _atom_site_type_symbol
 _atom_site_label
 _atom_site_symmetry_multiplicity
 _atom_site_fract_x
 _atom_site_fract_y
 _atom_site_fract_z
 _atom_site_occupancy
  Pr  Pr0  1  0.251463  0.682444  0.433901  1
  Pr  Pr1  1  0.748304  0.816817  0.066972  1
  Pr  Pr2  1  0.433901  0.251463  0.682444  1
  Pr  Pr3  1  0.682444  0.433901  0.251463  1
  Pr  Pr4  1  0.066972  0.748304  0.816817  1
  Pr  Pr5  1  0.816817  0.066972  0.748304  1
  Pr  Pr6  1  0.211373  0.211373  0.211373  1
  Pr  Pr7  1  0.500099  0.000591  0.289664  1
  Pr  Pr8  1  0.289664  0.500099  0.000591  1
  Pr  Pr9  1  0.000591  0.289664  0.500099  1
  Cd  Cd10  1  0.590375  0.590375  0.590375  1
  In  In11  1  0.499628  0.000726  0.907631  1
  In  In12  1  0.907631  0.499628  0.000726  1
  In  In13  1  0.000726  0.907631  0.499628  1
  Ru  Ru14  1  0.249531  0.131211  0.882225  1
  Ru  Ru15  1  0.752870  0.364697  0.619479  1
  Ru  Ru16  1  0.882224  0.249531  0.131211  1
  Ru  Ru17  1  0.131211  0.882224  0.249531  1
  Ru  Ru18  1  0.619479  0.752870  0.364697  1
  Ru  Ru19  1  0.364697  0.619479  0.752870  1
