# generated using pymatgen
data_Ce4TcB16Ru3
_symmetry_space_group_name_H-M   'P 1'
_cell_length_a   3.64000900
_cell_length_b   6.00101407
_cell_length_c   11.63857917
_cell_angle_alpha   89.96764130
_cell_angle_beta   90.00000000
_cell_angle_gamma   90.00000000
_symmetry_Int_Tables_number   1
_chemical_formula_structural   Ce4TcB16Ru3
_chemical_formula_sum   'Ce4 Tc1 B16 Ru3'
_cell_volume   254.23011773
_cell_formula_units_Z   1
loop_
 _symmetry_equiv_pos_site_id
 _symmetry_equiv_pos_as_xyz
  1  'x, y, z'
loop_
 _atom_site_type_symbol
 _atom_site_label
 _atom_site_symmetry_multiplicity
 _atom_site_fract_x
 _atom_site_fract_y
 _atom_site_fract_z
 _atom_site_occupancy
  Ce  Ce0  1  0.000000  0.628356  0.650062  1
  Ce  Ce1  1  0.000000  0.371583  0.350752  1
  Ce  Ce2  1  0.000000  0.128265  0.850156  1
  Ce  Ce3  1  0.000000  0.871294  0.149488  1
  Tc  Tc4  1  0.000000  0.638053  0.908383  1
  B  B5  1  0.500000  0.975947  0.690614  1
  B  B6  1  0.500000  0.024997  0.308976  1
  B  B7  1  0.500000  0.474534  0.809426  1
  B  B8  1  0.500000  0.525882  0.190445  1
  B  B9  1  0.500000  0.785959  0.814452  1
  B  B10  1  0.500000  0.213898  0.185714  1
  B  B11  1  0.500000  0.285043  0.685512  1
  B  B12  1  0.500000  0.714373  0.314144  1
  B  B13  1  0.500000  0.863331  0.968624  1
  B  B14  1  0.500000  0.137898  0.031691  1
  B  B15  1  0.500000  0.362310  0.531203  1
  B  B16  1  0.500000  0.637491  0.468625  1
  B  B17  1  0.500000  0.888709  0.545912  1
  B  B18  1  0.500000  0.111210  0.453941  1
  B  B19  1  0.500000  0.388887  0.954058  1
  B  B20  1  0.500000  0.612012  0.045544  1
  Ru  Ru21  1  0.000000  0.360817  0.093320  1
  Ru  Ru22  1  0.000000  0.139596  0.592736  1
  Ru  Ru23  1  0.000000  0.859554  0.406219  1
