# generated using pymatgen
data_Er2P7(IrRu)6
_symmetry_space_group_name_H-M   'P 1'
_cell_length_a   9.56107900
_cell_length_b   9.56107985
_cell_length_c   3.88802000
_cell_angle_alpha   90.00000000
_cell_angle_beta   90.00000000
_cell_angle_gamma   120.00000050
_symmetry_Int_Tables_number   1
_chemical_formula_structural   Er2P7(IrRu)6
_chemical_formula_sum   'Er2 P7 Ir6 Ru6'
_cell_volume   307.80308754
_cell_formula_units_Z   1
loop_
 _symmetry_equiv_pos_site_id
 _symmetry_equiv_pos_as_xyz
  1  'x, y, z'
loop_
 _atom_site_type_symbol
 _atom_site_label
 _atom_site_symmetry_multiplicity
 _atom_site_fract_x
 _atom_site_fract_y
 _atom_site_fract_z
 _atom_site_occupancy
  Er  Er0  1  0.333333  0.666667  0.000000  1
  Er  Er1  1  0.000000  0.000000  0.500000  1
  P  P2  1  0.786007  0.047790  0.000000  1
  P  P3  1  0.952210  0.738217  0.000000  1
  P  P4  1  0.261783  0.213993  0.000000  1
  P  P5  1  0.381986  0.929565  0.500000  1
  P  P6  1  0.070435  0.452422  0.500000  1
  P  P7  1  0.547578  0.618014  0.500000  1
  P  P8  1  0.666667  0.333333  0.000000  1
  Ir  Ir9  1  0.047007  0.263782  0.000000  1
  Ir  Ir10  1  0.736218  0.783223  0.000000  1
  Ir  Ir11  1  0.216777  0.952993  0.000000  1
  Ir  Ir12  1  0.601583  0.883358  0.500000  1
  Ir  Ir13  1  0.116642  0.718223  0.500000  1
  Ir  Ir14  1  0.281777  0.398417  0.500000  1
  Ru  Ru15  1  0.550087  0.063150  0.000000  1
  Ru  Ru16  1  0.936850  0.486938  0.000000  1
  Ru  Ru17  1  0.513062  0.449913  0.000000  1
  Ru  Ru18  1  0.812850  0.223345  0.500000  1
  Ru  Ru19  1  0.776655  0.589505  0.500000  1
  Ru  Ru20  1  0.410495  0.187150  0.500000  1
