# generated using pymatgen
data_UFeAsN
_symmetry_space_group_name_H-M   'P 1'
_cell_length_a   3.85577200
_cell_length_b   3.85577200
_cell_length_c   7.80946200
_cell_angle_alpha   90.00032691
_cell_angle_beta   90.00032691
_cell_angle_gamma   90.00013374
_symmetry_Int_Tables_number   1
_chemical_formula_structural   UFeAsN
_chemical_formula_sum   'U2 Fe2 As2 N2'
_cell_volume   116.10309753
_cell_formula_units_Z   2
loop_
 _symmetry_equiv_pos_site_id
 _symmetry_equiv_pos_as_xyz
  1  'x, y, z'
loop_
 _atom_site_type_symbol
 _atom_site_label
 _atom_site_symmetry_multiplicity
 _atom_site_fract_x
 _atom_site_fract_y
 _atom_site_fract_z
 _atom_site_occupancy
  U  U0  1  0.750036  0.750036  0.150752  1
  U  U1  1  0.250009  0.250009  0.848706  1
  Fe  Fe2  1  0.749976  0.249966  0.500238  1
  Fe  Fe3  1  0.249966  0.749976  0.500238  1
  As  As4  1  0.249987  0.249987  0.337968  1
  As  As5  1  0.749975  0.749975  0.662370  1
  N  N6  1  0.750033  0.250020  0.999864  1
  N  N7  1  0.250020  0.750033  0.999864  1
