# generated using pymatgen
data_Y2Ho14In6CoOs
_symmetry_space_group_name_H-M   'P 1'
_cell_length_a   10.35296000
_cell_length_b   10.35296105
_cell_length_c   7.02652700
_cell_angle_alpha   90.00000000
_cell_angle_beta   90.00000000
_cell_angle_gamma   120.00000303
_symmetry_Int_Tables_number   1
_chemical_formula_structural   Y2Ho14In6CoOs
_chemical_formula_sum   'Y2 Ho14 In6 Co1 Os1'
_cell_volume   652.22952432
_cell_formula_units_Z   1
loop_
 _symmetry_equiv_pos_site_id
 _symmetry_equiv_pos_as_xyz
  1  'x, y, z'
loop_
 _atom_site_type_symbol
 _atom_site_label
 _atom_site_symmetry_multiplicity
 _atom_site_fract_x
 _atom_site_fract_y
 _atom_site_fract_z
 _atom_site_occupancy
  Y  Y0  1  0.000000  0.000000  0.494087  1
  Y  Y1  1  0.000000  0.000000  0.996555  1
  Ho  Ho2  1  0.466513  0.533487  0.481784  1
  Ho  Ho3  1  0.066974  0.533487  0.481784  1
  Ho  Ho4  1  0.466513  0.933026  0.481784  1
  Ho  Ho5  1  0.535480  0.464520  0.981108  1
  Ho  Ho6  1  0.929040  0.464520  0.981108  1
  Ho  Ho7  1  0.535480  0.070960  0.981108  1
  Ho  Ho8  1  0.821104  0.178896  0.275098  1
  Ho  Ho9  1  0.357792  0.178896  0.275098  1
  Ho  Ho10  1  0.821104  0.642208  0.275098  1
  Ho  Ho11  1  0.177297  0.822703  0.777072  1
  Ho  Ho12  1  0.645406  0.822703  0.777072  1
  Ho  Ho13  1  0.177297  0.354594  0.777072  1
  Ho  Ho14  1  0.333333  0.666667  0.103425  1
  Ho  Ho15  1  0.666667  0.333333  0.592380  1
  In  In16  1  0.162175  0.837825  0.234477  1
  In  In17  1  0.675651  0.837825  0.234477  1
  In  In18  1  0.162175  0.324349  0.234477  1
  In  In19  1  0.836423  0.163577  0.732804  1
  In  In20  1  0.327152  0.163577  0.732804  1
  In  In21  1  0.836423  0.672848  0.732804  1
  Co  Co22  1  0.666667  0.333333  0.205941  1
  Os  Os23  1  0.333333  0.666667  0.705136  1
