# generated using pymatgen
data_Ho2Er2Fe5Si10Rh
_symmetry_space_group_name_H-M   'P 1'
_cell_length_a   8.00524980
_cell_length_b   8.00660067
_cell_length_c   8.00659986
_cell_angle_alpha   140.48127525
_cell_angle_beta   108.24881654
_cell_angle_gamma   85.15145364
_symmetry_Int_Tables_number   1
_chemical_formula_structural   Ho2Er2Fe5Si10Rh
_chemical_formula_sum   'Ho2 Er2 Fe5 Si10 Rh1'
_cell_volume   299.47492044
_cell_formula_units_Z   1
loop_
 _symmetry_equiv_pos_site_id
 _symmetry_equiv_pos_as_xyz
  1  'x, y, z'
loop_
 _atom_site_type_symbol
 _atom_site_label
 _atom_site_symmetry_multiplicity
 _atom_site_fract_x
 _atom_site_fract_y
 _atom_site_fract_z
 _atom_site_occupancy
  Ho  Ho0  1  0.090974  0.354804  0.723254  1
  Ho  Ho1  1  0.909026  0.632279  0.263828  1
  Er  Er2  1  0.631366  0.867683  0.776594  1
  Er  Er3  1  0.368634  0.145227  0.236317  1
  Fe  Fe4  1  0.234207  0.643711  0.589724  1
  Fe  Fe5  1  0.765793  0.355518  0.409505  1
  Fe  Fe6  1  0.054521  0.144357  0.910876  1
  Fe  Fe7  1  0.945479  0.856353  0.089835  1
  Fe  Fe8  1  0.500000  0.749983  0.249983  1
  Si  Si9  1  0.285968  0.035357  0.750135  1
  Si  Si10  1  0.710989  0.961580  0.249876  1
  Si  Si11  1  0.714032  0.464167  0.749389  1
  Si  Si12  1  0.289011  0.538887  0.250591  1
  Si  Si13  1  0.422501  0.610276  0.838604  1
  Si  Si14  1  0.577499  0.416102  0.187774  1
  Si  Si15  1  0.771155  0.083595  0.661380  1
  Si  Si16  1  0.228845  0.890226  0.312441  1
  Si  Si17  1  0.000000  0.750229  0.750229  1
  Si  Si18  1  0.000000  0.249708  0.249708  1
  Rh  Rh19  1  0.500000  0.249957  0.749957  1
