# generated using pymatgen
data_Zr16TaFe4Ir3
_symmetry_space_group_name_H-M   'P 1'
_cell_length_a   8.74290072
_cell_length_b   8.74233017
_cell_length_c   8.74286200
_cell_angle_alpha   59.79510469
_cell_angle_beta   59.80490166
_cell_angle_gamma   59.79894828
_symmetry_Int_Tables_number   1
_chemical_formula_structural   Zr16TaFe4Ir3
_chemical_formula_sum   'Zr16 Ta1 Fe4 Ir3'
_cell_volume   470.37220851
_cell_formula_units_Z   1
loop_
 _symmetry_equiv_pos_site_id
 _symmetry_equiv_pos_as_xyz
  1  'x, y, z'
loop_
 _atom_site_type_symbol
 _atom_site_label
 _atom_site_symmetry_multiplicity
 _atom_site_fract_x
 _atom_site_fract_y
 _atom_site_fract_z
 _atom_site_occupancy
  Zr  Zr0  1  0.046334  0.651222  0.651145  1
  Zr  Zr1  1  0.651173  0.046298  0.651263  1
  Zr  Zr2  1  0.651167  0.651336  0.046330  1
  Zr  Zr3  1  0.646736  0.646727  0.646488  1
  Zr  Zr4  1  0.798596  0.798596  0.201396  1
  Zr  Zr5  1  0.196124  0.196021  0.803446  1
  Zr  Zr6  1  0.798566  0.201380  0.798545  1
  Zr  Zr7  1  0.195985  0.803524  0.196071  1
  Zr  Zr8  1  0.201344  0.798637  0.798641  1
  Zr  Zr9  1  0.803708  0.195800  0.195992  1
  Zr  Zr10  1  0.436446  0.436452  0.067482  1
  Zr  Zr11  1  0.062104  0.062082  0.437509  1
  Zr  Zr12  1  0.436387  0.067533  0.436404  1
  Zr  Zr13  1  0.062132  0.437442  0.062145  1
  Zr  Zr14  1  0.067555  0.436388  0.436379  1
  Zr  Zr15  1  0.437443  0.062119  0.062152  1
  Ta  Ta16  1  0.426144  0.426069  0.426024  1
  Fe  Fe17  1  0.418801  0.859065  0.859159  1
  Fe  Fe18  1  0.859004  0.418813  0.859273  1
  Fe  Fe19  1  0.859086  0.859248  0.418862  1
  Fe  Fe20  1  0.861294  0.861304  0.861250  1
  Ir  Ir21  1  0.754258  0.414808  0.414799  1
  Ir  Ir22  1  0.414819  0.754317  0.414837  1
  Ir  Ir23  1  0.414797  0.414819  0.754411  1
