# generated using pymatgen
data_Ho2V(Ni3As2)3
_symmetry_space_group_name_H-M   'P 1'
_cell_length_a   3.81852200
_cell_length_b   10.81964500
_cell_length_c   12.31448500
_cell_angle_alpha   90.00000000
_cell_angle_beta   90.00000000
_cell_angle_gamma   90.00000000
_symmetry_Int_Tables_number   1
_chemical_formula_structural   Ho2V(Ni3As2)3
_chemical_formula_sum   'Ho4 V2 Ni18 As12'
_cell_volume   508.77359385
_cell_formula_units_Z   2
loop_
 _symmetry_equiv_pos_site_id
 _symmetry_equiv_pos_as_xyz
  1  'x, y, z'
loop_
 _atom_site_type_symbol
 _atom_site_label
 _atom_site_symmetry_multiplicity
 _atom_site_fract_x
 _atom_site_fract_y
 _atom_site_fract_z
 _atom_site_occupancy
  Ho  Ho0  1  0.250000  0.581215  0.704481  1
  Ho  Ho1  1  0.250000  0.918785  0.204481  1
  Ho  Ho2  1  0.750000  0.416779  0.296004  1
  Ho  Ho3  1  0.750000  0.083221  0.796004  1
  V  V4  1  0.250000  0.703195  0.988713  1
  V  V5  1  0.250000  0.796805  0.488713  1
  Ni  Ni6  1  0.750000  0.288798  0.008998  1
  Ni  Ni7  1  0.750000  0.211202  0.508998  1
  Ni  Ni8  1  0.250000  0.408724  0.488338  1
  Ni  Ni9  1  0.250000  0.091276  0.988338  1
  Ni  Ni10  1  0.750000  0.592414  0.511183  1
  Ni  Ni11  1  0.750000  0.907586  0.011183  1
  Ni  Ni12  1  0.250000  0.213192  0.179728  1
  Ni  Ni13  1  0.250000  0.286808  0.679728  1
  Ni  Ni14  1  0.750000  0.785438  0.822324  1
  Ni  Ni15  1  0.750000  0.714562  0.322324  1
  Ni  Ni16  1  0.250000  0.886890  0.698143  1
  Ni  Ni17  1  0.250000  0.613110  0.198143  1
  Ni  Ni18  1  0.750000  0.118697  0.302279  1
  Ni  Ni19  1  0.750000  0.381303  0.802279  1
  Ni  Ni20  1  0.250000  0.468512  0.930893  1
  Ni  Ni21  1  0.250000  0.031488  0.430893  1
  Ni  Ni22  1  0.750000  0.528176  0.070079  1
  Ni  Ni23  1  0.750000  0.971824  0.570079  1
  As  As24  1  0.250000  0.411968  0.113370  1
  As  As25  1  0.250000  0.088032  0.613370  1
  As  As26  1  0.750000  0.585017  0.883916  1
  As  As27  1  0.750000  0.914983  0.383916  1
  As  As28  1  0.250000  0.267467  0.872435  1
  As  As29  1  0.250000  0.232533  0.372435  1
  As  As30  1  0.750000  0.733280  0.129857  1
  As  As31  1  0.750000  0.766720  0.629857  1
  As  As32  1  0.250000  0.599154  0.390629  1
  As  As33  1  0.250000  0.900846  0.890629  1
  As  As34  1  0.750000  0.399307  0.608632  1
  As  As35  1  0.750000  0.100693  0.108632  1
