# generated using pymatgen
data_Hf5P12Ir4Ru15
_symmetry_space_group_name_H-M   'P 1'
_cell_length_a   12.44510600
_cell_length_b   12.44510654
_cell_length_c   3.89101300
_cell_angle_alpha   90.00000000
_cell_angle_beta   90.00000000
_cell_angle_gamma   120.00000387
_symmetry_Int_Tables_number   1
_chemical_formula_structural   Hf5P12Ir4Ru15
_chemical_formula_sum   'Hf5 P12 Ir4 Ru15'
_cell_volume   521.90386804
_cell_formula_units_Z   1
loop_
 _symmetry_equiv_pos_site_id
 _symmetry_equiv_pos_as_xyz
  1  'x, y, z'
loop_
 _atom_site_type_symbol
 _atom_site_label
 _atom_site_symmetry_multiplicity
 _atom_site_fract_x
 _atom_site_fract_y
 _atom_site_fract_z
 _atom_site_occupancy
  Hf  Hf0  1  0.333333  0.666667  0.000000  1
  Hf  Hf1  1  0.666667  0.333333  0.000000  1
  Hf  Hf2  1  0.809026  0.998865  0.500000  1
  Hf  Hf3  1  0.001135  0.810160  0.500000  1
  Hf  Hf4  1  0.189840  0.190974  0.500000  1
  P  P5  1  0.177186  0.995888  0.000000  1
  P  P6  1  0.004112  0.181298  0.000000  1
  P  P7  1  0.818702  0.822814  0.000000  1
  P  P8  1  0.173647  0.481666  0.500000  1
  P  P9  1  0.518334  0.691981  0.500000  1
  P  P10  1  0.308019  0.826353  0.500000  1
  P  P11  1  0.686707  0.516638  0.500000  1
  P  P12  1  0.829930  0.313293  0.500000  1
  P  P13  1  0.483362  0.170070  0.500000  1
  P  P14  1  0.629337  0.995081  0.000000  1
  P  P15  1  0.004919  0.634255  0.000000  1
  P  P16  1  0.365745  0.370663  0.000000  1
  Ir  Ir17  1  0.816659  0.632704  0.000000  1
  Ir  Ir18  1  0.816045  0.183341  0.000000  1
  Ir  Ir19  1  0.367296  0.183955  0.000000  1
  Ir  Ir20  1  0.000000  0.000000  0.000000  1
  Ru  Ru21  1  0.450340  0.006488  0.000000  1
  Ru  Ru22  1  0.993512  0.443852  0.000000  1
  Ru  Ru23  1  0.556148  0.549660  0.000000  1
  Ru  Ru24  1  0.365223  0.493291  0.500000  1
  Ru  Ru25  1  0.506709  0.871932  0.500000  1
  Ru  Ru26  1  0.128068  0.634777  0.500000  1
  Ru  Ru27  1  0.866551  0.507610  0.500000  1
  Ru  Ru28  1  0.641058  0.133449  0.500000  1
  Ru  Ru29  1  0.492390  0.358942  0.500000  1
  Ru  Ru30  1  0.181827  0.375233  0.000000  1
  Ru  Ru31  1  0.624767  0.806595  0.000000  1
  Ru  Ru32  1  0.193405  0.818173  0.000000  1
  Ru  Ru33  1  0.282510  0.001836  0.500000  1
  Ru  Ru34  1  0.998164  0.280674  0.500000  1
  Ru  Ru35  1  0.719326  0.717490  0.500000  1
