# generated using pymatgen
data_TbCe6NdF30
_symmetry_space_group_name_H-M   'P 1'
_cell_length_a   8.65643163
_cell_length_b   8.65643167
_cell_length_c   8.65025400
_cell_angle_alpha   79.68784464
_cell_angle_beta   79.68784458
_cell_angle_gamma   100.26148940
_symmetry_Int_Tables_number   1
_chemical_formula_structural   TbCe6NdF30
_chemical_formula_sum   'Tb1 Ce6 Nd1 F30'
_cell_volume   612.45443100
_cell_formula_units_Z   1
loop_
 _symmetry_equiv_pos_site_id
 _symmetry_equiv_pos_as_xyz
  1  'x, y, z'
loop_
 _atom_site_type_symbol
 _atom_site_label
 _atom_site_symmetry_multiplicity
 _atom_site_fract_x
 _atom_site_fract_y
 _atom_site_fract_z
 _atom_site_occupancy
  Tb  Tb0  1  0.178376  0.821624  0.250000  1
  Ce  Ce1  1  0.750377  0.249623  0.250000  1
  Ce  Ce2  1  0.249487  0.750513  0.750000  1
  Ce  Ce3  1  0.753015  0.678299  0.673136  1
  Ce  Ce4  1  0.321701  0.246985  0.826864  1
  Ce  Ce5  1  0.248659  0.322139  0.324589  1
  Ce  Ce6  1  0.677861  0.751341  0.175411  1
  Nd  Nd7  1  0.821711  0.178289  0.750000  1
  F  F8  1  0.466718  0.533282  0.250000  1
  F  F9  1  0.748611  0.957537  0.969608  1
  F  F10  1  0.042463  0.251389  0.530392  1
  F  F11  1  0.249906  0.038100  0.035064  1
  F  F12  1  0.961900  0.750094  0.464936  1
  F  F13  1  0.534567  0.465433  0.750000  1
  F  F14  1  0.222085  0.491680  0.777143  1
  F  F15  1  0.224044  0.726042  0.008413  1
  F  F16  1  0.989562  0.724938  0.781497  1
  F  F17  1  0.724364  0.989638  0.281673  1
  F  F18  1  0.721049  0.225783  0.506942  1
  F  F19  1  0.491623  0.222221  0.276671  1
  F  F20  1  0.777780  0.508377  0.223329  1
  F  F21  1  0.774217  0.278951  0.993058  1
  F  F22  1  0.010362  0.275636  0.218327  1
  F  F23  1  0.275062  0.010438  0.718503  1
  F  F24  1  0.273958  0.775956  0.491587  1
  F  F25  1  0.508320  0.777915  0.722857  1
  F  F26  1  0.541901  0.153204  0.818517  1
  F  F27  1  0.188311  0.057352  0.343105  1
  F  F28  1  0.650507  0.682427  0.446704  1
  F  F29  1  0.683052  0.651127  0.946224  1
  F  F30  1  0.060203  0.186840  0.849087  1
  F  F31  1  0.157811  0.548616  0.314627  1
  F  F32  1  0.451384  0.842189  0.185373  1
  F  F33  1  0.813160  0.939797  0.650913  1
  F  F34  1  0.348873  0.316948  0.553776  1
  F  F35  1  0.317573  0.349493  0.053296  1
  F  F36  1  0.942648  0.811689  0.156895  1
  F  F37  1  0.846796  0.458099  0.681483  1
