# generated using pymatgen
data_TbSi4P2(Pd10Pb)2
_symmetry_space_group_name_H-M   'P 1'
_cell_length_a   8.74068061
_cell_length_b   8.74067992
_cell_length_c   8.72187900
_cell_angle_alpha   60.07113173
_cell_angle_beta   60.07113435
_cell_angle_gamma   59.85774884
_symmetry_Int_Tables_number   1
_chemical_formula_structural   TbSi4P2(Pd10Pb)2
_chemical_formula_sum   'Tb1 Si4 P2 Pd20 Pb2'
_cell_volume   471.17426973
_cell_formula_units_Z   1
loop_
 _symmetry_equiv_pos_site_id
 _symmetry_equiv_pos_as_xyz
  1  'x, y, z'
loop_
 _atom_site_type_symbol
 _atom_site_label
 _atom_site_symmetry_multiplicity
 _atom_site_fract_x
 _atom_site_fract_y
 _atom_site_fract_z
 _atom_site_occupancy
  Tb  Tb0  1  0.000000  0.000000  0.000000  1
  Si  Si1  1  0.731760  0.268240  0.268240  1
  Si  Si2  1  0.268240  0.731760  0.731760  1
  Si  Si3  1  0.268240  0.731760  0.268240  1
  Si  Si4  1  0.731760  0.268240  0.731760  1
  P  P5  1  0.266882  0.266882  0.733118  1
  P  P6  1  0.733118  0.733118  0.266882  1
  Pd  Pd7  1  0.383572  0.383572  0.385460  1
  Pd  Pd8  1  0.616428  0.616428  0.614540  1
  Pd  Pd9  1  0.383572  0.383572  0.847395  1
  Pd  Pd10  1  0.385460  0.847395  0.383572  1
  Pd  Pd11  1  0.616428  0.616428  0.152605  1
  Pd  Pd12  1  0.614540  0.152605  0.616428  1
  Pd  Pd13  1  0.847395  0.385460  0.383572  1
  Pd  Pd14  1  0.152605  0.614540  0.616428  1
  Pd  Pd15  1  0.343326  0.000639  0.999361  1
  Pd  Pd16  1  0.656674  0.999361  0.000639  1
  Pd  Pd17  1  0.000639  0.343326  0.656674  1
  Pd  Pd18  1  0.999361  0.656674  0.343326  1
  Pd  Pd19  1  0.000639  0.343326  0.999361  1
  Pd  Pd20  1  0.656674  0.999361  0.343326  1
  Pd  Pd21  1  0.999361  0.656674  0.000639  1
  Pd  Pd22  1  0.343326  0.000639  0.656674  1
  Pd  Pd23  1  0.000000  0.000000  0.344467  1
  Pd  Pd24  1  0.000000  0.000000  0.655533  1
  Pd  Pd25  1  0.655533  0.344467  0.000000  1
  Pd  Pd26  1  0.344467  0.655533  0.000000  1
  Pb  Pb27  1  0.250000  0.250000  0.250000  1
  Pb  Pb28  1  0.750000  0.750000  0.750000  1
