# generated using pymatgen
data_Zr10TlZnPPb5
_symmetry_space_group_name_H-M   'P 1'
_cell_length_a   8.79788892
_cell_length_b   8.79520869
_cell_length_c   5.98712705
_cell_angle_alpha   90.06660107
_cell_angle_beta   89.86683184
_cell_angle_gamma   120.01008490
_symmetry_Int_Tables_number   1
_chemical_formula_structural   Zr10TlZnPPb5
_chemical_formula_sum   'Zr10 Tl1 Zn1 P1 Pb5'
_cell_volume   401.16996796
_cell_formula_units_Z   1
loop_
 _symmetry_equiv_pos_site_id
 _symmetry_equiv_pos_as_xyz
  1  'x, y, z'
loop_
 _atom_site_type_symbol
 _atom_site_label
 _atom_site_symmetry_multiplicity
 _atom_site_fract_x
 _atom_site_fract_y
 _atom_site_fract_z
 _atom_site_occupancy
  Zr  Zr0  1  0.333607  0.667077  0.000330  1
  Zr  Zr1  1  0.666442  0.332581  0.499644  1
  Zr  Zr2  1  0.666531  0.332923  0.000330  1
  Zr  Zr3  1  0.333860  0.667419  0.499644  1
  Zr  Zr4  1  0.255592  0.000000  0.237200  1
  Zr  Zr5  1  0.255447  0.255429  0.763220  1
  Zr  Zr6  1  0.000018  0.744571  0.763220  1
  Zr  Zr7  1  0.999375  0.255013  0.236625  1
  Zr  Zr8  1  0.744363  0.744987  0.236625  1
  Zr  Zr9  1  0.744397  0.000000  0.763571  1
  Tl  Tl10  1  0.609181  0.000000  0.254807  1
  Zn  Zn11  1  0.999405  0.000000  0.499515  1
  P  P12  1  0.999788  0.000000  0.000540  1
  Pb  Pb13  1  0.608495  0.608624  0.745070  1
  Pb  Pb14  1  0.999871  0.391376  0.745070  1
  Pb  Pb15  1  0.999921  0.608226  0.255088  1
  Pb  Pb16  1  0.391694  0.391774  0.255088  1
  Pb  Pb17  1  0.392013  0.000000  0.744414  1
