# generated using pymatgen
data_Sm(TlCl2)3
_symmetry_space_group_name_H-M   'P 1'
_cell_length_a   13.52018730
_cell_length_b   13.52018771
_cell_length_c   12.77597200
_cell_angle_alpha   80.87528585
_cell_angle_beta   80.87528557
_cell_angle_gamma   33.99288523
_symmetry_Int_Tables_number   1
_chemical_formula_structural   Sm(TlCl2)3
_chemical_formula_sum   'Sm4 Tl12 Cl24'
_cell_volume   1287.61551681
_cell_formula_units_Z   4
loop_
 _symmetry_equiv_pos_site_id
 _symmetry_equiv_pos_as_xyz
  1  'x, y, z'
loop_
 _atom_site_type_symbol
 _atom_site_label
 _atom_site_symmetry_multiplicity
 _atom_site_fract_x
 _atom_site_fract_y
 _atom_site_fract_z
 _atom_site_occupancy
  Sm  Sm0  1  0.785482  0.214518  0.750000  1
  Sm  Sm1  1  0.214518  0.785482  0.250000  1
  Sm  Sm2  1  0.500000  0.000000  0.500000  1
  Sm  Sm3  1  0.000000  0.500000  0.000000  1
  Tl  Tl4  1  0.297966  0.801829  0.564940  1
  Tl  Tl5  1  0.702034  0.198171  0.435060  1
  Tl  Tl6  1  0.198171  0.702034  0.935060  1
  Tl  Tl7  1  0.801829  0.297966  0.064940  1
  Tl  Tl8  1  0.465414  0.843867  0.858574  1
  Tl  Tl9  1  0.534586  0.156133  0.141426  1
  Tl  Tl10  1  0.156133  0.534586  0.641426  1
  Tl  Tl11  1  0.843867  0.465414  0.358574  1
  Tl  Tl12  1  0.652748  0.024464  0.802330  1
  Tl  Tl13  1  0.347252  0.975536  0.197670  1
  Tl  Tl14  1  0.975536  0.347252  0.697670  1
  Tl  Tl15  1  0.024464  0.652748  0.302330  1
  Cl  Cl16  1  0.625782  0.711886  0.579490  1
  Cl  Cl17  1  0.374218  0.288114  0.420510  1
  Cl  Cl18  1  0.288114  0.374218  0.920510  1
  Cl  Cl19  1  0.711886  0.625782  0.079490  1
  Cl  Cl20  1  0.497213  0.382606  0.668402  1
  Cl  Cl21  1  0.502787  0.617394  0.331598  1
  Cl  Cl22  1  0.617394  0.502787  0.831598  1
  Cl  Cl23  1  0.382606  0.497213  0.168402  1
  Cl  Cl24  1  0.793496  0.860035  0.530034  1
  Cl  Cl25  1  0.206504  0.139965  0.469966  1
  Cl  Cl26  1  0.139965  0.206504  0.969966  1
  Cl  Cl27  1  0.860035  0.793496  0.030034  1
  Cl  Cl28  1  0.892567  0.983156  0.204748  1
  Cl  Cl29  1  0.107433  0.016844  0.795252  1
  Cl  Cl30  1  0.016844  0.107433  0.295252  1
  Cl  Cl31  1  0.983156  0.892567  0.704748  1
  Cl  Cl32  1  0.720327  0.165047  0.944336  1
  Cl  Cl33  1  0.279673  0.834953  0.055664  1
  Cl  Cl34  1  0.834953  0.279673  0.555664  1
  Cl  Cl35  1  0.165047  0.720327  0.444336  1
  Cl  Cl36  1  0.355857  0.144697  0.693472  1
  Cl  Cl37  1  0.644143  0.855303  0.306528  1
  Cl  Cl38  1  0.855303  0.644143  0.806528  1
  Cl  Cl39  1  0.144697  0.355857  0.193472  1
