# generated using pymatgen
data_Er2Tm3Zr3(Ni4P3)4
_symmetry_space_group_name_H-M   'P 1'
_cell_length_a   12.33647000
_cell_length_b   12.33647151
_cell_length_c   3.78755100
_cell_angle_alpha   90.00000000
_cell_angle_beta   90.00000000
_cell_angle_gamma   120.00000668
_symmetry_Int_Tables_number   1
_chemical_formula_structural   Er2Tm3Zr3(Ni4P3)4
_chemical_formula_sum   'Er2 Tm3 Zr3 Ni16 P12'
_cell_volume   499.19584152
_cell_formula_units_Z   1
loop_
 _symmetry_equiv_pos_site_id
 _symmetry_equiv_pos_as_xyz
  1  'x, y, z'
loop_
 _atom_site_type_symbol
 _atom_site_label
 _atom_site_symmetry_multiplicity
 _atom_site_fract_x
 _atom_site_fract_y
 _atom_site_fract_z
 _atom_site_occupancy
  Er  Er0  1  0.333333  0.666667  0.000000  1
  Er  Er1  1  0.666667  0.333333  0.000000  1
  Tm  Tm2  1  0.183460  0.183460  0.500000  1
  Tm  Tm3  1  0.816540  0.000000  0.500000  1
  Tm  Tm4  1  0.000000  0.816540  0.500000  1
  Zr  Zr5  1  0.560451  0.560451  0.000000  1
  Zr  Zr6  1  0.439549  0.000000  0.000000  1
  Zr  Zr7  1  0.000000  0.439549  0.000000  1
  Ni  Ni8  1  0.727194  0.727194  0.500000  1
  Ni  Ni9  1  0.272806  0.000000  0.500000  1
  Ni  Ni10  1  0.000000  0.272806  0.500000  1
  Ni  Ni11  1  0.184961  0.375518  0.000000  1
  Ni  Ni12  1  0.624482  0.809442  0.000000  1
  Ni  Ni13  1  0.190558  0.815039  0.000000  1
  Ni  Ni14  1  0.809442  0.624482  0.000000  1
  Ni  Ni15  1  0.815039  0.190558  0.000000  1
  Ni  Ni16  1  0.375518  0.184961  0.000000  1
  Ni  Ni17  1  0.359227  0.484548  0.500000  1
  Ni  Ni18  1  0.515452  0.874681  0.500000  1
  Ni  Ni19  1  0.125319  0.640773  0.500000  1
  Ni  Ni20  1  0.874681  0.515452  0.500000  1
  Ni  Ni21  1  0.640773  0.125319  0.500000  1
  Ni  Ni22  1  0.484548  0.359227  0.500000  1
  Ni  Ni23  1  0.000000  0.000000  0.000000  1
  P  P24  1  0.822921  0.822921  0.000000  1
  P  P25  1  0.177079  0.000000  0.000000  1
  P  P26  1  0.000000  0.177079  0.000000  1
  P  P27  1  0.170986  0.477047  0.500000  1
  P  P28  1  0.522953  0.693939  0.500000  1
  P  P29  1  0.306061  0.829014  0.500000  1
  P  P30  1  0.693939  0.522953  0.500000  1
  P  P31  1  0.829014  0.306061  0.500000  1
  P  P32  1  0.477047  0.170986  0.500000  1
  P  P33  1  0.354529  0.354529  0.000000  1
  P  P34  1  0.645471  0.000000  0.000000  1
  P  P35  1  0.000000  0.645471  0.000000  1
