# generated using pymatgen
data_Sc6Ta4Zn3Ga9Ir7
_symmetry_space_group_name_H-M   'P 1'
_cell_length_a   8.86448093
_cell_length_b   8.86448047
_cell_length_c   8.86448108
_cell_angle_alpha   59.84524013
_cell_angle_beta   59.84524163
_cell_angle_gamma   59.84524374
_symmetry_Int_Tables_number   1
_chemical_formula_structural   Sc6Ta4Zn3Ga9Ir7
_chemical_formula_sum   'Sc6 Ta4 Zn3 Ga9 Ir7'
_cell_volume   490.81397795
_cell_formula_units_Z   1
loop_
 _symmetry_equiv_pos_site_id
 _symmetry_equiv_pos_as_xyz
  1  'x, y, z'
loop_
 _atom_site_type_symbol
 _atom_site_label
 _atom_site_symmetry_multiplicity
 _atom_site_fract_x
 _atom_site_fract_y
 _atom_site_fract_z
 _atom_site_occupancy
  Sc  Sc0  1  0.705131  0.705131  0.294750  1
  Sc  Sc1  1  0.294722  0.704680  0.294722  1
  Sc  Sc2  1  0.704680  0.294722  0.294722  1
  Sc  Sc3  1  0.294722  0.294722  0.704680  1
  Sc  Sc4  1  0.705131  0.294750  0.705131  1
  Sc  Sc5  1  0.294750  0.705131  0.705131  1
  Ta  Ta6  1  0.878034  0.878034  0.364233  1
  Ta  Ta7  1  0.878034  0.364233  0.878034  1
  Ta  Ta8  1  0.364233  0.878034  0.878034  1
  Ta  Ta9  1  0.878399  0.878399  0.878399  1
  Zn  Zn10  1  0.120782  0.120782  0.637158  1
  Zn  Zn11  1  0.120782  0.637158  0.120782  1
  Zn  Zn12  1  0.637158  0.120782  0.120782  1
  Ga  Ga13  1  0.119395  0.119395  0.119395  1
  Ga  Ga14  1  0.654906  0.654906  0.037027  1
  Ga  Ga15  1  0.654906  0.037027  0.654906  1
  Ga  Ga16  1  0.037027  0.654906  0.654906  1
  Ga  Ga17  1  0.653791  0.653791  0.653791  1
  Ga  Ga18  1  0.337684  0.337684  0.993378  1
  Ga  Ga19  1  0.337684  0.993378  0.337684  1
  Ga  Ga20  1  0.993378  0.337684  0.337684  1
  Ga  Ga21  1  0.335292  0.335292  0.335292  1
  Ir  Ir22  1  0.999420  0.999420  0.999420  1
  Ir  Ir23  1  0.996376  0.996376  0.500277  1
  Ir  Ir24  1  0.505822  0.995285  0.505822  1
  Ir  Ir25  1  0.995285  0.505822  0.505822  1
  Ir  Ir26  1  0.505822  0.505822  0.995285  1
  Ir  Ir27  1  0.996376  0.500277  0.996376  1
  Ir  Ir28  1  0.500277  0.996376  0.996376  1
