# generated using pymatgen
data_Nd5ErTaMoO14
_symmetry_space_group_name_H-M   'P 1'
_cell_length_a   6.67765255
_cell_length_b   6.58539406
_cell_length_c   7.69239903
_cell_angle_alpha   89.78448029
_cell_angle_beta   90.27120360
_cell_angle_gamma   108.75118118
_symmetry_Int_Tables_number   1
_chemical_formula_structural   Nd5ErTaMoO14
_chemical_formula_sum   'Nd5 Er1 Ta1 Mo1 O14'
_cell_volume   320.31421017
_cell_formula_units_Z   1
loop_
 _symmetry_equiv_pos_site_id
 _symmetry_equiv_pos_as_xyz
  1  'x, y, z'
loop_
 _atom_site_type_symbol
 _atom_site_label
 _atom_site_symmetry_multiplicity
 _atom_site_fract_x
 _atom_site_fract_y
 _atom_site_fract_z
 _atom_site_occupancy
  Nd  Nd0  1  0.527176  0.521780  0.498049  1
  Nd  Nd1  1  0.534905  0.526933  0.001008  1
  Nd  Nd2  1  0.006759  0.459383  0.755201  1
  Nd  Nd3  1  0.530943  0.003468  0.747372  1
  Nd  Nd4  1  0.463743  0.003221  0.249672  1
  Er  Er5  1  0.003656  0.535161  0.247485  1
  Ta  Ta6  1  0.000652  0.001367  0.002874  1
  Mo  Mo7  1  0.000638  0.000013  0.497759  1
  O  O8  1  0.940411  0.059564  0.751622  1
  O  O9  1  0.063483  0.929512  0.248628  1
  O  O10  1  0.349763  0.629494  0.249549  1
  O  O11  1  0.645184  0.372871  0.749092  1
  O  O12  1  0.369592  0.628754  0.750039  1
  O  O13  1  0.649574  0.380666  0.251110  1
  O  O14  1  0.307878  0.073372  0.967654  1
  O  O15  1  0.673934  0.912956  0.473593  1
  O  O16  1  0.316198  0.083561  0.525525  1
  O  O17  1  0.677971  0.916186  0.026595  1
  O  O18  1  0.035354  0.296725  0.457867  1
  O  O19  1  0.931360  0.677312  0.978276  1
  O  O20  1  0.937840  0.687134  0.525191  1
  O  O21  1  0.032986  0.300570  0.045839  1
