# generated using pymatgen
data_Ac4YbCdSn3
_symmetry_space_group_name_H-M   'P 1'
_cell_length_a   8.42682200
_cell_length_b   9.13180100
_cell_length_c   16.57992100
_cell_angle_alpha   90.00000000
_cell_angle_beta   90.00000000
_cell_angle_gamma   90.00000000
_symmetry_Int_Tables_number   1
_chemical_formula_structural   Ac4YbCdSn3
_chemical_formula_sum   'Ac16 Yb4 Cd4 Sn12'
_cell_volume   1275.85910156
_cell_formula_units_Z   4
loop_
 _symmetry_equiv_pos_site_id
 _symmetry_equiv_pos_as_xyz
  1  'x, y, z'
loop_
 _atom_site_type_symbol
 _atom_site_label
 _atom_site_symmetry_multiplicity
 _atom_site_fract_x
 _atom_site_fract_y
 _atom_site_fract_z
 _atom_site_occupancy
  Ac  Ac0  1  0.672954  0.169118  0.627913  1
  Ac  Ac1  1  0.172954  0.330882  0.872087  1
  Ac  Ac2  1  0.327046  0.830882  0.127913  1
  Ac  Ac3  1  0.827046  0.669118  0.372087  1
  Ac  Ac4  1  0.327046  0.830882  0.372087  1
  Ac  Ac5  1  0.827046  0.669118  0.127913  1
  Ac  Ac6  1  0.672954  0.169118  0.872087  1
  Ac  Ac7  1  0.172954  0.330882  0.627913  1
  Ac  Ac8  1  0.510035  0.690575  0.590258  1
  Ac  Ac9  1  0.010035  0.809425  0.909742  1
  Ac  Ac10  1  0.489965  0.309425  0.090258  1
  Ac  Ac11  1  0.989965  0.190575  0.409742  1
  Ac  Ac12  1  0.489965  0.309425  0.409742  1
  Ac  Ac13  1  0.989965  0.190575  0.090258  1
  Ac  Ac14  1  0.510035  0.690575  0.909742  1
  Ac  Ac15  1  0.010035  0.809425  0.590258  1
  Yb  Yb16  1  0.836189  0.525142  0.750000  1
  Yb  Yb17  1  0.336189  0.974858  0.750000  1
  Yb  Yb18  1  0.163811  0.474858  0.250000  1
  Yb  Yb19  1  0.663811  0.025142  0.250000  1
  Cd  Cd20  1  0.480299  0.418098  0.750000  1
  Cd  Cd21  1  0.980299  0.081902  0.750000  1
  Cd  Cd22  1  0.519701  0.581902  0.250000  1
  Cd  Cd23  1  0.019701  0.918098  0.250000  1
  Sn  Sn24  1  0.671383  0.968074  0.457260  1
  Sn  Sn25  1  0.171383  0.531926  0.042740  1
  Sn  Sn26  1  0.328617  0.031926  0.957260  1
  Sn  Sn27  1  0.828617  0.468074  0.542740  1
  Sn  Sn28  1  0.328617  0.031926  0.542740  1
  Sn  Sn29  1  0.828617  0.468074  0.957260  1
  Sn  Sn30  1  0.671383  0.968074  0.042740  1
  Sn  Sn31  1  0.171383  0.531926  0.457260  1
  Sn  Sn32  1  0.711616  0.859001  0.750000  1
  Sn  Sn33  1  0.211616  0.640999  0.750000  1
  Sn  Sn34  1  0.288384  0.140999  0.250000  1
  Sn  Sn35  1  0.788384  0.359001  0.250000  1
