# generated using pymatgen
data_DyPa3Te20
_symmetry_space_group_name_H-M   'P 1'
_cell_length_a   4.29781938
_cell_length_b   10.52695700
_cell_length_c   18.39942178
_cell_angle_alpha   90.00000000
_cell_angle_beta   90.82299208
_cell_angle_gamma   90.00000000
_symmetry_Int_Tables_number   1
_chemical_formula_structural   DyPa3Te20
_chemical_formula_sum   'Dy1 Pa3 Te20'
_cell_volume   832.35842564
_cell_formula_units_Z   1
loop_
 _symmetry_equiv_pos_site_id
 _symmetry_equiv_pos_as_xyz
  1  'x, y, z'
loop_
 _atom_site_type_symbol
 _atom_site_label
 _atom_site_symmetry_multiplicity
 _atom_site_fract_x
 _atom_site_fract_y
 _atom_site_fract_z
 _atom_site_occupancy
  Dy  Dy0  1  0.372729  0.250000  0.594044  1
  Pa  Pa1  1  0.624370  0.750000  0.413898  1
  Pa  Pa2  1  0.894529  0.750000  0.914230  1
  Pa  Pa3  1  0.106689  0.250000  0.084792  1
  Te  Te4  1  0.878980  0.435659  0.661533  1
  Te  Te5  1  0.867342  0.250000  0.459910  1
  Te  Te6  1  0.996904  0.500875  0.000791  1
  Te  Te7  1  0.154500  0.750000  0.535577  1
  Te  Te8  1  0.827574  0.750000  0.248064  1
  Te  Te9  1  0.664929  0.750000  0.747780  1
  Te  Te10  1  0.622241  0.250000  0.962249  1
  Te  Te11  1  0.130692  0.250000  0.755713  1
  Te  Te12  1  0.878980  0.064341  0.661533  1
  Te  Te13  1  0.334466  0.250000  0.250984  1
  Te  Te14  1  0.512495  0.009118  0.493430  1
  Te  Te15  1  0.613435  0.431325  0.157234  1
  Te  Te16  1  0.512495  0.490882  0.493430  1
  Te  Te17  1  0.120060  0.567965  0.342437  1
  Te  Te18  1  0.378428  0.750000  0.037451  1
  Te  Te19  1  0.996904  0.999125  0.000791  1
  Te  Te20  1  0.613435  0.068675  0.157234  1
  Te  Te21  1  0.388883  0.568844  0.842230  1
  Te  Te22  1  0.120060  0.932035  0.342437  1
  Te  Te23  1  0.388883  0.931156  0.842230  1
