# generated using pymatgen
data_Sc6TaAl12Os7W3
_symmetry_space_group_name_H-M   'P 1'
_cell_length_a   8.82327512
_cell_length_b   8.82327529
_cell_length_c   8.82327519
_cell_angle_alpha   59.93403455
_cell_angle_beta   59.93403146
_cell_angle_gamma   59.93403454
_symmetry_Int_Tables_number   1
_chemical_formula_structural   Sc6TaAl12Os7W3
_chemical_formula_sum   'Sc6 Ta1 Al12 Os7 W3'
_cell_volume   484.98039235
_cell_formula_units_Z   1
loop_
 _symmetry_equiv_pos_site_id
 _symmetry_equiv_pos_as_xyz
  1  'x, y, z'
loop_
 _atom_site_type_symbol
 _atom_site_label
 _atom_site_symmetry_multiplicity
 _atom_site_fract_x
 _atom_site_fract_y
 _atom_site_fract_z
 _atom_site_occupancy
  Sc  Sc0  1  0.706497  0.706497  0.295904  1
  Sc  Sc1  1  0.291241  0.708005  0.291241  1
  Sc  Sc2  1  0.708005  0.291241  0.291241  1
  Sc  Sc3  1  0.291241  0.291241  0.708005  1
  Sc  Sc4  1  0.706497  0.295904  0.706497  1
  Sc  Sc5  1  0.295904  0.706497  0.706497  1
  Ta  Ta6  1  0.879359  0.879359  0.879359  1
  Al  Al7  1  0.120664  0.120664  0.636822  1
  Al  Al8  1  0.120664  0.636822  0.120664  1
  Al  Al9  1  0.636822  0.120664  0.120664  1
  Al  Al10  1  0.121713  0.121713  0.121713  1
  Al  Al11  1  0.658981  0.658981  0.022339  1
  Al  Al12  1  0.658981  0.022339  0.658981  1
  Al  Al13  1  0.022339  0.658981  0.658981  1
  Al  Al14  1  0.658347  0.658347  0.658347  1
  Al  Al15  1  0.334660  0.334660  0.996618  1
  Al  Al16  1  0.334660  0.996618  0.334660  1
  Al  Al17  1  0.996618  0.334660  0.334660  1
  Al  Al18  1  0.334644  0.334644  0.334644  1
  Os  Os19  1  0.002448  0.002448  0.002448  1
  Os  Os20  1  0.996315  0.996315  0.501616  1
  Os  Os21  1  0.504260  0.996001  0.504260  1
  Os  Os22  1  0.996001  0.504260  0.504260  1
  Os  Os23  1  0.504260  0.504260  0.996001  1
  Os  Os24  1  0.996315  0.501616  0.996315  1
  Os  Os25  1  0.501616  0.996315  0.996315  1
  W  W26  1  0.878788  0.878788  0.363374  1
  W  W27  1  0.878788  0.363374  0.878788  1
  W  W28  1  0.363374  0.878788  0.878788  1
