# generated using pymatgen
data_Lu8Si12Pd3Rh
_symmetry_space_group_name_H-M   'P 1'
_cell_length_a   8.10634600
_cell_length_b   8.10634601
_cell_length_c   7.70756900
_cell_angle_alpha   90.00000000
_cell_angle_beta   90.00000000
_cell_angle_gamma   120.00000813
_symmetry_Int_Tables_number   1
_chemical_formula_structural   Lu8Si12Pd3Rh
_chemical_formula_sum   'Lu8 Si12 Pd3 Rh1'
_cell_volume   438.62995890
_cell_formula_units_Z   1
loop_
 _symmetry_equiv_pos_site_id
 _symmetry_equiv_pos_as_xyz
  1  'x, y, z'
loop_
 _atom_site_type_symbol
 _atom_site_label
 _atom_site_symmetry_multiplicity
 _atom_site_fract_x
 _atom_site_fract_y
 _atom_site_fract_z
 _atom_site_occupancy
  Lu  Lu0  1  0.000000  0.000000  0.250620  1
  Lu  Lu1  1  0.000000  0.000000  0.750783  1
  Lu  Lu2  1  0.509451  0.490549  0.247675  1
  Lu  Lu3  1  0.509451  0.018902  0.247675  1
  Lu  Lu4  1  0.981098  0.490549  0.247675  1
  Lu  Lu5  1  0.487681  0.512319  0.751806  1
  Lu  Lu6  1  0.487681  0.975363  0.751806  1
  Lu  Lu7  1  0.024637  0.512319  0.751806  1
  Si  Si8  1  0.165294  0.834706  0.500040  1
  Si  Si9  1  0.165294  0.330588  0.500040  1
  Si  Si10  1  0.669412  0.834706  0.500040  1
  Si  Si11  1  0.834672  0.165328  0.501052  1
  Si  Si12  1  0.834672  0.669345  0.501052  1
  Si  Si13  1  0.330655  0.165328  0.501052  1
  Si  Si14  1  0.835626  0.164374  0.998942  1
  Si  Si15  1  0.835626  0.671253  0.998942  1
  Si  Si16  1  0.328747  0.164374  0.998942  1
  Si  Si17  1  0.167280  0.832720  0.002235  1
  Si  Si18  1  0.167280  0.334559  0.002235  1
  Si  Si19  1  0.665441  0.832720  0.002235  1
  Pd  Pd20  1  0.333333  0.666667  0.453043  1
  Pd  Pd21  1  0.666667  0.333333  0.539143  1
  Pd  Pd22  1  0.666667  0.333333  0.964883  1
  Rh  Rh23  1  0.333333  0.666667  0.036284  1
