# generated using pymatgen
data_Tm2Sc2B12MoIr
_symmetry_space_group_name_H-M   'P 1'
_cell_length_a   3.54754500
_cell_length_b   9.00051453
_cell_length_c   11.40059497
_cell_angle_alpha   90.16641174
_cell_angle_beta   90.00000000
_cell_angle_gamma   90.00000000
_symmetry_Int_Tables_number   1
_chemical_formula_structural   Tm2Sc2B12MoIr
_chemical_formula_sum   'Tm4 Sc4 B24 Mo2 Ir2'
_cell_volume   364.01638754
_cell_formula_units_Z   2
loop_
 _symmetry_equiv_pos_site_id
 _symmetry_equiv_pos_as_xyz
  1  'x, y, z'
loop_
 _atom_site_type_symbol
 _atom_site_label
 _atom_site_symmetry_multiplicity
 _atom_site_fract_x
 _atom_site_fract_y
 _atom_site_fract_z
 _atom_site_occupancy
  Tm  Tm0  1  0.500000  0.317190  0.412131  1
  Tm  Tm1  1  0.500000  0.682810  0.587869  1
  Tm  Tm2  1  0.500000  0.177470  0.915808  1
  Tm  Tm3  1  0.500000  0.822530  0.084192  1
  Sc  Sc4  1  0.500000  0.443143  0.125352  1
  Sc  Sc5  1  0.500000  0.556857  0.874648  1
  Sc  Sc6  1  0.500000  0.052091  0.626584  1
  Sc  Sc7  1  0.500000  0.947909  0.373416  1
  B  B8  1  0.000000  0.100442  0.474023  1
  B  B9  1  0.000000  0.899558  0.525977  1
  B  B10  1  0.000000  0.400804  0.972120  1
  B  B11  1  0.000000  0.599196  0.027880  1
  B  B12  1  0.000000  0.130268  0.319486  1
  B  B13  1  0.000000  0.869732  0.680514  1
  B  B14  1  0.000000  0.370374  0.817829  1
  B  B15  1  0.000000  0.629626  0.182171  1
  B  B16  1  0.000000  0.052771  0.065720  1
  B  B17  1  0.000000  0.947229  0.934280  1
  B  B18  1  0.000000  0.445291  0.565996  1
  B  B19  1  0.000000  0.554709  0.434004  1
  B  B20  1  0.000000  0.481931  0.286454  1
  B  B21  1  0.000000  0.518069  0.713546  1
  B  B22  1  0.000000  0.021458  0.784806  1
  B  B23  1  0.000000  0.978542  0.215194  1
  B  B24  1  0.000000  0.254496  0.078957  1
  B  B25  1  0.000000  0.745504  0.921043  1
  B  B26  1  0.000000  0.245905  0.579909  1
  B  B27  1  0.000000  0.754095  0.420091  1
  B  B28  1  0.000000  0.298264  0.236093  1
  B  B29  1  0.000000  0.701736  0.763907  1
  B  B30  1  0.000000  0.206328  0.735019  1
  B  B31  1  0.000000  0.793672  0.264981  1
  Mo  Mo32  1  0.500000  0.141229  0.182535  1
  Mo  Mo33  1  0.500000  0.858771  0.817465  1
  Ir  Ir34  1  0.500000  0.360135  0.680045  1
  Ir  Ir35  1  0.500000  0.639865  0.319955  1
