# generated using pymatgen
data_Lu5InSiBi2
_symmetry_space_group_name_H-M   'P 1'
_cell_length_a   8.55978818
_cell_length_b   8.55978879
_cell_length_c   7.93451800
_cell_angle_alpha   90.29851571
_cell_angle_beta   90.29851573
_cell_angle_gamma   124.65510372
_symmetry_Int_Tables_number   1
_chemical_formula_structural   Lu5InSiBi2
_chemical_formula_sum   'Lu10 In2 Si2 Bi4'
_cell_volume   478.19236928
_cell_formula_units_Z   2
loop_
 _symmetry_equiv_pos_site_id
 _symmetry_equiv_pos_as_xyz
  1  'x, y, z'
loop_
 _atom_site_type_symbol
 _atom_site_label
 _atom_site_symmetry_multiplicity
 _atom_site_fract_x
 _atom_site_fract_y
 _atom_site_fract_z
 _atom_site_occupancy
  Lu  Lu0  1  0.033208  0.274718  0.343325  1
  Lu  Lu1  1  0.966792  0.725282  0.656675  1
  Lu  Lu2  1  0.451381  0.194802  0.825427  1
  Lu  Lu3  1  0.805198  0.548619  0.174573  1
  Lu  Lu4  1  0.548619  0.805198  0.174573  1
  Lu  Lu5  1  0.194802  0.451381  0.825427  1
  Lu  Lu6  1  0.725282  0.966792  0.656675  1
  Lu  Lu7  1  0.274718  0.033208  0.343325  1
  Lu  Lu8  1  0.000000  0.000000  0.000000  1
  Lu  Lu9  1  0.500000  0.500000  0.500000  1
  In  In10  1  0.368463  0.368463  0.132400  1
  In  In11  1  0.631537  0.631537  0.867600  1
  Si  Si12  1  0.139971  0.139971  0.637912  1
  Si  Si13  1  0.860029  0.860029  0.362088  1
  Bi  Bi14  1  0.792729  0.207271  0.000000  1
  Bi  Bi15  1  0.207271  0.792729  0.000000  1
  Bi  Bi16  1  0.707898  0.292102  0.500000  1
  Bi  Bi17  1  0.292102  0.707898  0.500000  1
