# generated using pymatgen
data_TbDy15In2(AgRh2)2
_symmetry_space_group_name_H-M   'P 1'
_cell_length_a   9.59399915
_cell_length_b   9.60392821
_cell_length_c   9.61826020
_cell_angle_alpha   59.92774299
_cell_angle_beta   59.91334495
_cell_angle_gamma   59.96791370
_symmetry_Int_Tables_number   1
_chemical_formula_structural   TbDy15In2(AgRh2)2
_chemical_formula_sum   'Tb1 Dy15 In2 Ag2 Rh4'
_cell_volume   625.75207379
_cell_formula_units_Z   1
loop_
 _symmetry_equiv_pos_site_id
 _symmetry_equiv_pos_as_xyz
  1  'x, y, z'
loop_
 _atom_site_type_symbol
 _atom_site_label
 _atom_site_symmetry_multiplicity
 _atom_site_fract_x
 _atom_site_fract_y
 _atom_site_fract_z
 _atom_site_occupancy
  Tb  Tb0  1  0.067007  0.436632  0.435478  1
  Dy  Dy1  1  0.808584  0.808579  0.191919  1
  Dy  Dy2  1  0.810806  0.190137  0.810042  1
  Dy  Dy3  1  0.188059  0.188247  0.813346  1
  Dy  Dy4  1  0.649238  0.051720  0.647906  1
  Dy  Dy5  1  0.064166  0.063715  0.436493  1
  Dy  Dy6  1  0.438875  0.438521  0.061349  1
  Dy  Dy7  1  0.649865  0.649948  0.650102  1
  Dy  Dy8  1  0.811062  0.188904  0.190353  1
  Dy  Dy9  1  0.190428  0.810972  0.809662  1
  Dy  Dy10  1  0.051467  0.649332  0.647879  1
  Dy  Dy11  1  0.437284  0.067315  0.059471  1
  Dy  Dy12  1  0.436960  0.066622  0.435587  1
  Dy  Dy13  1  0.067284  0.437424  0.059276  1
  Dy  Dy14  1  0.649307  0.649517  0.051841  1
  Dy  Dy15  1  0.188886  0.811508  0.190099  1
  In  In16  1  0.416748  0.742036  0.421078  1
  In  In17  1  0.741872  0.416837  0.421098  1
  Ag  Ag18  1  0.417026  0.416525  0.417828  1
  Ag  Ag19  1  0.416371  0.416357  0.749611  1
  Rh  Rh20  1  0.857106  0.427631  0.857292  1
  Rh  Rh21  1  0.857038  0.857115  0.858188  1
  Rh  Rh22  1  0.856782  0.857234  0.427138  1
  Rh  Rh23  1  0.427775  0.857171  0.856966  1
