# generated using pymatgen
data_Pr2Hf2O7
_symmetry_space_group_name_H-M   'P 1'
_cell_length_a   7.61650300
_cell_length_b   7.61650356
_cell_length_c   7.61650300
_cell_angle_alpha   120.00000193
_cell_angle_beta   90.00000000
_cell_angle_gamma   120.00000193
_symmetry_Int_Tables_number   1
_chemical_formula_structural   Pr2Hf2O7
_chemical_formula_sum   'Pr4 Hf4 O14'
_cell_volume   312.42937573
_cell_formula_units_Z   2
loop_
 _symmetry_equiv_pos_site_id
 _symmetry_equiv_pos_as_xyz
  1  'x, y, z'
loop_
 _atom_site_type_symbol
 _atom_site_label
 _atom_site_symmetry_multiplicity
 _atom_site_fract_x
 _atom_site_fract_y
 _atom_site_fract_z
 _atom_site_occupancy
  Pr  Pr0  1  0.000000  0.499999  0.000000  1
  Pr  Pr1  1  0.000000  0.000000  0.499999  1
  Pr  Pr2  1  0.000000  0.499999  0.499999  1
  Pr  Pr3  1  0.500000  0.000000  0.500000  1
  Hf  Hf4  1  0.000000  0.000000  0.000000  1
  Hf  Hf5  1  0.499999  0.000000  0.000000  1
  Hf  Hf6  1  0.499999  0.499999  0.000000  1
  Hf  Hf7  1  0.499999  0.499999  0.499999  1
  O  O8  1  0.831128  0.162256  0.081127  1
  O  O9  1  0.418874  0.750001  0.081127  1
  O  O10  1  0.831128  0.750001  0.081127  1
  O  O11  1  0.168872  0.250000  0.331127  1
  O  O12  1  0.581127  0.250000  0.331127  1
  O  O13  1  0.581127  0.662255  0.331127  1
  O  O14  1  0.125001  0.750001  0.375000  1
  O  O15  1  0.875000  0.250000  0.625000  1
  O  O16  1  0.418874  0.750001  0.668874  1
  O  O17  1  0.831128  0.750001  0.668874  1
  O  O18  1  0.418874  0.337746  0.668874  1
  O  O19  1  0.168872  0.250000  0.918873  1
  O  O20  1  0.581127  0.250000  0.918873  1
  O  O21  1  0.168872  0.837745  0.918873  1
