# generated using pymatgen
data_YGa4(Fe3Ge)2
_symmetry_space_group_name_H-M   'P 1'
_cell_length_a   5.02646485
_cell_length_b   6.55225432
_cell_length_c   6.55225390
_cell_angle_alpha   80.21277522
_cell_angle_beta   67.44514907
_cell_angle_gamma   67.44515077
_symmetry_Int_Tables_number   1
_chemical_formula_structural   YGa4(Fe3Ge)2
_chemical_formula_sum   'Y1 Ga4 Fe6 Ge2'
_cell_volume   183.98134038
_cell_formula_units_Z   1
loop_
 _symmetry_equiv_pos_site_id
 _symmetry_equiv_pos_as_xyz
  1  'x, y, z'
loop_
 _atom_site_type_symbol
 _atom_site_label
 _atom_site_symmetry_multiplicity
 _atom_site_fract_x
 _atom_site_fract_y
 _atom_site_fract_z
 _atom_site_occupancy
  Y  Y0  1  0.000000  0.000000  0.000000  1
  Ga  Ga1  1  0.341691  0.658309  0.658309  1
  Ga  Ga2  1  0.658309  0.341691  0.341691  1
  Ga  Ga3  1  0.322452  0.177548  0.177548  1
  Ga  Ga4  1  0.677548  0.822452  0.822452  1
  Fe  Fe5  1  0.500000  0.246889  0.753111  1
  Fe  Fe6  1  0.500000  0.753111  0.246889  1
  Fe  Fe7  1  0.000000  0.500000  0.000000  1
  Fe  Fe8  1  0.500000  0.500000  0.000000  1
  Fe  Fe9  1  0.000000  0.000000  0.500000  1
  Fe  Fe10  1  0.500000  0.000000  0.500000  1
  Ge  Ge11  1  0.000000  0.655585  0.344415  1
  Ge  Ge12  1  0.000000  0.344415  0.655585  1
