# generated using pymatgen
data_Dy2PaV(Co4P3)2
_symmetry_space_group_name_H-M   'P 1'
_cell_length_a   3.71043900
_cell_length_b   10.56651500
_cell_length_c   12.15968000
_cell_angle_alpha   90.00000000
_cell_angle_beta   90.00000000
_cell_angle_gamma   90.00000000
_symmetry_Int_Tables_number   1
_chemical_formula_structural   Dy2PaV(Co4P3)2
_chemical_formula_sum   'Dy4 Pa2 V2 Co16 P12'
_cell_volume   476.73739165
_cell_formula_units_Z   2
loop_
 _symmetry_equiv_pos_site_id
 _symmetry_equiv_pos_as_xyz
  1  'x, y, z'
loop_
 _atom_site_type_symbol
 _atom_site_label
 _atom_site_symmetry_multiplicity
 _atom_site_fract_x
 _atom_site_fract_y
 _atom_site_fract_z
 _atom_site_occupancy
  Dy  Dy0  1  0.500000  0.816786  0.203694  1
  Dy  Dy1  1  0.500000  0.183214  0.203694  1
  Dy  Dy2  1  0.000000  0.683214  0.796306  1
  Dy  Dy3  1  0.000000  0.316786  0.796306  1
  Pa  Pa4  1  0.000000  0.500000  0.529303  1
  Pa  Pa5  1  0.500000  0.000000  0.470697  1
  V  V6  1  0.500000  0.500000  0.153308  1
  V  V7  1  0.000000  0.000000  0.846692  1
  Co  Co8  1  0.500000  0.500000  0.695464  1
  Co  Co9  1  0.000000  0.000000  0.304536  1
  Co  Co10  1  0.000000  0.500000  0.986136  1
  Co  Co11  1  0.500000  0.000000  0.013864  1
  Co  Co12  1  0.500000  0.333299  0.992196  1
  Co  Co13  1  0.500000  0.666701  0.992196  1
  Co  Co14  1  0.000000  0.166701  0.007804  1
  Co  Co15  1  0.000000  0.833299  0.007804  1
  Co  Co16  1  0.500000  0.299450  0.433392  1
  Co  Co17  1  0.500000  0.700550  0.433392  1
  Co  Co18  1  0.000000  0.200550  0.566608  1
  Co  Co19  1  0.000000  0.799450  0.566608  1
  Co  Co20  1  0.500000  0.880203  0.708234  1
  Co  Co21  1  0.500000  0.119797  0.708234  1
  Co  Co22  1  0.000000  0.619797  0.291766  1
  Co  Co23  1  0.000000  0.380203  0.291766  1
  P  P24  1  0.500000  0.500000  0.878754  1
  P  P25  1  0.000000  0.000000  0.121246  1
  P  P26  1  0.500000  0.500000  0.345015  1
  P  P27  1  0.000000  0.000000  0.654985  1
  P  P28  1  0.500000  0.307442  0.617584  1
  P  P29  1  0.500000  0.692558  0.617584  1
  P  P30  1  0.000000  0.192558  0.382416  1
  P  P31  1  0.000000  0.807442  0.382416  1
  P  P32  1  0.500000  0.846322  0.892966  1
  P  P33  1  0.500000  0.153678  0.892966  1
  P  P34  1  0.000000  0.653678  0.107034  1
  P  P35  1  0.000000  0.346322  0.107034  1
