# generated using pymatgen
data_Sc5MnB4(RuRh4)2
_symmetry_space_group_name_H-M   'P 1'
_cell_length_a   9.48690700
_cell_length_b   9.48690700
_cell_length_c   3.05987100
_cell_angle_alpha   90.00000000
_cell_angle_beta   90.00000000
_cell_angle_gamma   90.00000000
_symmetry_Int_Tables_number   1
_chemical_formula_structural   Sc5MnB4(RuRh4)2
_chemical_formula_sum   'Sc5 Mn1 B4 Ru2 Rh8'
_cell_volume   275.39268736
_cell_formula_units_Z   1
loop_
 _symmetry_equiv_pos_site_id
 _symmetry_equiv_pos_as_xyz
  1  'x, y, z'
loop_
 _atom_site_type_symbol
 _atom_site_label
 _atom_site_symmetry_multiplicity
 _atom_site_fract_x
 _atom_site_fract_y
 _atom_site_fract_z
 _atom_site_occupancy
  Sc  Sc0  1  0.827943  0.324137  0.000000  1
  Sc  Sc1  1  0.324137  0.172057  0.000000  1
  Sc  Sc2  1  0.675863  0.827943  0.000000  1
  Sc  Sc3  1  0.172057  0.675863  0.000000  1
  Sc  Sc4  1  0.500000  0.500000  0.000000  1
  Mn  Mn5  1  0.000000  0.000000  0.000000  1
  B  B6  1  0.624380  0.118554  0.000000  1
  B  B7  1  0.118554  0.375620  0.000000  1
  B  B8  1  0.881446  0.624380  0.000000  1
  B  B9  1  0.375620  0.881446  0.000000  1
  Ru  Ru10  1  0.500000  0.000000  0.500000  1
  Ru  Ru11  1  0.000000  0.500000  0.500000  1
  Rh  Rh12  1  0.070267  0.216148  0.500000  1
  Rh  Rh13  1  0.216148  0.929733  0.500000  1
  Rh  Rh14  1  0.783852  0.070267  0.500000  1
  Rh  Rh15  1  0.929733  0.783852  0.500000  1
  Rh  Rh16  1  0.424488  0.721824  0.500000  1
  Rh  Rh17  1  0.575512  0.278176  0.500000  1
  Rh  Rh18  1  0.721824  0.575512  0.500000  1
  Rh  Rh19  1  0.278176  0.424488  0.500000  1
