# generated using pymatgen
data_Nd4Tm2CoBr10
_symmetry_space_group_name_H-M   'P 1'
_cell_length_a   7.54650855
_cell_length_b   9.25398904
_cell_length_c   9.36297928
_cell_angle_alpha   107.13182688
_cell_angle_beta   96.93945111
_cell_angle_gamma   106.48916741
_symmetry_Int_Tables_number   1
_chemical_formula_structural   Nd4Tm2CoBr10
_chemical_formula_sum   'Nd4 Tm2 Co1 Br10'
_cell_volume   584.05511345
_cell_formula_units_Z   1
loop_
 _symmetry_equiv_pos_site_id
 _symmetry_equiv_pos_as_xyz
  1  'x, y, z'
loop_
 _atom_site_type_symbol
 _atom_site_label
 _atom_site_symmetry_multiplicity
 _atom_site_fract_x
 _atom_site_fract_y
 _atom_site_fract_z
 _atom_site_occupancy
  Nd  Nd0  1  0.876596  0.950532  0.735352  1
  Nd  Nd1  1  0.123404  0.049468  0.264648  1
  Nd  Nd2  1  0.362105  0.138216  0.680718  1
  Nd  Nd3  1  0.637895  0.861784  0.319282  1
  Tm  Tm4  1  0.026756  0.707085  0.409580  1
  Tm  Tm5  1  0.973244  0.292915  0.590420  1
  Co  Co6  1  0.000000  0.000000  0.500000  1
  Br  Br7  1  0.444648  0.815577  0.582995  1
  Br  Br8  1  0.555352  0.184423  0.417005  1
  Br  Br9  1  0.919782  0.620618  0.662819  1
  Br  Br10  1  0.080218  0.379382  0.337181  1
  Br  Br11  1  0.252387  0.083586  0.958702  1
  Br  Br12  1  0.747613  0.916414  0.041298  1
  Br  Br13  1  0.338315  0.459799  0.769878  1
  Br  Br14  1  0.661685  0.540201  0.230122  1
  Br  Br15  1  0.802493  0.265865  0.840950  1
  Br  Br16  1  0.197507  0.734135  0.159050  1
