# generated using pymatgen
data_Tb6ScCo17(SiP)6
_symmetry_space_group_name_H-M   'P 1'
_cell_length_a   3.75234900
_cell_length_b   10.70900400
_cell_length_c   12.37948000
_cell_angle_alpha   90.00000000
_cell_angle_beta   90.00000000
_cell_angle_gamma   90.00000000
_symmetry_Int_Tables_number   1
_chemical_formula_structural   Tb6ScCo17(SiP)6
_chemical_formula_sum   'Tb6 Sc1 Co17 Si6 P6'
_cell_volume   497.45603954
_cell_formula_units_Z   1
loop_
 _symmetry_equiv_pos_site_id
 _symmetry_equiv_pos_as_xyz
  1  'x, y, z'
loop_
 _atom_site_type_symbol
 _atom_site_label
 _atom_site_symmetry_multiplicity
 _atom_site_fract_x
 _atom_site_fract_y
 _atom_site_fract_z
 _atom_site_occupancy
  Tb  Tb0  1  0.000000  0.500000  0.526235  1
  Tb  Tb1  1  0.500000  0.000000  0.473373  1
  Tb  Tb2  1  0.500000  0.820098  0.207698  1
  Tb  Tb3  1  0.500000  0.179902  0.207698  1
  Tb  Tb4  1  0.000000  0.680121  0.796477  1
  Tb  Tb5  1  0.000000  0.319879  0.796477  1
  Sc  Sc6  1  0.500000  0.500000  0.152039  1
  Co  Co7  1  0.000000  0.000000  0.845301  1
  Co  Co8  1  0.500000  0.500000  0.706168  1
  Co  Co9  1  0.000000  0.000000  0.302992  1
  Co  Co10  1  0.000000  0.500000  0.985363  1
  Co  Co11  1  0.500000  0.000000  0.015220  1
  Co  Co12  1  0.500000  0.328609  0.992386  1
  Co  Co13  1  0.500000  0.671391  0.992386  1
  Co  Co14  1  0.000000  0.165907  0.002776  1
  Co  Co15  1  0.000000  0.834093  0.002776  1
  Co  Co16  1  0.500000  0.295424  0.429702  1
  Co  Co17  1  0.500000  0.704576  0.429702  1
  Co  Co18  1  0.000000  0.199558  0.566993  1
  Co  Co19  1  0.000000  0.800442  0.566993  1
  Co  Co20  1  0.500000  0.882675  0.704986  1
  Co  Co21  1  0.500000  0.117325  0.704986  1
  Co  Co22  1  0.000000  0.621328  0.296539  1
  Co  Co23  1  0.000000  0.378672  0.296539  1
  Si  Si24  1  0.000000  0.000000  0.116005  1
  Si  Si25  1  0.000000  0.000000  0.658163  1
  Si  Si26  1  0.500000  0.306785  0.615806  1
  Si  Si27  1  0.500000  0.693215  0.615806  1
  Si  Si28  1  0.500000  0.855250  0.889129  1
  Si  Si29  1  0.500000  0.144750  0.889129  1
  P  P30  1  0.500000  0.500000  0.886136  1
  P  P31  1  0.500000  0.500000  0.355591  1
  P  P32  1  0.000000  0.192783  0.386290  1
  P  P33  1  0.000000  0.807217  0.386290  1
  P  P34  1  0.000000  0.662432  0.099928  1
  P  P35  1  0.000000  0.337568  0.099928  1
