# generated using pymatgen
data_TbDySc2(B6Ir)2
_symmetry_space_group_name_H-M   'P 1'
_cell_length_a   3.55196900
_cell_length_b   9.01871600
_cell_length_c   11.39152001
_cell_angle_alpha   90.00346961
_cell_angle_beta   90.00000000
_cell_angle_gamma   90.00000000
_symmetry_Int_Tables_number   1
_chemical_formula_structural   TbDySc2(B6Ir)2
_chemical_formula_sum   'Tb2 Dy2 Sc4 B24 Ir4'
_cell_volume   364.91822568
_cell_formula_units_Z   2
loop_
 _symmetry_equiv_pos_site_id
 _symmetry_equiv_pos_as_xyz
  1  'x, y, z'
loop_
 _atom_site_type_symbol
 _atom_site_label
 _atom_site_symmetry_multiplicity
 _atom_site_fract_x
 _atom_site_fract_y
 _atom_site_fract_z
 _atom_site_occupancy
  Tb  Tb0  1  0.500000  0.320045  0.414086  1
  Tb  Tb1  1  0.500000  0.679955  0.585914  1
  Dy  Dy2  1  0.500000  0.180059  0.914102  1
  Dy  Dy3  1  0.500000  0.819941  0.085898  1
  Sc  Sc4  1  0.500000  0.445132  0.124254  1
  Sc  Sc5  1  0.500000  0.554868  0.875746  1
  Sc  Sc6  1  0.500000  0.054875  0.624348  1
  Sc  Sc7  1  0.500000  0.945125  0.375652  1
  B  B8  1  0.000000  0.099949  0.472999  1
  B  B9  1  0.000000  0.900051  0.527001  1
  B  B10  1  0.000000  0.399751  0.972915  1
  B  B11  1  0.000000  0.600249  0.027085  1
  B  B12  1  0.000000  0.129701  0.318317  1
  B  B13  1  0.000000  0.870299  0.681683  1
  B  B14  1  0.000000  0.370075  0.818500  1
  B  B15  1  0.000000  0.629925  0.181500  1
  B  B16  1  0.000000  0.054761  0.065800  1
  B  B17  1  0.000000  0.945239  0.934200  1
  B  B18  1  0.000000  0.445153  0.566031  1
  B  B19  1  0.000000  0.554847  0.433969  1
  B  B20  1  0.000000  0.482009  0.284853  1
  B  B21  1  0.000000  0.517991  0.715147  1
  B  B22  1  0.000000  0.018189  0.785026  1
  B  B23  1  0.000000  0.981811  0.214974  1
  B  B24  1  0.000000  0.254030  0.080314  1
  B  B25  1  0.000000  0.745970  0.919686  1
  B  B26  1  0.000000  0.245861  0.580567  1
  B  B27  1  0.000000  0.754139  0.419433  1
  B  B28  1  0.000000  0.295602  0.235161  1
  B  B29  1  0.000000  0.704398  0.764839  1
  B  B30  1  0.000000  0.204288  0.735456  1
  B  B31  1  0.000000  0.795712  0.264544  1
  Ir  Ir32  1  0.500000  0.141333  0.181387  1
  Ir  Ir33  1  0.500000  0.858667  0.818613  1
  Ir  Ir34  1  0.500000  0.358311  0.681791  1
  Ir  Ir35  1  0.500000  0.641689  0.318209  1
