# generated using pymatgen
data_TbLu3(InGa2)2
_symmetry_space_group_name_H-M   'P 1'
_cell_length_a   7.14748616
_cell_length_b   7.14748616
_cell_length_c   4.38723100
_cell_angle_alpha   90.00000000
_cell_angle_beta   90.00000000
_cell_angle_gamma   89.22809687
_symmetry_Int_Tables_number   1
_chemical_formula_structural   TbLu3(InGa2)2
_chemical_formula_sum   'Tb1 Lu3 In2 Ga4'
_cell_volume   224.10819316
_cell_formula_units_Z   1
loop_
 _symmetry_equiv_pos_site_id
 _symmetry_equiv_pos_as_xyz
  1  'x, y, z'
loop_
 _atom_site_type_symbol
 _atom_site_label
 _atom_site_symmetry_multiplicity
 _atom_site_fract_x
 _atom_site_fract_y
 _atom_site_fract_z
 _atom_site_occupancy
  Tb  Tb0  1  0.671606  0.171606  0.500000  1
  Lu  Lu1  1  0.327233  0.827233  0.500000  1
  Lu  Lu2  1  0.171566  0.330049  0.500000  1
  Lu  Lu3  1  0.830049  0.671566  0.500000  1
  In  In4  1  0.499560  0.500075  0.000000  1
  In  In5  1  0.000075  0.999560  0.000000  1
  Ga  Ga6  1  0.127632  0.627632  0.000000  1
  Ga  Ga7  1  0.875481  0.375481  0.000000  1
  Ga  Ga8  1  0.626293  0.870506  0.000000  1
  Ga  Ga9  1  0.370506  0.126293  0.000000  1
