# generated using pymatgen
data_Zn22Ni2Ir
_symmetry_space_group_name_H-M   'P 1'
_cell_length_a   7.70390330
_cell_length_b   7.70390321
_cell_length_c   7.72056671
_cell_angle_alpha   71.72496835
_cell_angle_beta   71.72496740
_cell_angle_gamma   58.11547735
_symmetry_Int_Tables_number   1
_chemical_formula_structural   Zn22Ni2Ir
_chemical_formula_sum   'Zn22 Ni2 Ir1'
_cell_volume   363.18149111
_cell_formula_units_Z   1
loop_
 _symmetry_equiv_pos_site_id
 _symmetry_equiv_pos_as_xyz
  1  'x, y, z'
loop_
 _atom_site_type_symbol
 _atom_site_label
 _atom_site_symmetry_multiplicity
 _atom_site_fract_x
 _atom_site_fract_y
 _atom_site_fract_z
 _atom_site_occupancy
  Zn  Zn0  1  0.350274  0.735919  0.308743  1
  Zn  Zn1  1  0.649726  0.264081  0.691257  1
  Zn  Zn2  1  0.264081  0.649726  0.691257  1
  Zn  Zn3  1  0.735919  0.350274  0.308743  1
  Zn  Zn4  1  0.677527  0.322473  0.000000  1
  Zn  Zn5  1  0.322473  0.677527  0.000000  1
  Zn  Zn6  1  0.827330  0.827330  0.789385  1
  Zn  Zn7  1  0.172670  0.172670  0.210615  1
  Zn  Zn8  1  0.976365  0.976365  0.171973  1
  Zn  Zn9  1  0.023635  0.023635  0.828027  1
  Zn  Zn10  1  0.353377  0.353377  0.271875  1
  Zn  Zn11  1  0.646623  0.646623  0.728125  1
  Zn  Zn12  1  0.687185  0.687185  0.375102  1
  Zn  Zn13  1  0.312815  0.312815  0.624898  1
  Zn  Zn14  1  0.657348  0.025200  0.460442  1
  Zn  Zn15  1  0.342652  0.974800  0.539558  1
  Zn  Zn16  1  0.974800  0.342652  0.539558  1
  Zn  Zn17  1  0.025200  0.657348  0.460442  1
  Zn  Zn18  1  0.615331  0.000425  0.100409  1
  Zn  Zn19  1  0.384669  0.999575  0.899591  1
  Zn  Zn20  1  0.999575  0.384669  0.899591  1
  Zn  Zn21  1  0.000425  0.615331  0.100409  1
  Ni  Ni22  1  0.658006  0.658006  0.054440  1
  Ni  Ni23  1  0.341994  0.341994  0.945560  1
  Ir  Ir24  1  0.000000  0.000000  0.500000  1
