# generated using pymatgen
data_Dy24Tc7Pt
_symmetry_space_group_name_H-M   'P 1'
_cell_length_a   6.26513269
_cell_length_b   9.21281700
_cell_length_c   14.84681900
_cell_angle_alpha   90.00000000
_cell_angle_beta   90.37429668
_cell_angle_gamma   90.00000000
_symmetry_Int_Tables_number   1
_chemical_formula_structural   Dy24Tc7Pt
_chemical_formula_sum   'Dy24 Tc7 Pt1'
_cell_volume   856.93299411
_cell_formula_units_Z   1
loop_
 _symmetry_equiv_pos_site_id
 _symmetry_equiv_pos_as_xyz
  1  'x, y, z'
loop_
 _atom_site_type_symbol
 _atom_site_label
 _atom_site_symmetry_multiplicity
 _atom_site_fract_x
 _atom_site_fract_y
 _atom_site_fract_z
 _atom_site_occupancy
  Dy  Dy0  1  0.537060  0.750000  0.355252  1
  Dy  Dy1  1  0.035831  0.250000  0.145776  1
  Dy  Dy2  1  0.464454  0.250000  0.645127  1
  Dy  Dy3  1  0.959569  0.750000  0.856059  1
  Dy  Dy4  1  0.775072  0.750000  0.106030  1
  Dy  Dy5  1  0.276051  0.250000  0.392805  1
  Dy  Dy6  1  0.225544  0.250000  0.892609  1
  Dy  Dy7  1  0.723437  0.750000  0.606134  1
  Dy  Dy8  1  0.438495  0.936986  0.789500  1
  Dy  Dy9  1  0.929377  0.069641  0.711125  1
  Dy  Dy10  1  0.565427  0.434670  0.211871  1
  Dy  Dy11  1  0.066273  0.565945  0.287427  1
  Dy  Dy12  1  0.565427  0.065330  0.211871  1
  Dy  Dy13  1  0.066273  0.934055  0.287427  1
  Dy  Dy14  1  0.438495  0.563014  0.789500  1
  Dy  Dy15  1  0.929377  0.430359  0.711125  1
  Dy  Dy16  1  0.239134  0.938768  0.533132  1
  Dy  Dy17  1  0.739835  0.066060  0.965604  1
  Dy  Dy18  1  0.757056  0.434426  0.463090  1
  Dy  Dy19  1  0.258744  0.565036  0.036915  1
  Dy  Dy20  1  0.757056  0.065574  0.463090  1
  Dy  Dy21  1  0.258744  0.934964  0.036915  1
  Dy  Dy22  1  0.239134  0.561232  0.533132  1
  Dy  Dy23  1  0.739835  0.433940  0.965604  1
  Tc  Tc24  1  0.933383  0.750000  0.441910  1
  Tc  Tc25  1  0.430512  0.250000  0.061633  1
  Tc  Tc26  1  0.068851  0.250000  0.562741  1
  Tc  Tc27  1  0.565527  0.750000  0.937411  1
  Tc  Tc28  1  0.361518  0.750000  0.184642  1
  Tc  Tc29  1  0.864008  0.250000  0.316205  1
  Tc  Tc30  1  0.642047  0.250000  0.815161  1
  Pt  Pt31  1  0.148456  0.750000  0.683169  1
