# generated using pymatgen
data_Th3Al2Ni3Au
_symmetry_space_group_name_H-M   'P 1'
_cell_length_a   6.99978559
_cell_length_b   7.18914321
_cell_length_c   4.11990000
_cell_angle_alpha   90.00000000
_cell_angle_beta   90.00000000
_cell_angle_gamma   120.89897234
_symmetry_Int_Tables_number   1
_chemical_formula_structural   Th3Al2Ni3Au
_chemical_formula_sum   'Th3 Al2 Ni3 Au1'
_cell_volume   177.89893521
_cell_formula_units_Z   1
loop_
 _symmetry_equiv_pos_site_id
 _symmetry_equiv_pos_as_xyz
  1  'x, y, z'
loop_
 _atom_site_type_symbol
 _atom_site_label
 _atom_site_symmetry_multiplicity
 _atom_site_fract_x
 _atom_site_fract_y
 _atom_site_fract_z
 _atom_site_occupancy
  Th  Th0  1  0.000000  0.420002  0.500000  1
  Th  Th1  1  0.587184  0.582525  0.500000  1
  Th  Th2  1  0.412816  0.995341  0.500000  1
  Al  Al3  1  0.230821  0.227280  0.000000  1
  Al  Al4  1  0.769179  0.996459  0.000000  1
  Ni  Ni5  1  0.352986  0.663969  0.000000  1
  Ni  Ni6  1  0.647014  0.310982  0.000000  1
  Ni  Ni7  1  0.000000  0.039656  0.500000  1
  Au  Au8  1  0.000000  0.763786  0.000000  1
