# generated using pymatgen
data_Y3ErScIr3O14
_symmetry_space_group_name_H-M   'P 1'
_cell_length_a   7.24820230
_cell_length_b   7.24820140
_cell_length_c   7.31471114
_cell_angle_alpha   60.30032282
_cell_angle_beta   60.30032826
_cell_angle_gamma   60.00000437
_symmetry_Int_Tables_number   1
_chemical_formula_structural   Y3ErScIr3O14
_chemical_formula_sum   'Y3 Er1 Sc1 Ir3 O14'
_cell_volume   272.96021784
_cell_formula_units_Z   1
loop_
 _symmetry_equiv_pos_site_id
 _symmetry_equiv_pos_as_xyz
  1  'x, y, z'
loop_
 _atom_site_type_symbol
 _atom_site_label
 _atom_site_symmetry_multiplicity
 _atom_site_fract_x
 _atom_site_fract_y
 _atom_site_fract_z
 _atom_site_occupancy
  Y  Y0  1  0.625000  0.125000  0.125000  1
  Y  Y1  1  0.125000  0.625000  0.125000  1
  Y  Y2  1  0.125000  0.125000  0.125000  1
  Er  Er3  1  0.125000  0.125000  0.625000  1
  Sc  Sc4  1  0.625000  0.625000  0.125000  1
  Ir  Ir5  1  0.125000  0.625000  0.625000  1
  Ir  Ir6  1  0.625000  0.125000  0.625000  1
  Ir  Ir7  1  0.625000  0.625000  0.625000  1
  O  O8  1  0.720371  0.720371  0.289334  1
  O  O9  1  0.295765  0.295765  0.686735  1
  O  O10  1  0.721736  0.295765  0.686735  1
  O  O11  1  0.269924  0.720371  0.289334  1
  O  O12  1  0.295765  0.721736  0.686735  1
  O  O13  1  0.720371  0.269924  0.289334  1
  O  O14  1  0.529629  0.529629  0.960666  1
  O  O15  1  0.954235  0.954235  0.563265  1
  O  O16  1  0.528264  0.954235  0.563265  1
  O  O17  1  0.980076  0.529629  0.960666  1
  O  O18  1  0.954235  0.528264  0.563265  1
  O  O19  1  0.529629  0.980076  0.960666  1
  O  O20  1  0.246099  0.246099  0.261703  1
  O  O21  1  0.003901  0.003901  0.988297  1
