# generated using pymatgen
data_Yb12SmY7Sn16
_symmetry_space_group_name_H-M   'P 1'
_cell_length_a   7.88280900
_cell_length_b   8.42391688
_cell_length_c   16.07446983
_cell_angle_alpha   89.92663963
_cell_angle_beta   89.94469108
_cell_angle_gamma   90.01189690
_symmetry_Int_Tables_number   1
_chemical_formula_structural   Yb12SmY7Sn16
_chemical_formula_sum   'Yb12 Sm1 Y7 Sn16'
_cell_volume   1067.40975371
_cell_formula_units_Z   1
loop_
 _symmetry_equiv_pos_site_id
 _symmetry_equiv_pos_as_xyz
  1  'x, y, z'
loop_
 _atom_site_type_symbol
 _atom_site_label
 _atom_site_symmetry_multiplicity
 _atom_site_fract_x
 _atom_site_fract_y
 _atom_site_fract_z
 _atom_site_occupancy
  Yb  Yb0  1  0.503893  0.686410  0.594147  1
  Yb  Yb1  1  0.003838  0.813391  0.906518  1
  Yb  Yb2  1  0.495455  0.313365  0.093354  1
  Yb  Yb3  1  0.996191  0.186738  0.406140  1
  Yb  Yb4  1  0.496454  0.313924  0.406541  1
  Yb  Yb5  1  0.995570  0.186429  0.093343  1
  Yb  Yb6  1  0.504422  0.686672  0.906453  1
  Yb  Yb7  1  0.004025  0.813864  0.593783  1
  Yb  Yb8  1  0.836410  0.509732  0.749610  1
  Yb  Yb9  1  0.335517  0.990634  0.750248  1
  Yb  Yb10  1  0.164524  0.489814  0.249595  1
  Yb  Yb11  1  0.665078  0.010095  0.250232  1
  Sm  Sm12  1  0.171221  0.332059  0.622088  1
  Y  Y13  1  0.671742  0.166897  0.622757  1
  Y  Y14  1  0.171355  0.332462  0.878011  1
  Y  Y15  1  0.328545  0.832632  0.121976  1
  Y  Y16  1  0.828473  0.667176  0.377163  1
  Y  Y17  1  0.329215  0.833107  0.377290  1
  Y  Y18  1  0.828200  0.667337  0.122022  1
  Y  Y19  1  0.671028  0.167133  0.878041  1
  Sn  Sn20  1  0.672192  0.963923  0.459975  1
  Sn  Sn21  1  0.170256  0.535390  0.040287  1
  Sn  Sn22  1  0.328917  0.035019  0.959846  1
  Sn  Sn23  1  0.826668  0.465316  0.539421  1
  Sn  Sn24  1  0.332793  0.034447  0.539783  1
  Sn  Sn25  1  0.829259  0.465120  0.959396  1
  Sn  Sn26  1  0.670248  0.964527  0.040296  1
  Sn  Sn27  1  0.169194  0.537058  0.458634  1
  Sn  Sn28  1  0.470631  0.379618  0.751766  1
  Sn  Sn29  1  0.968393  0.119423  0.750815  1
  Sn  Sn30  1  0.530527  0.621808  0.249678  1
  Sn  Sn31  1  0.030792  0.878145  0.249532  1
  Sn  Sn32  1  0.712885  0.870005  0.750585  1
  Sn  Sn33  1  0.214924  0.629968  0.751315  1
  Sn  Sn34  1  0.285954  0.128950  0.249817  1
  Sn  Sn35  1  0.785211  0.371412  0.249540  1
