# generated using pymatgen
data_Y3Ho5In3Os
_symmetry_space_group_name_H-M   'P 1'
_cell_length_a   10.34866000
_cell_length_b   10.34865961
_cell_length_c   7.13905600
_cell_angle_alpha   90.00000000
_cell_angle_beta   90.00000000
_cell_angle_gamma   120.00000126
_symmetry_Int_Tables_number   1
_chemical_formula_structural   Y3Ho5In3Os
_chemical_formula_sum   'Y6 Ho10 In6 Os2'
_cell_volume   662.12446587
_cell_formula_units_Z   2
loop_
 _symmetry_equiv_pos_site_id
 _symmetry_equiv_pos_as_xyz
  1  'x, y, z'
loop_
 _atom_site_type_symbol
 _atom_site_label
 _atom_site_symmetry_multiplicity
 _atom_site_fract_x
 _atom_site_fract_y
 _atom_site_fract_z
 _atom_site_occupancy
  Y  Y0  1  0.532539  0.065078  0.507549  1
  Y  Y1  1  0.934922  0.467461  0.507549  1
  Y  Y2  1  0.532539  0.467461  0.507549  1
  Y  Y3  1  0.467461  0.934922  0.007549  1
  Y  Y4  1  0.065078  0.532539  0.007549  1
  Y  Y5  1  0.467461  0.532539  0.007549  1
  Ho  Ho6  1  0.177231  0.354460  0.712872  1
  Ho  Ho7  1  0.645540  0.822769  0.712872  1
  Ho  Ho8  1  0.177231  0.822769  0.712872  1
  Ho  Ho9  1  0.822769  0.645540  0.212872  1
  Ho  Ho10  1  0.354460  0.177231  0.212872  1
  Ho  Ho11  1  0.822769  0.177231  0.212872  1
  Ho  Ho12  1  0.666667  0.333333  0.884365  1
  Ho  Ho13  1  0.333333  0.666667  0.384365  1
  Ho  Ho14  1  0.000000  0.000000  0.491594  1
  Ho  Ho15  1  0.000000  0.000000  0.991594  1
  In  In16  1  0.837150  0.674299  0.754510  1
  In  In17  1  0.325701  0.162850  0.754510  1
  In  In18  1  0.837150  0.162850  0.754510  1
  In  In19  1  0.162850  0.325701  0.254510  1
  In  In20  1  0.674299  0.837150  0.254510  1
  In  In21  1  0.162850  0.837150  0.254510  1
  Os  Os22  1  0.666667  0.333333  0.278272  1
  Os  Os23  1  0.333333  0.666667  0.778272  1
