# generated using pymatgen
data_Rb2Sn2Hg3Se8
_symmetry_space_group_name_H-M   'P 1'
_cell_length_a   7.05307500
_cell_length_b   10.78472128
_cell_length_c   14.44540162
_cell_angle_alpha   82.47693265
_cell_angle_beta   90.00000000
_cell_angle_gamma   90.00000000
_symmetry_Int_Tables_number   1
_chemical_formula_structural   Rb2Sn2Hg3Se8
_chemical_formula_sum   'Rb4 Sn4 Hg6 Se16'
_cell_volume   1089.33776438
_cell_formula_units_Z   2
loop_
 _symmetry_equiv_pos_site_id
 _symmetry_equiv_pos_as_xyz
  1  'x, y, z'
loop_
 _atom_site_type_symbol
 _atom_site_label
 _atom_site_symmetry_multiplicity
 _atom_site_fract_x
 _atom_site_fract_y
 _atom_site_fract_z
 _atom_site_occupancy
  Rb  Rb0  1  0.843830  0.275560  0.309232  1
  Rb  Rb1  1  0.343830  0.724440  0.190768  1
  Rb  Rb2  1  0.656170  0.275560  0.809232  1
  Rb  Rb3  1  0.156170  0.724440  0.690768  1
  Sn  Sn4  1  0.684753  0.786016  0.924648  1
  Sn  Sn5  1  0.315247  0.213984  0.075352  1
  Sn  Sn6  1  0.184753  0.213984  0.575352  1
  Sn  Sn7  1  0.815247  0.786016  0.424648  1
  Hg  Hg8  1  0.296568  0.001478  0.378631  1
  Hg  Hg9  1  0.203432  0.001478  0.878631  1
  Hg  Hg10  1  0.703432  0.998522  0.621369  1
  Hg  Hg11  1  0.500000  0.500000  0.500000  1
  Hg  Hg12  1  0.796568  0.998522  0.121369  1
  Hg  Hg13  1  0.000000  0.500000  0.000000  1
  Se  Se14  1  0.320653  0.773359  0.924046  1
  Se  Se15  1  0.203727  0.420458  0.136587  1
  Se  Se16  1  0.194781  0.234954  0.906470  1
  Se  Se17  1  0.179347  0.773359  0.424046  1
  Se  Se18  1  0.796273  0.579542  0.863413  1
  Se  Se19  1  0.820653  0.226641  0.575954  1
  Se  Se20  1  0.703727  0.579542  0.363413  1
  Se  Se21  1  0.805219  0.765046  0.093530  1
  Se  Se22  1  0.323193  0.029359  0.679505  1
  Se  Se23  1  0.296273  0.420458  0.636587  1
  Se  Se24  1  0.305219  0.234954  0.406470  1
  Se  Se25  1  0.676807  0.970641  0.320495  1
  Se  Se26  1  0.679347  0.226641  0.075954  1
  Se  Se27  1  0.694781  0.765046  0.593530  1
  Se  Se28  1  0.176807  0.029359  0.179505  1
  Se  Se29  1  0.823193  0.970641  0.820495  1
