# generated using pymatgen
data_CeTh3(TcB2)6
_symmetry_space_group_name_H-M   'P 1'
_cell_length_a   6.32712994
_cell_length_b   6.30517994
_cell_length_c   7.61871419
_cell_angle_alpha   90.75437818
_cell_angle_beta   90.76924232
_cell_angle_gamma   114.89095621
_symmetry_Int_Tables_number   1
_chemical_formula_structural   CeTh3(TcB2)6
_chemical_formula_sum   'Ce1 Th3 Tc6 B12'
_cell_volume   275.62174585
_cell_formula_units_Z   1
loop_
 _symmetry_equiv_pos_site_id
 _symmetry_equiv_pos_as_xyz
  1  'x, y, z'
loop_
 _atom_site_type_symbol
 _atom_site_label
 _atom_site_symmetry_multiplicity
 _atom_site_fract_x
 _atom_site_fract_y
 _atom_site_fract_z
 _atom_site_occupancy
  Ce  Ce0  1  0.441695  0.099561  0.826696  1
  Th  Th1  1  0.096116  0.437767  0.326363  1
  Th  Th2  1  0.559071  0.906900  0.169868  1
  Th  Th3  1  0.903961  0.561272  0.674806  1
  Tc  Tc4  1  0.589022  0.411473  0.250049  1
  Tc  Tc5  1  0.411056  0.589685  0.750407  1
  Tc  Tc6  1  0.990790  0.803830  0.087375  1
  Tc  Tc7  1  0.194913  0.008545  0.412805  1
  Tc  Tc8  1  0.010606  0.194655  0.912465  1
  Tc  Tc9  1  0.803662  0.991694  0.587630  1
  B  B10  1  0.247554  0.152446  0.131233  1
  B  B11  1  0.845912  0.755024  0.366283  1
  B  B12  1  0.753975  0.846631  0.865524  1
  B  B13  1  0.154619  0.244151  0.635075  1
  B  B14  1  0.580639  0.160054  0.484912  1
  B  B15  1  0.838934  0.415434  0.017256  1
  B  B16  1  0.417466  0.840722  0.518578  1
  B  B17  1  0.160468  0.582192  0.982408  1
  B  B18  1  0.443552  0.349392  0.535384  1
  B  B19  1  0.649800  0.554621  0.965956  1
  B  B20  1  0.555596  0.650696  0.466124  1
  B  B21  1  0.350596  0.443256  0.032803  1
