# generated using pymatgen
data_Er5Tm2Lu(OsBr4)2
_symmetry_space_group_name_H-M   'P 1'
_cell_length_a   8.87295894
_cell_length_b   8.89829386
_cell_length_c   6.49573102
_cell_angle_alpha   89.46287872
_cell_angle_beta   89.61348556
_cell_angle_gamma   89.19807238
_symmetry_Int_Tables_number   1
_chemical_formula_structural   Er5Tm2Lu(OsBr4)2
_chemical_formula_sum   'Er5 Tm2 Lu1 Os2 Br8'
_cell_volume   512.78123143
_cell_formula_units_Z   1
loop_
 _symmetry_equiv_pos_site_id
 _symmetry_equiv_pos_as_xyz
  1  'x, y, z'
loop_
 _atom_site_type_symbol
 _atom_site_label
 _atom_site_symmetry_multiplicity
 _atom_site_fract_x
 _atom_site_fract_y
 _atom_site_fract_z
 _atom_site_occupancy
  Er  Er0  1  0.901924  0.248233  0.510365  1
  Er  Er1  1  0.752396  0.902677  0.508557  1
  Er  Er2  1  0.248451  0.096067  0.492248  1
  Er  Er3  1  0.097379  0.247182  0.992189  1
  Er  Er4  1  0.902669  0.752350  0.008825  1
  Tm  Tm5  1  0.752125  0.098078  0.989265  1
  Tm  Tm6  1  0.099022  0.752214  0.490100  1
  Lu  Lu7  1  0.244563  0.902640  0.011805  1
  Os  Os8  1  0.994827  0.004608  0.250247  1
  Os  Os9  1  0.005360  0.994668  0.750435  1
  Br  Br10  1  0.419699  0.816719  0.405163  1
  Br  Br11  1  0.580942  0.183793  0.591298  1
  Br  Br12  1  0.184471  0.581978  0.091314  1
  Br  Br13  1  0.816533  0.418895  0.909088  1
  Br  Br14  1  0.414962  0.188812  0.093907  1
  Br  Br15  1  0.583534  0.811406  0.904886  1
  Br  Br16  1  0.810081  0.585402  0.406418  1
  Br  Br17  1  0.191063  0.414277  0.593888  1
