# generated using pymatgen
data_Ho3Tm2Fe3(Co4P3)4
_symmetry_space_group_name_H-M   'P 1'
_cell_length_a   11.96474224
_cell_length_b   11.96061264
_cell_length_c   3.65965400
_cell_angle_alpha   90.00000000
_cell_angle_beta   90.00000000
_cell_angle_gamma   119.98858266
_symmetry_Int_Tables_number   1
_chemical_formula_structural   Ho3Tm2Fe3(Co4P3)4
_chemical_formula_sum   'Ho3 Tm2 Fe3 Co16 P12'
_cell_volume   453.60453170
_cell_formula_units_Z   1
loop_
 _symmetry_equiv_pos_site_id
 _symmetry_equiv_pos_as_xyz
  1  'x, y, z'
loop_
 _atom_site_type_symbol
 _atom_site_label
 _atom_site_symmetry_multiplicity
 _atom_site_fract_x
 _atom_site_fract_y
 _atom_site_fract_z
 _atom_site_occupancy
  Ho  Ho0  1  0.666588  0.333253  0.000000  1
  Ho  Ho1  1  0.333412  0.666666  0.000000  1
  Ho  Ho2  1  0.000000  0.187130  0.500000  1
  Tm  Tm3  1  0.812582  0.812596  0.500000  1
  Tm  Tm4  1  0.187418  0.000014  0.500000  1
  Fe  Fe5  1  0.446955  0.446834  0.000000  1
  Fe  Fe6  1  0.553045  0.999879  0.000000  1
  Fe  Fe7  1  0.000000  0.553609  0.000000  1
  Co  Co8  1  0.873879  0.357028  0.500000  1
  Co  Co9  1  0.643251  0.517285  0.500000  1
  Co  Co10  1  0.482807  0.126018  0.500000  1
  Co  Co11  1  0.356749  0.874033  0.500000  1
  Co  Co12  1  0.517193  0.643211  0.500000  1
  Co  Co13  1  0.126121  0.483149  0.500000  1
  Co  Co14  1  0.800130  0.177423  0.000000  1
  Co  Co15  1  0.822383  0.623253  0.000000  1
  Co  Co16  1  0.377010  0.199148  0.000000  1
  Co  Co17  1  0.177617  0.800871  0.000000  1
  Co  Co18  1  0.622990  0.822139  0.000000  1
  Co  Co19  1  0.199870  0.377294  0.000000  1
  Co  Co20  1  0.283217  0.282788  0.500000  1
  Co  Co21  1  0.716783  0.999571  0.500000  1
  Co  Co22  1  0.000000  0.717304  0.500000  1
  Co  Co23  1  0.000000  0.999541  0.000000  1
  P  P24  1  0.684228  0.164319  0.500000  1
  P  P25  1  0.835571  0.520020  0.500000  1
  P  P26  1  0.480220  0.315744  0.500000  1
  P  P27  1  0.164429  0.684448  0.500000  1
  P  P28  1  0.519780  0.835524  0.500000  1
  P  P29  1  0.315772  0.480091  0.500000  1
  P  P30  1  0.180524  0.179753  0.000000  1
  P  P31  1  0.819476  0.999230  0.000000  1
  P  P32  1  0.000000  0.820036  0.000000  1
  P  P33  1  0.632684  0.632709  0.000000  1
  P  P34  1  0.367316  0.000024  0.000000  1
  P  P35  1  0.000000  0.368065  0.000000  1
