# generated using pymatgen
data_Zr6MnAl6Ga2Pt3
_symmetry_space_group_name_H-M   'P 1'
_cell_length_a   6.78224600
_cell_length_b   6.78224521
_cell_length_c   8.02252000
_cell_angle_alpha   90.00000000
_cell_angle_beta   90.00000000
_cell_angle_gamma   119.99999408
_symmetry_Int_Tables_number   1
_chemical_formula_structural   Zr6MnAl6Ga2Pt3
_chemical_formula_sum   'Zr6 Mn1 Al6 Ga2 Pt3'
_cell_volume   319.58654884
_cell_formula_units_Z   1
loop_
 _symmetry_equiv_pos_site_id
 _symmetry_equiv_pos_as_xyz
  1  'x, y, z'
loop_
 _atom_site_type_symbol
 _atom_site_label
 _atom_site_symmetry_multiplicity
 _atom_site_fract_x
 _atom_site_fract_y
 _atom_site_fract_z
 _atom_site_occupancy
  Zr  Zr0  1  0.012282  0.585921  0.738126  1
  Zr  Zr1  1  0.012250  0.585939  0.261894  1
  Zr  Zr2  1  0.573689  0.987750  0.261894  1
  Zr  Zr3  1  0.573639  0.987718  0.738126  1
  Zr  Zr4  1  0.414061  0.426311  0.261894  1
  Zr  Zr5  1  0.414079  0.426361  0.738126  1
  Mn  Mn6  1  0.333333  0.666667  0.499888  1
  Al  Al7  1  0.015780  0.252486  0.500017  1
  Al  Al8  1  0.748619  0.757932  0.999992  1
  Al  Al9  1  0.009313  0.251381  0.999992  1
  Al  Al10  1  0.236706  0.984220  0.500017  1
  Al  Al11  1  0.242068  0.990687  0.999992  1
  Al  Al12  1  0.747514  0.763294  0.500017  1
  Ga  Ga13  1  0.666667  0.333333  0.500063  1
  Ga  Ga14  1  0.666667  0.333333  0.999952  1
  Pt  Pt15  1  0.000000  0.000000  0.248740  1
  Pt  Pt16  1  0.000000  0.000000  0.751263  1
  Pt  Pt17  1  0.333333  0.666667  0.000004  1
