# generated using pymatgen
data_Tb8SnHg3Au8
_symmetry_space_group_name_H-M   'P 1'
_cell_length_a   8.04249000
_cell_length_b   8.04249000
_cell_length_c   7.38381000
_cell_angle_alpha   90.00000000
_cell_angle_beta   90.00000000
_cell_angle_gamma   90.00000000
_symmetry_Int_Tables_number   1
_chemical_formula_structural   Tb8SnHg3Au8
_chemical_formula_sum   'Tb8 Sn1 Hg3 Au8'
_cell_volume   477.59698012
_cell_formula_units_Z   1
loop_
 _symmetry_equiv_pos_site_id
 _symmetry_equiv_pos_as_xyz
  1  'x, y, z'
loop_
 _atom_site_type_symbol
 _atom_site_label
 _atom_site_symmetry_multiplicity
 _atom_site_fract_x
 _atom_site_fract_y
 _atom_site_fract_z
 _atom_site_occupancy
  Tb  Tb0  1  0.840530  0.160421  0.500212  1
  Tb  Tb1  1  0.159470  0.839579  0.500212  1
  Tb  Tb2  1  0.339579  0.340530  0.999788  1
  Tb  Tb3  1  0.660421  0.659470  0.999788  1
  Tb  Tb4  1  0.684580  0.684748  0.499985  1
  Tb  Tb5  1  0.315420  0.315252  0.499985  1
  Tb  Tb6  1  0.184748  0.815420  0.000015  1
  Tb  Tb7  1  0.815252  0.184580  0.000015  1
  Sn  Sn8  1  0.000000  0.500000  0.250000  1
  Hg  Hg9  1  0.500000  0.000000  0.250000  1
  Hg  Hg10  1  0.000000  0.500000  0.750000  1
  Hg  Hg11  1  0.500000  0.000000  0.750000  1
  Au  Au12  1  0.625836  0.372239  0.275633  1
  Au  Au13  1  0.374164  0.627761  0.275633  1
  Au  Au14  1  0.127755  0.126150  0.774835  1
  Au  Au15  1  0.872245  0.873850  0.774835  1
  Au  Au16  1  0.373850  0.627755  0.725165  1
  Au  Au17  1  0.626150  0.372245  0.725165  1
  Au  Au18  1  0.872239  0.874164  0.224367  1
  Au  Au19  1  0.127761  0.125836  0.224367  1
