# generated using pymatgen
data_Nd18SnBi9O10
_symmetry_space_group_name_H-M   'P 1'
_cell_length_a   10.34424145
_cell_length_b   10.35051985
_cell_length_c   9.34029264
_cell_angle_alpha   90.01191178
_cell_angle_beta   90.04067196
_cell_angle_gamma   89.95496366
_symmetry_Int_Tables_number   1
_chemical_formula_structural   Nd18SnBi9O10
_chemical_formula_sum   'Nd18 Sn1 Bi9 O10'
_cell_volume   1000.04845260
_cell_formula_units_Z   1
loop_
 _symmetry_equiv_pos_site_id
 _symmetry_equiv_pos_as_xyz
  1  'x, y, z'
loop_
 _atom_site_type_symbol
 _atom_site_label
 _atom_site_symmetry_multiplicity
 _atom_site_fract_x
 _atom_site_fract_y
 _atom_site_fract_z
 _atom_site_occupancy
  Nd  Nd0  1  0.497988  0.005429  0.674235  1
  Nd  Nd1  1  0.000252  0.500000  0.324955  1
  Nd  Nd2  1  0.109262  0.206697  0.661227  1
  Nd  Nd3  1  0.895974  0.795220  0.660736  1
  Nd  Nd4  1  0.297797  0.599312  0.661472  1
  Nd  Nd5  1  0.699750  0.394815  0.661527  1
  Nd  Nd6  1  0.395834  0.295025  0.343360  1
  Nd  Nd7  1  0.604226  0.705101  0.339546  1
  Nd  Nd8  1  0.205104  0.895546  0.339203  1
  Nd  Nd9  1  0.794666  0.104084  0.339342  1
  Nd  Nd10  1  0.725199  0.918331  0.000960  1
  Nd  Nd11  1  0.274527  0.082699  0.000347  1
  Nd  Nd12  1  0.580621  0.226985  0.998824  1
  Nd  Nd13  1  0.417693  0.774498  0.001117  1
  Nd  Nd14  1  0.774190  0.582601  0.997976  1
  Nd  Nd15  1  0.228615  0.416260  0.995743  1
  Nd  Nd16  1  0.917176  0.274050  0.998816  1
  Nd  Nd17  1  0.082737  0.725508  0.998345  1
  Sn  Sn18  1  0.403199  0.303450  0.698984  1
  Bi  Bi19  1  0.500162  0.999523  0.314213  1
  Bi  Bi20  1  0.998799  0.499548  0.685073  1
  Bi  Bi21  1  0.596181  0.696728  0.698699  1
  Bi  Bi22  1  0.195809  0.902390  0.698222  1
  Bi  Bi23  1  0.805555  0.096859  0.698558  1
  Bi  Bi24  1  0.096112  0.195444  0.301575  1
  Bi  Bi25  1  0.903523  0.804507  0.301876  1
  Bi  Bi26  1  0.304253  0.596604  0.301038  1
  Bi  Bi27  1  0.696032  0.403822  0.300854  1
  O  O28  1  0.501131  0.998158  0.934253  1
  O  O29  1  0.999179  0.500830  0.066539  1
  O  O30  1  0.774259  0.120823  0.086705  1
  O  O31  1  0.225407  0.879506  0.086425  1
  O  O32  1  0.379235  0.274048  0.088875  1
  O  O33  1  0.620701  0.725117  0.087084  1
  O  O34  1  0.726067  0.379409  0.913001  1
  O  O35  1  0.274195  0.621684  0.913020  1
  O  O36  1  0.119608  0.224747  0.913918  1
  O  O37  1  0.878981  0.774639  0.913356  1
