# generated using pymatgen
data_La4Ga4PtRh3
_symmetry_space_group_name_H-M   'P 1'
_cell_length_a   4.46237800
_cell_length_b   7.16427624
_cell_length_c   7.99467126
_cell_angle_alpha   89.60185819
_cell_angle_beta   90.00000000
_cell_angle_gamma   90.00000000
_symmetry_Int_Tables_number   1
_chemical_formula_structural   La4Ga4PtRh3
_chemical_formula_sum   'La4 Ga4 Pt1 Rh3'
_cell_volume   255.58114035
_cell_formula_units_Z   1
loop_
 _symmetry_equiv_pos_site_id
 _symmetry_equiv_pos_as_xyz
  1  'x, y, z'
loop_
 _atom_site_type_symbol
 _atom_site_label
 _atom_site_symmetry_multiplicity
 _atom_site_fract_x
 _atom_site_fract_y
 _atom_site_fract_z
 _atom_site_occupancy
  La  La0  1  0.250000  0.031900  0.684518  1
  La  La1  1  0.250000  0.534814  0.812894  1
  La  La2  1  0.750000  0.966427  0.311972  1
  La  La3  1  0.750000  0.470888  0.191661  1
  Ga  Ga4  1  0.250000  0.148190  0.072440  1
  Ga  Ga5  1  0.250000  0.649154  0.429803  1
  Ga  Ga6  1  0.750000  0.846079  0.929744  1
  Ga  Ga7  1  0.750000  0.353100  0.568636  1
  Pt  Pt8  1  0.750000  0.223506  0.889833  1
  Rh  Rh9  1  0.250000  0.274382  0.391957  1
  Rh  Rh10  1  0.250000  0.774890  0.108265  1
  Rh  Rh11  1  0.750000  0.726669  0.608277  1
