# generated using pymatgen
data_La4Pr(Tl2Pt)2
_symmetry_space_group_name_H-M   'P 1'
_cell_length_a   3.88159200
_cell_length_b   8.36471500
_cell_length_c   18.83912100
_cell_angle_alpha   90.00000000
_cell_angle_beta   90.00000000
_cell_angle_gamma   90.00000000
_symmetry_Int_Tables_number   1
_chemical_formula_structural   La4Pr(Tl2Pt)2
_chemical_formula_sum   'La8 Pr2 Tl8 Pt4'
_cell_volume   611.67632023
_cell_formula_units_Z   2
loop_
 _symmetry_equiv_pos_site_id
 _symmetry_equiv_pos_as_xyz
  1  'x, y, z'
loop_
 _atom_site_type_symbol
 _atom_site_label
 _atom_site_symmetry_multiplicity
 _atom_site_fract_x
 _atom_site_fract_y
 _atom_site_fract_z
 _atom_site_occupancy
  La  La0  1  0.000000  0.116435  0.413854  1
  La  La1  1  0.000000  0.883565  0.586146  1
  La  La2  1  0.000000  0.383565  0.913854  1
  La  La3  1  0.000000  0.616435  0.086146  1
  La  La4  1  0.000000  0.241193  0.218780  1
  La  La5  1  0.000000  0.758807  0.781220  1
  La  La6  1  0.000000  0.258807  0.718780  1
  La  La7  1  0.000000  0.741193  0.281220  1
  Pr  Pr8  1  0.000000  0.000000  0.000000  1
  Pr  Pr9  1  0.000000  0.500000  0.500000  1
  Tl  Tl10  1  0.500000  0.427070  0.352353  1
  Tl  Tl11  1  0.500000  0.572930  0.647647  1
  Tl  Tl12  1  0.500000  0.072930  0.852353  1
  Tl  Tl13  1  0.500000  0.927070  0.147647  1
  Tl  Tl14  1  0.500000  0.288747  0.066342  1
  Tl  Tl15  1  0.500000  0.711253  0.933658  1
  Tl  Tl16  1  0.500000  0.211253  0.566342  1
  Tl  Tl17  1  0.500000  0.788747  0.433658  1
  Pt  Pt18  1  0.500000  0.022834  0.303093  1
  Pt  Pt19  1  0.500000  0.977166  0.696907  1
  Pt  Pt20  1  0.500000  0.477166  0.803093  1
  Pt  Pt21  1  0.500000  0.522834  0.196907  1
