# generated using pymatgen
data_Rb2ReH9
_symmetry_space_group_name_H-M   'P 1'
_cell_length_a   10.02059700
_cell_length_b   10.02059640
_cell_length_c   5.82995700
_cell_angle_alpha   90.00000000
_cell_angle_beta   90.00000000
_cell_angle_gamma   120.00001190
_symmetry_Int_Tables_number   1
_chemical_formula_structural   Rb2ReH9
_chemical_formula_sum   'Rb6 Re3 H27'
_cell_volume   506.97097721
_cell_formula_units_Z   3
loop_
 _symmetry_equiv_pos_site_id
 _symmetry_equiv_pos_as_xyz
  1  'x, y, z'
loop_
 _atom_site_type_symbol
 _atom_site_label
 _atom_site_symmetry_multiplicity
 _atom_site_fract_x
 _atom_site_fract_y
 _atom_site_fract_z
 _atom_site_occupancy
  Rb  Rb0  1  0.000000  0.262317  0.500000  1
  Rb  Rb1  1  0.737683  0.737683  0.500000  1
  Rb  Rb2  1  0.262317  0.000000  0.500000  1
  Rb  Rb3  1  0.000000  0.589548  0.000000  1
  Rb  Rb4  1  0.410452  0.410452  0.000000  1
  Rb  Rb5  1  0.589548  0.000000  0.000000  1
  Re  Re6  1  0.666667  0.333333  0.500000  1
  Re  Re7  1  0.333333  0.666667  0.500000  1
  Re  Re8  1  0.000000  0.000000  0.000000  1
  H  H9  1  0.770676  0.308696  0.712437  1
  H  H10  1  0.691304  0.461978  0.712437  1
  H  H11  1  0.538022  0.229324  0.712437  1
  H  H12  1  0.229324  0.538022  0.287563  1
  H  H13  1  0.538022  0.229324  0.287563  1
  H  H14  1  0.770676  0.308696  0.287563  1
  H  H15  1  0.691304  0.461978  0.287563  1
  H  H16  1  0.308696  0.770676  0.712437  1
  H  H17  1  0.461978  0.691304  0.712437  1
  H  H18  1  0.168356  0.000000  0.000000  1
  H  H19  1  0.831644  0.831644  0.000000  1
  H  H20  1  0.000000  0.168356  0.000000  1
  H  H21  1  0.877870  0.000000  0.204444  1
  H  H22  1  0.122130  0.122130  0.795556  1
  H  H23  1  0.000000  0.877870  0.795556  1
  H  H24  1  0.000000  0.877870  0.204444  1
  H  H25  1  0.122130  0.122130  0.204444  1
  H  H26  1  0.877870  0.000000  0.795556  1
  H  H27  1  0.150662  0.632599  0.500000  1
  H  H28  1  0.481937  0.849338  0.500000  1
  H  H29  1  0.367401  0.518063  0.500000  1
  H  H30  1  0.518063  0.367401  0.500000  1
  H  H31  1  0.849338  0.481937  0.500000  1
  H  H32  1  0.632599  0.150662  0.500000  1
  H  H33  1  0.229324  0.538022  0.712437  1
  H  H34  1  0.308696  0.770676  0.287563  1
  H  H35  1  0.461978  0.691304  0.287563  1
