# generated using pymatgen
data_Pr6CdIn8P
_symmetry_space_group_name_H-M   'P 1'
_cell_length_a   8.52876437
_cell_length_b   8.52876462
_cell_length_c   8.52876400
_cell_angle_alpha   119.64162288
_cell_angle_beta   119.64162383
_cell_angle_gamma   90.62185565
_symmetry_Int_Tables_number   1
_chemical_formula_structural   Pr6CdIn8P
_chemical_formula_sum   'Pr6 Cd1 In8 P1'
_cell_volume   441.02358180
_cell_formula_units_Z   1
loop_
 _symmetry_equiv_pos_site_id
 _symmetry_equiv_pos_as_xyz
  1  'x, y, z'
loop_
 _atom_site_type_symbol
 _atom_site_label
 _atom_site_symmetry_multiplicity
 _atom_site_fract_x
 _atom_site_fract_y
 _atom_site_fract_z
 _atom_site_occupancy
  Pr  Pr0  1  0.769600  0.769600  0.000000  1
  Pr  Pr1  1  0.230400  0.230400  0.000000  1
  Pr  Pr2  1  0.683345  0.141329  0.824674  1
  Pr  Pr3  1  0.316655  0.858671  0.175326  1
  Pr  Pr4  1  0.141329  0.316655  0.457985  1
  Pr  Pr5  1  0.858671  0.683345  0.542015  1
  Cd  Cd6  1  0.500000  0.500000  0.000000  1
  In  In7  1  0.337189  0.813522  0.787503  1
  In  In8  1  0.662811  0.186478  0.212497  1
  In  In9  1  0.026020  0.549686  0.212497  1
  In  In10  1  0.813522  0.026020  0.476333  1
  In  In11  1  0.450314  0.662811  0.476333  1
  In  In12  1  0.973980  0.450314  0.787503  1
  In  In13  1  0.186478  0.973980  0.523667  1
  In  In14  1  0.549686  0.337189  0.523667  1
  P  P15  1  0.000000  0.000000  0.000000  1
