# generated using pymatgen
data_Er8Lu12Sn3Pb13
_symmetry_space_group_name_H-M   'P 1'
_cell_length_a   8.08343934
_cell_length_b   15.40154800
_cell_length_c   8.14702500
_cell_angle_alpha   90.00000000
_cell_angle_beta   89.87465492
_cell_angle_gamma   90.00000000
_symmetry_Int_Tables_number   1
_chemical_formula_structural   Er8Lu12Sn3Pb13
_chemical_formula_sum   'Er8 Lu12 Sn3 Pb13'
_cell_volume   1014.28164713
_cell_formula_units_Z   1
loop_
 _symmetry_equiv_pos_site_id
 _symmetry_equiv_pos_as_xyz
  1  'x, y, z'
loop_
 _atom_site_type_symbol
 _atom_site_label
 _atom_site_symmetry_multiplicity
 _atom_site_fract_x
 _atom_site_fract_y
 _atom_site_fract_z
 _atom_site_occupancy
  Er  Er0  1  0.463585  0.600237  0.674205  1
  Er  Er1  1  0.963817  0.899674  0.825875  1
  Er  Er2  1  0.536443  0.099677  0.326084  1
  Er  Er3  1  0.036312  0.400879  0.176663  1
  Er  Er4  1  0.536443  0.400323  0.326084  1
  Er  Er5  1  0.036312  0.099121  0.176663  1
  Er  Er6  1  0.463585  0.899763  0.674205  1
  Er  Er7  1  0.963817  0.600326  0.825875  1
  Lu  Lu8  1  0.623565  0.623787  0.160169  1
  Lu  Lu9  1  0.123994  0.876247  0.339396  1
  Lu  Lu10  1  0.378234  0.123130  0.839460  1
  Lu  Lu11  1  0.873976  0.377678  0.658228  1
  Lu  Lu12  1  0.378234  0.376870  0.839460  1
  Lu  Lu13  1  0.873976  0.122322  0.658228  1
  Lu  Lu14  1  0.623565  0.876213  0.160169  1
  Lu  Lu15  1  0.123994  0.623753  0.339396  1
  Lu  Lu16  1  0.791020  0.750000  0.491024  1
  Lu  Lu17  1  0.290872  0.750000  0.008682  1
  Lu  Lu18  1  0.209655  0.250000  0.506603  1
  Lu  Lu19  1  0.706222  0.250000  0.991994  1
  Sn  Sn20  1  0.428649  0.750000  0.373913  1
  Sn  Sn21  1  0.928986  0.750000  0.126143  1
  Sn  Sn22  1  0.571192  0.250000  0.626024  1
  Pb  Pb23  1  0.716028  0.458066  0.966271  1
  Pb  Pb24  1  0.215665  0.041902  0.534818  1
  Pb  Pb25  1  0.284432  0.958288  0.034071  1
  Pb  Pb26  1  0.784647  0.542298  0.464819  1
  Pb  Pb27  1  0.284432  0.541712  0.034071  1
  Pb  Pb28  1  0.784647  0.957702  0.464819  1
  Pb  Pb29  1  0.716028  0.041934  0.966271  1
  Pb  Pb30  1  0.215665  0.458098  0.534818  1
  Pb  Pb31  1  0.069525  0.250000  0.874141  1
  Pb  Pb32  1  0.653318  0.750000  0.845815  1
  Pb  Pb33  1  0.153910  0.750000  0.653833  1
  Pb  Pb34  1  0.348405  0.250000  0.155768  1
  Pb  Pb35  1  0.846844  0.250000  0.345944  1
