# generated using pymatgen
data_Y9LuIn8PdAu3
_symmetry_space_group_name_H-M   'P 1'
_cell_length_a   3.67689100
_cell_length_b   8.18901995
_cell_length_c   18.35861700
_cell_angle_alpha   89.89914380
_cell_angle_beta   90.00000000
_cell_angle_gamma   90.00000000
_symmetry_Int_Tables_number   1
_chemical_formula_structural   Y9LuIn8PdAu3
_chemical_formula_sum   'Y9 Lu1 In8 Pd1 Au3'
_cell_volume   552.77955727
_cell_formula_units_Z   1
loop_
 _symmetry_equiv_pos_site_id
 _symmetry_equiv_pos_as_xyz
  1  'x, y, z'
loop_
 _atom_site_type_symbol
 _atom_site_label
 _atom_site_symmetry_multiplicity
 _atom_site_fract_x
 _atom_site_fract_y
 _atom_site_fract_z
 _atom_site_occupancy
  Y  Y0  1  0.000000  0.499784  0.498742  1
  Y  Y1  1  0.000000  0.000482  0.000980  1
  Y  Y2  1  0.000000  0.744638  0.284713  1
  Y  Y3  1  0.000000  0.264184  0.715502  1
  Y  Y4  1  0.000000  0.764234  0.782955  1
  Y  Y5  1  0.000000  0.231858  0.219394  1
  Y  Y6  1  0.000000  0.620142  0.081125  1
  Y  Y7  1  0.000000  0.379967  0.920615  1
  Y  Y8  1  0.000000  0.880033  0.578342  1
  Lu  Lu9  1  0.000000  0.114872  0.414890  1
  In  In10  1  0.500000  0.710019  0.933508  1
  In  In11  1  0.500000  0.290026  0.068260  1
  In  In12  1  0.500000  0.795106  0.432483  1
  In  In13  1  0.500000  0.207851  0.562747  1
  In  In14  1  0.500000  0.582042  0.646657  1
  In  In15  1  0.500000  0.412689  0.352703  1
  In  In16  1  0.500000  0.921405  0.150368  1
  In  In17  1  0.500000  0.081524  0.852477  1
  Pd  Pd18  1  0.500000  0.027381  0.306218  1
  Au  Au19  1  0.500000  0.526326  0.198615  1
  Au  Au20  1  0.500000  0.472366  0.802946  1
  Au  Au21  1  0.500000  0.973068  0.695760  1
