# generated using pymatgen
data_CaNdCd2(Ru2O7)2
_symmetry_space_group_name_H-M   'P 1'
_cell_length_a   7.29417516
_cell_length_b   7.29417467
_cell_length_c   7.37611278
_cell_angle_alpha   59.61510638
_cell_angle_beta   59.61512089
_cell_angle_gamma   59.42649057
_symmetry_Int_Tables_number   1
_chemical_formula_structural   CaNdCd2(Ru2O7)2
_chemical_formula_sum   'Ca1 Nd1 Cd2 Ru4 O14'
_cell_volume   274.67423635
_cell_formula_units_Z   1
loop_
 _symmetry_equiv_pos_site_id
 _symmetry_equiv_pos_as_xyz
  1  'x, y, z'
loop_
 _atom_site_type_symbol
 _atom_site_label
 _atom_site_symmetry_multiplicity
 _atom_site_fract_x
 _atom_site_fract_y
 _atom_site_fract_z
 _atom_site_occupancy
  Ca  Ca0  1  0.125000  0.125000  0.125000  1
  Nd  Nd1  1  0.125000  0.125000  0.625000  1
  Cd  Cd2  1  0.125000  0.625000  0.125000  1
  Cd  Cd3  1  0.625000  0.125000  0.125000  1
  Ru  Ru4  1  0.625000  0.125000  0.625000  1
  Ru  Ru5  1  0.625000  0.625000  0.125000  1
  Ru  Ru6  1  0.125000  0.625000  0.625000  1
  Ru  Ru7  1  0.625000  0.625000  0.625000  1
  O  O8  1  0.688186  0.688186  0.313681  1
  O  O9  1  0.949948  0.551455  0.550014  1
  O  O10  1  0.557520  0.943435  0.938301  1
  O  O11  1  0.955591  0.955591  0.543208  1
  O  O12  1  0.943435  0.557520  0.938301  1
  O  O13  1  0.551455  0.949948  0.550014  1
  O  O14  1  0.306565  0.692480  0.311699  1
  O  O15  1  0.300052  0.698545  0.699986  1
  O  O16  1  0.692480  0.306565  0.311699  1
  O  O17  1  0.698545  0.300052  0.699986  1
  O  O18  1  0.561814  0.561814  0.936319  1
  O  O19  1  0.294409  0.294409  0.706792  1
  O  O20  1  0.259976  0.259976  0.236111  1
  O  O21  1  0.990024  0.990024  0.013889  1
