# generated using pymatgen
data_NdHoAg2(Ir2O7)2
_symmetry_space_group_name_H-M   'P 1'
_cell_length_a   7.40234217
_cell_length_b   7.26522828
_cell_length_c   7.26565021
_cell_angle_alpha   59.28069846
_cell_angle_beta   59.20568429
_cell_angle_gamma   59.20295808
_symmetry_Int_Tables_number   1
_chemical_formula_structural   NdHoAg2(Ir2O7)2
_chemical_formula_sum   'Nd1 Ho1 Ag2 Ir4 O14'
_cell_volume   271.45004141
_cell_formula_units_Z   1
loop_
 _symmetry_equiv_pos_site_id
 _symmetry_equiv_pos_as_xyz
  1  'x, y, z'
loop_
 _atom_site_type_symbol
 _atom_site_label
 _atom_site_symmetry_multiplicity
 _atom_site_fract_x
 _atom_site_fract_y
 _atom_site_fract_z
 _atom_site_occupancy
  Nd  Nd0  1  0.125000  0.125000  0.125000  1
  Ho  Ho1  1  0.625000  0.125000  0.125000  1
  Ag  Ag2  1  0.125000  0.625000  0.125000  1
  Ag  Ag3  1  0.125000  0.125000  0.625000  1
  Ir  Ir4  1  0.125000  0.625000  0.625000  1
  Ir  Ir5  1  0.625000  0.125000  0.625000  1
  Ir  Ir6  1  0.625000  0.625000  0.125000  1
  Ir  Ir7  1  0.625000  0.625000  0.625000  1
  O  O8  1  0.686675  0.717348  0.296018  1
  O  O9  1  0.300116  0.294639  0.703114  1
  O  O10  1  0.686681  0.295968  0.717371  1
  O  O11  1  0.300083  0.703043  0.294674  1
  O  O12  1  0.308581  0.693028  0.693130  1
  O  O13  1  0.706156  0.288374  0.288399  1
  O  O14  1  0.563325  0.532652  0.953982  1
  O  O15  1  0.949884  0.955361  0.546886  1
  O  O16  1  0.563319  0.954032  0.532629  1
  O  O17  1  0.949917  0.546957  0.955326  1
  O  O18  1  0.941419  0.556972  0.556870  1
  O  O19  1  0.543844  0.961626  0.961601  1
  O  O20  1  0.248992  0.259475  0.259386  1
  O  O21  1  0.001008  0.990525  0.990614  1
