# generated using pymatgen
data_Li8B4(PdPt3)3
_symmetry_space_group_name_H-M   'P 1'
_cell_length_a   6.88025562
_cell_length_b   6.83176004
_cell_length_c   6.77688831
_cell_angle_alpha   89.71396705
_cell_angle_beta   89.16280263
_cell_angle_gamma   89.98617561
_symmetry_Int_Tables_number   1
_chemical_formula_structural   Li8B4(PdPt3)3
_chemical_formula_sum   'Li8 B4 Pd3 Pt9'
_cell_volume   318.50461067
_cell_formula_units_Z   1
loop_
 _symmetry_equiv_pos_site_id
 _symmetry_equiv_pos_as_xyz
  1  'x, y, z'
loop_
 _atom_site_type_symbol
 _atom_site_label
 _atom_site_symmetry_multiplicity
 _atom_site_fract_x
 _atom_site_fract_y
 _atom_site_fract_z
 _atom_site_occupancy
  Li  Li0  1  0.318670  0.309423  0.311696  1
  Li  Li1  1  0.194611  0.696199  0.800535  1
  Li  Li2  1  0.798861  0.191484  0.696239  1
  Li  Li3  1  0.691251  0.801791  0.200712  1
  Li  Li4  1  0.932680  0.938382  0.938053  1
  Li  Li5  1  0.554129  0.051965  0.454382  1
  Li  Li6  1  0.057921  0.445896  0.551098  1
  Li  Li7  1  0.446677  0.551591  0.052931  1
  B  B8  1  0.866335  0.379302  0.124800  1
  B  B9  1  0.617088  0.639839  0.612695  1
  B  B10  1  0.400055  0.134835  0.865858  1
  B  B11  1  0.127342  0.865553  0.387173  1
  Pd  Pd12  1  0.193094  0.060904  0.631185  1
  Pd  Pd13  1  0.049966  0.629340  0.183767  1
  Pd  Pd14  1  0.811943  0.544223  0.859751  1
  Pt  Pt15  1  0.125472  0.294562  0.959271  1
  Pt  Pt16  1  0.375377  0.690587  0.421263  1
  Pt  Pt17  1  0.629851  0.184655  0.068776  1
  Pt  Pt18  1  0.871949  0.818665  0.560416  1
  Pt  Pt19  1  0.962382  0.123646  0.297006  1
  Pt  Pt20  1  0.289615  0.956587  0.119578  1
  Pt  Pt21  1  0.556425  0.866027  0.822724  1
  Pt  Pt22  1  0.700697  0.433612  0.386029  1
  Pt  Pt23  1  0.427615  0.390938  0.694069  1
