# generated using pymatgen
data_Ta3BeNb2Co5B4
_symmetry_space_group_name_H-M   'P 1'
_cell_length_a   3.30191300
_cell_length_b   5.93111200
_cell_length_c   17.09865700
_cell_angle_alpha   90.00000000
_cell_angle_beta   90.00000000
_cell_angle_gamma   90.00000000
_symmetry_Int_Tables_number   1
_chemical_formula_structural   Ta3BeNb2Co5B4
_chemical_formula_sum   'Ta6 Be2 Nb4 Co10 B8'
_cell_volume   334.86036914
_cell_formula_units_Z   2
loop_
 _symmetry_equiv_pos_site_id
 _symmetry_equiv_pos_as_xyz
  1  'x, y, z'
loop_
 _atom_site_type_symbol
 _atom_site_label
 _atom_site_symmetry_multiplicity
 _atom_site_fract_x
 _atom_site_fract_y
 _atom_site_fract_z
 _atom_site_occupancy
  Ta  Ta0  1  0.000000  0.979123  0.373020  1
  Ta  Ta1  1  0.000000  0.979123  0.626980  1
  Ta  Ta2  1  0.500000  0.020877  0.126980  1
  Ta  Ta3  1  0.500000  0.020877  0.873020  1
  Ta  Ta4  1  0.000000  0.349251  0.500000  1
  Ta  Ta5  1  0.500000  0.650749  0.000000  1
  Be  Be6  1  0.000000  0.768821  0.500000  1
  Be  Be7  1  0.500000  0.231179  0.000000  1
  Nb  Nb8  1  0.000000  0.472670  0.320825  1
  Nb  Nb9  1  0.000000  0.472670  0.679175  1
  Nb  Nb10  1  0.500000  0.527330  0.179175  1
  Nb  Nb11  1  0.500000  0.527330  0.820825  1
  Co  Co12  1  0.000000  0.857216  0.226162  1
  Co  Co13  1  0.000000  0.857216  0.773838  1
  Co  Co14  1  0.500000  0.142784  0.273838  1
  Co  Co15  1  0.500000  0.142784  0.726162  1
  Co  Co16  1  0.000000  0.353250  0.073088  1
  Co  Co17  1  0.000000  0.353250  0.926912  1
  Co  Co18  1  0.500000  0.646750  0.426912  1
  Co  Co19  1  0.500000  0.646750  0.573088  1
  Co  Co20  1  0.000000  0.985056  0.000000  1
  Co  Co21  1  0.500000  0.014944  0.500000  1
  B  B22  1  0.000000  0.231078  0.202533  1
  B  B23  1  0.000000  0.231078  0.797467  1
  B  B24  1  0.500000  0.768922  0.297467  1
  B  B25  1  0.500000  0.768922  0.702533  1
  B  B26  1  0.000000  0.729906  0.101413  1
  B  B27  1  0.000000  0.729906  0.898587  1
  B  B28  1  0.500000  0.270094  0.398587  1
  B  B29  1  0.500000  0.270094  0.601413  1
