# generated using pymatgen
data_Mn24Mo4Pt
_symmetry_space_group_name_H-M   'P 1'
_cell_length_a   7.60233273
_cell_length_b   7.60233220
_cell_length_c   7.60233200
_cell_angle_alpha   109.47122278
_cell_angle_beta   109.47122136
_cell_angle_gamma   109.47122132
_symmetry_Int_Tables_number   1
_chemical_formula_structural   Mn24Mo4Pt
_chemical_formula_sum   'Mn24 Mo4 Pt1'
_cell_volume   338.23507183
_cell_formula_units_Z   1
loop_
 _symmetry_equiv_pos_site_id
 _symmetry_equiv_pos_as_xyz
  1  'x, y, z'
loop_
 _atom_site_type_symbol
 _atom_site_label
 _atom_site_symmetry_multiplicity
 _atom_site_fract_x
 _atom_site_fract_y
 _atom_site_fract_z
 _atom_site_occupancy
  Mn  Mn0  1  0.324748  0.324748  0.714525  1
  Mn  Mn1  1  0.389777  0.675252  0.000000  1
  Mn  Mn2  1  0.675252  0.389777  0.000000  1
  Mn  Mn3  1  0.610223  0.285475  0.610223  1
  Mn  Mn4  1  0.389777  0.000000  0.675252  1
  Mn  Mn5  1  0.000000  0.389777  0.675252  1
  Mn  Mn6  1  0.285475  0.610223  0.610223  1
  Mn  Mn7  1  0.714525  0.324748  0.324748  1
  Mn  Mn8  1  0.324748  0.714525  0.324748  1
  Mn  Mn9  1  0.675252  0.000000  0.389777  1
  Mn  Mn10  1  0.000000  0.675252  0.389777  1
  Mn  Mn11  1  0.610223  0.610223  0.285475  1
  Mn  Mn12  1  0.804486  0.804486  0.180916  1
  Mn  Mn13  1  0.376430  0.195514  0.000000  1
  Mn  Mn14  1  0.195514  0.376430  0.000000  1
  Mn  Mn15  1  0.623570  0.819084  0.623570  1
  Mn  Mn16  1  0.376430  0.000000  0.195514  1
  Mn  Mn17  1  0.000000  0.376430  0.195514  1
  Mn  Mn18  1  0.819084  0.623570  0.623570  1
  Mn  Mn19  1  0.180916  0.804486  0.804486  1
  Mn  Mn20  1  0.804486  0.180916  0.804486  1
  Mn  Mn21  1  0.195514  0.000000  0.376430  1
  Mn  Mn22  1  0.000000  0.195514  0.376430  1
  Mn  Mn23  1  0.623570  0.623570  0.819084  1
  Mo  Mo24  1  0.000000  0.000000  0.632952  1
  Mo  Mo25  1  0.632952  0.000000  0.000000  1
  Mo  Mo26  1  0.000000  0.632952  0.000000  1
  Mo  Mo27  1  0.367048  0.367048  0.367048  1
  Pt  Pt28  1  0.000000  0.000000  0.000000  1
