# generated using pymatgen
data_Ho6Co4P12Ir11Rh3
_symmetry_space_group_name_H-M   'P 1'
_cell_length_a   3.86864200
_cell_length_b   11.06758004
_cell_length_c   12.72805105
_cell_angle_alpha   89.98985700
_cell_angle_beta   90.00000000
_cell_angle_gamma   90.00000000
_symmetry_Int_Tables_number   1
_chemical_formula_structural   Ho6Co4P12Ir11Rh3
_chemical_formula_sum   'Ho6 Co4 P12 Ir11 Rh3'
_cell_volume   544.97065280
_cell_formula_units_Z   1
loop_
 _symmetry_equiv_pos_site_id
 _symmetry_equiv_pos_as_xyz
  1  'x, y, z'
loop_
 _atom_site_type_symbol
 _atom_site_label
 _atom_site_symmetry_multiplicity
 _atom_site_fract_x
 _atom_site_fract_y
 _atom_site_fract_z
 _atom_site_occupancy
  Ho  Ho0  1  0.000000  0.500680  0.522008  1
  Ho  Ho1  1  0.500000  0.999868  0.478374  1
  Ho  Ho2  1  0.500000  0.820803  0.198737  1
  Ho  Ho3  1  0.500000  0.179125  0.198898  1
  Ho  Ho4  1  0.000000  0.685525  0.801239  1
  Ho  Ho5  1  0.000000  0.314677  0.800887  1
  Co  Co6  1  0.000000  0.500009  0.983391  1
  Co  Co7  1  0.500000  0.000125  0.017018  1
  Co  Co8  1  0.000000  0.160184  0.004642  1
  Co  Co9  1  0.000000  0.839895  0.004965  1
  P  P10  1  0.500000  0.315710  0.619899  1
  P  P11  1  0.500000  0.683967  0.620373  1
  P  P12  1  0.000000  0.183984  0.379144  1
  P  P13  1  0.000000  0.816404  0.379407  1
  P  P14  1  0.500000  0.499982  0.883597  1
  P  P15  1  0.000000  0.000098  0.111375  1
  P  P16  1  0.500000  0.851695  0.900710  1
  P  P17  1  0.500000  0.148533  0.900201  1
  P  P18  1  0.000000  0.658663  0.102122  1
  P  P19  1  0.000000  0.341265  0.102016  1
  P  P20  1  0.500000  0.500050  0.352376  1
  P  P21  1  0.000000  0.999621  0.647955  1
  Ir  Ir22  1  0.500000  0.294400  0.429736  1
  Ir  Ir23  1  0.500000  0.706524  0.428871  1
  Ir  Ir24  1  0.000000  0.794127  0.570923  1
  Ir  Ir25  1  0.500000  0.872281  0.716084  1
  Ir  Ir26  1  0.500000  0.128639  0.715500  1
  Ir  Ir27  1  0.000000  0.628947  0.283918  1
  Ir  Ir28  1  0.000000  0.370625  0.283786  1
  Ir  Ir29  1  0.500000  0.331835  0.995066  1
  Ir  Ir30  1  0.500000  0.668136  0.995281  1
  Ir  Ir31  1  0.500000  0.499937  0.704567  1
  Ir  Ir32  1  0.000000  0.999923  0.294456  1
  Rh  Rh33  1  0.000000  0.204442  0.569969  1
  Rh  Rh34  1  0.500000  0.499683  0.169793  1
  Rh  Rh35  1  0.000000  0.999638  0.832721  1
