# generated using pymatgen
data_LuScNb4(B2Ru5)2
_symmetry_space_group_name_H-M   'P 1'
_cell_length_a   9.48102718
_cell_length_b   9.48102744
_cell_length_c   3.07501200
_cell_angle_alpha   90.00000000
_cell_angle_beta   90.00000000
_cell_angle_gamma   89.85887907
_symmetry_Int_Tables_number   1
_chemical_formula_structural   LuScNb4(B2Ru5)2
_chemical_formula_sum   'Lu1 Sc1 Nb4 B4 Ru10'
_cell_volume   276.41161781
_cell_formula_units_Z   1
loop_
 _symmetry_equiv_pos_site_id
 _symmetry_equiv_pos_as_xyz
  1  'x, y, z'
loop_
 _atom_site_type_symbol
 _atom_site_label
 _atom_site_symmetry_multiplicity
 _atom_site_fract_x
 _atom_site_fract_y
 _atom_site_fract_z
 _atom_site_occupancy
  Lu  Lu0  1  0.174259  0.174259  0.000000  1
  Sc  Sc1  1  0.824616  0.824616  0.000000  1
  Nb  Nb2  1  0.500397  0.999728  0.000000  1
  Nb  Nb3  1  0.999728  0.500397  0.000000  1
  Nb  Nb4  1  0.676078  0.324358  0.000000  1
  Nb  Nb5  1  0.324358  0.676078  0.000000  1
  B  B6  1  0.378685  0.378685  0.000000  1
  B  B7  1  0.624431  0.624431  0.000000  1
  B  B8  1  0.878480  0.118830  0.000000  1
  B  B9  1  0.118830  0.878480  0.000000  1
  Ru  Ru10  1  0.501347  0.501347  0.500000  1
  Ru  Ru11  1  0.995899  0.995899  0.500000  1
  Ru  Ru12  1  0.438137  0.222155  0.500000  1
  Ru  Ru13  1  0.565785  0.780075  0.500000  1
  Ru  Ru14  1  0.920378  0.283786  0.500000  1
  Ru  Ru15  1  0.077368  0.715210  0.500000  1
  Ru  Ru16  1  0.715210  0.077368  0.500000  1
  Ru  Ru17  1  0.283786  0.920378  0.500000  1
  Ru  Ru18  1  0.780075  0.565785  0.500000  1
  Ru  Ru19  1  0.222155  0.438137  0.500000  1
