# generated using pymatgen
data_Zr10Ag2Bi5Pb
_symmetry_space_group_name_H-M   'P 1'
_cell_length_a   8.92651300
_cell_length_b   8.93361248
_cell_length_c   5.98535400
_cell_angle_alpha   90.00000000
_cell_angle_beta   90.00000000
_cell_angle_gamma   119.97371155
_symmetry_Int_Tables_number   1
_chemical_formula_structural   Zr10Ag2Bi5Pb
_chemical_formula_sum   'Zr10 Ag2 Bi5 Pb1'
_cell_volume   413.47038499
_cell_formula_units_Z   1
loop_
 _symmetry_equiv_pos_site_id
 _symmetry_equiv_pos_as_xyz
  1  'x, y, z'
loop_
 _atom_site_type_symbol
 _atom_site_label
 _atom_site_symmetry_multiplicity
 _atom_site_fract_x
 _atom_site_fract_y
 _atom_site_fract_z
 _atom_site_occupancy
  Zr  Zr0  1  0.333663  0.667123  0.999315  1
  Zr  Zr1  1  0.666543  0.332877  0.500685  1
  Zr  Zr2  1  0.666543  0.332877  0.999315  1
  Zr  Zr3  1  0.333663  0.667123  0.500685  1
  Zr  Zr4  1  0.277406  0.000000  0.250000  1
  Zr  Zr5  1  0.278669  0.277609  0.750000  1
  Zr  Zr6  1  0.001059  0.722391  0.750000  1
  Zr  Zr7  1  0.000305  0.277943  0.250000  1
  Zr  Zr8  1  0.722363  0.722057  0.250000  1
  Zr  Zr9  1  0.720691  0.000000  0.750000  1
  Ag  Ag10  1  0.999926  0.000000  0.999044  1
  Ag  Ag11  1  0.999926  0.000000  0.500956  1
  Bi  Bi12  1  0.619574  0.000000  0.250000  1
  Bi  Bi13  1  0.620669  0.620341  0.750000  1
  Bi  Bi14  1  0.000329  0.379659  0.750000  1
  Bi  Bi15  1  0.000270  0.620159  0.250000  1
  Bi  Bi16  1  0.380111  0.379841  0.250000  1
  Pb  Pb17  1  0.378289  0.000000  0.750000  1
