# generated using pymatgen
data_YbLu(Ni5Sn)2
_symmetry_space_group_name_H-M   'P 1'
_cell_length_a   4.80449500
_cell_length_b   8.00073700
_cell_length_c   10.20604900
_cell_angle_alpha   90.00000000
_cell_angle_beta   90.00000000
_cell_angle_gamma   90.00000000
_symmetry_Int_Tables_number   1
_chemical_formula_structural   YbLu(Ni5Sn)2
_chemical_formula_sum   'Yb2 Lu2 Ni20 Sn4'
_cell_volume   392.31542985
_cell_formula_units_Z   2
loop_
 _symmetry_equiv_pos_site_id
 _symmetry_equiv_pos_as_xyz
  1  'x, y, z'
loop_
 _atom_site_type_symbol
 _atom_site_label
 _atom_site_symmetry_multiplicity
 _atom_site_fract_x
 _atom_site_fract_y
 _atom_site_fract_z
 _atom_site_occupancy
  Yb  Yb0  1  0.750000  0.745852  0.940555  1
  Yb  Yb1  1  0.250000  0.754148  0.440555  1
  Lu  Lu2  1  0.750000  0.246322  0.560459  1
  Lu  Lu3  1  0.250000  0.253678  0.060459  1
  Ni  Ni4  1  0.750000  0.914765  0.482551  1
  Ni  Ni5  1  0.250000  0.585235  0.982551  1
  Ni  Ni6  1  0.750000  0.413129  0.016600  1
  Ni  Ni7  1  0.250000  0.086871  0.516600  1
  Ni  Ni8  1  0.250000  0.188967  0.742301  1
  Ni  Ni9  1  0.750000  0.311033  0.242301  1
  Ni  Ni10  1  0.250000  0.688846  0.757353  1
  Ni  Ni11  1  0.750000  0.811154  0.257353  1
  Ni  Ni12  1  0.750000  0.545290  0.400810  1
  Ni  Ni13  1  0.250000  0.954710  0.900810  1
  Ni  Ni14  1  0.750000  0.049195  0.099924  1
  Ni  Ni15  1  0.250000  0.450805  0.599924  1
  Ni  Ni16  1  0.498289  0.066252  0.309427  1
  Ni  Ni17  1  0.501711  0.433748  0.809427  1
  Ni  Ni18  1  0.001513  0.565372  0.190081  1
  Ni  Ni19  1  0.998487  0.934628  0.690081  1
  Ni  Ni20  1  0.501513  0.934628  0.690081  1
  Ni  Ni21  1  0.498487  0.565372  0.190081  1
  Ni  Ni22  1  0.998289  0.433748  0.809427  1
  Ni  Ni23  1  0.001711  0.066252  0.309427  1
  Sn  Sn24  1  0.750000  0.640205  0.638967  1
  Sn  Sn25  1  0.250000  0.859795  0.138967  1
  Sn  Sn26  1  0.750000  0.138249  0.861465  1
  Sn  Sn27  1  0.250000  0.361751  0.361465  1
