# generated using pymatgen
data_Sr4HfMoO8
_symmetry_space_group_name_H-M   'P 1'
_cell_length_a   5.80947898
_cell_length_b   5.86226100
_cell_length_c   12.61857213
_cell_angle_alpha   90.00000000
_cell_angle_beta   89.79945560
_cell_angle_gamma   90.00000000
_symmetry_Int_Tables_number   1
_chemical_formula_structural   Sr4HfMoO8
_chemical_formula_sum   'Sr8 Hf2 Mo2 O16'
_cell_volume   429.74406705
_cell_formula_units_Z   2
loop_
 _symmetry_equiv_pos_site_id
 _symmetry_equiv_pos_as_xyz
  1  'x, y, z'
loop_
 _atom_site_type_symbol
 _atom_site_label
 _atom_site_symmetry_multiplicity
 _atom_site_fract_x
 _atom_site_fract_y
 _atom_site_fract_z
 _atom_site_occupancy
  Sr  Sr0  1  0.263121  0.765429  0.103125  1
  Sr  Sr1  1  0.263121  0.234571  0.603125  1
  Sr  Sr2  1  0.738315  0.763585  0.603478  1
  Sr  Sr3  1  0.738315  0.236415  0.103478  1
  Sr  Sr4  1  0.761685  0.263585  0.396522  1
  Sr  Sr5  1  0.761685  0.736415  0.896522  1
  Sr  Sr6  1  0.236879  0.265429  0.896875  1
  Sr  Sr7  1  0.236879  0.734571  0.396875  1
  Hf  Hf8  1  0.750000  0.250000  0.750000  1
  Hf  Hf9  1  0.750000  0.750000  0.250000  1
  Mo  Mo10  1  0.250000  0.750000  0.750000  1
  Mo  Mo11  1  0.250000  0.250000  0.250000  1
  O  O12  1  0.285718  0.212429  0.088412  1
  O  O13  1  0.285718  0.787571  0.588412  1
  O  O14  1  0.500939  0.003345  0.774993  1
  O  O15  1  0.500939  0.996655  0.274993  1
  O  O16  1  0.496618  0.499896  0.749192  1
  O  O17  1  0.496618  0.500104  0.249192  1
  O  O18  1  0.710059  0.205624  0.585763  1
  O  O19  1  0.710059  0.794376  0.085763  1
  O  O20  1  0.789941  0.294376  0.914237  1
  O  O21  1  0.789941  0.705624  0.414237  1
  O  O22  1  0.003382  0.999896  0.250808  1
  O  O23  1  0.999061  0.503345  0.225007  1
  O  O24  1  0.003382  0.000104  0.750808  1
  O  O25  1  0.999061  0.496655  0.725007  1
  O  O26  1  0.214282  0.712429  0.911588  1
  O  O27  1  0.214282  0.287571  0.411588  1
