# generated using pymatgen
data_Ta3Ga2PdC
_symmetry_space_group_name_H-M   'P 1'
_cell_length_a   8.34986361
_cell_length_b   8.34986355
_cell_length_c   8.34986800
_cell_angle_alpha   59.99995858
_cell_angle_beta   59.99995882
_cell_angle_gamma   59.99991055
_symmetry_Int_Tables_number   1
_chemical_formula_structural   Ta3Ga2PdC
_chemical_formula_sum   'Ta12 Ga8 Pd4 C4'
_cell_volume   411.64496430
_cell_formula_units_Z   4
loop_
 _symmetry_equiv_pos_site_id
 _symmetry_equiv_pos_as_xyz
  1  'x, y, z'
loop_
 _atom_site_type_symbol
 _atom_site_label
 _atom_site_symmetry_multiplicity
 _atom_site_fract_x
 _atom_site_fract_y
 _atom_site_fract_z
 _atom_site_occupancy
  Ta  Ta0  1  0.567907  0.932093  0.567907  1
  Ta  Ta1  1  0.317907  0.682093  0.682093  1
  Ta  Ta2  1  0.682093  0.317907  0.317907  1
  Ta  Ta3  1  0.317907  0.682093  0.317907  1
  Ta  Ta4  1  0.682093  0.682093  0.317906  1
  Ta  Ta5  1  0.317907  0.317907  0.682093  1
  Ta  Ta6  1  0.567907  0.567907  0.932094  1
  Ta  Ta7  1  0.932093  0.567907  0.567907  1
  Ta  Ta8  1  0.567907  0.932093  0.932093  1
  Ta  Ta9  1  0.932093  0.932093  0.567907  1
  Ta  Ta10  1  0.682093  0.317907  0.682093  1
  Ta  Ta11  1  0.932093  0.567907  0.932093  1
  Ga  Ga12  1  0.914100  0.914100  0.914099  1
  Ga  Ga13  1  0.992298  0.335900  0.335901  1
  Ga  Ga14  1  0.335900  0.992298  0.335901  1
  Ga  Ga15  1  0.335900  0.335900  0.992298  1
  Ga  Ga16  1  0.914100  0.257702  0.914099  1
  Ga  Ga17  1  0.914100  0.914100  0.257702  1
  Ga  Ga18  1  0.257702  0.914100  0.914099  1
  Ga  Ga19  1  0.335900  0.335900  0.335901  1
  Pd  Pd20  1  0.125000  0.125000  0.125000  1
  Pd  Pd21  1  0.625000  0.125000  0.125000  1
  Pd  Pd22  1  0.125000  0.625000  0.125000  1
  Pd  Pd23  1  0.125000  0.125000  0.625000  1
  C  C24  1  0.625000  0.625000  0.625000  1
  C  C25  1  0.125000  0.625000  0.625000  1
  C  C26  1  0.625000  0.125000  0.625000  1
  C  C27  1  0.625000  0.625000  0.125000  1
