# generated using pymatgen
data_DyEr2Fe8Os
_symmetry_space_group_name_H-M   'P 1'
_cell_length_a   8.74333490
_cell_length_b   8.74333511
_cell_length_c   8.74333340
_cell_angle_alpha   33.84162553
_cell_angle_beta   33.84162374
_cell_angle_gamma   33.84161885
_symmetry_Int_Tables_number   1
_chemical_formula_structural   DyEr2Fe8Os
_chemical_formula_sum   'Dy1 Er2 Fe8 Os1'
_cell_volume   184.72732550
_cell_formula_units_Z   1
loop_
 _symmetry_equiv_pos_site_id
 _symmetry_equiv_pos_as_xyz
  1  'x, y, z'
loop_
 _atom_site_type_symbol
 _atom_site_label
 _atom_site_symmetry_multiplicity
 _atom_site_fract_x
 _atom_site_fract_y
 _atom_site_fract_z
 _atom_site_occupancy
  Dy  Dy0  1  0.000000  0.000000  0.000000  1
  Er  Er1  1  0.141906  0.141906  0.141906  1
  Er  Er2  1  0.858094  0.858094  0.858094  1
  Fe  Fe3  1  0.417944  0.417944  0.922208  1
  Fe  Fe4  1  0.922208  0.417944  0.417944  1
  Fe  Fe5  1  0.582056  0.077792  0.582056  1
  Fe  Fe6  1  0.582056  0.582056  0.077792  1
  Fe  Fe7  1  0.417944  0.922208  0.417944  1
  Fe  Fe8  1  0.077792  0.582056  0.582056  1
  Fe  Fe9  1  0.332743  0.332743  0.332743  1
  Fe  Fe10  1  0.667257  0.667257  0.667257  1
  Os  Os11  1  0.500000  0.500000  0.500000  1
