# generated using pymatgen
data_TmLu7In3Rh
_symmetry_space_group_name_H-M   'P 1'
_cell_length_a   10.24118101
_cell_length_b   10.24118033
_cell_length_c   6.89103200
_cell_angle_alpha   89.99930011
_cell_angle_beta   90.00070168
_cell_angle_gamma   120.00557588
_symmetry_Int_Tables_number   1
_chemical_formula_structural   TmLu7In3Rh
_chemical_formula_sum   'Tm2 Lu14 In6 Rh2'
_cell_volume   625.87924512
_cell_formula_units_Z   2
loop_
 _symmetry_equiv_pos_site_id
 _symmetry_equiv_pos_as_xyz
  1  'x, y, z'
loop_
 _atom_site_type_symbol
 _atom_site_label
 _atom_site_symmetry_multiplicity
 _atom_site_fract_x
 _atom_site_fract_y
 _atom_site_fract_z
 _atom_site_occupancy
  Tm  Tm0  1  0.532113  0.064289  0.524617  1
  Tm  Tm1  1  0.935711  0.467887  0.524617  1
  Lu  Lu2  1  0.532245  0.467755  0.524623  1
  Lu  Lu3  1  0.467672  0.935351  0.024543  1
  Lu  Lu4  1  0.064649  0.532328  0.024543  1
  Lu  Lu5  1  0.467714  0.532286  0.024561  1
  Lu  Lu6  1  0.177148  0.354069  0.729345  1
  Lu  Lu7  1  0.645931  0.822852  0.729345  1
  Lu  Lu8  1  0.177001  0.822999  0.729445  1
  Lu  Lu9  1  0.822898  0.645956  0.229122  1
  Lu  Lu10  1  0.354044  0.177102  0.229122  1
  Lu  Lu11  1  0.823051  0.176949  0.229002  1
  Lu  Lu12  1  0.666604  0.333396  0.903770  1
  Lu  Lu13  1  0.333387  0.666613  0.403585  1
  Lu  Lu14  1  0.000014  0.999986  0.507014  1
  Lu  Lu15  1  0.000001  0.999999  0.007119  1
  In  In16  1  0.837205  0.674547  0.769298  1
  In  In17  1  0.325453  0.162795  0.769298  1
  In  In18  1  0.837322  0.162678  0.769376  1
  In  In19  1  0.162751  0.325517  0.269212  1
  In  In20  1  0.674483  0.837249  0.269212  1
  In  In21  1  0.162762  0.837238  0.269137  1
  Rh  Rh22  1  0.666519  0.333481  0.297751  1
  Rh  Rh23  1  0.333325  0.666675  0.798022  1
