# generated using pymatgen
data_La10RuPb6Cl
_symmetry_space_group_name_H-M   'P 1'
_cell_length_a   9.61858600
_cell_length_b   9.61858565
_cell_length_c   7.32047700
_cell_angle_alpha   90.00000000
_cell_angle_beta   90.00000000
_cell_angle_gamma   119.99999432
_symmetry_Int_Tables_number   1
_chemical_formula_structural   La10RuPb6Cl
_chemical_formula_sum   'La10 Ru1 Pb6 Cl1'
_cell_volume   586.53304633
_cell_formula_units_Z   1
loop_
 _symmetry_equiv_pos_site_id
 _symmetry_equiv_pos_as_xyz
  1  'x, y, z'
loop_
 _atom_site_type_symbol
 _atom_site_label
 _atom_site_symmetry_multiplicity
 _atom_site_fract_x
 _atom_site_fract_y
 _atom_site_fract_z
 _atom_site_occupancy
  La  La0  1  0.761030  0.761030  0.733943  1
  La  La1  1  0.238970  0.000000  0.733943  1
  La  La2  1  0.000000  0.238970  0.733943  1
  La  La3  1  0.238970  0.238970  0.266057  1
  La  La4  1  0.761030  0.000000  0.266057  1
  La  La5  1  0.000000  0.761030  0.266057  1
  La  La6  1  0.666667  0.333333  0.000000  1
  La  La7  1  0.333333  0.666667  0.000000  1
  La  La8  1  0.333333  0.666667  0.500000  1
  La  La9  1  0.666667  0.333333  0.500000  1
  Ru  Ru10  1  0.000000  0.000000  0.500000  1
  Pb  Pb11  1  0.401653  0.401653  0.753138  1
  Pb  Pb12  1  0.598347  0.000000  0.753138  1
  Pb  Pb13  1  0.000000  0.598347  0.753138  1
  Pb  Pb14  1  0.598347  0.598347  0.246862  1
  Pb  Pb15  1  0.401653  0.000000  0.246862  1
  Pb  Pb16  1  0.000000  0.401653  0.246862  1
  Cl  Cl17  1  0.000000  0.000000  0.000000  1
