# generated using pymatgen
data_Y4Er8GaTc2Ni2Sn
_symmetry_space_group_name_H-M   'P 1'
_cell_length_a   8.32120194
_cell_length_b   8.32120285
_cell_length_c   8.32120300
_cell_angle_alpha   113.38685495
_cell_angle_beta   110.97078100
_cell_angle_gamma   104.19192963
_symmetry_Int_Tables_number   1
_chemical_formula_structural   Y4Er8GaTc2Ni2Sn
_chemical_formula_sum   'Y4 Er8 Ga1 Tc2 Ni2 Sn1'
_cell_volume   440.53757125
_cell_formula_units_Z   1
loop_
 _symmetry_equiv_pos_site_id
 _symmetry_equiv_pos_as_xyz
  1  'x, y, z'
loop_
 _atom_site_type_symbol
 _atom_site_label
 _atom_site_symmetry_multiplicity
 _atom_site_fract_x
 _atom_site_fract_y
 _atom_site_fract_z
 _atom_site_occupancy
  Y  Y0  1  0.046808  0.740389  0.306419  1
  Y  Y1  1  0.953192  0.259611  0.693581  1
  Y  Y2  1  0.566031  0.259611  0.306419  1
  Y  Y3  1  0.433969  0.740389  0.693581  1
  Er  Er4  1  0.667889  0.851324  0.183434  1
  Er  Er5  1  0.332111  0.515546  0.183434  1
  Er  Er6  1  0.332111  0.148676  0.816566  1
  Er  Er7  1  0.667889  0.484454  0.816566  1
  Er  Er8  1  0.178790  0.219454  0.398245  1
  Er  Er9  1  0.821210  0.219454  0.040664  1
  Er  Er10  1  0.178790  0.780546  0.959336  1
  Er  Er11  1  0.821210  0.780546  0.601755  1
  Ga  Ga12  1  0.000000  0.500000  0.500000  1
  Tc  Tc13  1  0.677351  0.500000  0.177351  1
  Tc  Tc14  1  0.322649  0.500000  0.822649  1
  Ni  Ni15  1  0.883257  0.883257  0.000000  1
  Ni  Ni16  1  0.116743  0.116743  0.000000  1
  Sn  Sn17  1  0.500000  0.000000  0.500000  1
