# generated using pymatgen
data_Lu6Pa2Re3B24Mo
_symmetry_space_group_name_H-M   'P 1'
_cell_length_a   3.66239100
_cell_length_b   9.09702487
_cell_length_c   11.45972411
_cell_angle_alpha   90.23229046
_cell_angle_beta   90.00000000
_cell_angle_gamma   90.00000000
_symmetry_Int_Tables_number   1
_chemical_formula_structural   Lu6Pa2Re3B24Mo
_chemical_formula_sum   'Lu6 Pa2 Re3 B24 Mo1'
_cell_volume   381.79890888
_cell_formula_units_Z   1
loop_
 _symmetry_equiv_pos_site_id
 _symmetry_equiv_pos_as_xyz
  1  'x, y, z'
loop_
 _atom_site_type_symbol
 _atom_site_label
 _atom_site_symmetry_multiplicity
 _atom_site_fract_x
 _atom_site_fract_y
 _atom_site_fract_z
 _atom_site_occupancy
  Lu  Lu0  1  0.000000  0.823456  0.085677  1
  Lu  Lu1  1  0.000000  0.176359  0.915011  1
  Lu  Lu2  1  0.000000  0.945299  0.371933  1
  Lu  Lu3  1  0.000000  0.055360  0.628271  1
  Lu  Lu4  1  0.000000  0.443773  0.126183  1
  Lu  Lu5  1  0.000000  0.556218  0.873233  1
  Pa  Pa6  1  0.000000  0.320269  0.413142  1
  Pa  Pa7  1  0.000000  0.679513  0.586323  1
  Re  Re8  1  0.000000  0.363089  0.677403  1
  Re  Re9  1  0.000000  0.140426  0.180578  1
  Re  Re10  1  0.000000  0.859655  0.819128  1
  B  B11  1  0.500000  0.552881  0.433795  1
  B  B12  1  0.500000  0.445657  0.567831  1
  B  B13  1  0.500000  0.053501  0.066283  1
  B  B14  1  0.500000  0.946573  0.933826  1
  B  B15  1  0.500000  0.751840  0.419914  1
  B  B16  1  0.500000  0.249374  0.581445  1
  B  B17  1  0.500000  0.249436  0.079368  1
  B  B18  1  0.500000  0.750616  0.920630  1
  B  B19  1  0.500000  0.794905  0.263394  1
  B  B20  1  0.500000  0.206809  0.735787  1
  B  B21  1  0.500000  0.292170  0.233374  1
  B  B22  1  0.500000  0.707617  0.766578  1
  B  B23  1  0.500000  0.631525  0.182429  1
  B  B24  1  0.500000  0.368451  0.816162  1
  B  B25  1  0.500000  0.130762  0.313962  1
  B  B26  1  0.500000  0.869338  0.685940  1
  B  B27  1  0.500000  0.981695  0.211437  1
  B  B28  1  0.500000  0.018626  0.788616  1
  B  B29  1  0.500000  0.480371  0.285666  1
  B  B30  1  0.500000  0.517066  0.714082  1
  B  B31  1  0.500000  0.602344  0.028047  1
  B  B32  1  0.500000  0.397551  0.971284  1
  B  B33  1  0.500000  0.105459  0.470936  1
  B  B34  1  0.500000  0.895190  0.529653  1
  Mo  Mo35  1  0.000000  0.636828  0.322680  1
