# generated using pymatgen
data_Hf3Sc(Co5P3)4
_symmetry_space_group_name_H-M   'P 1'
_cell_length_a   3.59347500
_cell_length_b   10.14389604
_cell_length_c   11.61899605
_cell_angle_alpha   90.01078807
_cell_angle_beta   90.00000000
_cell_angle_gamma   90.00000000
_symmetry_Int_Tables_number   1
_chemical_formula_structural   Hf3Sc(Co5P3)4
_chemical_formula_sum   'Hf3 Sc1 Co20 P12'
_cell_volume   423.53374081
_cell_formula_units_Z   1
loop_
 _symmetry_equiv_pos_site_id
 _symmetry_equiv_pos_as_xyz
  1  'x, y, z'
loop_
 _atom_site_type_symbol
 _atom_site_label
 _atom_site_symmetry_multiplicity
 _atom_site_fract_x
 _atom_site_fract_y
 _atom_site_fract_z
 _atom_site_occupancy
  Hf  Hf0  1  0.250000  0.581106  0.702548  1
  Hf  Hf1  1  0.250000  0.918907  0.202557  1
  Hf  Hf2  1  0.750000  0.419004  0.297345  1
  Sc  Sc3  1  0.750000  0.081299  0.797278  1
  Co  Co4  1  0.250000  0.720380  0.993916  1
  Co  Co5  1  0.250000  0.779819  0.492843  1
  Co  Co6  1  0.750000  0.280671  0.006355  1
  Co  Co7  1  0.750000  0.220024  0.506049  1
  Co  Co8  1  0.250000  0.409676  0.484742  1
  Co  Co9  1  0.250000  0.090607  0.987088  1
  Co  Co10  1  0.750000  0.590899  0.515074  1
  Co  Co11  1  0.750000  0.908041  0.015603  1
  Co  Co12  1  0.250000  0.224129  0.178946  1
  Co  Co13  1  0.250000  0.277961  0.677403  1
  Co  Co14  1  0.750000  0.775990  0.822353  1
  Co  Co15  1  0.750000  0.723720  0.321498  1
  Co  Co16  1  0.250000  0.881988  0.700011  1
  Co  Co17  1  0.250000  0.615877  0.201153  1
  Co  Co18  1  0.750000  0.115828  0.298688  1
  Co  Co19  1  0.750000  0.384766  0.799235  1
  Co  Co20  1  0.250000  0.466987  0.930223  1
  Co  Co21  1  0.250000  0.033052  0.429949  1
  Co  Co22  1  0.750000  0.532906  0.070121  1
  Co  Co23  1  0.750000  0.966607  0.568941  1
  P  P24  1  0.250000  0.419146  0.114567  1
  P  P25  1  0.250000  0.080476  0.615156  1
  P  P26  1  0.750000  0.580696  0.885449  1
  P  P27  1  0.750000  0.919214  0.385360  1
  P  P28  1  0.250000  0.265186  0.869261  1
  P  P29  1  0.250000  0.234078  0.369952  1
  P  P30  1  0.750000  0.733836  0.130344  1
  P  P31  1  0.750000  0.766345  0.630617  1
  P  P32  1  0.250000  0.599552  0.389338  1
  P  P33  1  0.250000  0.901356  0.888979  1
  P  P34  1  0.750000  0.400413  0.611012  1
  P  P35  1  0.750000  0.099459  0.110048  1
