# generated using pymatgen
data_AlGa2(FeRh2)3
_symmetry_space_group_name_H-M   'P 1'
_cell_length_a   4.27306800
_cell_length_b   6.03037800
_cell_length_c   12.81330000
_cell_angle_alpha   89.99990331
_cell_angle_beta   90.00002682
_cell_angle_gamma   89.99991227
_symmetry_Int_Tables_number   1
_chemical_formula_structural   AlGa2(FeRh2)3
_chemical_formula_sum   'Al2 Ga4 Fe6 Rh12'
_cell_volume   330.17587259
_cell_formula_units_Z   2
loop_
 _symmetry_equiv_pos_site_id
 _symmetry_equiv_pos_as_xyz
  1  'x, y, z'
loop_
 _atom_site_type_symbol
 _atom_site_label
 _atom_site_symmetry_multiplicity
 _atom_site_fract_x
 _atom_site_fract_y
 _atom_site_fract_z
 _atom_site_occupancy
  Al  Al0  1  0.000276  0.999995  0.666717  1
  Al  Al1  1  0.500310  0.499999  0.833191  1
  Ga  Ga2  1  0.999996  0.000004  0.999876  1
  Ga  Ga3  1  0.499697  0.499999  0.166605  1
  Ga  Ga4  1  0.999728  0.999999  0.333456  1
  Ga  Ga5  1  0.499996  0.500005  0.500149  1
  Fe  Fe6  1  0.999997  0.500002  0.999647  1
  Fe  Fe7  1  0.499554  0.000000  0.166796  1
  Fe  Fe8  1  0.999556  0.500000  0.333284  1
  Fe  Fe9  1  0.500000  0.000001  0.500337  1
  Fe  Fe10  1  0.000435  0.500000  0.667047  1
  Fe  Fe11  1  0.500440  0.000000  0.832884  1
  Rh  Rh12  1  0.500004  0.250961  0.999175  1
  Rh  Rh13  1  0.500005  0.749038  0.999176  1
  Rh  Rh14  1  0.999578  0.249901  0.166625  1
  Rh  Rh15  1  0.999580  0.750102  0.166622  1
  Rh  Rh16  1  0.499594  0.250186  0.333460  1
  Rh  Rh17  1  0.499594  0.749814  0.333456  1
  Rh  Rh18  1  0.000003  0.249077  0.500815  1
  Rh  Rh19  1  0.000005  0.750926  0.500816  1
  Rh  Rh20  1  0.500407  0.249378  0.667293  1
  Rh  Rh21  1  0.500407  0.750622  0.667296  1
  Rh  Rh22  1  0.000420  0.250677  0.832638  1
  Rh  Rh23  1  0.000420  0.749324  0.832639  1
