# generated using pymatgen
data_La8Cd2IrPd
_symmetry_space_group_name_H-M   'P 1'
_cell_length_a   10.17903684
_cell_length_b   10.17903702
_cell_length_c   10.15977000
_cell_angle_alpha   60.06259404
_cell_angle_beta   60.06259347
_cell_angle_gamma   60.24760704
_symmetry_Int_Tables_number   1
_chemical_formula_structural   La8Cd2IrPd
_chemical_formula_sum   'La16 Cd4 Ir2 Pd2'
_cell_volume   746.44901035
_cell_formula_units_Z   2
loop_
 _symmetry_equiv_pos_site_id
 _symmetry_equiv_pos_as_xyz
  1  'x, y, z'
loop_
 _atom_site_type_symbol
 _atom_site_label
 _atom_site_symmetry_multiplicity
 _atom_site_fract_x
 _atom_site_fract_y
 _atom_site_fract_z
 _atom_site_occupancy
  La  La0  1  0.599859  0.599859  0.593722  1
  La  La1  1  0.599859  0.599859  0.206560  1
  La  La2  1  0.604543  0.200773  0.597342  1
  La  La3  1  0.200773  0.604543  0.597342  1
  La  La4  1  0.054191  0.441098  0.440655  1
  La  La5  1  0.441098  0.054191  0.064055  1
  La  La6  1  0.441098  0.054191  0.440655  1
  La  La7  1  0.054191  0.441098  0.064055  1
  La  La8  1  0.442568  0.442568  0.057432  1
  La  La9  1  0.060382  0.060382  0.439618  1
  La  La10  1  0.188756  0.813972  0.810685  1
  La  La11  1  0.813972  0.188756  0.186586  1
  La  La12  1  0.813972  0.188756  0.810685  1
  La  La13  1  0.188756  0.813972  0.186586  1
  La  La14  1  0.811549  0.811549  0.188451  1
  La  La15  1  0.186909  0.186909  0.813091  1
  Cd  Cd16  1  0.829859  0.829859  0.829737  1
  Cd  Cd17  1  0.829859  0.829859  0.510545  1
  Cd  Cd18  1  0.829694  0.510546  0.829879  1
  Cd  Cd19  1  0.510546  0.829694  0.829879  1
  Ir  Ir20  1  0.391028  0.823815  0.392579  1
  Ir  Ir21  1  0.823815  0.391028  0.392579  1
  Pd  Pd22  1  0.391361  0.391361  0.393843  1
  Pd  Pd23  1  0.391361  0.391361  0.823436  1
