# generated using pymatgen
data_Cs4NiP4Pt
_symmetry_space_group_name_H-M   'P 1'
_cell_length_a   8.20641819
_cell_length_b   8.20641741
_cell_length_c   6.12646827
_cell_angle_alpha   88.78478397
_cell_angle_beta   91.21521393
_cell_angle_gamma   129.90979458
_symmetry_Int_Tables_number   1
_chemical_formula_structural   Cs4NiP4Pt
_chemical_formula_sum   'Cs4 Ni1 P4 Pt1'
_cell_volume   316.39178030
_cell_formula_units_Z   1
loop_
 _symmetry_equiv_pos_site_id
 _symmetry_equiv_pos_as_xyz
  1  'x, y, z'
loop_
 _atom_site_type_symbol
 _atom_site_label
 _atom_site_symmetry_multiplicity
 _atom_site_fract_x
 _atom_site_fract_y
 _atom_site_fract_z
 _atom_site_occupancy
  Cs  Cs0  1  0.787060  0.212940  0.250679  1
  Cs  Cs1  1  0.212940  0.787060  0.749321  1
  Cs  Cs2  1  0.416358  0.583642  0.248793  1
  Cs  Cs3  1  0.583642  0.416358  0.751207  1
  Ni  Ni4  1  0.000000  0.000000  0.000000  1
  P  P5  1  0.936376  0.748916  0.234837  1
  P  P6  1  0.063624  0.251084  0.765163  1
  P  P7  1  0.251084  0.063624  0.234837  1
  P  P8  1  0.748916  0.936376  0.765163  1
  Pt  Pt9  1  0.000000  0.000000  0.500000  1
