# generated using pymatgen
data_Pr3Nd3FeCo17P12
_symmetry_space_group_name_H-M   'P 1'
_cell_length_a   3.77116600
_cell_length_b   10.65505042
_cell_length_c   12.37557749
_cell_angle_alpha   89.96786805
_cell_angle_beta   90.00000000
_cell_angle_gamma   90.00000000
_symmetry_Int_Tables_number   1
_chemical_formula_structural   Pr3Nd3FeCo17P12
_chemical_formula_sum   'Pr3 Nd3 Fe1 Co17 P12'
_cell_volume   497.27492921
_cell_formula_units_Z   1
loop_
 _symmetry_equiv_pos_site_id
 _symmetry_equiv_pos_as_xyz
  1  'x, y, z'
loop_
 _atom_site_type_symbol
 _atom_site_label
 _atom_site_symmetry_multiplicity
 _atom_site_fract_x
 _atom_site_fract_y
 _atom_site_fract_z
 _atom_site_occupancy
  Pr  Pr0  1  0.000000  0.500125  0.520421  1
  Pr  Pr1  1  0.500000  0.999925  0.478851  1
  Pr  Pr2  1  0.000000  0.317503  0.794437  1
  Nd  Nd3  1  0.500000  0.817592  0.205937  1
  Nd  Nd4  1  0.500000  0.182310  0.205811  1
  Nd  Nd5  1  0.000000  0.682886  0.794601  1
  Fe  Fe6  1  0.500000  0.500058  0.154938  1
  Co  Co7  1  0.000000  0.999837  0.843917  1
  Co  Co8  1  0.500000  0.500680  0.704596  1
  Co  Co9  1  0.000000  0.999938  0.295083  1
  Co  Co10  1  0.000000  0.500315  0.987713  1
  Co  Co11  1  0.500000  0.999687  0.012354  1
  Co  Co12  1  0.500000  0.333168  0.996337  1
  Co  Co13  1  0.500000  0.667149  0.996099  1
  Co  Co14  1  0.000000  0.166153  0.004551  1
  Co  Co15  1  0.000000  0.833594  0.004345  1
  Co  Co16  1  0.500000  0.296968  0.429682  1
  Co  Co17  1  0.500000  0.703068  0.429991  1
  Co  Co18  1  0.000000  0.202683  0.569900  1
  Co  Co19  1  0.000000  0.797109  0.570343  1
  Co  Co20  1  0.500000  0.881683  0.711595  1
  Co  Co21  1  0.500000  0.117754  0.711270  1
  Co  Co22  1  0.000000  0.619089  0.288552  1
  Co  Co23  1  0.000000  0.380914  0.288431  1
  P  P24  1  0.500000  0.500653  0.886922  1
  P  P25  1  0.000000  0.999840  0.113732  1
  P  P26  1  0.500000  0.499963  0.337321  1
  P  P27  1  0.000000  0.999962  0.661807  1
  P  P28  1  0.500000  0.305123  0.613580  1
  P  P29  1  0.500000  0.694790  0.614456  1
  P  P30  1  0.000000  0.194959  0.385606  1
  P  P31  1  0.000000  0.804953  0.385823  1
  P  P32  1  0.500000  0.848256  0.895628  1
  P  P33  1  0.500000  0.151196  0.896044  1
  P  P34  1  0.000000  0.651714  0.104724  1
  P  P35  1  0.000000  0.348404  0.104603  1
