# generated using pymatgen
data_LiEr3In4Ru
_symmetry_space_group_name_H-M   'P 1'
_cell_length_a   8.12486100
_cell_length_b   8.12485936
_cell_length_c   3.59109200
_cell_angle_alpha   90.00000000
_cell_angle_beta   90.00000000
_cell_angle_gamma   119.99999446
_symmetry_Int_Tables_number   1
_chemical_formula_structural   LiEr3In4Ru
_chemical_formula_sum   'Li1 Er3 In4 Ru1'
_cell_volume   205.30001414
_cell_formula_units_Z   1
loop_
 _symmetry_equiv_pos_site_id
 _symmetry_equiv_pos_as_xyz
  1  'x, y, z'
loop_
 _atom_site_type_symbol
 _atom_site_label
 _atom_site_symmetry_multiplicity
 _atom_site_fract_x
 _atom_site_fract_y
 _atom_site_fract_z
 _atom_site_occupancy
  Li  Li0  1  0.666667  0.333333  0.500000  1
  Er  Er1  1  0.710182  0.953603  0.500000  1
  Er  Er2  1  0.243422  0.289818  0.500000  1
  Er  Er3  1  0.046397  0.756578  0.500000  1
  In  In4  1  0.933119  0.336090  0.000000  1
  In  In5  1  0.402972  0.066881  0.000000  1
  In  In6  1  0.663910  0.597028  0.000000  1
  In  In7  1  0.333333  0.666667  0.000000  1
  Ru  Ru8  1  0.000000  0.000000  0.000000  1
