# generated using pymatgen
data_Y12Al2Ni3Ru
_symmetry_space_group_name_H-M   'P 1'
_cell_length_a   8.38350345
_cell_length_b   8.38350348
_cell_length_c   8.38350349
_cell_angle_alpha   112.23796766
_cell_angle_beta   110.03940481
_cell_angle_gamma   106.19334348
_symmetry_Int_Tables_number   1
_chemical_formula_structural   Y12Al2Ni3Ru
_chemical_formula_sum   'Y12 Al2 Ni3 Ru1'
_cell_volume   452.29839397
_cell_formula_units_Z   1
loop_
 _symmetry_equiv_pos_site_id
 _symmetry_equiv_pos_as_xyz
  1  'x, y, z'
loop_
 _atom_site_type_symbol
 _atom_site_label
 _atom_site_symmetry_multiplicity
 _atom_site_fract_x
 _atom_site_fract_y
 _atom_site_fract_z
 _atom_site_occupancy
  Y  Y0  1  0.052097  0.746367  0.305729  1
  Y  Y1  1  0.959015  0.265368  0.693648  1
  Y  Y2  1  0.559362  0.253633  0.305729  1
  Y  Y3  1  0.428281  0.734632  0.693648  1
  Y  Y4  1  0.675832  0.864089  0.191339  1
  Y  Y5  1  0.327249  0.515507  0.191339  1
  Y  Y6  1  0.327249  0.135911  0.811743  1
  Y  Y7  1  0.675832  0.484493  0.811743  1
  Y  Y8  1  0.177632  0.221678  0.399309  1
  Y  Y9  1  0.815773  0.219337  0.035111  1
  Y  Y10  1  0.177632  0.778322  0.955953  1
  Y  Y11  1  0.815773  0.780663  0.596434  1
  Al  Al12  1  0.986562  0.500000  0.486562  1
  Al  Al13  1  0.504471  0.000000  0.504471  1
  Ni  Ni14  1  0.341317  0.500000  0.841317  1
  Ni  Ni15  1  0.883450  0.882829  0.000620  1
  Ni  Ni16  1  0.117790  0.117171  0.000620  1
  Ru  Ru17  1  0.674685  0.500000  0.174685  1
