# generated using pymatgen
data_Li2PrAgP2
_symmetry_space_group_name_H-M   'P 1'
_cell_length_a   4.26325200
_cell_length_b   4.26325204
_cell_length_c   6.89085400
_cell_angle_alpha   90.00000000
_cell_angle_beta   90.00000000
_cell_angle_gamma   120.00001523
_symmetry_Int_Tables_number   1
_chemical_formula_structural   Li2PrAgP2
_chemical_formula_sum   'Li2 Pr1 Ag1 P2'
_cell_volume   108.46400239
_cell_formula_units_Z   1
loop_
 _symmetry_equiv_pos_site_id
 _symmetry_equiv_pos_as_xyz
  1  'x, y, z'
loop_
 _atom_site_type_symbol
 _atom_site_label
 _atom_site_symmetry_multiplicity
 _atom_site_fract_x
 _atom_site_fract_y
 _atom_site_fract_z
 _atom_site_occupancy
  Li  Li0  1  0.000000  0.000000  0.514411  1
  Li  Li1  1  0.333333  0.666667  0.646123  1
  Pr  Pr2  1  0.000000  0.000000  0.003940  1
  Ag  Ag3  1  0.666667  0.333333  0.354192  1
  P  P4  1  0.333333  0.666667  0.241620  1
  P  P5  1  0.666667  0.333333  0.739714  1
