# generated using pymatgen
data_Tb4Ta4Co16Si7P5
_symmetry_space_group_name_H-M   'P 1'
_cell_length_a   3.73219700
_cell_length_b   10.64235210
_cell_length_c   12.20574612
_cell_angle_alpha   90.01612723
_cell_angle_beta   90.00000000
_cell_angle_gamma   90.00000000
_symmetry_Int_Tables_number   1
_chemical_formula_structural   Tb4Ta4Co16Si7P5
_chemical_formula_sum   'Tb4 Ta4 Co16 Si7 P5'
_cell_volume   484.80433914
_cell_formula_units_Z   1
loop_
 _symmetry_equiv_pos_site_id
 _symmetry_equiv_pos_as_xyz
  1  'x, y, z'
loop_
 _atom_site_type_symbol
 _atom_site_label
 _atom_site_symmetry_multiplicity
 _atom_site_fract_x
 _atom_site_fract_y
 _atom_site_fract_z
 _atom_site_occupancy
  Tb  Tb0  1  0.250000  0.580129  0.704638  1
  Tb  Tb1  1  0.250000  0.923090  0.204775  1
  Tb  Tb2  1  0.750000  0.423601  0.295708  1
  Tb  Tb3  1  0.750000  0.077147  0.795580  1
  Ta  Ta4  1  0.250000  0.700627  0.991939  1
  Ta  Ta5  1  0.250000  0.798708  0.494280  1
  Ta  Ta6  1  0.750000  0.299601  0.007337  1
  Ta  Ta7  1  0.750000  0.200679  0.507973  1
  Co  Co8  1  0.250000  0.410527  0.488830  1
  Co  Co9  1  0.250000  0.090426  0.988060  1
  Co  Co10  1  0.750000  0.593395  0.513785  1
  Co  Co11  1  0.750000  0.908559  0.009383  1
  Co  Co12  1  0.250000  0.213966  0.168500  1
  Co  Co13  1  0.250000  0.285320  0.668549  1
  Co  Co14  1  0.750000  0.783759  0.826457  1
  Co  Co15  1  0.750000  0.714343  0.332103  1
  Co  Co16  1  0.250000  0.880212  0.703318  1
  Co  Co17  1  0.250000  0.619024  0.203846  1
  Co  Co18  1  0.750000  0.117627  0.296327  1
  Co  Co19  1  0.750000  0.381785  0.795802  1
  Co  Co20  1  0.250000  0.463836  0.932826  1
  Co  Co21  1  0.250000  0.034897  0.434064  1
  Co  Co22  1  0.750000  0.536086  0.067204  1
  Co  Co23  1  0.750000  0.961620  0.569080  1
  Si  Si24  1  0.250000  0.424105  0.117431  1
  Si  Si25  1  0.250000  0.076391  0.617638  1
  Si  Si26  1  0.750000  0.574998  0.882929  1
  Si  Si27  1  0.750000  0.923490  0.383192  1
  Si  Si28  1  0.250000  0.269684  0.855374  1
  Si  Si29  1  0.250000  0.230220  0.355937  1
  Si  Si30  1  0.750000  0.730687  0.144315  1
  P  P31  1  0.750000  0.770116  0.642978  1
  P  P32  1  0.250000  0.593702  0.390676  1
  P  P33  1  0.250000  0.907028  0.890544  1
  P  P34  1  0.750000  0.407701  0.609686  1
  P  P35  1  0.750000  0.092912  0.108934  1
