# generated using pymatgen
data_DyHo19Ir11Os
_symmetry_space_group_name_H-M   'P 1'
_cell_length_a   10.82951700
_cell_length_b   10.82908401
_cell_length_c   6.37861000
_cell_angle_alpha   89.99640460
_cell_angle_beta   90.00181193
_cell_angle_gamma   89.99902652
_symmetry_Int_Tables_number   1
_chemical_formula_structural   DyHo19Ir11Os
_chemical_formula_sum   'Dy1 Ho19 Ir11 Os1'
_cell_volume   748.04350887
_cell_formula_units_Z   1
loop_
 _symmetry_equiv_pos_site_id
 _symmetry_equiv_pos_as_xyz
  1  'x, y, z'
loop_
 _atom_site_type_symbol
 _atom_site_label
 _atom_site_symmetry_multiplicity
 _atom_site_fract_x
 _atom_site_fract_y
 _atom_site_fract_z
 _atom_site_occupancy
  Dy  Dy0  1  0.292232  0.087085  0.375604  1
  Ho  Ho1  1  0.293045  0.912964  0.879500  1
  Ho  Ho2  1  0.706962  0.086968  0.879535  1
  Ho  Ho3  1  0.707462  0.913008  0.375833  1
  Ho  Ho4  1  0.586977  0.793038  0.879503  1
  Ho  Ho5  1  0.587138  0.207456  0.375782  1
  Ho  Ho6  1  0.413026  0.792475  0.375799  1
  Ho  Ho7  1  0.413105  0.207003  0.879520  1
  Ho  Ho8  1  0.208923  0.412019  0.622189  1
  Ho  Ho9  1  0.208856  0.587793  0.121874  1
  Ho  Ho10  1  0.791148  0.412207  0.121858  1
  Ho  Ho11  1  0.791068  0.587998  0.622151  1
  Ho  Ho12  1  0.912244  0.708892  0.121872  1
  Ho  Ho13  1  0.912019  0.291054  0.622125  1
  Ho  Ho14  1  0.087996  0.708938  0.622168  1
  Ho  Ho15  1  0.087695  0.291210  0.121726  1
  Ho  Ho16  1  0.999885  0.999935  0.499552  1
  Ho  Ho17  1  0.000007  0.999990  0.999414  1
  Ho  Ho18  1  0.499981  0.499985  0.999428  1
  Ho  Ho19  1  0.500011  0.499981  0.499519  1
  Ir  Ir20  1  0.847520  0.153903  0.250298  1
  Ir  Ir21  1  0.847542  0.846414  0.749853  1
  Ir  Ir22  1  0.152310  0.153681  0.750338  1
  Ir  Ir23  1  0.152384  0.845904  0.250172  1
  Ir  Ir24  1  0.653603  0.347540  0.749858  1
  Ir  Ir25  1  0.653878  0.652470  0.250284  1
  Ir  Ir26  1  0.346169  0.347796  0.250162  1
  Ir  Ir27  1  0.346409  0.652458  0.749856  1
  Ir  Ir28  1  0.500247  0.999911  0.622737  1
  Ir  Ir29  1  0.999983  0.499998  0.878655  1
  Ir  Ir30  1  0.999994  0.500015  0.378952  1
  Os  Os31  1  0.500185  0.999911  0.123882  1
