# generated using pymatgen
data_Sm8Tm3Lu9Pb16
_symmetry_space_group_name_H-M   'P 1'
_cell_length_a   8.18220512
_cell_length_b   8.26676912
_cell_length_c   15.56982601
_cell_angle_alpha   89.99639874
_cell_angle_beta   90.00292414
_cell_angle_gamma   89.98042420
_symmetry_Int_Tables_number   1
_chemical_formula_structural   Sm8Tm3Lu9Pb16
_chemical_formula_sum   'Sm8 Tm3 Lu9 Pb16'
_cell_volume   1053.14920502
_cell_formula_units_Z   1
loop_
 _symmetry_equiv_pos_site_id
 _symmetry_equiv_pos_as_xyz
  1  'x, y, z'
loop_
 _atom_site_type_symbol
 _atom_site_label
 _atom_site_symmetry_multiplicity
 _atom_site_fract_x
 _atom_site_fract_y
 _atom_site_fract_z
 _atom_site_occupancy
  Sm  Sm0  1  0.467328  0.677675  0.598657  1
  Sm  Sm1  1  0.967388  0.822391  0.901359  1
  Sm  Sm2  1  0.532634  0.322401  0.098654  1
  Sm  Sm3  1  0.032647  0.177691  0.401363  1
  Sm  Sm4  1  0.532656  0.322339  0.401254  1
  Sm  Sm5  1  0.032555  0.177732  0.098740  1
  Sm  Sm6  1  0.467417  0.677716  0.901273  1
  Sm  Sm7  1  0.967381  0.822224  0.598619  1
  Tm  Tm8  1  0.627180  0.158534  0.622062  1
  Tm  Tm9  1  0.127175  0.341481  0.877917  1
  Tm  Tm10  1  0.372780  0.841437  0.122107  1
  Lu  Lu11  1  0.872803  0.658492  0.377889  1
  Lu  Lu12  1  0.372779  0.841580  0.377951  1
  Lu  Lu13  1  0.872747  0.658459  0.122081  1
  Lu  Lu14  1  0.627227  0.158474  0.877929  1
  Lu  Lu15  1  0.127248  0.341516  0.622087  1
  Lu  Lu16  1  0.794870  0.493876  0.750008  1
  Lu  Lu17  1  0.294867  0.006183  0.749983  1
  Lu  Lu18  1  0.205029  0.506198  0.250080  1
  Lu  Lu19  1  0.705219  0.993684  0.250050  1
  Pb  Pb20  1  0.712170  0.962272  0.456635  1
  Pb  Pb21  1  0.212012  0.537381  0.043311  1
  Pb  Pb22  1  0.288008  0.037369  0.956707  1
  Pb  Pb23  1  0.788089  0.462812  0.543119  1
  Pb  Pb24  1  0.287603  0.037439  0.543113  1
  Pb  Pb25  1  0.787615  0.462552  0.956876  1
  Pb  Pb26  1  0.712399  0.962551  0.043122  1
  Pb  Pb27  1  0.212088  0.537531  0.456833  1
  Pb  Pb28  1  0.432287  0.370863  0.750037  1
  Pb  Pb29  1  0.932210  0.129119  0.749955  1
  Pb  Pb30  1  0.567925  0.629098  0.250102  1
  Pb  Pb31  1  0.067616  0.870743  0.250063  1
  Pb  Pb32  1  0.657069  0.847944  0.750055  1
  Pb  Pb33  1  0.157066  0.652042  0.749945  1
  Pb  Pb34  1  0.342962  0.152082  0.250059  1
  Pb  Pb35  1  0.842949  0.348121  0.250005  1
