# generated using pymatgen
data_Pa4Al24(Co2Pt)3
_symmetry_space_group_name_H-M   'P 1'
_cell_length_a   7.46008688
_cell_length_b   7.49428365
_cell_length_c   12.87256663
_cell_angle_alpha   84.41303580
_cell_angle_beta   78.86235728
_cell_angle_gamma   59.59519296
_symmetry_Int_Tables_number   1
_chemical_formula_structural   Pa4Al24(Co2Pt)3
_chemical_formula_sum   'Pa4 Al24 Co6 Pt3'
_cell_volume   609.01248119
_cell_formula_units_Z   1
loop_
 _symmetry_equiv_pos_site_id
 _symmetry_equiv_pos_as_xyz
  1  'x, y, z'
loop_
 _atom_site_type_symbol
 _atom_site_label
 _atom_site_symmetry_multiplicity
 _atom_site_fract_x
 _atom_site_fract_y
 _atom_site_fract_z
 _atom_site_occupancy
  Pa  Pa0  1  0.389983  0.171660  0.805338  1
  Pa  Pa1  1  0.608014  0.832059  0.197255  1
  Pa  Pa2  1  0.738843  0.497910  0.805766  1
  Pa  Pa3  1  0.262711  0.497874  0.198825  1
  Al  Al4  1  0.679626  0.833814  0.950545  1
  Al  Al5  1  0.320604  0.166149  0.051154  1
  Al  Al6  1  0.146054  0.828498  0.560823  1
  Al  Al7  1  0.851537  0.170176  0.435866  1
  Al  Al8  1  0.477798  0.172963  0.550130  1
  Al  Al9  1  0.526458  0.833739  0.439614  1
  Al  Al10  1  0.209235  0.174902  0.336972  1
  Al  Al11  1  0.798587  0.823859  0.667013  1
  Al  Al12  1  0.423544  0.510817  0.667396  1
  Al  Al13  1  0.575176  0.479844  0.333369  1
  Al  Al14  1  0.111956  0.164111  0.663200  1
  Al  Al15  1  0.878640  0.847525  0.337284  1
  Al  Al16  1  0.354239  0.496328  0.950507  1
  Al  Al17  1  0.644390  0.504482  0.052531  1
  Al  Al18  1  0.011137  0.169944  0.965425  1
  Al  Al19  1  0.987440  0.828853  0.038281  1
  Al  Al20  1  0.184568  0.495148  0.446963  1
  Al  Al21  1  0.823754  0.498768  0.549841  1
  Al  Al22  1  0.732890  0.163041  0.179333  1
  Al  Al23  1  0.261671  0.837573  0.826267  1
  Al  Al24  1  0.059912  0.628343  0.819642  1
  Al  Al25  1  0.940542  0.371675  0.180519  1
  Al  Al26  1  0.851406  0.043466  0.826647  1
  Al  Al27  1  0.148377  0.957018  0.173145  1
  Co  Co28  1  0.118343  0.486279  0.646371  1
  Co  Co29  1  0.882503  0.515167  0.352116  1
  Co  Co30  1  0.653143  0.173212  0.001278  1
  Co  Co31  1  0.347739  0.826953  0.998607  1
  Co  Co32  1  0.534136  0.168583  0.353084  1
  Co  Co33  1  0.000246  0.499107  0.998797  1
  Pt  Pt34  1  0.464278  0.831167  0.641394  1
  Pt  Pt35  1  0.776162  0.175430  0.640540  1
  Pt  Pt36  1  0.224360  0.823565  0.358162  1
