# generated using pymatgen
data_CeSm7(Si3Pd)4
_symmetry_space_group_name_H-M   'P 1'
_cell_length_a   8.22334600
_cell_length_b   8.22334157
_cell_length_c   8.38112700
_cell_angle_alpha   90.00000000
_cell_angle_beta   90.00000000
_cell_angle_gamma   120.00000282
_symmetry_Int_Tables_number   1
_chemical_formula_structural   CeSm7(Si3Pd)4
_chemical_formula_sum   'Ce1 Sm7 Si12 Pd4'
_cell_volume   490.82868337
_cell_formula_units_Z   1
loop_
 _symmetry_equiv_pos_site_id
 _symmetry_equiv_pos_as_xyz
  1  'x, y, z'
loop_
 _atom_site_type_symbol
 _atom_site_label
 _atom_site_symmetry_multiplicity
 _atom_site_fract_x
 _atom_site_fract_y
 _atom_site_fract_z
 _atom_site_occupancy
  Ce  Ce0  1  0.000000  0.000000  0.750000  1
  Sm  Sm1  1  0.499954  0.999907  0.250000  1
  Sm  Sm2  1  0.500037  0.000074  0.750000  1
  Sm  Sm3  1  0.000093  0.500046  0.250000  1
  Sm  Sm4  1  0.999926  0.499963  0.750000  1
  Sm  Sm5  1  0.499954  0.500046  0.250000  1
  Sm  Sm6  1  0.500037  0.499963  0.750000  1
  Sm  Sm7  1  0.000000  0.000000  0.250000  1
  Si  Si8  1  0.165389  0.330779  0.998713  1
  Si  Si9  1  0.834611  0.669222  0.999256  1
  Si  Si10  1  0.669221  0.834611  0.998713  1
  Si  Si11  1  0.834611  0.669222  0.500744  1
  Si  Si12  1  0.330778  0.165389  0.999256  1
  Si  Si13  1  0.165389  0.330779  0.501287  1
  Si  Si14  1  0.165389  0.834611  0.998713  1
  Si  Si15  1  0.330778  0.165389  0.500744  1
  Si  Si16  1  0.834611  0.165389  0.999256  1
  Si  Si17  1  0.669221  0.834611  0.501287  1
  Si  Si18  1  0.834611  0.165389  0.500744  1
  Si  Si19  1  0.165389  0.834611  0.501287  1
  Pd  Pd20  1  0.333333  0.666667  0.001375  1
  Pd  Pd21  1  0.666667  0.333333  0.001098  1
  Pd  Pd22  1  0.666667  0.333333  0.498902  1
  Pd  Pd23  1  0.333333  0.666667  0.498625  1
