# generated using pymatgen
data_La3Y9Tc4
_symmetry_space_group_name_H-M   'P 1'
_cell_length_a   6.46640619
_cell_length_b   7.45042790
_cell_length_c   9.41103200
_cell_angle_alpha   90.00000000
_cell_angle_beta   90.00000000
_cell_angle_gamma   90.27487750
_symmetry_Int_Tables_number   1
_chemical_formula_structural   La3Y9Tc4
_chemical_formula_sum   'La3 Y9 Tc4'
_cell_volume   453.39471160
_cell_formula_units_Z   1
loop_
 _symmetry_equiv_pos_site_id
 _symmetry_equiv_pos_as_xyz
  1  'x, y, z'
loop_
 _atom_site_type_symbol
 _atom_site_label
 _atom_site_symmetry_multiplicity
 _atom_site_fract_x
 _atom_site_fract_y
 _atom_site_fract_z
 _atom_site_occupancy
  La  La0  1  0.130965  0.057542  0.250000  1
  La  La1  1  0.367845  0.554858  0.250000  1
  La  La2  1  0.636341  0.446040  0.750000  1
  Y  Y3  1  0.835931  0.678253  0.064410  1
  Y  Y4  1  0.665798  0.170442  0.064302  1
  Y  Y5  1  0.162865  0.326381  0.931676  1
  Y  Y6  1  0.333725  0.827869  0.569195  1
  Y  Y7  1  0.870558  0.955444  0.750000  1
  Y  Y8  1  0.162865  0.326381  0.568324  1
  Y  Y9  1  0.665798  0.170442  0.435698  1
  Y  Y10  1  0.333725  0.827869  0.930805  1
  Y  Y11  1  0.835931  0.678253  0.435590  1
  Tc  Tc12  1  0.519085  0.870840  0.250000  1
  Tc  Tc13  1  0.472359  0.123387  0.750000  1
  Tc  Tc14  1  0.025316  0.614899  0.750000  1
  Tc  Tc15  1  0.980893  0.371104  0.250000  1
