# generated using pymatgen
data_Hf4MgRe24
_symmetry_space_group_name_H-M   'P 1'
_cell_length_a   8.46525610
_cell_length_b   8.46525555
_cell_length_c   8.46525600
_cell_angle_alpha   109.47122171
_cell_angle_beta   109.47122040
_cell_angle_gamma   109.47122218
_symmetry_Int_Tables_number   1
_chemical_formula_structural   Hf4MgRe24
_chemical_formula_sum   'Hf4 Mg1 Re24'
_cell_volume   466.98009285
_cell_formula_units_Z   1
loop_
 _symmetry_equiv_pos_site_id
 _symmetry_equiv_pos_as_xyz
  1  'x, y, z'
loop_
 _atom_site_type_symbol
 _atom_site_label
 _atom_site_symmetry_multiplicity
 _atom_site_fract_x
 _atom_site_fract_y
 _atom_site_fract_z
 _atom_site_occupancy
  Hf  Hf0  1  0.633186  0.000000  0.000000  1
  Hf  Hf1  1  0.000000  0.633186  0.000000  1
  Hf  Hf2  1  0.000000  0.000000  0.633186  1
  Hf  Hf3  1  0.366814  0.366814  0.366814  1
  Mg  Mg4  1  0.000000  0.000000  0.000000  1
  Re  Re5  1  0.395518  0.675864  0.000000  1
  Re  Re6  1  0.719655  0.324136  0.324136  1
  Re  Re7  1  0.395518  0.000000  0.675864  1
  Re  Re8  1  0.675864  0.395518  0.000000  1
  Re  Re9  1  0.000000  0.395518  0.675864  1
  Re  Re10  1  0.324136  0.719655  0.324136  1
  Re  Re11  1  0.324136  0.324136  0.719655  1
  Re  Re12  1  0.000000  0.675864  0.395518  1
  Re  Re13  1  0.675864  0.000000  0.395518  1
  Re  Re14  1  0.604482  0.604482  0.280345  1
  Re  Re15  1  0.280345  0.604482  0.604482  1
  Re  Re16  1  0.604482  0.280345  0.604482  1
  Re  Re17  1  0.375353  0.192847  0.000000  1
  Re  Re18  1  0.182506  0.807153  0.807153  1
  Re  Re19  1  0.375353  0.000000  0.192847  1
  Re  Re20  1  0.192847  0.375353  0.000000  1
  Re  Re21  1  0.000000  0.375353  0.192847  1
  Re  Re22  1  0.807153  0.182506  0.807153  1
  Re  Re23  1  0.807153  0.807153  0.182506  1
  Re  Re24  1  0.000000  0.192847  0.375353  1
  Re  Re25  1  0.192847  0.000000  0.375353  1
  Re  Re26  1  0.624647  0.624647  0.817494  1
  Re  Re27  1  0.817494  0.624647  0.624647  1
  Re  Re28  1  0.624647  0.817494  0.624647  1
