# generated using pymatgen
data_Dy3Lu2InBi2
_symmetry_space_group_name_H-M   'P 1'
_cell_length_a   6.48024204
_cell_length_b   9.02925781
_cell_length_c   9.02195266
_cell_angle_alpha   120.02679873
_cell_angle_beta   90.00381373
_cell_angle_gamma   89.99238856
_symmetry_Int_Tables_number   1
_chemical_formula_structural   Dy3Lu2InBi2
_chemical_formula_sum   'Dy6 Lu4 In2 Bi4'
_cell_volume   457.04305239
_cell_formula_units_Z   2
loop_
 _symmetry_equiv_pos_site_id
 _symmetry_equiv_pos_as_xyz
  1  'x, y, z'
loop_
 _atom_site_type_symbol
 _atom_site_label
 _atom_site_symmetry_multiplicity
 _atom_site_fract_x
 _atom_site_fract_y
 _atom_site_fract_z
 _atom_site_occupancy
  Dy  Dy0  1  0.750195  0.238244  0.000000  1
  Dy  Dy1  1  0.750056  0.763379  0.761112  1
  Dy  Dy2  1  0.750056  0.002266  0.238888  1
  Dy  Dy3  1  0.250254  0.763851  0.000000  1
  Dy  Dy4  1  0.250081  0.233921  0.243766  1
  Dy  Dy5  1  0.250081  0.990154  0.756234  1
  Lu  Lu6  1  0.496549  0.332324  0.659953  1
  Lu  Lu7  1  0.496549  0.672371  0.340047  1
  Lu  Lu8  1  0.003303  0.672209  0.339840  1
  Lu  Lu9  1  0.003303  0.332370  0.660160  1
  In  In10  1  0.249684  0.602355  0.603922  1
  In  In11  1  0.249684  0.998434  0.396078  1
  Bi  Bi12  1  0.750065  0.604788  0.000000  1
  Bi  Bi13  1  0.749963  0.398348  0.394365  1
  Bi  Bi14  1  0.749963  0.003983  0.605635  1
  Bi  Bi15  1  0.250219  0.391005  0.000000  1
