# generated using pymatgen
data_Y6Er10Cd4TcPd3
_symmetry_space_group_name_H-M   'P 1'
_cell_length_a   9.67744888
_cell_length_b   9.67744911
_cell_length_c   9.67744738
_cell_angle_alpha   59.32307232
_cell_angle_beta   59.32307141
_cell_angle_gamma   59.32307018
_symmetry_Int_Tables_number   1
_chemical_formula_structural   Y6Er10Cd4TcPd3
_chemical_formula_sum   'Y6 Er10 Cd4 Tc1 Pd3'
_cell_volume   630.98977077
_cell_formula_units_Z   1
loop_
 _symmetry_equiv_pos_site_id
 _symmetry_equiv_pos_as_xyz
  1  'x, y, z'
loop_
 _atom_site_type_symbol
 _atom_site_label
 _atom_site_symmetry_multiplicity
 _atom_site_fract_x
 _atom_site_fract_y
 _atom_site_fract_z
 _atom_site_occupancy
  Y  Y0  1  0.935495  0.565094  0.565094  1
  Y  Y1  1  0.556322  0.938141  0.938141  1
  Y  Y2  1  0.565094  0.935495  0.565094  1
  Y  Y3  1  0.938141  0.556322  0.938141  1
  Y  Y4  1  0.565094  0.565094  0.935495  1
  Y  Y5  1  0.938141  0.938141  0.556322  1
  Er  Er6  1  0.352937  0.352937  0.352937  1
  Er  Er7  1  0.351407  0.351407  0.944610  1
  Er  Er8  1  0.351407  0.944610  0.351407  1
  Er  Er9  1  0.944610  0.351407  0.351407  1
  Er  Er10  1  0.817327  0.187276  0.187276  1
  Er  Er11  1  0.188273  0.810638  0.810638  1
  Er  Er12  1  0.187276  0.817327  0.187276  1
  Er  Er13  1  0.810638  0.188273  0.810638  1
  Er  Er14  1  0.187276  0.187276  0.817327  1
  Er  Er15  1  0.810638  0.810638  0.188273  1
  Cd  Cd16  1  0.579922  0.579922  0.579922  1
  Cd  Cd17  1  0.580796  0.580796  0.254347  1
  Cd  Cd18  1  0.580796  0.254347  0.580796  1
  Cd  Cd19  1  0.254347  0.580796  0.580796  1
  Tc  Tc20  1  0.145084  0.145084  0.145084  1
  Pd  Pd21  1  0.144915  0.144915  0.569147  1
  Pd  Pd22  1  0.144915  0.569147  0.144915  1
  Pd  Pd23  1  0.569147  0.144915  0.144915  1
