# generated using pymatgen
data_Mg10B6Ir11Rh3
_symmetry_space_group_name_H-M   'P 1'
_cell_length_a   2.92612200
_cell_length_b   11.48936453
_cell_length_c   12.05824169
_cell_angle_alpha   89.92371024
_cell_angle_beta   90.00000000
_cell_angle_gamma   90.00000000
_symmetry_Int_Tables_number   1
_chemical_formula_structural   Mg10B6Ir11Rh3
_chemical_formula_sum   'Mg10 B6 Ir11 Rh3'
_cell_volume   405.38907224
_cell_formula_units_Z   1
loop_
 _symmetry_equiv_pos_site_id
 _symmetry_equiv_pos_as_xyz
  1  'x, y, z'
loop_
 _atom_site_type_symbol
 _atom_site_label
 _atom_site_symmetry_multiplicity
 _atom_site_fract_x
 _atom_site_fract_y
 _atom_site_fract_z
 _atom_site_occupancy
  Mg  Mg0  1  0.500000  0.749782  0.201468  1
  Mg  Mg1  1  0.500000  0.248179  0.797663  1
  Mg  Mg2  1  0.500000  0.451858  0.126727  1
  Mg  Mg3  1  0.500000  0.550217  0.873479  1
  Mg  Mg4  1  0.500000  0.048979  0.126093  1
  Mg  Mg5  1  0.500000  0.951397  0.874013  1
  Mg  Mg6  1  0.500000  0.371310  0.351840  1
  Mg  Mg7  1  0.500000  0.628565  0.648228  1
  Mg  Mg8  1  0.500000  0.128794  0.351495  1
  Mg  Mg9  1  0.500000  0.871180  0.648183  1
  B  B10  1  0.500000  0.750419  0.964109  1
  B  B11  1  0.500000  0.252111  0.035091  1
  B  B12  1  0.500000  0.887568  0.405612  1
  B  B13  1  0.500000  0.112231  0.594301  1
  B  B14  1  0.500000  0.612523  0.405933  1
  B  B15  1  0.500000  0.387912  0.594912  1
  Ir  Ir16  1  0.000000  0.000079  0.499730  1
  Ir  Ir17  1  0.000000  0.499877  0.500684  1
  Ir  Ir18  1  0.000000  0.750602  0.829149  1
  Ir  Ir19  1  0.000000  0.249799  0.170984  1
  Ir  Ir20  1  0.000000  0.750044  0.464079  1
  Ir  Ir21  1  0.000000  0.250051  0.536774  1
  Ir  Ir22  1  0.000000  0.368653  0.954926  1
  Ir  Ir23  1  0.000000  0.928040  0.279916  1
  Ir  Ir24  1  0.000000  0.070816  0.719741  1
  Ir  Ir25  1  0.000000  0.571949  0.280498  1
  Ir  Ir26  1  0.000000  0.427258  0.721095  1
  Rh  Rh27  1  0.000000  0.868656  0.043729  1
  Rh  Rh28  1  0.000000  0.130067  0.956469  1
  Rh  Rh29  1  0.000000  0.631086  0.043077  1
