# generated using pymatgen
data_Na4Ta3AlH20
_symmetry_space_group_name_H-M   'P 1'
_cell_length_a   5.42463881
_cell_length_b   6.71531358
_cell_length_c   8.61927823
_cell_angle_alpha   80.64953634
_cell_angle_beta   87.67392719
_cell_angle_gamma   87.57228364
_symmetry_Int_Tables_number   1
_chemical_formula_structural   Na4Ta3AlH20
_chemical_formula_sum   'Na4 Ta3 Al1 H20'
_cell_volume   309.35342886
_cell_formula_units_Z   1
loop_
 _symmetry_equiv_pos_site_id
 _symmetry_equiv_pos_as_xyz
  1  'x, y, z'
loop_
 _atom_site_type_symbol
 _atom_site_label
 _atom_site_symmetry_multiplicity
 _atom_site_fract_x
 _atom_site_fract_y
 _atom_site_fract_z
 _atom_site_occupancy
  Na  Na0  1  0.201416  0.377407  0.237339  1
  Na  Na1  1  0.774329  0.688806  0.931904  1
  Na  Na2  1  0.831131  0.874915  0.357564  1
  Na  Na3  1  0.133965  0.999590  0.675965  1
  Ta  Ta4  1  0.302909  0.543179  0.630498  1
  Ta  Ta5  1  0.727076  0.349201  0.511203  1
  Ta  Ta6  1  0.570441  0.229394  0.830263  1
  Al  Al7  1  0.323117  0.947206  0.091058  1
  H  H8  1  0.010623  0.505474  0.512470  1
  H  H9  1  0.397565  0.406943  0.456259  1
  H  H10  1  0.399270  0.989541  0.878313  1
  H  H11  1  0.812631  0.032804  0.895948  1
  H  H12  1  0.157393  0.752242  0.063855  1
  H  H13  1  0.460448  0.505981  0.828497  1
  H  H14  1  0.616377  0.178209  0.388478  1
  H  H15  1  0.061802  0.667610  0.743881  1
  H  H16  1  0.575208  0.836968  0.163167  1
  H  H17  1  0.763636  0.347013  0.952332  1
  H  H18  1  0.983179  0.174230  0.466751  1
  H  H19  1  0.613952  0.616907  0.540728  1
  H  H20  1  0.428669  0.763894  0.676197  1
  H  H21  1  0.436248  0.208470  0.036265  1
  H  H22  1  0.857750  0.317956  0.713975  1
  H  H23  1  0.230709  0.761398  0.477063  1
  H  H24  1  0.143213  0.048931  0.214661  1
  H  H25  1  0.617397  0.106360  0.642811  1
  H  H26  1  0.799034  0.480195  0.307024  1
  H  H27  1  0.238512  0.289175  0.775529  1
