# generated using pymatgen
data_UBi(PS3)4
_symmetry_space_group_name_H-M   'P 1'
_cell_length_a   7.02777300
_cell_length_b   7.02777300
_cell_length_c   9.86989600
_cell_angle_alpha   90.00000000
_cell_angle_beta   90.00000000
_cell_angle_gamma   90.00000000
_symmetry_Int_Tables_number   1
_chemical_formula_structural   UBi(PS3)4
_chemical_formula_sum   'U1 Bi1 P4 S12'
_cell_volume   487.47014975
_cell_formula_units_Z   1
loop_
 _symmetry_equiv_pos_site_id
 _symmetry_equiv_pos_as_xyz
  1  'x, y, z'
loop_
 _atom_site_type_symbol
 _atom_site_label
 _atom_site_symmetry_multiplicity
 _atom_site_fract_x
 _atom_site_fract_y
 _atom_site_fract_z
 _atom_site_occupancy
  U  U0  1  0.000000  0.000000  0.250000  1
  Bi  Bi1  1  0.000000  0.000000  0.750000  1
  P  P2  1  0.058574  0.346998  0.496093  1
  P  P3  1  0.941426  0.653002  0.496093  1
  P  P4  1  0.346998  0.941426  0.003907  1
  P  P5  1  0.653002  0.058574  0.003907  1
  S  S6  1  0.212417  0.321970  0.665875  1
  S  S7  1  0.689663  0.206401  0.180518  1
  S  S8  1  0.171205  0.174200  0.012899  1
  S  S9  1  0.825800  0.171205  0.487101  1
  S  S10  1  0.174200  0.828795  0.487101  1
  S  S11  1  0.828795  0.825800  0.012899  1
  S  S12  1  0.206401  0.310337  0.319482  1
  S  S13  1  0.678030  0.212417  0.834125  1
  S  S14  1  0.321970  0.787583  0.834125  1
  S  S15  1  0.793599  0.689663  0.319482  1
  S  S16  1  0.787583  0.678030  0.665875  1
  S  S17  1  0.310337  0.793599  0.180518  1
