# generated using pymatgen
data_Pr3NdCo16(TcP3)4
_symmetry_space_group_name_H-M   'P 1'
_cell_length_a   3.76059900
_cell_length_b   10.51418707
_cell_length_c   11.95185308
_cell_angle_alpha   90.01343531
_cell_angle_beta   90.00000000
_cell_angle_gamma   90.00000000
_symmetry_Int_Tables_number   1
_chemical_formula_structural   Pr3NdCo16(TcP3)4
_chemical_formula_sum   'Pr3 Nd1 Co16 Tc4 P12'
_cell_volume   472.57197182
_cell_formula_units_Z   1
loop_
 _symmetry_equiv_pos_site_id
 _symmetry_equiv_pos_as_xyz
  1  'x, y, z'
loop_
 _atom_site_type_symbol
 _atom_site_label
 _atom_site_symmetry_multiplicity
 _atom_site_fract_x
 _atom_site_fract_y
 _atom_site_fract_z
 _atom_site_occupancy
  Pr  Pr0  1  0.250000  0.584077  0.703815  1
  Pr  Pr1  1  0.250000  0.915908  0.203790  1
  Pr  Pr2  1  0.750000  0.415878  0.296165  1
  Nd  Nd3  1  0.750000  0.084147  0.796211  1
  Co  Co4  1  0.250000  0.405332  0.490981  1
  Co  Co5  1  0.250000  0.094687  0.990625  1
  Co  Co6  1  0.750000  0.594662  0.509028  1
  Co  Co7  1  0.750000  0.905446  0.008923  1
  Co  Co8  1  0.250000  0.221856  0.174884  1
  Co  Co9  1  0.250000  0.277877  0.675062  1
  Co  Co10  1  0.750000  0.778260  0.825068  1
  Co  Co11  1  0.750000  0.721872  0.325083  1
  Co  Co12  1  0.250000  0.885167  0.701649  1
  Co  Co13  1  0.250000  0.615160  0.201466  1
  Co  Co14  1  0.750000  0.115190  0.298499  1
  Co  Co15  1  0.750000  0.384658  0.798514  1
  Co  Co16  1  0.250000  0.464636  0.932587  1
  Co  Co17  1  0.250000  0.035256  0.432687  1
  Co  Co18  1  0.750000  0.535223  0.067376  1
  Co  Co19  1  0.750000  0.964862  0.567597  1
  Tc  Tc20  1  0.250000  0.708784  0.989600  1
  Tc  Tc21  1  0.250000  0.791366  0.489648  1
  Tc  Tc22  1  0.750000  0.291181  0.010244  1
  Tc  Tc23  1  0.750000  0.208637  0.510405  1
  P  P24  1  0.250000  0.420512  0.110182  1
  P  P25  1  0.250000  0.079449  0.610725  1
  P  P26  1  0.750000  0.579487  0.889807  1
  P  P27  1  0.750000  0.920541  0.389823  1
  P  P28  1  0.250000  0.274708  0.865027  1
  P  P29  1  0.250000  0.224679  0.365179  1
  P  P30  1  0.750000  0.724676  0.134788  1
  P  P31  1  0.750000  0.775321  0.634818  1
  P  P32  1  0.250000  0.600650  0.393433  1
  P  P33  1  0.250000  0.899815  0.893193  1
  P  P34  1  0.750000  0.399357  0.606556  1
  P  P35  1  0.750000  0.100682  0.106562  1
