# generated using pymatgen
data_Sm3Se3N
_symmetry_space_group_name_H-M   'P 1'
_cell_length_a   4.06757900
_cell_length_b   12.78851000
_cell_length_c   13.42977400
_cell_angle_alpha   90.00000000
_cell_angle_beta   90.00000000
_cell_angle_gamma   90.00000000
_symmetry_Int_Tables_number   1
_chemical_formula_structural   Sm3Se3N
_chemical_formula_sum   'Sm12 Se12 N4'
_cell_volume   698.59367332
_cell_formula_units_Z   4
loop_
 _symmetry_equiv_pos_site_id
 _symmetry_equiv_pos_as_xyz
  1  'x, y, z'
loop_
 _atom_site_type_symbol
 _atom_site_label
 _atom_site_symmetry_multiplicity
 _atom_site_fract_x
 _atom_site_fract_y
 _atom_site_fract_z
 _atom_site_occupancy
  Sm  Sm0  1  0.250000  0.065659  0.367257  1
  Sm  Sm1  1  0.250000  0.565659  0.132743  1
  Sm  Sm2  1  0.750000  0.934341  0.632743  1
  Sm  Sm3  1  0.750000  0.434341  0.867257  1
  Sm  Sm4  1  0.250000  0.705869  0.360245  1
  Sm  Sm5  1  0.250000  0.205869  0.139755  1
  Sm  Sm6  1  0.750000  0.294131  0.639755  1
  Sm  Sm7  1  0.750000  0.794131  0.860245  1
  Sm  Sm8  1  0.250000  0.541804  0.651568  1
  Sm  Sm9  1  0.250000  0.041804  0.848432  1
  Sm  Sm10  1  0.750000  0.458196  0.348432  1
  Sm  Sm11  1  0.750000  0.958196  0.151568  1
  Se  Se12  1  0.250000  0.869793  0.995324  1
  Se  Se13  1  0.250000  0.369793  0.504676  1
  Se  Se14  1  0.750000  0.130207  0.004676  1
  Se  Se15  1  0.750000  0.630207  0.495324  1
  Se  Se16  1  0.250000  0.095346  0.606086  1
  Se  Se17  1  0.250000  0.595346  0.893914  1
  Se  Se18  1  0.750000  0.904654  0.393914  1
  Se  Se19  1  0.750000  0.404654  0.106086  1
  Se  Se20  1  0.250000  0.775632  0.688361  1
  Se  Se21  1  0.250000  0.275632  0.811639  1
  Se  Se22  1  0.750000  0.224368  0.311639  1
  Se  Se23  1  0.750000  0.724368  0.188361  1
  N  N24  1  0.250000  0.038890  0.202896  1
  N  N25  1  0.250000  0.538890  0.297104  1
  N  N26  1  0.750000  0.961110  0.797104  1
  N  N27  1  0.750000  0.461110  0.702896  1
