# generated using pymatgen
data_Y6MnB14Os
_symmetry_space_group_name_H-M   'P 1'
_cell_length_a   8.06393683
_cell_length_b   8.06393707
_cell_length_c   9.32544800
_cell_angle_alpha   90.00000000
_cell_angle_beta   90.00000000
_cell_angle_gamma   155.00574703
_symmetry_Int_Tables_number   1
_chemical_formula_structural   Y6MnB14Os
_chemical_formula_sum   'Y6 Mn1 B14 Os1'
_cell_volume   256.22339446
_cell_formula_units_Z   1
loop_
 _symmetry_equiv_pos_site_id
 _symmetry_equiv_pos_as_xyz
  1  'x, y, z'
loop_
 _atom_site_type_symbol
 _atom_site_label
 _atom_site_symmetry_multiplicity
 _atom_site_fract_x
 _atom_site_fract_y
 _atom_site_fract_z
 _atom_site_occupancy
  Y  Y0  1  0.894661  0.105339  0.442300  1
  Y  Y1  1  0.104741  0.895259  0.563770  1
  Y  Y2  1  0.894661  0.105339  0.057700  1
  Y  Y3  1  0.104741  0.895259  0.936230  1
  Y  Y4  1  0.244033  0.755967  0.250000  1
  Y  Y5  1  0.759297  0.240703  0.750000  1
  Mn  Mn6  1  0.946963  0.053037  0.750000  1
  B  B7  1  0.727086  0.272914  0.466380  1
  B  B8  1  0.272319  0.727681  0.533883  1
  B  B9  1  0.727086  0.272914  0.033620  1
  B  B10  1  0.272319  0.727681  0.966117  1
  B  B11  1  0.631732  0.368268  0.150289  1
  B  B12  1  0.370168  0.629832  0.846300  1
  B  B13  1  0.631732  0.368268  0.349711  1
  B  B14  1  0.370168  0.629832  0.653700  1
  B  B15  1  0.520513  0.479487  0.095828  1
  B  B16  1  0.478283  0.521717  0.901299  1
  B  B17  1  0.520513  0.479487  0.404172  1
  B  B18  1  0.478283  0.521717  0.598701  1
  B  B19  1  0.457053  0.542947  0.250000  1
  B  B20  1  0.539720  0.460280  0.750000  1
  Os  Os21  1  0.053926  0.946074  0.250000  1
