# generated using pymatgen
data_ErCoP3Ir4
_symmetry_space_group_name_H-M   'P 1'
_cell_length_a   3.92745000
_cell_length_b   10.72453600
_cell_length_c   12.39989100
_cell_angle_alpha   90.00000000
_cell_angle_beta   90.00000000
_cell_angle_gamma   90.00000000
_symmetry_Int_Tables_number   1
_chemical_formula_structural   ErCoP3Ir4
_chemical_formula_sum   'Er4 Co4 P12 Ir16'
_cell_volume   522.28438744
_cell_formula_units_Z   4
loop_
 _symmetry_equiv_pos_site_id
 _symmetry_equiv_pos_as_xyz
  1  'x, y, z'
loop_
 _atom_site_type_symbol
 _atom_site_label
 _atom_site_symmetry_multiplicity
 _atom_site_fract_x
 _atom_site_fract_y
 _atom_site_fract_z
 _atom_site_occupancy
  Er  Er0  1  0.250000  0.585071  0.709959  1
  Er  Er1  1  0.250000  0.914929  0.209959  1
  Er  Er2  1  0.750000  0.414929  0.290041  1
  Er  Er3  1  0.750000  0.085071  0.790041  1
  Co  Co4  1  0.250000  0.460993  0.933957  1
  Co  Co5  1  0.250000  0.039007  0.433957  1
  Co  Co6  1  0.750000  0.539007  0.066043  1
  Co  Co7  1  0.750000  0.960993  0.566043  1
  P  P8  1  0.250000  0.426445  0.105704  1
  P  P9  1  0.250000  0.073555  0.605704  1
  P  P10  1  0.750000  0.573555  0.894296  1
  P  P11  1  0.750000  0.926445  0.394296  1
  P  P12  1  0.250000  0.270463  0.871315  1
  P  P13  1  0.250000  0.229537  0.371315  1
  P  P14  1  0.750000  0.729537  0.128685  1
  P  P15  1  0.750000  0.770463  0.628685  1
  P  P16  1  0.250000  0.594516  0.384745  1
  P  P17  1  0.250000  0.905484  0.884745  1
  P  P18  1  0.750000  0.405484  0.615255  1
  P  P19  1  0.750000  0.094516  0.115255  1
  Ir  Ir20  1  0.250000  0.720887  0.980611  1
  Ir  Ir21  1  0.250000  0.779113  0.480611  1
  Ir  Ir22  1  0.750000  0.279113  0.019389  1
  Ir  Ir23  1  0.750000  0.220887  0.519389  1
  Ir  Ir24  1  0.250000  0.407672  0.477642  1
  Ir  Ir25  1  0.250000  0.092328  0.977642  1
  Ir  Ir26  1  0.750000  0.592328  0.522358  1
  Ir  Ir27  1  0.750000  0.907672  0.022358  1
  Ir  Ir28  1  0.250000  0.232802  0.180390  1
  Ir  Ir29  1  0.250000  0.267198  0.680390  1
  Ir  Ir30  1  0.750000  0.767198  0.819610  1
  Ir  Ir31  1  0.750000  0.732802  0.319610  1
  Ir  Ir32  1  0.250000  0.886259  0.699297  1
  Ir  Ir33  1  0.250000  0.613741  0.199297  1
  Ir  Ir34  1  0.750000  0.113741  0.300703  1
  Ir  Ir35  1  0.750000  0.386259  0.800703  1
