# generated using pymatgen
data_ZrPBr9
_symmetry_space_group_name_H-M   'P 1'
_cell_length_a   8.22002541
_cell_length_b   10.94989394
_cell_length_c   10.69009820
_cell_angle_alpha   105.56279785
_cell_angle_beta   98.20462519
_cell_angle_gamma   89.24899850
_symmetry_Int_Tables_number   1
_chemical_formula_structural   ZrPBr9
_chemical_formula_sum   'Zr2 P2 Br18'
_cell_volume   917.11428379
_cell_formula_units_Z   2
loop_
 _symmetry_equiv_pos_site_id
 _symmetry_equiv_pos_as_xyz
  1  'x, y, z'
loop_
 _atom_site_type_symbol
 _atom_site_label
 _atom_site_symmetry_multiplicity
 _atom_site_fract_x
 _atom_site_fract_y
 _atom_site_fract_z
 _atom_site_occupancy
  Zr  Zr0  1  0.394881  0.340471  0.344511  1
  Zr  Zr1  1  0.605119  0.659529  0.655489  1
  P  P2  1  0.069416  0.195502  0.785898  1
  P  P3  1  0.930584  0.804498  0.214102  1
  Br  Br4  1  0.909114  0.725684  0.724207  1
  Br  Br5  1  0.807363  0.654449  0.045652  1
  Br  Br6  1  0.360279  0.511315  0.197216  1
  Br  Br7  1  0.639721  0.488685  0.802784  1
  Br  Br8  1  0.455109  0.194613  0.495855  1
  Br  Br9  1  0.544891  0.805387  0.504145  1
  Br  Br10  1  0.090886  0.274316  0.275793  1
  Br  Br11  1  0.473654  0.811049  0.841677  1
  Br  Br12  1  0.526346  0.188951  0.158323  1
  Br  Br13  1  0.303378  0.533661  0.549302  1
  Br  Br14  1  0.158351  0.866226  0.165062  1
  Br  Br15  1  0.696622  0.466339  0.450698  1
  Br  Br16  1  0.011406  0.254847  0.606880  1
  Br  Br17  1  0.988594  0.745153  0.393120  1
  Br  Br18  1  0.229067  0.032504  0.753952  1
  Br  Br19  1  0.770933  0.967496  0.246048  1
  Br  Br20  1  0.841649  0.133774  0.834938  1
  Br  Br21  1  0.192637  0.345551  0.954348  1
