# generated using pymatgen
data_Tb5Sm3(GeBr6)2
_symmetry_space_group_name_H-M   'P 1'
_cell_length_a   4.13078500
_cell_length_b   13.43228752
_cell_length_c   14.21870991
_cell_angle_alpha   89.88707036
_cell_angle_beta   90.00000000
_cell_angle_gamma   90.00000000
_symmetry_Int_Tables_number   1
_chemical_formula_structural   Tb5Sm3(GeBr6)2
_chemical_formula_sum   'Tb5 Sm3 Ge2 Br12'
_cell_volume   788.93626707
_cell_formula_units_Z   1
loop_
 _symmetry_equiv_pos_site_id
 _symmetry_equiv_pos_as_xyz
  1  'x, y, z'
loop_
 _atom_site_type_symbol
 _atom_site_label
 _atom_site_symmetry_multiplicity
 _atom_site_fract_x
 _atom_site_fract_y
 _atom_site_fract_z
 _atom_site_occupancy
  Tb  Tb0  1  0.500000  0.118799  0.340227  1
  Tb  Tb1  1  0.500000  0.881341  0.659649  1
  Tb  Tb2  1  0.500000  0.618379  0.159623  1
  Tb  Tb3  1  0.500000  0.381336  0.840555  1
  Tb  Tb4  1  0.000000  0.380516  0.079382  1
  Sm  Sm5  1  0.000000  0.120336  0.579897  1
  Sm  Sm6  1  0.000000  0.879720  0.420036  1
  Sm  Sm7  1  0.000000  0.619413  0.920626  1
  Ge  Ge8  1  0.500000  0.000086  0.499885  1
  Ge  Ge9  1  0.500000  0.498130  0.001225  1
  Br  Br10  1  0.500000  0.245175  0.162961  1
  Br  Br11  1  0.500000  0.757778  0.835390  1
  Br  Br12  1  0.500000  0.741594  0.335004  1
  Br  Br13  1  0.500000  0.258258  0.665111  1
  Br  Br14  1  0.000000  0.254204  0.408713  1
  Br  Br15  1  0.000000  0.745880  0.591091  1
  Br  Br16  1  0.000000  0.753979  0.090881  1
  Br  Br17  1  0.000000  0.246873  0.911400  1
  Br  Br18  1  0.000000  0.004807  0.243219  1
  Br  Br19  1  0.000000  0.995458  0.756644  1
  Br  Br20  1  0.000000  0.502304  0.254957  1
  Br  Br21  1  0.000000  0.495634  0.743526  1
