# generated using pymatgen
data_Sm2PaIr3
_symmetry_space_group_name_H-M   'P 1'
_cell_length_a   5.44652456
_cell_length_b   5.44652332
_cell_length_c   5.44652417
_cell_angle_alpha   64.92231995
_cell_angle_beta   64.92232574
_cell_angle_gamma   64.92232555
_symmetry_Int_Tables_number   1
_chemical_formula_structural   Sm2PaIr3
_chemical_formula_sum   'Sm2 Pa1 Ir3'
_cell_volume   126.53519797
_cell_formula_units_Z   1
loop_
 _symmetry_equiv_pos_site_id
 _symmetry_equiv_pos_as_xyz
  1  'x, y, z'
loop_
 _atom_site_type_symbol
 _atom_site_label
 _atom_site_symmetry_multiplicity
 _atom_site_fract_x
 _atom_site_fract_y
 _atom_site_fract_z
 _atom_site_occupancy
  Sm  Sm0  1  0.621652  0.621652  0.621652  1
  Sm  Sm1  1  0.378348  0.378348  0.378348  1
  Pa  Pa2  1  0.000000  0.000000  0.000000  1
  Ir  Ir3  1  0.000000  0.500000  0.000000  1
  Ir  Ir4  1  0.500000  0.000000  0.000000  1
  Ir  Ir5  1  0.000000  0.000000  0.500000  1
