# generated using pymatgen
data_YCoH6
_symmetry_space_group_name_H-M   'P 1'
_cell_length_a   4.67545327
_cell_length_b   4.67679998
_cell_length_c   4.68577454
_cell_angle_alpha   120.05280148
_cell_angle_beta   90.02962288
_cell_angle_gamma   119.89170550
_symmetry_Int_Tables_number   1
_chemical_formula_structural   YCoH6
_chemical_formula_sum   'Y1 Co1 H6'
_cell_volume   72.49196664
_cell_formula_units_Z   1
loop_
 _symmetry_equiv_pos_site_id
 _symmetry_equiv_pos_as_xyz
  1  'x, y, z'
loop_
 _atom_site_type_symbol
 _atom_site_label
 _atom_site_symmetry_multiplicity
 _atom_site_fract_x
 _atom_site_fract_y
 _atom_site_fract_z
 _atom_site_occupancy
  Y  Y0  1  0.377360  0.033007  0.893233  1
  Co  Co1  1  0.127445  0.534132  0.143910  1
  H  H2  1  0.354588  0.526617  0.374058  1
  H  H3  1  0.896938  0.542702  0.377830  1
  H  H4  1  0.352765  0.525403  0.904737  1
  H  H5  1  0.892646  0.069581  0.911666  1
  H  H6  1  0.896454  0.544157  0.920284  1
  H  H7  1  0.371528  0.998441  0.376011  1
