# generated using pymatgen
data_Zr4In2CuIrPd2
_symmetry_space_group_name_H-M   'P 1'
_cell_length_a   7.52011336
_cell_length_b   7.52011346
_cell_length_c   6.82737067
_cell_angle_alpha   90.22309101
_cell_angle_beta   89.77690597
_cell_angle_gamma   89.13896497
_symmetry_Int_Tables_number   1
_chemical_formula_structural   Zr4In2CuIrPd2
_chemical_formula_sum   'Zr8 In4 Cu2 Ir2 Pd4'
_cell_volume   386.05264792
_cell_formula_units_Z   2
loop_
 _symmetry_equiv_pos_site_id
 _symmetry_equiv_pos_as_xyz
  1  'x, y, z'
loop_
 _atom_site_type_symbol
 _atom_site_label
 _atom_site_symmetry_multiplicity
 _atom_site_fract_x
 _atom_site_fract_y
 _atom_site_fract_z
 _atom_site_occupancy
  Zr  Zr0  1  0.651756  0.651756  0.500000  1
  Zr  Zr1  1  0.810331  0.189669  0.497351  1
  Zr  Zr2  1  0.677337  0.677337  0.000000  1
  Zr  Zr3  1  0.839245  0.160755  0.006044  1
  Zr  Zr4  1  0.189669  0.810331  0.502649  1
  Zr  Zr5  1  0.322663  0.322663  0.000000  1
  Zr  Zr6  1  0.160755  0.839245  0.993956  1
  Zr  Zr7  1  0.348244  0.348244  0.500000  1
  In  In8  1  0.001029  0.501532  0.250025  1
  In  In9  1  0.501532  0.001029  0.749975  1
  In  In10  1  0.498468  0.998971  0.250025  1
  In  In11  1  0.998971  0.498468  0.749975  1
  Cu  Cu12  1  0.630103  0.369897  0.788928  1
  Cu  Cu13  1  0.369897  0.630103  0.211072  1
  Ir  Ir14  1  0.621353  0.378647  0.229951  1
  Ir  Ir15  1  0.378647  0.621353  0.770049  1
  Pd  Pd16  1  0.871197  0.871178  0.721825  1
  Pd  Pd17  1  0.128803  0.128822  0.278175  1
  Pd  Pd18  1  0.871178  0.871197  0.278175  1
  Pd  Pd19  1  0.128822  0.128803  0.721825  1
