# generated using pymatgen
data_LiMg2Zr5(Co4P3)4
_symmetry_space_group_name_H-M   'P 1'
_cell_length_a   11.94973099
_cell_length_b   11.94973054
_cell_length_c   3.64281900
_cell_angle_alpha   90.00000000
_cell_angle_beta   90.00000000
_cell_angle_gamma   120.11469997
_symmetry_Int_Tables_number   1
_chemical_formula_structural   LiMg2Zr5(Co4P3)4
_chemical_formula_sum   'Li1 Mg2 Zr5 Co16 P12'
_cell_volume   449.96771034
_cell_formula_units_Z   1
loop_
 _symmetry_equiv_pos_site_id
 _symmetry_equiv_pos_as_xyz
  1  'x, y, z'
loop_
 _atom_site_type_symbol
 _atom_site_label
 _atom_site_symmetry_multiplicity
 _atom_site_fract_x
 _atom_site_fract_y
 _atom_site_fract_z
 _atom_site_occupancy
  Li  Li0  1  0.442187  0.442187  0.000000  1
  Mg  Mg1  1  0.557490  0.999744  0.000000  1
  Mg  Mg2  1  0.999744  0.557490  0.000000  1
  Zr  Zr3  1  0.665141  0.333185  0.000000  1
  Zr  Zr4  1  0.333185  0.665141  0.000000  1
  Zr  Zr5  1  0.811313  0.811313  0.500000  1
  Zr  Zr6  1  0.186001  0.999398  0.500000  1
  Zr  Zr7  1  0.999398  0.186001  0.500000  1
  Co  Co8  1  0.199512  0.376284  0.000000  1
  Co  Co9  1  0.178566  0.803466  0.000000  1
  Co  Co10  1  0.820196  0.624858  0.000000  1
  Co  Co11  1  0.803466  0.178566  0.000000  1
  Co  Co12  1  0.376284  0.199512  0.000000  1
  Co  Co13  1  0.128172  0.481472  0.500000  1
  Co  Co14  1  0.355513  0.873243  0.500000  1
  Co  Co15  1  0.517495  0.643970  0.500000  1
  Co  Co16  1  0.643970  0.517495  0.500000  1
  Co  Co17  1  0.873243  0.355513  0.500000  1
  Co  Co18  1  0.481472  0.128172  0.500000  1
  Co  Co19  1  0.001971  0.001971  0.000000  1
  Co  Co20  1  0.719652  0.999709  0.500000  1
  Co  Co21  1  0.999709  0.719652  0.500000  1
  Co  Co22  1  0.624858  0.820196  0.000000  1
  Co  Co23  1  0.282522  0.282522  0.500000  1
  P  P24  1  0.636810  0.636810  0.000000  1
  P  P25  1  0.355670  0.001867  0.000000  1
  P  P26  1  0.001867  0.355670  0.000000  1
  P  P27  1  0.482608  0.314805  0.500000  1
  P  P28  1  0.688619  0.172335  0.500000  1
  P  P29  1  0.827181  0.516676  0.500000  1
  P  P30  1  0.516676  0.827181  0.500000  1
  P  P31  1  0.172335  0.688619  0.500000  1
  P  P32  1  0.823924  0.999478  0.000000  1
  P  P33  1  0.999478  0.823924  0.000000  1
  P  P34  1  0.314805  0.482608  0.500000  1
  P  P35  1  0.178970  0.178970  0.000000  1
