# generated using pymatgen
data_Tb2ThCo6Ni5B4
_symmetry_space_group_name_H-M   'P 1'
_cell_length_a   5.01515264
_cell_length_b   5.02068835
_cell_length_c   9.92279500
_cell_angle_alpha   89.99993093
_cell_angle_beta   90.00014611
_cell_angle_gamma   119.78474862
_symmetry_Int_Tables_number   1
_chemical_formula_structural   Tb2ThCo6Ni5B4
_chemical_formula_sum   'Tb2 Th1 Co6 Ni5 B4'
_cell_volume   216.84528417
_cell_formula_units_Z   1
loop_
 _symmetry_equiv_pos_site_id
 _symmetry_equiv_pos_as_xyz
  1  'x, y, z'
loop_
 _atom_site_type_symbol
 _atom_site_label
 _atom_site_symmetry_multiplicity
 _atom_site_fract_x
 _atom_site_fract_y
 _atom_site_fract_z
 _atom_site_occupancy
  Tb  Tb0  1  0.999990  0.999999  0.345208  1
  Tb  Tb1  1  0.000000  0.000001  0.654517  1
  Th  Th2  1  0.999997  0.999996  0.997267  1
  Co  Co3  1  0.499993  0.999996  0.499581  1
  Co  Co4  1  0.499991  0.500004  0.499250  1
  Co  Co5  1  0.000000  0.500003  0.500680  1
  Co  Co6  1  0.499990  0.000000  0.210878  1
  Co  Co7  1  0.500001  0.000001  0.790993  1
  Co  Co8  1  0.999996  0.499997  0.792102  1
  Ni  Ni9  1  0.335243  0.679186  0.999943  1
  Ni  Ni10  1  0.664753  0.320814  0.999943  1
  Ni  Ni11  1  0.499985  0.499997  0.205573  1
  Ni  Ni12  1  0.999986  0.499998  0.206113  1
  Ni  Ni13  1  0.500002  0.500002  0.795307  1
  B  B14  1  0.333147  0.667733  0.351936  1
  B  B15  1  0.666832  0.332269  0.351937  1
  B  B16  1  0.668221  0.333439  0.649387  1
  B  B17  1  0.331772  0.666566  0.649387  1
