# generated using pymatgen
data_Pr20Bi7Te5
_symmetry_space_group_name_H-M   'P 1'
_cell_length_a   8.47721105
_cell_length_b   9.90902355
_cell_length_c   12.40056229
_cell_angle_alpha   89.96460197
_cell_angle_beta   89.98856120
_cell_angle_gamma   90.02471794
_symmetry_Int_Tables_number   1
_chemical_formula_structural   Pr20Bi7Te5
_chemical_formula_sum   'Pr20 Bi7 Te5'
_cell_volume   1041.65787770
_cell_formula_units_Z   1
loop_
 _symmetry_equiv_pos_site_id
 _symmetry_equiv_pos_as_xyz
  1  'x, y, z'
loop_
 _atom_site_type_symbol
 _atom_site_label
 _atom_site_symmetry_multiplicity
 _atom_site_fract_x
 _atom_site_fract_y
 _atom_site_fract_z
 _atom_site_occupancy
  Pr  Pr0  1  0.020767  0.750158  0.984857  1
  Pr  Pr1  1  0.520790  0.751090  0.516215  1
  Pr  Pr2  1  0.978777  0.250402  0.013079  1
  Pr  Pr3  1  0.477578  0.249032  0.486414  1
  Pr  Pr4  1  0.183407  0.752156  0.723523  1
  Pr  Pr5  1  0.682045  0.750121  0.775381  1
  Pr  Pr6  1  0.819502  0.250013  0.277754  1
  Pr  Pr7  1  0.320309  0.249773  0.222908  1
  Pr  Pr8  1  0.304766  0.445181  0.942175  1
  Pr  Pr9  1  0.805752  0.054485  0.557654  1
  Pr  Pr10  1  0.694477  0.945739  0.056553  1
  Pr  Pr11  1  0.195893  0.554601  0.443562  1
  Pr  Pr12  1  0.694696  0.554491  0.056022  1
  Pr  Pr13  1  0.194934  0.946218  0.444270  1
  Pr  Pr14  1  0.305002  0.054307  0.942020  1
  Pr  Pr15  1  0.804942  0.445185  0.557337  1
  Pr  Pr16  1  0.354900  0.749927  0.209617  1
  Pr  Pr17  1  0.853992  0.749580  0.290980  1
  Pr  Pr18  1  0.644310  0.248323  0.789945  1
  Pr  Pr19  1  0.145976  0.248459  0.709979  1
  Bi  Bi20  1  0.929581  0.493004  0.823710  1
  Bi  Bi21  1  0.570157  0.506768  0.325207  1
  Bi  Bi22  1  0.069759  0.993495  0.175894  1
  Bi  Bi23  1  0.569638  0.993295  0.324891  1
  Bi  Bi24  1  0.069888  0.506291  0.175909  1
  Bi  Bi25  1  0.429789  0.492470  0.675347  1
  Bi  Bi26  1  0.928833  0.006944  0.824347  1
  Te  Te27  1  0.428144  0.008518  0.674309  1
  Te  Te28  1  0.416502  0.750125  0.956958  1
  Te  Te29  1  0.916199  0.749691  0.542773  1
  Te  Te30  1  0.584383  0.250016  0.041506  1
  Te  Te31  1  0.084312  0.250143  0.458904  1
