# generated using pymatgen
data_Dy2Fe5P6Rh3W2
_symmetry_space_group_name_H-M   'P 1'
_cell_length_a   3.76352100
_cell_length_b   10.56102400
_cell_length_c   12.26853900
_cell_angle_alpha   90.00000000
_cell_angle_beta   90.00000000
_cell_angle_gamma   90.00000000
_symmetry_Int_Tables_number   1
_chemical_formula_structural   Dy2Fe5P6Rh3W2
_chemical_formula_sum   'Dy4 Fe10 P12 Rh6 W4'
_cell_volume   487.63314904
_cell_formula_units_Z   2
loop_
 _symmetry_equiv_pos_site_id
 _symmetry_equiv_pos_as_xyz
  1  'x, y, z'
loop_
 _atom_site_type_symbol
 _atom_site_label
 _atom_site_symmetry_multiplicity
 _atom_site_fract_x
 _atom_site_fract_y
 _atom_site_fract_z
 _atom_site_occupancy
  Dy  Dy0  1  0.250000  0.582156  0.711233  1
  Dy  Dy1  1  0.250000  0.917844  0.211233  1
  Dy  Dy2  1  0.750000  0.422192  0.290588  1
  Dy  Dy3  1  0.750000  0.077808  0.790588  1
  Fe  Fe4  1  0.750000  0.778813  0.824372  1
  Fe  Fe5  1  0.750000  0.721187  0.324372  1
  Fe  Fe6  1  0.250000  0.877962  0.694603  1
  Fe  Fe7  1  0.250000  0.622038  0.194603  1
  Fe  Fe8  1  0.750000  0.115320  0.306048  1
  Fe  Fe9  1  0.750000  0.384680  0.806048  1
  Fe  Fe10  1  0.250000  0.463671  0.936967  1
  Fe  Fe11  1  0.250000  0.036329  0.436967  1
  Fe  Fe12  1  0.750000  0.539090  0.062297  1
  Fe  Fe13  1  0.750000  0.960910  0.562297  1
  P  P14  1  0.250000  0.433812  0.112803  1
  P  P15  1  0.250000  0.066188  0.612803  1
  P  P16  1  0.750000  0.577555  0.884997  1
  P  P17  1  0.750000  0.922445  0.384997  1
  P  P18  1  0.250000  0.273806  0.865662  1
  P  P19  1  0.250000  0.226194  0.365662  1
  P  P20  1  0.750000  0.726528  0.142168  1
  P  P21  1  0.750000  0.773472  0.642168  1
  P  P22  1  0.250000  0.606981  0.377103  1
  P  P23  1  0.250000  0.893019  0.877103  1
  P  P24  1  0.750000  0.402730  0.617812  1
  P  P25  1  0.750000  0.097270  0.117812  1
  Rh  Rh26  1  0.250000  0.406501  0.480394  1
  Rh  Rh27  1  0.250000  0.093499  0.980394  1
  Rh  Rh28  1  0.750000  0.599056  0.517948  1
  Rh  Rh29  1  0.750000  0.900944  0.017948  1
  Rh  Rh30  1  0.250000  0.226165  0.177611  1
  Rh  Rh31  1  0.250000  0.273835  0.677611  1
  W  W32  1  0.250000  0.697659  0.988102  1
  W  W33  1  0.250000  0.802341  0.488102  1
  W  W34  1  0.750000  0.302062  0.009292  1
  W  W35  1  0.750000  0.197938  0.509292  1
