# generated using pymatgen
data_Ho3U(VB4)4
_symmetry_space_group_name_H-M   'P 1'
_cell_length_a   3.46551300
_cell_length_b   5.97209524
_cell_length_c   11.56744703
_cell_angle_alpha   90.06497789
_cell_angle_beta   90.00000000
_cell_angle_gamma   90.00000000
_symmetry_Int_Tables_number   1
_chemical_formula_structural   Ho3U(VB4)4
_chemical_formula_sum   'Ho3 U1 V4 B16'
_cell_volume   239.40405252
_cell_formula_units_Z   1
loop_
 _symmetry_equiv_pos_site_id
 _symmetry_equiv_pos_as_xyz
  1  'x, y, z'
loop_
 _atom_site_type_symbol
 _atom_site_label
 _atom_site_symmetry_multiplicity
 _atom_site_fract_x
 _atom_site_fract_y
 _atom_site_fract_z
 _atom_site_occupancy
  Ho  Ho0  1  0.000000  0.624560  0.349357  1
  Ho  Ho1  1  0.000000  0.377137  0.649369  1
  Ho  Ho2  1  0.000000  0.125424  0.152167  1
  U  U3  1  0.000000  0.873803  0.848702  1
  V  V4  1  0.000000  0.628259  0.080937  1
  V  V5  1  0.000000  0.372055  0.915475  1
  V  V6  1  0.000000  0.127248  0.417897  1
  V  V7  1  0.000000  0.874419  0.585311  1
  B  B8  1  0.500000  0.783804  0.186331  1
  B  B9  1  0.500000  0.211902  0.814953  1
  B  B10  1  0.500000  0.285694  0.313985  1
  B  B11  1  0.500000  0.716564  0.686867  1
  B  B12  1  0.500000  0.863860  0.031660  1
  B  B13  1  0.500000  0.133328  0.966247  1
  B  B14  1  0.500000  0.364991  0.467389  1
  B  B15  1  0.500000  0.635373  0.532767  1
  B  B16  1  0.500000  0.885226  0.452911  1
  B  B17  1  0.500000  0.114422  0.546871  1
  B  B18  1  0.500000  0.385243  0.047051  1
  B  B19  1  0.500000  0.614380  0.952296  1
  B  B20  1  0.500000  0.975933  0.307655  1
  B  B21  1  0.500000  0.022511  0.692815  1
  B  B22  1  0.500000  0.476649  0.192677  1
  B  B23  1  0.500000  0.527213  0.808309  1
