# generated using pymatgen
data_Yb8HoTm(AlSb3)4
_symmetry_space_group_name_H-M   'P 1'
_cell_length_a   4.41802600
_cell_length_b   7.46774321
_cell_length_c   22.76313861
_cell_angle_alpha   90.02689021
_cell_angle_beta   90.00000000
_cell_angle_gamma   90.00000000
_symmetry_Int_Tables_number   1
_chemical_formula_structural   Yb8HoTm(AlSb3)4
_chemical_formula_sum   'Yb8 Ho1 Tm1 Al4 Sb12'
_cell_volume   751.01694874
_cell_formula_units_Z   1
loop_
 _symmetry_equiv_pos_site_id
 _symmetry_equiv_pos_as_xyz
  1  'x, y, z'
loop_
 _atom_site_type_symbol
 _atom_site_label
 _atom_site_symmetry_multiplicity
 _atom_site_fract_x
 _atom_site_fract_y
 _atom_site_fract_z
 _atom_site_occupancy
  Yb  Yb0  1  0.000000  0.461975  0.913813  1
  Yb  Yb1  1  0.000000  0.278921  0.746911  1
  Yb  Yb2  1  0.000000  0.778887  0.752929  1
  Yb  Yb3  1  0.000000  0.538025  0.086187  1
  Yb  Yb4  1  0.000000  0.961746  0.586127  1
  Yb  Yb5  1  0.000000  0.721079  0.253089  1
  Yb  Yb6  1  0.000000  0.038254  0.413873  1
  Yb  Yb7  1  0.000000  0.221113  0.247071  1
  Ho  Ho8  1  0.000000  0.000000  0.000000  1
  Tm  Tm9  1  0.000000  0.500000  0.500000  1
  Al  Al10  1  0.500000  0.827411  0.880792  1
  Al  Al11  1  0.500000  0.172589  0.119208  1
  Al  Al12  1  0.500000  0.672835  0.380765  1
  Al  Al13  1  0.500000  0.327165  0.619235  1
  Sb  Sb14  1  0.500000  0.781476  0.496891  1
  Sb  Sb15  1  0.000000  0.461265  0.365054  1
  Sb  Sb16  1  0.000000  0.961075  0.135391  1
  Sb  Sb17  1  0.500000  0.526650  0.813339  1
  Sb  Sb18  1  0.500000  0.473350  0.186661  1
  Sb  Sb19  1  0.000000  0.038925  0.864609  1
  Sb  Sb20  1  0.000000  0.538735  0.634946  1
  Sb  Sb21  1  0.500000  0.973365  0.313343  1
  Sb  Sb22  1  0.500000  0.218524  0.503109  1
  Sb  Sb23  1  0.500000  0.026635  0.686657  1
  Sb  Sb24  1  0.500000  0.283477  0.003218  1
  Sb  Sb25  1  0.500000  0.716523  0.996782  1
