# generated using pymatgen
data_Ti(VI4)3
_symmetry_space_group_name_H-M   'P 1'
_cell_length_a   6.63891416
_cell_length_b   7.49048819
_cell_length_c   13.12278800
_cell_angle_alpha   90.00000000
_cell_angle_beta   90.00000000
_cell_angle_gamma   89.97463396
_symmetry_Int_Tables_number   1
_chemical_formula_structural   Ti(VI4)3
_chemical_formula_sum   'Ti1 V3 I12'
_cell_volume   652.57922980
_cell_formula_units_Z   1
loop_
 _symmetry_equiv_pos_site_id
 _symmetry_equiv_pos_as_xyz
  1  'x, y, z'
loop_
 _atom_site_type_symbol
 _atom_site_label
 _atom_site_symmetry_multiplicity
 _atom_site_fract_x
 _atom_site_fract_y
 _atom_site_fract_z
 _atom_site_occupancy
  Ti  Ti0  1  0.244390  0.750267  0.000000  1
  V  V1  1  0.259431  0.249660  0.500000  1
  V  V2  1  0.740529  0.249705  0.500000  1
  V  V3  1  0.754406  0.750301  0.000000  1
  I  I4  1  0.499828  0.397385  0.353166  1
  I  I5  1  0.001243  0.602097  0.852012  1
  I  I6  1  0.001243  0.602097  0.147988  1
  I  I7  1  0.499828  0.397385  0.646834  1
  I  I8  1  0.499334  0.897312  0.854113  1
  I  I9  1  0.999950  0.104386  0.356183  1
  I  I10  1  0.999950  0.104386  0.643817  1
  I  I11  1  0.499334  0.897312  0.145887  1
  I  I12  1  0.500148  0.953431  0.500000  1
  I  I13  1  0.001416  0.049021  0.000000  1
  I  I14  1  0.499299  0.455427  0.000000  1
  I  I15  1  0.999670  0.539827  0.500000  1
