# generated using pymatgen
data_Yb8ThPt6
_symmetry_space_group_name_H-M   'P 1'
_cell_length_a   7.53103854
_cell_length_b   7.53981582
_cell_length_c   7.61681866
_cell_angle_alpha   70.20370634
_cell_angle_beta   70.10803800
_cell_angle_gamma   70.26629675
_symmetry_Int_Tables_number   1
_chemical_formula_structural   Yb8ThPt6
_chemical_formula_sum   'Yb8 Th1 Pt6'
_cell_volume   370.37518100
_cell_formula_units_Z   1
loop_
 _symmetry_equiv_pos_site_id
 _symmetry_equiv_pos_as_xyz
  1  'x, y, z'
loop_
 _atom_site_type_symbol
 _atom_site_label
 _atom_site_symmetry_multiplicity
 _atom_site_fract_x
 _atom_site_fract_y
 _atom_site_fract_z
 _atom_site_occupancy
  Yb  Yb0  1  0.990529  0.007484  0.998220  1
  Yb  Yb1  1  0.198364  0.195822  0.198243  1
  Yb  Yb2  1  0.856707  0.595274  0.331381  1
  Yb  Yb3  1  0.669140  0.150703  0.402743  1
  Yb  Yb4  1  0.330382  0.852402  0.601303  1
  Yb  Yb5  1  0.147365  0.398443  0.672010  1
  Yb  Yb6  1  0.811910  0.808571  0.795708  1
  Yb  Yb7  1  0.598719  0.326144  0.844660  1
  Th  Th8  1  0.402481  0.675526  0.141305  1
  Pt  Pt9  1  0.810176  0.426438  0.050154  1
  Pt  Pt10  1  0.588495  0.943281  0.175648  1
  Pt  Pt11  1  0.060941  0.828732  0.402527  1
  Pt  Pt12  1  0.953317  0.166011  0.587986  1
  Pt  Pt13  1  0.407767  0.038777  0.839897  1
  Pt  Pt14  1  0.173708  0.586392  0.958214  1
