# generated using pymatgen
data_Er3Tm5(B6Ir)4
_symmetry_space_group_name_H-M   'P 1'
_cell_length_a   3.61143800
_cell_length_b   9.12490304
_cell_length_c   11.46713603
_cell_angle_alpha   90.00105261
_cell_angle_beta   90.00000000
_cell_angle_gamma   90.00000000
_symmetry_Int_Tables_number   1
_chemical_formula_structural   Er3Tm5(B6Ir)4
_chemical_formula_sum   'Er3 Tm5 B24 Ir4'
_cell_volume   377.88824822
_cell_formula_units_Z   1
loop_
 _symmetry_equiv_pos_site_id
 _symmetry_equiv_pos_as_xyz
  1  'x, y, z'
loop_
 _atom_site_type_symbol
 _atom_site_label
 _atom_site_symmetry_multiplicity
 _atom_site_fract_x
 _atom_site_fract_y
 _atom_site_fract_z
 _atom_site_occupancy
  Er  Er0  1  0.000000  0.321539  0.413061  1
  Er  Er1  1  0.000000  0.678471  0.586928  1
  Er  Er2  1  0.000000  0.821648  0.086862  1
  Tm  Tm3  1  0.000000  0.178652  0.913095  1
  Tm  Tm4  1  0.000000  0.944141  0.374594  1
  Tm  Tm5  1  0.000000  0.055908  0.625445  1
  Tm  Tm6  1  0.000000  0.444050  0.125251  1
  Tm  Tm7  1  0.000000  0.555895  0.874640  1
  B  B8  1  0.500000  0.553225  0.434066  1
  B  B9  1  0.500000  0.446674  0.566039  1
  B  B10  1  0.500000  0.053405  0.065697  1
  B  B11  1  0.500000  0.946996  0.934099  1
  B  B12  1  0.500000  0.749909  0.420983  1
  B  B13  1  0.500000  0.250027  0.579153  1
  B  B14  1  0.500000  0.249800  0.078723  1
  B  B15  1  0.500000  0.750134  0.920948  1
  B  B16  1  0.500000  0.793456  0.265175  1
  B  B17  1  0.500000  0.206418  0.735068  1
  B  B18  1  0.500000  0.293378  0.234625  1
  B  B19  1  0.500000  0.706573  0.765275  1
  B  B20  1  0.500000  0.631625  0.183877  1
  B  B21  1  0.500000  0.368137  0.816230  1
  B  B22  1  0.500000  0.131659  0.316029  1
  B  B23  1  0.500000  0.868383  0.684012  1
  B  B24  1  0.500000  0.981212  0.213152  1
  B  B25  1  0.500000  0.019117  0.787011  1
  B  B26  1  0.500000  0.481089  0.286722  1
  B  B27  1  0.500000  0.518793  0.713281  1
  B  B28  1  0.500000  0.609223  0.029897  1
  B  B29  1  0.500000  0.390412  0.969952  1
  B  B30  1  0.500000  0.109029  0.470163  1
  B  B31  1  0.500000  0.890994  0.529912  1
  Ir  Ir32  1  0.000000  0.638332  0.320909  1
  Ir  Ir33  1  0.000000  0.361438  0.679247  1
  Ir  Ir34  1  0.000000  0.138309  0.178736  1
  Ir  Ir35  1  0.000000  0.861952  0.821144  1
