# generated using pymatgen
data_Ta3Ti9Al8(PdC)4
_symmetry_space_group_name_H-M   'P 1'
_cell_length_a   8.26968390
_cell_length_b   8.28866006
_cell_length_c   8.28059053
_cell_angle_alpha   59.85728065
_cell_angle_beta   60.10284099
_cell_angle_gamma   59.99309130
_symmetry_Int_Tables_number   1
_chemical_formula_structural   Ta3Ti9Al8(PdC)4
_chemical_formula_sum   'Ta3 Ti9 Al8 Pd4 C4'
_cell_volume   401.20093821
_cell_formula_units_Z   1
loop_
 _symmetry_equiv_pos_site_id
 _symmetry_equiv_pos_as_xyz
  1  'x, y, z'
loop_
 _atom_site_type_symbol
 _atom_site_label
 _atom_site_symmetry_multiplicity
 _atom_site_fract_x
 _atom_site_fract_y
 _atom_site_fract_z
 _atom_site_occupancy
  Ta  Ta0  1  0.932617  0.932327  0.568419  1
  Ta  Ta1  1  0.682648  0.318350  0.682504  1
  Ta  Ta2  1  0.931613  0.568446  0.932995  1
  Ti  Ti3  1  0.567260  0.932766  0.565833  1
  Ti  Ti4  1  0.318273  0.682094  0.683784  1
  Ti  Ti5  1  0.683965  0.317722  0.316156  1
  Ti  Ti6  1  0.317443  0.683606  0.315312  1
  Ti  Ti7  1  0.683566  0.681833  0.317639  1
  Ti  Ti8  1  0.317205  0.316510  0.684122  1
  Ti  Ti9  1  0.567712  0.566294  0.933241  1
  Ti  Ti10  1  0.932328  0.566997  0.567131  1
  Ti  Ti11  1  0.568131  0.932002  0.934067  1
  Al  Al12  1  0.913887  0.916644  0.916869  1
  Al  Al13  1  0.995415  0.335882  0.333192  1
  Al  Al14  1  0.335598  0.994029  0.335242  1
  Al  Al15  1  0.333137  0.335703  0.995634  1
  Al  Al16  1  0.914359  0.254771  0.914262  1
  Al  Al17  1  0.914554  0.914117  0.254435  1
  Al  Al18  1  0.256215  0.914598  0.914770  1
  Al  Al19  1  0.335461  0.335058  0.335179  1
  Pd  Pd20  1  0.124403  0.124889  0.125188  1
  Pd  Pd21  1  0.624281  0.125574  0.124680  1
  Pd  Pd22  1  0.124960  0.625158  0.124632  1
  Pd  Pd23  1  0.124773  0.124917  0.624788  1
  C  C24  1  0.625275  0.628514  0.625177  1
  C  C25  1  0.130782  0.621691  0.621991  1
  C  C26  1  0.621836  0.123875  0.625734  1
  C  C27  1  0.622299  0.625633  0.127025  1
