# generated using pymatgen
data_Pr6Sn12RuRh
_symmetry_space_group_name_H-M   'P 1'
_cell_length_a   8.76928737
_cell_length_b   8.76928711
_cell_length_c   13.47413300
_cell_angle_alpha   90.00000000
_cell_angle_beta   90.00000000
_cell_angle_gamma   148.67099487
_symmetry_Int_Tables_number   1
_chemical_formula_structural   Pr6Sn12RuRh
_chemical_formula_sum   'Pr6 Sn12 Ru1 Rh1'
_cell_volume   538.75627589
_cell_formula_units_Z   1
loop_
 _symmetry_equiv_pos_site_id
 _symmetry_equiv_pos_as_xyz
  1  'x, y, z'
loop_
 _atom_site_type_symbol
 _atom_site_label
 _atom_site_symmetry_multiplicity
 _atom_site_fract_x
 _atom_site_fract_y
 _atom_site_fract_z
 _atom_site_occupancy
  Pr  Pr0  1  0.602289  0.397711  0.250000  1
  Pr  Pr1  1  0.398002  0.601998  0.750000  1
  Pr  Pr2  1  0.399127  0.600873  0.405213  1
  Pr  Pr3  1  0.600543  0.399457  0.595078  1
  Pr  Pr4  1  0.399127  0.600873  0.094787  1
  Pr  Pr5  1  0.600543  0.399457  0.904922  1
  Sn  Sn6  1  0.927360  0.072640  0.923699  1
  Sn  Sn7  1  0.072419  0.927581  0.075824  1
  Sn  Sn8  1  0.927360  0.072640  0.576301  1
  Sn  Sn9  1  0.072419  0.927581  0.424176  1
  Sn  Sn10  1  0.959609  0.040391  0.250000  1
  Sn  Sn11  1  0.041012  0.958988  0.750000  1
  Sn  Sn12  1  0.745469  0.254532  0.432811  1
  Sn  Sn13  1  0.254597  0.745403  0.567234  1
  Sn  Sn14  1  0.745469  0.254532  0.067189  1
  Sn  Sn15  1  0.254597  0.745403  0.932766  1
  Sn  Sn16  1  0.233402  0.766598  0.250000  1
  Sn  Sn17  1  0.765427  0.234573  0.750000  1
  Ru  Ru18  1  0.199189  0.800811  0.750000  1
  Rh  Rh19  1  0.802042  0.197958  0.250000  1
