# generated using pymatgen
data_Tb3Y3Si10
_symmetry_space_group_name_H-M   'P 1'
_cell_length_a   6.69011706
_cell_length_b   6.68880401
_cell_length_c   8.31212903
_cell_angle_alpha   89.99993503
_cell_angle_beta   89.99114726
_cell_angle_gamma   120.01973514
_symmetry_Int_Tables_number   1
_chemical_formula_structural   Tb3Y3Si10
_chemical_formula_sum   'Tb3 Y3 Si10'
_cell_volume   322.06140910
_cell_formula_units_Z   1
loop_
 _symmetry_equiv_pos_site_id
 _symmetry_equiv_pos_as_xyz
  1  'x, y, z'
loop_
 _atom_site_type_symbol
 _atom_site_label
 _atom_site_symmetry_multiplicity
 _atom_site_fract_x
 _atom_site_fract_y
 _atom_site_fract_z
 _atom_site_occupancy
  Tb  Tb0  1  0.330751  0.000002  0.999997  1
  Tb  Tb1  1  0.330726  0.999978  0.500002  1
  Tb  Tb2  1  0.999979  0.330732  0.499995  1
  Y  Y3  1  0.999980  0.330730  0.000005  1
  Y  Y4  1  0.669242  0.669265  0.999998  1
  Y  Y5  1  0.669265  0.669264  0.500002  1
  Si  Si6  1  0.380310  0.331433  0.249980  1
  Si  Si7  1  0.668789  0.048976  0.249946  1
  Si  Si8  1  0.951033  0.619788  0.249961  1
  Si  Si9  1  0.619838  0.950997  0.750019  1
  Si  Si10  1  0.999905  0.999947  0.249963  1
  Si  Si11  1  0.666655  0.333367  0.750017  1
  Si  Si12  1  0.048914  0.668653  0.750039  1
  Si  Si13  1  0.331383  0.380287  0.750054  1
  Si  Si14  1  0.333325  0.666623  0.249983  1
  Si  Si15  1  0.999904  0.999957  0.750038  1
