# generated using pymatgen
data_Ce2Y2Al3InRh4
_symmetry_space_group_name_H-M   'P 1'
_cell_length_a   4.20233500
_cell_length_b   7.15172169
_cell_length_c   16.14666313
_cell_angle_alpha   88.82988867
_cell_angle_beta   90.00000000
_cell_angle_gamma   90.00000000
_symmetry_Int_Tables_number   1
_chemical_formula_structural   Ce2Y2Al3InRh4
_chemical_formula_sum   'Ce4 Y4 Al6 In2 Rh8'
_cell_volume   485.16949678
_cell_formula_units_Z   2
loop_
 _symmetry_equiv_pos_site_id
 _symmetry_equiv_pos_as_xyz
  1  'x, y, z'
loop_
 _atom_site_type_symbol
 _atom_site_label
 _atom_site_symmetry_multiplicity
 _atom_site_fract_x
 _atom_site_fract_y
 _atom_site_fract_z
 _atom_site_occupancy
  Ce  Ce0  1  0.250000  0.048285  0.785991  1
  Ce  Ce1  1  0.750000  0.951715  0.214009  1
  Ce  Ce2  1  0.250000  0.540304  0.722643  1
  Ce  Ce3  1  0.750000  0.459696  0.277357  1
  Y  Y4  1  0.250000  0.171348  0.559836  1
  Y  Y5  1  0.750000  0.828652  0.440164  1
  Y  Y6  1  0.250000  0.661942  0.941824  1
  Y  Y7  1  0.750000  0.338058  0.058176  1
  Al  Al8  1  0.250000  0.627356  0.143717  1
  Al  Al9  1  0.750000  0.372644  0.856283  1
  Al  Al10  1  0.250000  0.003442  0.059343  1
  Al  Al11  1  0.750000  0.996558  0.940657  1
  Al  Al12  1  0.250000  0.504918  0.436791  1
  Al  Al13  1  0.750000  0.495082  0.563209  1
  In  In14  1  0.250000  0.121713  0.351645  1
  In  In15  1  0.750000  0.878287  0.648355  1
  Rh  Rh16  1  0.750000  0.290532  0.434022  1
  Rh  Rh17  1  0.250000  0.709468  0.565978  1
  Rh  Rh18  1  0.750000  0.772420  0.071019  1
  Rh  Rh19  1  0.250000  0.227580  0.928981  1
  Rh  Rh20  1  0.750000  0.751555  0.820249  1
  Rh  Rh21  1  0.250000  0.248445  0.179751  1
  Rh  Rh22  1  0.750000  0.267172  0.693752  1
  Rh  Rh23  1  0.250000  0.732828  0.306248  1
