# generated using pymatgen
data_Er8Tm2OsRu3
_symmetry_space_group_name_H-M   'P 1'
_cell_length_a   6.27063704
_cell_length_b   7.26550465
_cell_length_c   8.36107341
_cell_angle_alpha   96.79109400
_cell_angle_beta   112.09920005
_cell_angle_gamma   90.04829943
_symmetry_Int_Tables_number   1
_chemical_formula_structural   Er8Tm2OsRu3
_chemical_formula_sum   'Er8 Tm2 Os1 Ru3'
_cell_volume   350.03802934
_cell_formula_units_Z   1
loop_
 _symmetry_equiv_pos_site_id
 _symmetry_equiv_pos_as_xyz
  1  'x, y, z'
loop_
 _atom_site_type_symbol
 _atom_site_label
 _atom_site_symmetry_multiplicity
 _atom_site_fract_x
 _atom_site_fract_y
 _atom_site_fract_z
 _atom_site_occupancy
  Er  Er0  1  0.792059  0.083445  0.813890  1
  Er  Er1  1  0.975748  0.415440  0.183073  1
  Er  Er2  1  0.207559  0.915440  0.185722  1
  Er  Er3  1  0.023553  0.584416  0.814531  1
  Er  Er4  1  0.206474  0.184416  0.565766  1
  Er  Er5  1  0.640107  0.316896  0.436384  1
  Er  Er6  1  0.794603  0.816098  0.434462  1
  Er  Er7  1  0.358945  0.683597  0.564755  1
  Tm  Tm8  1  0.419994  0.249874  0.999367  1
  Tm  Tm9  1  0.580369  0.750326  0.000020  1
  Os  Os10  1  0.602941  0.423338  0.781698  1
  Ru  Ru11  1  0.823374  0.076774  0.220457  1
  Ru  Ru12  1  0.396942  0.576840  0.219728  1
  Ru  Ru13  1  0.177331  0.923099  0.780147  1
