# generated using pymatgen
data_Tb4Sc3AlIr4
_symmetry_space_group_name_H-M   'P 1'
_cell_length_a   4.36376500
_cell_length_b   7.06916074
_cell_length_c   8.35008876
_cell_angle_alpha   88.31822534
_cell_angle_beta   90.00000000
_cell_angle_gamma   90.00000000
_symmetry_Int_Tables_number   1
_chemical_formula_structural   Tb4Sc3AlIr4
_chemical_formula_sum   'Tb4 Sc3 Al1 Ir4'
_cell_volume   257.47388684
_cell_formula_units_Z   1
loop_
 _symmetry_equiv_pos_site_id
 _symmetry_equiv_pos_as_xyz
  1  'x, y, z'
loop_
 _atom_site_type_symbol
 _atom_site_label
 _atom_site_symmetry_multiplicity
 _atom_site_fract_x
 _atom_site_fract_y
 _atom_site_fract_z
 _atom_site_occupancy
  Tb  Tb0  1  0.250000  0.041497  0.670318  1
  Tb  Tb1  1  0.250000  0.518965  0.815237  1
  Tb  Tb2  1  0.750000  0.985983  0.335093  1
  Tb  Tb3  1  0.750000  0.466413  0.181906  1
  Sc  Sc4  1  0.250000  0.135370  0.070875  1
  Sc  Sc5  1  0.250000  0.636239  0.437049  1
  Sc  Sc6  1  0.750000  0.862159  0.932527  1
  Al  Al7  1  0.750000  0.360896  0.562860  1
  Ir  Ir8  1  0.250000  0.267466  0.388051  1
  Ir  Ir9  1  0.250000  0.752512  0.105142  1
  Ir  Ir10  1  0.750000  0.733642  0.613965  1
  Ir  Ir11  1  0.750000  0.238856  0.886975  1
