# generated using pymatgen
data_Tb16In6FePt
_symmetry_space_group_name_H-M   'P 1'
_cell_length_a   10.47161600
_cell_length_b   10.47161695
_cell_length_c   7.02706900
_cell_angle_alpha   90.00000000
_cell_angle_beta   90.00000000
_cell_angle_gamma   120.00000330
_symmetry_Int_Tables_number   1
_chemical_formula_structural   Tb16In6FePt
_chemical_formula_sum   'Tb16 In6 Fe1 Pt1'
_cell_volume   667.31715695
_cell_formula_units_Z   1
loop_
 _symmetry_equiv_pos_site_id
 _symmetry_equiv_pos_as_xyz
  1  'x, y, z'
loop_
 _atom_site_type_symbol
 _atom_site_label
 _atom_site_symmetry_multiplicity
 _atom_site_fract_x
 _atom_site_fract_y
 _atom_site_fract_z
 _atom_site_occupancy
  Tb  Tb0  1  0.536791  0.073582  0.521769  1
  Tb  Tb1  1  0.926418  0.463209  0.521769  1
  Tb  Tb2  1  0.536791  0.463209  0.521769  1
  Tb  Tb3  1  0.470085  0.940170  0.023751  1
  Tb  Tb4  1  0.059830  0.529915  0.023751  1
  Tb  Tb5  1  0.470085  0.529915  0.023751  1
  Tb  Tb6  1  0.175436  0.350872  0.729536  1
  Tb  Tb7  1  0.649128  0.824564  0.729536  1
  Tb  Tb8  1  0.175436  0.824564  0.729536  1
  Tb  Tb9  1  0.822243  0.644487  0.232105  1
  Tb  Tb10  1  0.355513  0.177757  0.232105  1
  Tb  Tb11  1  0.822243  0.177757  0.232105  1
  Tb  Tb12  1  0.666667  0.333333  0.908964  1
  Tb  Tb13  1  0.333333  0.666667  0.399685  1
  Tb  Tb14  1  0.000000  0.000000  0.508854  1
  Tb  Tb15  1  0.000000  0.000000  0.009687  1
  In  In16  1  0.837192  0.674383  0.768943  1
  In  In17  1  0.325617  0.162808  0.768943  1
  In  In18  1  0.837192  0.162808  0.768943  1
  In  In19  1  0.162682  0.325364  0.267731  1
  In  In20  1  0.674636  0.837318  0.267731  1
  In  In21  1  0.162682  0.837318  0.267731  1
  Fe  Fe22  1  0.666667  0.333333  0.296516  1
  Pt  Pt23  1  0.333333  0.666667  0.800470  1
