# generated using pymatgen
data_Ta3Ti7(GaSn3)2
_symmetry_space_group_name_H-M   'P 1'
_cell_length_a   8.26223200
_cell_length_b   8.26223130
_cell_length_c   5.59234000
_cell_angle_alpha   90.00000000
_cell_angle_beta   90.00000000
_cell_angle_gamma   120.00000279
_symmetry_Int_Tables_number   1
_chemical_formula_structural   Ta3Ti7(GaSn3)2
_chemical_formula_sum   'Ta3 Ti7 Ga2 Sn6'
_cell_volume   330.61223512
_cell_formula_units_Z   1
loop_
 _symmetry_equiv_pos_site_id
 _symmetry_equiv_pos_as_xyz
  1  'x, y, z'
loop_
 _atom_site_type_symbol
 _atom_site_label
 _atom_site_symmetry_multiplicity
 _atom_site_fract_x
 _atom_site_fract_y
 _atom_site_fract_z
 _atom_site_occupancy
  Ta  Ta0  1  0.666667  0.333333  0.500000  1
  Ta  Ta1  1  0.333333  0.666667  0.000000  1
  Ta  Ta2  1  0.666667  0.333333  0.000000  1
  Ti  Ti3  1  0.998126  0.269167  0.249001  1
  Ti  Ti4  1  0.730833  0.001874  0.750999  1
  Ti  Ti5  1  0.730833  0.728959  0.249001  1
  Ti  Ti6  1  0.998126  0.728959  0.750999  1
  Ti  Ti7  1  0.271041  0.269167  0.750999  1
  Ti  Ti8  1  0.333333  0.666667  0.500000  1
  Ti  Ti9  1  0.271041  0.001874  0.249001  1
  Ga  Ga10  1  0.000000  0.000000  0.000000  1
  Ga  Ga11  1  0.000000  0.000000  0.500000  1
  Sn  Sn12  1  0.613019  0.997404  0.251546  1
  Sn  Sn13  1  0.384385  0.997404  0.748454  1
  Sn  Sn14  1  0.384385  0.386981  0.251546  1
  Sn  Sn15  1  0.002596  0.615615  0.251546  1
  Sn  Sn16  1  0.002596  0.386981  0.748454  1
  Sn  Sn17  1  0.613019  0.615615  0.748454  1
