# generated using pymatgen
data_CaNd5(Sn5Pd6)2
_symmetry_space_group_name_H-M   'P 1'
_cell_length_a   4.53512700
_cell_length_b   9.63922300
_cell_length_c   14.10903200
_cell_angle_alpha   90.00000000
_cell_angle_beta   90.00000000
_cell_angle_gamma   90.00000000
_symmetry_Int_Tables_number   1
_chemical_formula_structural   CaNd5(Sn5Pd6)2
_chemical_formula_sum   'Ca1 Nd5 Sn10 Pd12'
_cell_volume   616.77775164
_cell_formula_units_Z   1
loop_
 _symmetry_equiv_pos_site_id
 _symmetry_equiv_pos_as_xyz
  1  'x, y, z'
loop_
 _atom_site_type_symbol
 _atom_site_label
 _atom_site_symmetry_multiplicity
 _atom_site_fract_x
 _atom_site_fract_y
 _atom_site_fract_z
 _atom_site_occupancy
  Ca  Ca0  1  0.000000  0.227295  0.000000  1
  Nd  Nd1  1  0.500000  0.773073  0.500000  1
  Nd  Nd2  1  0.000000  0.245124  0.322143  1
  Nd  Nd3  1  0.500000  0.753406  0.178503  1
  Nd  Nd4  1  0.000000  0.245124  0.677857  1
  Nd  Nd5  1  0.500000  0.753406  0.821497  1
  Sn  Sn6  1  0.000000  0.519068  0.117577  1
  Sn  Sn7  1  0.500000  0.480278  0.381874  1
  Sn  Sn8  1  0.000000  0.519068  0.882423  1
  Sn  Sn9  1  0.500000  0.480278  0.618126  1
  Sn  Sn10  1  0.000000  0.871867  0.327388  1
  Sn  Sn11  1  0.500000  0.128104  0.171854  1
  Sn  Sn12  1  0.000000  0.871867  0.672612  1
  Sn  Sn13  1  0.500000  0.128104  0.828146  1
  Sn  Sn14  1  0.000000  0.804384  0.000000  1
  Sn  Sn15  1  0.500000  0.197817  0.500000  1
  Pd  Pd16  1  0.000000  0.990207  0.144403  1
  Pd  Pd17  1  0.500000  0.010800  0.355302  1
  Pd  Pd18  1  0.000000  0.990207  0.855597  1
  Pd  Pd19  1  0.500000  0.010800  0.644698  1
  Pd  Pd20  1  0.500000  0.979101  0.000000  1
  Pd  Pd21  1  0.000000  0.015747  0.500000  1
  Pd  Pd22  1  0.000000  0.594190  0.305947  1
  Pd  Pd23  1  0.500000  0.407703  0.194672  1
  Pd  Pd24  1  0.000000  0.594190  0.694053  1
  Pd  Pd25  1  0.500000  0.407703  0.805328  1
  Pd  Pd26  1  0.500000  0.500950  0.000000  1
  Pd  Pd27  1  0.000000  0.500139  0.500000  1
