# generated using pymatgen
data_Sr2Tb3Eu2Dy5Se16
_symmetry_space_group_name_H-M   'P 1'
_cell_length_a   4.14193600
_cell_length_b   12.67667634
_cell_length_c   14.97235140
_cell_angle_alpha   90.02645333
_cell_angle_beta   90.00000000
_cell_angle_gamma   90.00000000
_symmetry_Int_Tables_number   1
_chemical_formula_structural   Sr2Tb3Eu2Dy5Se16
_chemical_formula_sum   'Sr2 Tb3 Eu2 Dy5 Se16'
_cell_volume   786.13793052
_cell_formula_units_Z   1
loop_
 _symmetry_equiv_pos_site_id
 _symmetry_equiv_pos_as_xyz
  1  'x, y, z'
loop_
 _atom_site_type_symbol
 _atom_site_label
 _atom_site_symmetry_multiplicity
 _atom_site_fract_x
 _atom_site_fract_y
 _atom_site_fract_z
 _atom_site_occupancy
  Sr  Sr0  1  0.250000  0.259627  0.834019  1
  Sr  Sr1  1  0.250000  0.759754  0.666242  1
  Tb  Tb2  1  0.750000  0.560601  0.387727  1
  Tb  Tb3  1  0.750000  0.086739  0.595625  1
  Tb  Tb4  1  0.750000  0.586595  0.904360  1
  Eu  Eu5  1  0.750000  0.741932  0.166406  1
  Eu  Eu6  1  0.750000  0.241364  0.333410  1
  Dy  Dy7  1  0.750000  0.060101  0.112454  1
  Dy  Dy8  1  0.250000  0.939683  0.889267  1
  Dy  Dy9  1  0.250000  0.439397  0.611009  1
  Dy  Dy10  1  0.250000  0.913966  0.401950  1
  Dy  Dy11  1  0.250000  0.413737  0.097637  1
  Se  Se12  1  0.750000  0.297588  0.673767  1
  Se  Se13  1  0.750000  0.797655  0.826409  1
  Se  Se14  1  0.250000  0.703522  0.322080  1
  Se  Se15  1  0.250000  0.203237  0.176978  1
  Se  Se16  1  0.750000  0.370961  0.968701  1
  Se  Se17  1  0.750000  0.870975  0.531204  1
  Se  Se18  1  0.250000  0.629710  0.035529  1
  Se  Se19  1  0.250000  0.129829  0.464521  1
  Se  Se20  1  0.750000  0.466560  0.216165  1
  Se  Se21  1  0.750000  0.967035  0.283552  1
  Se  Se22  1  0.250000  0.531537  0.784552  1
  Se  Se23  1  0.250000  0.031673  0.715617  1
  Se  Se24  1  0.750000  0.091188  0.924175  1
  Se  Se25  1  0.750000  0.591039  0.576590  1
  Se  Se26  1  0.250000  0.907303  0.077529  1
  Se  Se27  1  0.250000  0.406691  0.422526  1
