# generated using pymatgen
data_Sn4OsAu
_symmetry_space_group_name_H-M   'P 1'
_cell_length_a   6.77015400
_cell_length_b   6.77015400
_cell_length_c   6.03622600
_cell_angle_alpha   90.00000000
_cell_angle_beta   90.00000000
_cell_angle_gamma   90.00000000
_symmetry_Int_Tables_number   1
_chemical_formula_structural   Sn4OsAu
_chemical_formula_sum   'Sn8 Os2 Au2'
_cell_volume   276.67032928
_cell_formula_units_Z   2
loop_
 _symmetry_equiv_pos_site_id
 _symmetry_equiv_pos_as_xyz
  1  'x, y, z'
loop_
 _atom_site_type_symbol
 _atom_site_label
 _atom_site_symmetry_multiplicity
 _atom_site_fract_x
 _atom_site_fract_y
 _atom_site_fract_z
 _atom_site_occupancy
  Sn  Sn0  1  0.368685  0.178832  0.000000  1
  Sn  Sn1  1  0.631315  0.821168  0.000000  1
  Sn  Sn2  1  0.178832  0.631315  0.000000  1
  Sn  Sn3  1  0.368685  0.821168  0.500000  1
  Sn  Sn4  1  0.821168  0.368685  0.000000  1
  Sn  Sn5  1  0.631315  0.178832  0.500000  1
  Sn  Sn6  1  0.178832  0.368685  0.500000  1
  Sn  Sn7  1  0.821168  0.631315  0.500000  1
  Os  Os8  1  0.500000  0.500000  0.250000  1
  Os  Os9  1  0.500000  0.500000  0.750000  1
  Au  Au10  1  0.000000  0.000000  0.000000  1
  Au  Au11  1  0.000000  0.000000  0.500000  1
