# generated using pymatgen
data_HfCu2Rh3S8
_symmetry_space_group_name_H-M   'P 1'
_cell_length_a   6.87535436
_cell_length_b   6.87535449
_cell_length_c   6.87535479
_cell_angle_alpha   63.55815331
_cell_angle_beta   63.55815041
_cell_angle_gamma   63.55814778
_symmetry_Int_Tables_number   1
_chemical_formula_structural   HfCu2Rh3S8
_chemical_formula_sum   'Hf1 Cu2 Rh3 S8'
_cell_volume   247.88440721
_cell_formula_units_Z   1
loop_
 _symmetry_equiv_pos_site_id
 _symmetry_equiv_pos_as_xyz
  1  'x, y, z'
loop_
 _atom_site_type_symbol
 _atom_site_label
 _atom_site_symmetry_multiplicity
 _atom_site_fract_x
 _atom_site_fract_y
 _atom_site_fract_z
 _atom_site_occupancy
  Hf  Hf0  1  0.125000  0.125000  0.125000  1
  Cu  Cu1  1  0.747168  0.747168  0.747168  1
  Cu  Cu2  1  0.502832  0.502832  0.502832  1
  Rh  Rh3  1  0.125000  0.125000  0.625000  1
  Rh  Rh4  1  0.125000  0.625000  0.125000  1
  Rh  Rh5  1  0.625000  0.125000  0.125000  1
  S  S6  1  0.872397  0.359152  0.872397  1
  S  S7  1  0.377603  0.377603  0.890848  1
  S  S8  1  0.364142  0.364142  0.364142  1
  S  S9  1  0.890848  0.377603  0.377603  1
  S  S10  1  0.885858  0.885858  0.885858  1
  S  S11  1  0.359152  0.872397  0.872397  1
  S  S12  1  0.377603  0.890848  0.377603  1
  S  S13  1  0.872397  0.872397  0.359152  1
