# generated using pymatgen
data_Er2Cu4Ni3
_symmetry_space_group_name_H-M   'P 1'
_cell_length_a   4.89850872
_cell_length_b   4.89850865
_cell_length_c   6.43824176
_cell_angle_alpha   82.58242948
_cell_angle_beta   82.58243637
_cell_angle_gamma   120.07838723
_symmetry_Int_Tables_number   1
_chemical_formula_structural   Er2Cu4Ni3
_chemical_formula_sum   'Er2 Cu4 Ni3'
_cell_volume   129.14083929
_cell_formula_units_Z   1
loop_
 _symmetry_equiv_pos_site_id
 _symmetry_equiv_pos_as_xyz
  1  'x, y, z'
loop_
 _atom_site_type_symbol
 _atom_site_label
 _atom_site_symmetry_multiplicity
 _atom_site_fract_x
 _atom_site_fract_y
 _atom_site_fract_z
 _atom_site_occupancy
  Er  Er0  1  0.097179  0.097179  0.241369  1
  Er  Er1  1  0.902821  0.902821  0.758631  1
  Cu  Cu2  1  0.448967  0.785530  0.159373  1
  Cu  Cu3  1  0.551033  0.214470  0.840627  1
  Cu  Cu4  1  0.214470  0.551033  0.840627  1
  Cu  Cu5  1  0.785530  0.448967  0.159373  1
  Ni  Ni6  1  0.000000  0.500000  0.500000  1
  Ni  Ni7  1  0.500000  0.000000  0.500000  1
  Ni  Ni8  1  0.500000  0.500000  0.500000  1
