# generated using pymatgen
data_Nd2AlNi8Ge
_symmetry_space_group_name_H-M   'P 1'
_cell_length_a   4.98138857
_cell_length_b   4.98138782
_cell_length_c   8.05017500
_cell_angle_alpha   90.00000000
_cell_angle_beta   90.00000000
_cell_angle_gamma   117.97411263
_symmetry_Int_Tables_number   1
_chemical_formula_structural   Nd2AlNi8Ge
_chemical_formula_sum   'Nd2 Al1 Ni8 Ge1'
_cell_volume   176.41897718
_cell_formula_units_Z   1
loop_
 _symmetry_equiv_pos_site_id
 _symmetry_equiv_pos_as_xyz
  1  'x, y, z'
loop_
 _atom_site_type_symbol
 _atom_site_label
 _atom_site_symmetry_multiplicity
 _atom_site_fract_x
 _atom_site_fract_y
 _atom_site_fract_z
 _atom_site_occupancy
  Nd  Nd0  1  0.000000  0.000000  0.753768  1
  Nd  Nd1  1  0.000000  0.000000  0.246232  1
  Al  Al2  1  0.500000  0.500000  0.500000  1
  Ni  Ni3  1  0.666132  0.333868  0.748409  1
  Ni  Ni4  1  0.666132  0.333868  0.251591  1
  Ni  Ni5  1  0.333868  0.666132  0.748409  1
  Ni  Ni6  1  0.500000  0.000000  0.500000  1
  Ni  Ni7  1  0.000000  0.500000  0.000000  1
  Ni  Ni8  1  0.500000  0.000000  0.000000  1
  Ni  Ni9  1  0.333868  0.666132  0.251591  1
  Ni  Ni10  1  0.000000  0.500000  0.500000  1
  Ge  Ge11  1  0.500000  0.500000  0.000000  1
