# generated using pymatgen
data_Tm8Cd3SnAu8
_symmetry_space_group_name_H-M   'P 1'
_cell_length_a   7.93903200
_cell_length_b   7.93903200
_cell_length_c   7.29511000
_cell_angle_alpha   90.00000000
_cell_angle_beta   90.00000000
_cell_angle_gamma   90.00000000
_symmetry_Int_Tables_number   1
_chemical_formula_structural   Tm8Cd3SnAu8
_chemical_formula_sum   'Tm8 Cd3 Sn1 Au8'
_cell_volume   459.79786437
_cell_formula_units_Z   1
loop_
 _symmetry_equiv_pos_site_id
 _symmetry_equiv_pos_as_xyz
  1  'x, y, z'
loop_
 _atom_site_type_symbol
 _atom_site_label
 _atom_site_symmetry_multiplicity
 _atom_site_fract_x
 _atom_site_fract_y
 _atom_site_fract_z
 _atom_site_occupancy
  Tm  Tm0  1  0.678109  0.321963  0.499809  1
  Tm  Tm1  1  0.321891  0.678037  0.499809  1
  Tm  Tm2  1  0.178037  0.178109  0.000191  1
  Tm  Tm3  1  0.821963  0.821891  0.000191  1
  Tm  Tm4  1  0.838564  0.838819  0.500131  1
  Tm  Tm5  1  0.161436  0.161181  0.500131  1
  Tm  Tm6  1  0.338819  0.661436  0.999869  1
  Tm  Tm7  1  0.661181  0.338564  0.999869  1
  Cd  Cd8  1  0.500000  0.000000  0.250000  1
  Cd  Cd9  1  0.000000  0.500000  0.750000  1
  Cd  Cd10  1  0.500000  0.000000  0.750000  1
  Sn  Sn11  1  0.000000  0.500000  0.250000  1
  Au  Au12  1  0.868574  0.126399  0.233253  1
  Au  Au13  1  0.131426  0.873601  0.233253  1
  Au  Au14  1  0.370641  0.370446  0.733584  1
  Au  Au15  1  0.629359  0.629554  0.733584  1
  Au  Au16  1  0.129554  0.870641  0.766416  1
  Au  Au17  1  0.870446  0.129359  0.766416  1
  Au  Au18  1  0.626399  0.631426  0.266747  1
  Au  Au19  1  0.373601  0.368574  0.266747  1
