# generated using pymatgen
data_Er10FeBi5
_symmetry_space_group_name_H-M   'P 1'
_cell_length_a   8.02100700
_cell_length_b   9.35696900
_cell_length_c   12.03334400
_cell_angle_alpha   90.00000000
_cell_angle_beta   90.00000000
_cell_angle_gamma   90.00000000
_symmetry_Int_Tables_number   1
_chemical_formula_structural   Er10FeBi5
_chemical_formula_sum   'Er20 Fe2 Bi10'
_cell_volume   903.13031053
_cell_formula_units_Z   2
loop_
 _symmetry_equiv_pos_site_id
 _symmetry_equiv_pos_as_xyz
  1  'x, y, z'
loop_
 _atom_site_type_symbol
 _atom_site_label
 _atom_site_symmetry_multiplicity
 _atom_site_fract_x
 _atom_site_fract_y
 _atom_site_fract_z
 _atom_site_occupancy
  Er  Er0  1  0.427639  0.176972  0.562838  1
  Er  Er1  1  0.572361  0.823028  0.062838  1
  Er  Er2  1  0.071006  0.729773  0.436672  1
  Er  Er3  1  0.928994  0.270227  0.936672  1
  Er  Er4  1  0.071006  0.270227  0.436672  1
  Er  Er5  1  0.928994  0.729773  0.936672  1
  Er  Er6  1  0.427639  0.823028  0.562838  1
  Er  Er7  1  0.572361  0.176972  0.062838  1
  Er  Er8  1  0.573072  0.500000  0.772343  1
  Er  Er9  1  0.426928  0.500000  0.272343  1
  Er  Er10  1  0.908525  0.000000  0.201669  1
  Er  Er11  1  0.091475  0.000000  0.701669  1
  Er  Er12  1  0.259931  0.500000  0.993744  1
  Er  Er13  1  0.740069  0.500000  0.493744  1
  Er  Er14  1  0.196624  0.000000  0.995953  1
  Er  Er15  1  0.803376  0.000000  0.495953  1
  Er  Er16  1  0.089988  0.500000  0.718586  1
  Er  Er17  1  0.910012  0.500000  0.218586  1
  Er  Er18  1  0.369687  0.000000  0.308980  1
  Er  Er19  1  0.630313  0.000000  0.808980  1
  Fe  Fe20  1  0.171754  0.000000  0.487748  1
  Fe  Fe21  1  0.828246  0.000000  0.987748  1
  Bi  Bi22  1  0.813856  0.740640  0.671988  1
  Bi  Bi23  1  0.186144  0.259360  0.171988  1
  Bi  Bi24  1  0.679784  0.242154  0.325497  1
  Bi  Bi25  1  0.320216  0.757846  0.825497  1
  Bi  Bi26  1  0.679784  0.757846  0.325497  1
  Bi  Bi27  1  0.320216  0.242154  0.825497  1
  Bi  Bi28  1  0.813856  0.259360  0.671988  1
  Bi  Bi29  1  0.186144  0.740640  0.171988  1
  Bi  Bi30  1  0.345851  0.500000  0.526990  1
  Bi  Bi31  1  0.654149  0.500000  0.026990  1
