# generated using pymatgen
data_Hf6Co16Si6As
_symmetry_space_group_name_H-M   'P 1'
_cell_length_a   8.02233601
_cell_length_b   8.02233561
_cell_length_c   8.01746800
_cell_angle_alpha   60.02007757
_cell_angle_beta   60.02007921
_cell_angle_gamma   60.12630313
_symmetry_Int_Tables_number   1
_chemical_formula_structural   Hf6Co16Si6As
_chemical_formula_sum   'Hf6 Co16 Si6 As1'
_cell_volume   365.31603409
_cell_formula_units_Z   1
loop_
 _symmetry_equiv_pos_site_id
 _symmetry_equiv_pos_as_xyz
  1  'x, y, z'
loop_
 _atom_site_type_symbol
 _atom_site_label
 _atom_site_symmetry_multiplicity
 _atom_site_fract_x
 _atom_site_fract_y
 _atom_site_fract_z
 _atom_site_occupancy
  Hf  Hf0  1  0.206690  0.793310  0.797857  1
  Hf  Hf1  1  0.795386  0.795386  0.204614  1
  Hf  Hf2  1  0.793310  0.206690  0.202143  1
  Hf  Hf3  1  0.204614  0.204614  0.795386  1
  Hf  Hf4  1  0.793310  0.206690  0.797857  1
  Hf  Hf5  1  0.206690  0.793310  0.202143  1
  Co  Co6  1  0.619722  0.619722  0.140523  1
  Co  Co7  1  0.170771  0.490133  0.169548  1
  Co  Co8  1  0.857602  0.385143  0.378627  1
  Co  Co9  1  0.509867  0.829229  0.830452  1
  Co  Co10  1  0.490133  0.170771  0.169548  1
  Co  Co11  1  0.828347  0.828347  0.509872  1
  Co  Co12  1  0.171653  0.171653  0.490128  1
  Co  Co13  1  0.142398  0.614857  0.621373  1
  Co  Co14  1  0.171653  0.171653  0.166567  1
  Co  Co15  1  0.380278  0.380278  0.859477  1
  Co  Co16  1  0.619722  0.619722  0.620034  1
  Co  Co17  1  0.385143  0.857602  0.378627  1
  Co  Co18  1  0.380278  0.380278  0.379966  1
  Co  Co19  1  0.828347  0.828347  0.833433  1
  Co  Co20  1  0.614857  0.142398  0.621373  1
  Co  Co21  1  0.829229  0.509867  0.830452  1
  Si  Si22  1  0.500000  0.000000  0.500000  1
  Si  Si23  1  0.500000  0.500000  0.000000  1
  Si  Si24  1  0.500000  0.500000  0.500000  1
  Si  Si25  1  0.000000  0.500000  0.000000  1
  Si  Si26  1  0.000000  0.500000  0.500000  1
  Si  Si27  1  0.500000  0.000000  0.000000  1
  As  As28  1  0.000000  0.000000  0.500000  1
