# generated using pymatgen
data_LaGdHo4Ta2O14
_symmetry_space_group_name_H-M   'P 1'
_cell_length_a   6.50126657
_cell_length_b   6.50126647
_cell_length_c   7.55342515
_cell_angle_alpha   89.87881222
_cell_angle_beta   90.12118891
_cell_angle_gamma   108.71112041
_symmetry_Int_Tables_number   1
_chemical_formula_structural   LaGdHo4Ta2O14
_chemical_formula_sum   'La1 Gd1 Ho4 Ta2 O14'
_cell_volume   302.38222689
_cell_formula_units_Z   1
loop_
 _symmetry_equiv_pos_site_id
 _symmetry_equiv_pos_as_xyz
  1  'x, y, z'
loop_
 _atom_site_type_symbol
 _atom_site_label
 _atom_site_symmetry_multiplicity
 _atom_site_fract_x
 _atom_site_fract_y
 _atom_site_fract_z
 _atom_site_occupancy
  La  La0  1  0.507578  0.507578  0.500000  1
  Gd  Gd1  1  0.468244  0.468244  0.000000  1
  Ho  Ho2  1  0.000133  0.534538  0.241993  1
  Ho  Ho3  1  0.998248  0.466685  0.747056  1
  Ho  Ho4  1  0.534538  0.000133  0.758007  1
  Ho  Ho5  1  0.466685  0.998248  0.252944  1
  Ta  Ta6  1  0.000567  0.000567  0.500000  1
  Ta  Ta7  1  0.997467  0.997467  0.000000  1
  O  O8  1  0.933906  0.066691  0.749720  1
  O  O9  1  0.066691  0.933906  0.250280  1
  O  O10  1  0.356523  0.643557  0.241717  1
  O  O11  1  0.643557  0.356523  0.758283  1
  O  O12  1  0.364583  0.634615  0.757966  1
  O  O13  1  0.634615  0.364583  0.242034  1
  O  O14  1  0.325754  0.077481  0.973008  1
  O  O15  1  0.677357  0.929965  0.471300  1
  O  O16  1  0.315739  0.061861  0.540189  1
  O  O17  1  0.690232  0.948277  0.040751  1
  O  O18  1  0.061861  0.315739  0.459811  1
  O  O19  1  0.948277  0.690232  0.959249  1
  O  O20  1  0.929965  0.677357  0.528700  1
  O  O21  1  0.077481  0.325754  0.026992  1
