# generated using pymatgen
data_Dy5Ho3Tc2(B12Rh)2
_symmetry_space_group_name_H-M   'P 1'
_cell_length_a   3.68029200
_cell_length_b   9.14251399
_cell_length_c   11.53333500
_cell_angle_alpha   90.38681446
_cell_angle_beta   90.00000000
_cell_angle_gamma   90.00000000
_symmetry_Int_Tables_number   1
_chemical_formula_structural   Dy5Ho3Tc2(B12Rh)2
_chemical_formula_sum   'Dy5 Ho3 Tc2 B24 Rh2'
_cell_volume   388.05467599
_cell_formula_units_Z   1
loop_
 _symmetry_equiv_pos_site_id
 _symmetry_equiv_pos_as_xyz
  1  'x, y, z'
loop_
 _atom_site_type_symbol
 _atom_site_label
 _atom_site_symmetry_multiplicity
 _atom_site_fract_x
 _atom_site_fract_y
 _atom_site_fract_z
 _atom_site_occupancy
  Dy  Dy0  1  0.500000  0.319018  0.410965  1
  Dy  Dy1  1  0.500000  0.680958  0.589103  1
  Dy  Dy2  1  0.500000  0.173186  0.917065  1
  Dy  Dy3  1  0.500000  0.826788  0.082845  1
  Dy  Dy4  1  0.500000  0.442030  0.126840  1
  Ho  Ho5  1  0.500000  0.558094  0.873052  1
  Ho  Ho6  1  0.500000  0.054089  0.628495  1
  Ho  Ho7  1  0.500000  0.945896  0.371544  1
  Tc  Tc8  1  0.500000  0.138932  0.180006  1
  Tc  Tc9  1  0.500000  0.860795  0.819996  1
  B  B10  1  0.000000  0.108336  0.470863  1
  B  B11  1  0.000000  0.891657  0.529146  1
  B  B12  1  0.000000  0.392838  0.970015  1
  B  B13  1  0.000000  0.607413  0.029545  1
  B  B14  1  0.000000  0.132333  0.314763  1
  B  B15  1  0.000000  0.867621  0.685265  1
  B  B16  1  0.000000  0.367339  0.816367  1
  B  B17  1  0.000000  0.632893  0.183710  1
  B  B18  1  0.000000  0.053218  0.067614  1
  B  B19  1  0.000000  0.946721  0.932367  1
  B  B20  1  0.000000  0.445571  0.566145  1
  B  B21  1  0.000000  0.554441  0.433882  1
  B  B22  1  0.000000  0.483996  0.287748  1
  B  B23  1  0.000000  0.516120  0.712428  1
  B  B24  1  0.000000  0.016358  0.786921  1
  B  B25  1  0.000000  0.983632  0.213086  1
  B  B26  1  0.000000  0.247782  0.081257  1
  B  B27  1  0.000000  0.751963  0.918741  1
  B  B28  1  0.000000  0.250922  0.578847  1
  B  B29  1  0.000000  0.749105  0.421157  1
  B  B30  1  0.000000  0.292473  0.234557  1
  B  B31  1  0.000000  0.707272  0.765520  1
  B  B32  1  0.000000  0.208608  0.734588  1
  B  B33  1  0.000000  0.791456  0.265433  1
  Rh  Rh34  1  0.500000  0.361895  0.678532  1
  Rh  Rh35  1  0.500000  0.638252  0.321592  1
