# generated using pymatgen
data_Ho6Th2ZnCo2Au
_symmetry_space_group_name_H-M   'P 1'
_cell_length_a   9.41532044
_cell_length_b   9.41532046
_cell_length_c   9.41461900
_cell_angle_alpha   60.00246097
_cell_angle_beta   60.00246090
_cell_angle_gamma   59.97909370
_symmetry_Int_Tables_number   1
_chemical_formula_structural   Ho6Th2ZnCo2Au
_chemical_formula_sum   'Ho12 Th4 Zn2 Co4 Au2'
_cell_volume   590.07259698
_cell_formula_units_Z   2
loop_
 _symmetry_equiv_pos_site_id
 _symmetry_equiv_pos_as_xyz
  1  'x, y, z'
loop_
 _atom_site_type_symbol
 _atom_site_label
 _atom_site_symmetry_multiplicity
 _atom_site_fract_x
 _atom_site_fract_y
 _atom_site_fract_z
 _atom_site_occupancy
  Ho  Ho0  1  0.810887  0.189274  0.189341  1
  Ho  Ho1  1  0.189274  0.810887  0.810498  1
  Ho  Ho2  1  0.189274  0.810887  0.189341  1
  Ho  Ho3  1  0.810887  0.189274  0.810498  1
  Ho  Ho4  1  0.190688  0.190688  0.809312  1
  Ho  Ho5  1  0.811677  0.811677  0.188323  1
  Ho  Ho6  1  0.935379  0.565308  0.564647  1
  Ho  Ho7  1  0.565308  0.935379  0.934666  1
  Ho  Ho8  1  0.565308  0.935379  0.564647  1
  Ho  Ho9  1  0.935379  0.565308  0.934666  1
  Ho  Ho10  1  0.565283  0.565283  0.934717  1
  Ho  Ho11  1  0.935745  0.935745  0.564255  1
  Th  Th12  1  0.349801  0.349801  0.348531  1
  Th  Th13  1  0.349801  0.349801  0.951868  1
  Th  Th14  1  0.349517  0.954618  0.347933  1
  Th  Th15  1  0.954618  0.349517  0.347933  1
  Zn  Zn16  1  0.580209  0.580209  0.579222  1
  Zn  Zn17  1  0.580209  0.580209  0.260359  1
  Co  Co18  1  0.144779  0.144779  0.143915  1
  Co  Co19  1  0.144779  0.144779  0.566526  1
  Co  Co20  1  0.144246  0.568400  0.143676  1
  Co  Co21  1  0.568400  0.144246  0.143676  1
  Au  Au22  1  0.588554  0.239996  0.585724  1
  Au  Au23  1  0.239996  0.588554  0.585724  1
