# generated using pymatgen
data_Nd8AlPd23Pt
_symmetry_space_group_name_H-M   'P 1'
_cell_length_a   8.48386200
_cell_length_b   8.49278100
_cell_length_c   8.49278100
_cell_angle_alpha   90.00000000
_cell_angle_beta   90.00000000
_cell_angle_gamma   90.00000000
_symmetry_Int_Tables_number   1
_chemical_formula_structural   Nd8AlPd23Pt
_chemical_formula_sum   'Nd8 Al1 Pd23 Pt1'
_cell_volume   611.91830663
_cell_formula_units_Z   1
loop_
 _symmetry_equiv_pos_site_id
 _symmetry_equiv_pos_as_xyz
  1  'x, y, z'
loop_
 _atom_site_type_symbol
 _atom_site_label
 _atom_site_symmetry_multiplicity
 _atom_site_fract_x
 _atom_site_fract_y
 _atom_site_fract_z
 _atom_site_occupancy
  Nd  Nd0  1  0.251446  0.251300  0.251300  1
  Nd  Nd1  1  0.748150  0.747920  0.747920  1
  Nd  Nd2  1  0.748150  0.747920  0.252080  1
  Nd  Nd3  1  0.748150  0.252080  0.747920  1
  Nd  Nd4  1  0.251446  0.251300  0.748700  1
  Nd  Nd5  1  0.251446  0.748700  0.251300  1
  Nd  Nd6  1  0.251446  0.748700  0.748700  1
  Nd  Nd7  1  0.748150  0.252080  0.252080  1
  Al  Al8  1  0.002237  0.000000  0.000000  1
  Pd  Pd9  1  0.260098  0.500000  0.000000  1
  Pd  Pd10  1  0.739371  0.500000  0.000000  1
  Pd  Pd11  1  0.999892  0.260460  0.500000  1
  Pd  Pd12  1  0.499941  0.260266  0.000000  1
  Pd  Pd13  1  0.999892  0.739540  0.500000  1
  Pd  Pd14  1  0.499941  0.739734  0.000000  1
  Pd  Pd15  1  0.499941  0.000000  0.260266  1
  Pd  Pd16  1  0.260098  0.000000  0.500000  1
  Pd  Pd17  1  0.499941  0.000000  0.739734  1
  Pd  Pd18  1  0.739371  0.000000  0.500000  1
  Pd  Pd19  1  0.999892  0.500000  0.260460  1
  Pd  Pd20  1  0.999892  0.500000  0.739540  1
  Pd  Pd21  1  0.252953  0.500000  0.500000  1
  Pd  Pd22  1  0.747226  0.500000  0.500000  1
  Pd  Pd23  1  0.500156  0.253029  0.500000  1
  Pd  Pd24  1  0.500156  0.746971  0.500000  1
  Pd  Pd25  1  0.500156  0.500000  0.253029  1
  Pd  Pd26  1  0.500156  0.500000  0.746971  1
  Pd  Pd27  1  0.710660  0.000000  0.000000  1
  Pd  Pd28  1  0.999468  0.291784  0.000000  1
  Pd  Pd29  1  0.999468  0.708216  0.000000  1
  Pd  Pd30  1  0.999468  0.000000  0.291784  1
  Pd  Pd31  1  0.999468  0.000000  0.708216  1
  Pt  Pt32  1  0.291771  0.000000  0.000000  1
