# generated using pymatgen
data_Hf18Re8PdPt
_symmetry_space_group_name_H-M   'P 1'
_cell_length_a   8.67951700
_cell_length_b   8.67951570
_cell_length_c   8.54250000
_cell_angle_alpha   90.00000000
_cell_angle_beta   90.00000000
_cell_angle_gamma   120.00000115
_symmetry_Int_Tables_number   1
_chemical_formula_structural   Hf18Re8PdPt
_chemical_formula_sum   'Hf18 Re8 Pd1 Pt1'
_cell_volume   557.32261377
_cell_formula_units_Z   1
loop_
 _symmetry_equiv_pos_site_id
 _symmetry_equiv_pos_as_xyz
  1  'x, y, z'
loop_
 _atom_site_type_symbol
 _atom_site_label
 _atom_site_symmetry_multiplicity
 _atom_site_fract_x
 _atom_site_fract_y
 _atom_site_fract_z
 _atom_site_occupancy
  Hf  Hf0  1  0.193815  0.806185  0.447248  1
  Hf  Hf1  1  0.193815  0.387629  0.447248  1
  Hf  Hf2  1  0.612371  0.806185  0.447248  1
  Hf  Hf3  1  0.805860  0.194140  0.552062  1
  Hf  Hf4  1  0.805860  0.611720  0.552062  1
  Hf  Hf5  1  0.388280  0.194140  0.552062  1
  Hf  Hf6  1  0.805860  0.194140  0.947938  1
  Hf  Hf7  1  0.805860  0.611720  0.947938  1
  Hf  Hf8  1  0.388280  0.194140  0.947938  1
  Hf  Hf9  1  0.193815  0.806185  0.052752  1
  Hf  Hf10  1  0.193815  0.387629  0.052752  1
  Hf  Hf11  1  0.612371  0.806185  0.052752  1
  Hf  Hf12  1  0.542185  0.457815  0.250000  1
  Hf  Hf13  1  0.542185  0.084370  0.250000  1
  Hf  Hf14  1  0.915630  0.457815  0.250000  1
  Hf  Hf15  1  0.457284  0.542716  0.750000  1
  Hf  Hf16  1  0.457284  0.914570  0.750000  1
  Hf  Hf17  1  0.085430  0.542716  0.750000  1
  Re  Re18  1  0.889667  0.110333  0.250000  1
  Re  Re19  1  0.889667  0.779334  0.250000  1
  Re  Re20  1  0.220666  0.110333  0.250000  1
  Re  Re21  1  0.110205  0.889795  0.750000  1
  Re  Re22  1  0.110205  0.220409  0.750000  1
  Re  Re23  1  0.779591  0.889795  0.750000  1
  Re  Re24  1  0.000000  0.000000  0.499691  1
  Re  Re25  1  0.000000  0.000000  0.000309  1
  Pd  Pd26  1  0.666667  0.333333  0.750000  1
  Pt  Pt27  1  0.333333  0.666667  0.250000  1
