# generated using pymatgen
data_Tm3GeSe2
_symmetry_space_group_name_H-M   'P 1'
_cell_length_a   7.04220075
_cell_length_b   7.04220117
_cell_length_c   7.04220128
_cell_angle_alpha   146.37671611
_cell_angle_beta   132.24009454
_cell_angle_gamma   59.67295346
_symmetry_Int_Tables_number   1
_chemical_formula_structural   Tm3GeSe2
_chemical_formula_sum   'Tm3 Ge1 Se2'
_cell_volume   141.88310930
_cell_formula_units_Z   1
loop_
 _symmetry_equiv_pos_site_id
 _symmetry_equiv_pos_as_xyz
  1  'x, y, z'
loop_
 _atom_site_type_symbol
 _atom_site_label
 _atom_site_symmetry_multiplicity
 _atom_site_fract_x
 _atom_site_fract_y
 _atom_site_fract_z
 _atom_site_occupancy
  Tm  Tm0  1  0.343135  0.343135  0.000000  1
  Tm  Tm1  1  0.000000  0.000000  0.000000  1
  Tm  Tm2  1  0.656865  0.656865  0.000000  1
  Ge  Ge3  1  0.500000  0.000000  0.500000  1
  Se  Se4  1  0.168921  0.668921  0.500000  1
  Se  Se5  1  0.831079  0.331079  0.500000  1
