# generated using pymatgen
data_Ti8Ga15Fe4Rh3
_symmetry_space_group_name_H-M   'P 1'
_cell_length_a   8.55658418
_cell_length_b   8.54168624
_cell_length_c   8.55511696
_cell_angle_alpha   120.01912921
_cell_angle_beta   119.90234767
_cell_angle_gamma   90.09304839
_symmetry_Int_Tables_number   1
_chemical_formula_structural   Ti8Ga15Fe4Rh3
_chemical_formula_sum   'Ti8 Ga15 Fe4 Rh3'
_cell_volume   442.29983647
_cell_formula_units_Z   1
loop_
 _symmetry_equiv_pos_site_id
 _symmetry_equiv_pos_as_xyz
  1  'x, y, z'
loop_
 _atom_site_type_symbol
 _atom_site_label
 _atom_site_symmetry_multiplicity
 _atom_site_fract_x
 _atom_site_fract_y
 _atom_site_fract_z
 _atom_site_occupancy
  Ti  Ti0  1  0.787364  0.282755  0.064648  1
  Ti  Ti1  1  0.221820  0.285723  0.496725  1
  Ti  Ti2  1  0.212343  0.711957  0.504785  1
  Ti  Ti3  1  0.224360  0.728250  0.936068  1
  Ti  Ti4  1  0.791102  0.726559  0.505503  1
  Ti  Ti5  1  0.771094  0.270467  0.494219  1
  Ti  Ti6  1  0.377543  0.127230  0.752078  1
  Ti  Ti7  1  0.384626  0.626226  0.253445  1
  Ga  Ga8  1  0.993054  0.492709  0.500286  1
  Ga  Ga9  1  0.159135  0.354203  0.204768  1
  Ga  Ga10  1  0.157159  0.959022  0.801830  1
  Ga  Ga11  1  0.154613  0.349183  0.797083  1
  Ga  Ga12  1  0.548368  0.350217  0.197417  1
  Ga  Ga13  1  0.842062  0.643711  0.788791  1
  Ga  Ga14  1  0.846343  0.048950  0.202722  1
  Ga  Ga15  1  0.844394  0.653067  0.199222  1
  Ga  Ga16  1  0.457690  0.651790  0.805025  1
  Ga  Ga17  1  0.379628  0.128005  0.251576  1
  Ga  Ga18  1  0.874536  0.123021  0.745094  1
  Ga  Ga19  1  0.619778  0.865013  0.243502  1
  Ga  Ga20  1  0.614367  0.374253  0.752148  1
  Ga  Ga21  1  0.608894  0.871655  0.738941  1
  Ga  Ga22  1  0.134737  0.878053  0.266653  1
  Fe  Fe23  1  0.001753  0.000884  0.503274  1
  Fe  Fe24  1  0.497908  0.001659  0.999279  1
  Fe  Fe25  1  0.495855  0.497186  0.001950  1
  Fe  Fe26  1  0.497725  0.499312  0.495540  1
  Rh  Rh27  1  0.999270  0.498518  0.998126  1
  Rh  Rh28  1  0.999096  0.998478  0.000141  1
  Rh  Rh29  1  0.503379  0.001942  0.499161  1
