# generated using pymatgen
data_PaTi2Zn3Au
_symmetry_space_group_name_H-M   'P 1'
_cell_length_a   5.55335616
_cell_length_b   5.55335500
_cell_length_c   5.57917700
_cell_angle_alpha   101.50460197
_cell_angle_beta   101.50459953
_cell_angle_gamma   126.81634561
_symmetry_Int_Tables_number   1
_chemical_formula_structural   PaTi2Zn3Au
_chemical_formula_sum   'Pa1 Ti2 Zn3 Au1'
_cell_volume   123.31633797
_cell_formula_units_Z   1
loop_
 _symmetry_equiv_pos_site_id
 _symmetry_equiv_pos_as_xyz
  1  'x, y, z'
loop_
 _atom_site_type_symbol
 _atom_site_label
 _atom_site_symmetry_multiplicity
 _atom_site_fract_x
 _atom_site_fract_y
 _atom_site_fract_z
 _atom_site_occupancy
  Pa  Pa0  1  0.004301  0.995699  0.000000  1
  Ti  Ti1  1  0.249348  0.750652  0.500000  1
  Ti  Ti2  1  0.749348  0.250652  0.500000  1
  Zn  Zn3  1  0.693403  0.697973  0.391378  1
  Zn  Zn4  1  0.302027  0.306597  0.608622  1
  Zn  Zn5  1  0.312595  0.687405  0.000000  1
  Au  Au6  1  0.688980  0.311020  0.000000  1
