# generated using pymatgen
data_La2NdSm(SeO3)6
_symmetry_space_group_name_H-M   'P 1'
_cell_length_a   7.20490735
_cell_length_b   8.15456972
_cell_length_c   9.41864625
_cell_angle_alpha   69.58138380
_cell_angle_beta   76.27494046
_cell_angle_gamma   64.65494306
_symmetry_Int_Tables_number   1
_chemical_formula_structural   La2NdSm(SeO3)6
_chemical_formula_sum   'La2 Nd1 Sm1 Se6 O18'
_cell_volume   466.15417007
_cell_formula_units_Z   1
loop_
 _symmetry_equiv_pos_site_id
 _symmetry_equiv_pos_as_xyz
  1  'x, y, z'
loop_
 _atom_site_type_symbol
 _atom_site_label
 _atom_site_symmetry_multiplicity
 _atom_site_fract_x
 _atom_site_fract_y
 _atom_site_fract_z
 _atom_site_occupancy
  La  La0  1  0.629820  0.348567  0.325112  1
  La  La1  1  0.370110  0.650794  0.675287  1
  Nd  Nd2  1  0.230215  0.309370  0.126400  1
  Sm  Sm3  1  0.767557  0.692100  0.873482  1
  Se  Se4  1  0.452556  0.173358  0.748621  1
  Se  Se5  1  0.192046  0.761879  0.030758  1
  Se  Se6  1  0.861809  0.780783  0.498130  1
  Se  Se7  1  0.807445  0.240924  0.966861  1
  Se  Se8  1  0.550084  0.824472  0.249214  1
  Se  Se9  1  0.135931  0.218336  0.505396  1
  O  O10  1  0.671077  0.016508  0.835662  1
  O  O11  1  0.329685  0.978990  0.164239  1
  O  O12  1  0.636957  0.791797  0.622782  1
  O  O13  1  0.360458  0.211274  0.381006  1
  O  O14  1  0.394118  0.776772  0.893211  1
  O  O15  1  0.328459  0.329696  0.859049  1
  O  O16  1  0.903195  0.348603  0.051161  1
  O  O17  1  0.536086  0.330556  0.596638  1
  O  O18  1  0.702579  0.441209  0.823933  1
  O  O19  1  0.095395  0.655019  0.945654  1
  O  O20  1  0.171373  0.988885  0.581708  1
  O  O21  1  0.020427  0.688518  0.646662  1
  O  O22  1  0.608007  0.222981  0.106114  1
  O  O23  1  0.674280  0.668307  0.138406  1
  O  O24  1  0.469422  0.666884  0.403128  1
  O  O25  1  0.295545  0.563040  0.175183  1
  O  O26  1  0.829067  0.009355  0.418571  1
  O  O27  1  0.976297  0.311022  0.357633  1
