# generated using pymatgen
data_Tb5Ag2B4Rh13
_symmetry_space_group_name_H-M   'P 1'
_cell_length_a   4.21493800
_cell_length_b   4.21493800
_cell_length_c   21.01023900
_cell_angle_alpha   90.00000000
_cell_angle_beta   90.00000000
_cell_angle_gamma   90.00000000
_symmetry_Int_Tables_number   1
_chemical_formula_structural   Tb5Ag2B4Rh13
_chemical_formula_sum   'Tb5 Ag2 B4 Rh13'
_cell_volume   373.26165225
_cell_formula_units_Z   1
loop_
 _symmetry_equiv_pos_site_id
 _symmetry_equiv_pos_as_xyz
  1  'x, y, z'
loop_
 _atom_site_type_symbol
 _atom_site_label
 _atom_site_symmetry_multiplicity
 _atom_site_fract_x
 _atom_site_fract_y
 _atom_site_fract_z
 _atom_site_occupancy
  Tb  Tb0  1  0.000000  0.000000  0.892508  1
  Tb  Tb1  1  0.000000  0.000000  0.107492  1
  Tb  Tb2  1  0.000000  0.000000  0.300917  1
  Tb  Tb3  1  0.000000  0.000000  0.500000  1
  Tb  Tb4  1  0.000000  0.000000  0.699083  1
  Ag  Ag5  1  0.500000  0.000000  0.000000  1
  Ag  Ag6  1  0.000000  0.500000  0.000000  1
  B  B7  1  0.500000  0.500000  0.193891  1
  B  B8  1  0.500000  0.500000  0.398745  1
  B  B9  1  0.500000  0.500000  0.601255  1
  B  B10  1  0.500000  0.500000  0.806109  1
  Rh  Rh11  1  0.500000  0.500000  0.903647  1
  Rh  Rh12  1  0.500000  0.500000  0.096353  1
  Rh  Rh13  1  0.500000  0.500000  0.298858  1
  Rh  Rh14  1  0.500000  0.500000  0.500000  1
  Rh  Rh15  1  0.500000  0.500000  0.701142  1
  Rh  Rh16  1  0.500000  0.000000  0.201739  1
  Rh  Rh17  1  0.500000  0.000000  0.400253  1
  Rh  Rh18  1  0.500000  0.000000  0.599747  1
  Rh  Rh19  1  0.500000  0.000000  0.798261  1
  Rh  Rh20  1  0.000000  0.500000  0.201739  1
  Rh  Rh21  1  0.000000  0.500000  0.400253  1
  Rh  Rh22  1  0.000000  0.500000  0.599747  1
  Rh  Rh23  1  0.000000  0.500000  0.798261  1
