# generated using pymatgen
data_Dy7TmTi11Si16Hg
_symmetry_space_group_name_H-M   'P 1'
_cell_length_a   7.08222603
_cell_length_b   7.08116707
_cell_length_c   12.92588707
_cell_angle_alpha   89.89885814
_cell_angle_beta   90.11423241
_cell_angle_gamma   89.59053895
_symmetry_Int_Tables_number   1
_chemical_formula_structural   Dy7TmTi11Si16Hg
_chemical_formula_sum   'Dy7 Tm1 Ti11 Si16 Hg1'
_cell_volume   648.21987155
_cell_formula_units_Z   1
loop_
 _symmetry_equiv_pos_site_id
 _symmetry_equiv_pos_as_xyz
  1  'x, y, z'
loop_
 _atom_site_type_symbol
 _atom_site_label
 _atom_site_symmetry_multiplicity
 _atom_site_fract_x
 _atom_site_fract_y
 _atom_site_fract_z
 _atom_site_occupancy
  Dy  Dy0  1  0.999606  0.342883  0.531454  1
  Dy  Dy1  1  0.659193  0.997576  0.966954  1
  Dy  Dy2  1  0.160288  0.502276  0.784160  1
  Dy  Dy3  1  0.842511  0.498703  0.284956  1
  Dy  Dy4  1  0.502163  0.160465  0.215945  1
  Dy  Dy5  1  0.498658  0.842405  0.714940  1
  Dy  Dy6  1  0.342881  0.999582  0.468533  1
  Tm  Tm7  1  0.998386  0.658668  0.033206  1
  Ti  Ti8  1  0.349761  0.504527  0.376255  1
  Ti  Ti9  1  0.852665  0.991080  0.377068  1
  Ti  Ti10  1  0.008620  0.150478  0.125367  1
  Ti  Ti11  1  0.991187  0.852525  0.622924  1
  Ti  Ti12  1  0.504523  0.349836  0.623691  1
  Ti  Ti13  1  0.150481  0.008511  0.874719  1
  Ti  Ti14  1  0.826459  0.173459  0.750668  1
  Ti  Ti15  1  0.173410  0.826327  0.249243  1
  Ti  Ti16  1  0.326860  0.327319  0.000013  1
  Ti  Ti17  1  0.492641  0.648992  0.124440  1
  Ti  Ti18  1  0.649085  0.492921  0.875609  1
  Si  Si19  1  0.067102  0.714091  0.432445  1
  Si  Si20  1  0.952439  0.291128  0.936150  1
  Si  Si21  1  0.714114  0.067095  0.567567  1
  Si  Si22  1  0.208527  0.454089  0.184928  1
  Si  Si23  1  0.794390  0.541297  0.694518  1
  Si  Si24  1  0.453628  0.209025  0.814716  1
  Si  Si25  1  0.541277  0.794331  0.305479  1
  Si  Si26  1  0.289869  0.951799  0.064063  1
  Si  Si27  1  0.798915  0.867931  0.183870  1
  Si  Si28  1  0.275415  0.625742  0.572483  1
  Si  Si29  1  0.706249  0.369538  0.067070  1
  Si  Si30  1  0.625777  0.275455  0.427508  1
  Si  Si31  1  0.368289  0.705601  0.933118  1
  Si  Si32  1  0.132405  0.201622  0.316759  1
  Si  Si33  1  0.201608  0.132476  0.683255  1
  Si  Si34  1  0.868528  0.798156  0.815954  1
  Hg  Hg35  1  0.672090  0.672090  0.499972  1
