# generated using pymatgen
data_Y2Sc2OsI4
_symmetry_space_group_name_H-M   'P 1'
_cell_length_a   11.22371718
_cell_length_b   11.22371727
_cell_length_c   6.00354932
_cell_angle_alpha   89.96260891
_cell_angle_beta   89.96261827
_cell_angle_gamma   88.47712146
_symmetry_Int_Tables_number   1
_chemical_formula_structural   Y2Sc2OsI4
_chemical_formula_sum   'Y4 Sc4 Os2 I8'
_cell_volume   756.01064751
_cell_formula_units_Z   2
loop_
 _symmetry_equiv_pos_site_id
 _symmetry_equiv_pos_as_xyz
  1  'x, y, z'
loop_
 _atom_site_type_symbol
 _atom_site_label
 _atom_site_symmetry_multiplicity
 _atom_site_fract_x
 _atom_site_fract_y
 _atom_site_fract_z
 _atom_site_occupancy
  Y  Y0  1  0.923828  0.796092  0.999645  1
  Y  Y1  1  0.913584  0.205260  0.498926  1
  Y  Y2  1  0.205260  0.913584  0.998926  1
  Y  Y3  1  0.796092  0.923828  0.499645  1
  Sc  Sc4  1  0.815392  0.078163  0.998376  1
  Sc  Sc5  1  0.078163  0.815392  0.498376  1
  Sc  Sc6  1  0.077596  0.181974  0.999017  1
  Sc  Sc7  1  0.181974  0.077596  0.499017  1
  Os  Os8  1  0.999793  0.999965  0.249186  1
  Os  Os9  1  0.999965  0.999793  0.749186  1
  I  I10  1  0.639843  0.159090  0.508704  1
  I  I11  1  0.864664  0.648069  0.502755  1
  I  I12  1  0.344678  0.149648  0.994233  1
  I  I13  1  0.149648  0.344678  0.494233  1
  I  I14  1  0.648069  0.864664  0.002755  1
  I  I15  1  0.346854  0.855508  0.499158  1
  I  I16  1  0.159090  0.639843  0.008704  1
  I  I17  1  0.855508  0.346854  0.999158  1
