# generated using pymatgen
data_Sc3Nb7B20
_symmetry_space_group_name_H-M   'P 1'
_cell_length_a   6.16472410
_cell_length_b   7.03145922
_cell_length_c   7.47026086
_cell_angle_alpha   94.49239221
_cell_angle_beta   101.94479378
_cell_angle_gamma   115.98453266
_symmetry_Int_Tables_number   1
_chemical_formula_structural   Sc3Nb7B20
_chemical_formula_sum   'Sc3 Nb7 B20'
_cell_volume   279.46937534
_cell_formula_units_Z   1
loop_
 _symmetry_equiv_pos_site_id
 _symmetry_equiv_pos_as_xyz
  1  'x, y, z'
loop_
 _atom_site_type_symbol
 _atom_site_label
 _atom_site_symmetry_multiplicity
 _atom_site_fract_x
 _atom_site_fract_y
 _atom_site_fract_z
 _atom_site_occupancy
  Sc  Sc0  1  0.499447  0.999464  0.999708  1
  Sc  Sc1  1  0.000604  0.201198  0.600232  1
  Sc  Sc2  1  0.000217  0.600062  0.799943  1
  Nb  Nb3  1  0.998247  0.996847  0.000888  1
  Nb  Nb4  1  0.499577  0.797403  0.398729  1
  Nb  Nb5  1  0.000277  0.400316  0.201371  1
  Nb  Nb6  1  0.500719  0.202551  0.598868  1
  Nb  Nb7  1  0.000599  0.802539  0.399247  1
  Nb  Nb8  1  0.500443  0.600863  0.800311  1
  Nb  Nb9  1  0.499845  0.398658  0.200702  1
  B  B10  1  0.333605  0.232749  0.867708  1
  B  B11  1  0.333008  0.632969  0.066189  1
  B  B12  1  0.166067  0.366302  0.932878  1
  B  B13  1  0.333482  0.033254  0.265605  1
  B  B14  1  0.167324  0.766185  0.132752  1
  B  B15  1  0.834178  0.233511  0.866980  1
  B  B16  1  0.166164  0.167037  0.333946  1
  B  B17  1  0.832804  0.631461  0.066581  1
  B  B18  1  0.333048  0.433061  0.467214  1
  B  B19  1  0.665749  0.365448  0.933849  1
  B  B20  1  0.832621  0.032715  0.267359  1
  B  B21  1  0.666051  0.766459  0.133492  1
  B  B22  1  0.333257  0.834239  0.667193  1
  B  B23  1  0.166536  0.567146  0.534128  1
  B  B24  1  0.665987  0.166457  0.333101  1
  B  B25  1  0.834447  0.433543  0.466853  1
  B  B26  1  0.167166  0.966881  0.732649  1
  B  B27  1  0.833821  0.834633  0.665951  1
  B  B28  1  0.667610  0.568231  0.532954  1
  B  B29  1  0.667104  0.967819  0.732620  1
