# generated using pymatgen
data_CsY2ErS5
_symmetry_space_group_name_H-M   'P 1'
_cell_length_a   3.99527800
_cell_length_b   12.17077300
_cell_length_c   21.26768100
_cell_angle_alpha   90.00000000
_cell_angle_beta   90.00000000
_cell_angle_gamma   90.00000000
_symmetry_Int_Tables_number   1
_chemical_formula_structural   CsY2ErS5
_chemical_formula_sum   'Cs4 Y8 Er4 S20'
_cell_volume   1034.15420883
_cell_formula_units_Z   4
loop_
 _symmetry_equiv_pos_site_id
 _symmetry_equiv_pos_as_xyz
  1  'x, y, z'
loop_
 _atom_site_type_symbol
 _atom_site_label
 _atom_site_symmetry_multiplicity
 _atom_site_fract_x
 _atom_site_fract_y
 _atom_site_fract_z
 _atom_site_occupancy
  Cs  Cs0  1  0.250000  0.848727  0.094440  1
  Cs  Cs1  1  0.750000  0.151273  0.905560  1
  Cs  Cs2  1  0.750000  0.348727  0.405560  1
  Cs  Cs3  1  0.250000  0.651273  0.594440  1
  Y  Y4  1  0.750000  0.798138  0.828039  1
  Y  Y5  1  0.250000  0.201862  0.171961  1
  Y  Y6  1  0.250000  0.298138  0.671961  1
  Y  Y7  1  0.750000  0.701862  0.328039  1
  Y  Y8  1  0.250000  0.959921  0.698618  1
  Y  Y9  1  0.750000  0.040079  0.301382  1
  Y  Y10  1  0.750000  0.459921  0.801382  1
  Y  Y11  1  0.250000  0.540079  0.198618  1
  Er  Er12  1  0.750000  0.393227  0.052529  1
  Er  Er13  1  0.250000  0.606773  0.947471  1
  Er  Er14  1  0.250000  0.893227  0.447471  1
  Er  Er15  1  0.750000  0.106773  0.552529  1
  S  S16  1  0.250000  0.953033  0.568926  1
  S  S17  1  0.750000  0.046967  0.431074  1
  S  S18  1  0.750000  0.453033  0.931074  1
  S  S19  1  0.250000  0.546967  0.068926  1
  S  S20  1  0.750000  0.755868  0.954286  1
  S  S21  1  0.250000  0.244132  0.045714  1
  S  S22  1  0.250000  0.255868  0.545714  1
  S  S23  1  0.750000  0.744132  0.454286  1
  S  S24  1  0.250000  0.946899  0.826923  1
  S  S25  1  0.750000  0.053101  0.173077  1
  S  S26  1  0.750000  0.446899  0.673077  1
  S  S27  1  0.250000  0.553101  0.326923  1
  S  S28  1  0.750000  0.127243  0.681909  1
  S  S29  1  0.250000  0.872757  0.318091  1
  S  S30  1  0.250000  0.627243  0.818091  1
  S  S31  1  0.750000  0.372757  0.181909  1
  S  S32  1  0.750000  0.687192  0.200267  1
  S  S33  1  0.250000  0.312808  0.799733  1
  S  S34  1  0.250000  0.187192  0.299733  1
  S  S35  1  0.750000  0.812808  0.700267  1
