# generated using pymatgen
data_Na4U5Se2O21
_symmetry_space_group_name_H-M   'P 1'
_cell_length_a   6.59783916
_cell_length_b   6.96785932
_cell_length_c   10.99731400
_cell_angle_alpha   99.62943053
_cell_angle_beta   92.42244351
_cell_angle_gamma   100.61388336
_symmetry_Int_Tables_number   1
_chemical_formula_structural   Na4U5Se2O21
_chemical_formula_sum   'Na4 U5 Se2 O21'
_cell_volume   488.53076254
_cell_formula_units_Z   1
loop_
 _symmetry_equiv_pos_site_id
 _symmetry_equiv_pos_as_xyz
  1  'x, y, z'
loop_
 _atom_site_type_symbol
 _atom_site_label
 _atom_site_symmetry_multiplicity
 _atom_site_fract_x
 _atom_site_fract_y
 _atom_site_fract_z
 _atom_site_occupancy
  Na  Na0  1  0.560917  0.287079  0.086372  1
  Na  Na1  1  0.692394  0.841003  0.260730  1
  Na  Na2  1  0.307606  0.158997  0.739270  1
  Na  Na3  1  0.439083  0.712921  0.913628  1
  U  U4  1  0.000000  0.000000  0.000000  1
  U  U5  1  0.124186  0.569884  0.184559  1
  U  U6  1  0.221081  0.122657  0.323923  1
  U  U7  1  0.778919  0.877343  0.676076  1
  U  U8  1  0.875813  0.430117  0.815442  1
  Se  Se9  1  0.331226  0.687548  0.482929  1
  Se  Se10  1  0.668775  0.312452  0.517071  1
  O  O11  1  0.000000  0.500000  0.000000  1
  O  O12  1  0.733330  0.999028  0.051642  1
  O  O13  1  0.395585  0.623583  0.132364  1
  O  O14  1  0.139658  0.247740  0.154328  1
  O  O15  1  0.074641  0.874667  0.167105  1
  O  O16  1  0.856864  0.522426  0.236893  1
  O  O17  1  0.482602  0.122902  0.268744  1
  O  O18  1  0.290678  0.473585  0.369554  1
  O  O19  1  0.225056  0.817069  0.382951  1
  O  O20  1  0.961896  0.115492  0.379998  1
  O  O21  1  0.589771  0.777207  0.474110  1
  O  O22  1  0.410230  0.222793  0.525890  1
  O  O23  1  0.038104  0.884508  0.620002  1
  O  O24  1  0.774944  0.182931  0.617049  1
  O  O25  1  0.709321  0.526415  0.630447  1
  O  O26  1  0.517397  0.877098  0.731256  1
  O  O27  1  0.143135  0.477574  0.763108  1
  O  O28  1  0.925358  0.125332  0.832895  1
  O  O29  1  0.860342  0.752260  0.845672  1
  O  O30  1  0.604415  0.376417  0.867636  1
  O  O31  1  0.266671  0.000972  0.948359  1
