# generated using pymatgen
data_Sb8As(Pd2Se)2
_symmetry_space_group_name_H-M   'P 1'
_cell_length_a   20.30622544
_cell_length_b   20.30622444
_cell_length_c   6.63672019
_cell_angle_alpha   69.72811660
_cell_angle_beta   69.72811706
_cell_angle_gamma   8.12736920
_symmetry_Int_Tables_number   1
_chemical_formula_structural   Sb8As(Pd2Se)2
_chemical_formula_sum   'Sb8 As1 Pd4 Se2'
_cell_volume   362.79598112
_cell_formula_units_Z   1
loop_
 _symmetry_equiv_pos_site_id
 _symmetry_equiv_pos_as_xyz
  1  'x, y, z'
loop_
 _atom_site_type_symbol
 _atom_site_label
 _atom_site_symmetry_multiplicity
 _atom_site_fract_x
 _atom_site_fract_y
 _atom_site_fract_z
 _atom_site_occupancy
  Sb  Sb0  1  0.677770  0.677770  0.718311  1
  Sb  Sb1  1  0.278282  0.278282  0.727183  1
  Sb  Sb2  1  0.876716  0.876716  0.742969  1
  Sb  Sb3  1  0.537026  0.537026  0.329739  1
  Sb  Sb4  1  0.135202  0.135202  0.248789  1
  Sb  Sb5  1  0.733738  0.733738  0.259593  1
  Sb  Sb6  1  0.335132  0.335132  0.266224  1
  Sb  Sb7  1  0.932736  0.932736  0.283888  1
  As  As8  1  0.002674  0.002674  0.039302  1
  Pd  Pd9  1  0.604692  0.604692  0.982144  1
  Pd  Pd10  1  0.206416  0.206416  0.984775  1
  Pd  Pd11  1  0.805367  0.805367  0.003023  1
  Pd  Pd12  1  0.406359  0.406359  0.006022  1
  Se  Se13  1  0.081772  0.081772  0.718450  1
  Se  Se14  1  0.471840  0.471840  0.689586  1
