# generated using pymatgen
data_Li2CaThRh2
_symmetry_space_group_name_H-M   'P 1'
_cell_length_a   3.94138400
_cell_length_b   7.17738054
_cell_length_c   8.72367089
_cell_angle_alpha   88.98756096
_cell_angle_beta   90.00000000
_cell_angle_gamma   90.00000000
_symmetry_Int_Tables_number   1
_chemical_formula_structural   Li2CaThRh2
_chemical_formula_sum   'Li4 Ca2 Th2 Rh4'
_cell_volume   246.74376584
_cell_formula_units_Z   2
loop_
 _symmetry_equiv_pos_site_id
 _symmetry_equiv_pos_as_xyz
  1  'x, y, z'
loop_
 _atom_site_type_symbol
 _atom_site_label
 _atom_site_symmetry_multiplicity
 _atom_site_fract_x
 _atom_site_fract_y
 _atom_site_fract_z
 _atom_site_occupancy
  Li  Li0  1  0.750000  0.865410  0.050308  1
  Li  Li1  1  0.250000  0.134590  0.949692  1
  Li  Li2  1  0.750000  0.379118  0.445718  1
  Li  Li3  1  0.250000  0.620882  0.554282  1
  Ca  Ca4  1  0.750000  0.455213  0.822546  1
  Ca  Ca5  1  0.250000  0.544787  0.177454  1
  Th  Th6  1  0.750000  0.955258  0.681659  1
  Th  Th7  1  0.250000  0.044742  0.318341  1
  Rh  Rh8  1  0.750000  0.779095  0.378497  1
  Rh  Rh9  1  0.250000  0.220905  0.621503  1
  Rh  Rh10  1  0.750000  0.229589  0.151012  1
  Rh  Rh11  1  0.250000  0.770411  0.848988  1
