# generated using pymatgen
data_LiLa14Yb2Cd3Co4
_symmetry_space_group_name_H-M   'P 1'
_cell_length_a   9.95242997
_cell_length_b   9.92759082
_cell_length_c   9.89226227
_cell_angle_alpha   60.44534897
_cell_angle_beta   59.85295072
_cell_angle_gamma   60.25158963
_symmetry_Int_Tables_number   1
_chemical_formula_structural   LiLa14Yb2Cd3Co4
_chemical_formula_sum   'Li1 La14 Yb2 Cd3 Co4'
_cell_volume   693.95078512
_cell_formula_units_Z   1
loop_
 _symmetry_equiv_pos_site_id
 _symmetry_equiv_pos_as_xyz
  1  'x, y, z'
loop_
 _atom_site_type_symbol
 _atom_site_label
 _atom_site_symmetry_multiplicity
 _atom_site_fract_x
 _atom_site_fract_y
 _atom_site_fract_z
 _atom_site_occupancy
  Li  Li0  1  0.210080  0.931437  0.930526  1
  La  La1  1  0.560021  0.939472  0.943771  1
  La  La2  1  0.690420  0.686068  0.311962  1
  La  La3  1  0.157140  0.153645  0.532128  1
  La  La4  1  0.309938  0.691089  0.687204  1
  La  La5  1  0.150260  0.160891  0.156034  1
  La  La6  1  0.539234  0.152110  0.155903  1
  La  La7  1  0.309286  0.687337  0.317948  1
  La  La8  1  0.317972  0.313222  0.687034  1
  La  La9  1  0.689867  0.304810  0.694624  1
  La  La10  1  0.938080  0.564484  0.551587  1
  La  La11  1  0.560729  0.558592  0.944241  1
  La  La12  1  0.161003  0.532747  0.151998  1
  La  La13  1  0.690431  0.298080  0.318932  1
  La  La14  1  0.936990  0.563168  0.941353  1
  Yb  Yb15  1  0.936712  0.934194  0.564866  1
  Yb  Yb16  1  0.561448  0.934802  0.564882  1
  Cd  Cd17  1  0.924812  0.920398  0.917743  1
  Cd  Cd18  1  0.922583  0.921230  0.236365  1
  Cd  Cd19  1  0.922499  0.239216  0.919479  1
  Co  Co20  1  0.921108  0.370033  0.355327  1
  Co  Co21  1  0.359605  0.359859  0.915305  1
  Co  Co22  1  0.364743  0.917796  0.349024  1
  Co  Co23  1  0.365040  0.365318  0.351763  1
