# generated using pymatgen
data_DyYAl3Cu7
_symmetry_space_group_name_H-M   'P 1'
_cell_length_a   4.17611600
_cell_length_b   5.09178232
_cell_length_c   8.84641912
_cell_angle_alpha   90.66853151
_cell_angle_beta   90.00000000
_cell_angle_gamma   90.00000000
_symmetry_Int_Tables_number   1
_chemical_formula_structural   DyYAl3Cu7
_chemical_formula_sum   'Dy1 Y1 Al3 Cu7'
_cell_volume   188.09633328
_cell_formula_units_Z   1
loop_
 _symmetry_equiv_pos_site_id
 _symmetry_equiv_pos_as_xyz
  1  'x, y, z'
loop_
 _atom_site_type_symbol
 _atom_site_label
 _atom_site_symmetry_multiplicity
 _atom_site_fract_x
 _atom_site_fract_y
 _atom_site_fract_z
 _atom_site_occupancy
  Dy  Dy0  1  0.000000  0.001682  0.998950  1
  Y  Y1  1  0.000000  0.498178  0.500611  1
  Al  Al2  1  0.500000  0.513898  0.994888  1
  Al  Al3  1  0.500000  0.986126  0.505264  1
  Al  Al4  1  0.500000  0.249863  0.249815  1
  Cu  Cu5  1  0.000000  0.998201  0.334047  1
  Cu  Cu6  1  0.000000  0.499381  0.832907  1
  Cu  Cu7  1  0.000000  0.501691  0.165143  1
  Cu  Cu8  1  0.000000  0.000596  0.667999  1
  Cu  Cu9  1  0.500000  0.750147  0.750322  1
  Cu  Cu10  1  0.500000  0.750091  0.249834  1
  Cu  Cu11  1  0.500000  0.249945  0.750220  1
