# generated using pymatgen
data_PrNd(GaRh)2
_symmetry_space_group_name_H-M   'P 1'
_cell_length_a   4.41065000
_cell_length_b   7.09657200
_cell_length_c   7.90504800
_cell_angle_alpha   90.00000000
_cell_angle_beta   90.00000000
_cell_angle_gamma   90.00000000
_symmetry_Int_Tables_number   1
_chemical_formula_structural   PrNd(GaRh)2
_chemical_formula_sum   'Pr2 Nd2 Ga4 Rh4'
_cell_volume   247.43191771
_cell_formula_units_Z   2
loop_
 _symmetry_equiv_pos_site_id
 _symmetry_equiv_pos_as_xyz
  1  'x, y, z'
loop_
 _atom_site_type_symbol
 _atom_site_label
 _atom_site_symmetry_multiplicity
 _atom_site_fract_x
 _atom_site_fract_y
 _atom_site_fract_z
 _atom_site_occupancy
  Pr  Pr0  1  0.250000  0.025465  0.691232  1
  Pr  Pr1  1  0.250000  0.525465  0.808768  1
  Nd  Nd2  1  0.750000  0.974089  0.307560  1
  Nd  Nd3  1  0.750000  0.474089  0.192440  1
  Ga  Ga4  1  0.250000  0.157798  0.075250  1
  Ga  Ga5  1  0.250000  0.657798  0.424750  1
  Ga  Ga6  1  0.750000  0.842029  0.926957  1
  Ga  Ga7  1  0.750000  0.342029  0.573043  1
  Rh  Rh8  1  0.250000  0.279066  0.396083  1
  Rh  Rh9  1  0.250000  0.779066  0.103917  1
  Rh  Rh10  1  0.750000  0.721552  0.601778  1
  Rh  Rh11  1  0.750000  0.221552  0.898222  1
