# generated using pymatgen
data_Dy5Fe6P12Ir9Ru4
_symmetry_space_group_name_H-M   'P 1'
_cell_length_a   12.48323931
_cell_length_b   12.44973662
_cell_length_c   3.86316900
_cell_angle_alpha   90.00000000
_cell_angle_beta   90.00000000
_cell_angle_gamma   119.85425977
_symmetry_Int_Tables_number   1
_chemical_formula_structural   Dy5Fe6P12Ir9Ru4
_chemical_formula_sum   'Dy5 Fe6 P12 Ir9 Ru4'
_cell_volume   520.71216269
_cell_formula_units_Z   1
loop_
 _symmetry_equiv_pos_site_id
 _symmetry_equiv_pos_as_xyz
  1  'x, y, z'
loop_
 _atom_site_type_symbol
 _atom_site_label
 _atom_site_symmetry_multiplicity
 _atom_site_fract_x
 _atom_site_fract_y
 _atom_site_fract_z
 _atom_site_occupancy
  Dy  Dy0  1  0.667335  0.332606  0.000000  1
  Dy  Dy1  1  0.333309  0.666585  0.000000  1
  Dy  Dy2  1  0.812819  0.000026  0.500000  1
  Dy  Dy3  1  0.185021  0.187871  0.500000  1
  Dy  Dy4  1  0.001154  0.814296  0.500000  1
  Fe  Fe5  1  0.129408  0.642060  0.500000  1
  Fe  Fe6  1  0.359678  0.487906  0.500000  1
  Fe  Fe7  1  0.510524  0.868643  0.500000  1
  Fe  Fe8  1  0.712245  0.713551  0.500000  1
  Fe  Fe9  1  0.003673  0.289335  0.500000  1
  Fe  Fe10  1  0.286038  0.998990  0.500000  1
  P  P11  1  0.628498  0.993805  0.000000  1
  P  P12  1  0.364953  0.374158  0.000000  1
  P  P13  1  0.009206  0.635096  0.000000  1
  P  P14  1  0.687376  0.524530  0.500000  1
  P  P15  1  0.836928  0.309363  0.500000  1
  P  P16  1  0.318520  0.833410  0.500000  1
  P  P17  1  0.514776  0.681482  0.500000  1
  P  P18  1  0.183186  0.999334  0.000000  1
  P  P19  1  0.814513  0.816943  0.000000  1
  P  P20  1  0.999125  0.186363  0.000000  1
  P  P21  1  0.475026  0.160659  0.500000  1
  P  P22  1  0.166474  0.485401  0.500000  1
  Ir  Ir23  1  0.620689  0.802614  0.000000  1
  Ir  Ir24  1  0.182381  0.379463  0.000000  1
  Ir  Ir25  1  0.373751  0.180696  0.000000  1
  Ir  Ir26  1  0.196902  0.818959  0.000000  1
  Ir  Ir27  1  0.807025  0.626279  0.000000  1
  Ir  Ir28  1  0.874591  0.510214  0.500000  1
  Ir  Ir29  1  0.489320  0.362394  0.500000  1
  Ir  Ir30  1  0.635475  0.122182  0.500000  1
  Ir  Ir31  1  0.999568  0.000439  0.000000  1
  Ru  Ru32  1  0.445475  0.994847  0.000000  1
  Ru  Ru33  1  0.550373  0.552543  0.000000  1
  Ru  Ru34  1  0.004870  0.450849  0.000000  1
  Ru  Ru35  1  0.819793  0.196111  0.000000  1
