# generated using pymatgen
data_NaNb8CoSe16
_symmetry_space_group_name_H-M   'P 1'
_cell_length_a   6.97902004
_cell_length_b   6.97907461
_cell_length_c   14.00368305
_cell_angle_alpha   90.00572715
_cell_angle_beta   89.98883434
_cell_angle_gamma   120.00160761
_symmetry_Int_Tables_number   1
_chemical_formula_structural   NaNb8CoSe16
_chemical_formula_sum   'Na1 Nb8 Co1 Se16'
_cell_volume   590.68799926
_cell_formula_units_Z   1
loop_
 _symmetry_equiv_pos_site_id
 _symmetry_equiv_pos_as_xyz
  1  'x, y, z'
loop_
 _atom_site_type_symbol
 _atom_site_label
 _atom_site_symmetry_multiplicity
 _atom_site_fract_x
 _atom_site_fract_y
 _atom_site_fract_z
 _atom_site_occupancy
  Na  Na0  1  0.000000  0.000000  0.500000  1
  Nb  Nb1  1  0.000042  0.999998  0.220124  1
  Nb  Nb2  1  0.999958  0.000002  0.779876  1
  Nb  Nb3  1  0.505257  0.010516  0.217794  1
  Nb  Nb4  1  0.989514  0.494752  0.217791  1
  Nb  Nb5  1  0.505280  0.494712  0.217800  1
  Nb  Nb6  1  0.494743  0.989484  0.782206  1
  Nb  Nb7  1  0.010486  0.505248  0.782209  1
  Nb  Nb8  1  0.494720  0.505288  0.782200  1
  Co  Co9  1  0.000000  0.000000  0.000000  1
  Se  Se10  1  0.333249  0.666686  0.903821  1
  Se  Se11  1  0.666751  0.333314  0.096179  1
  Se  Se12  1  0.666642  0.333329  0.342011  1
  Se  Se13  1  0.333358  0.666671  0.657989  1
  Se  Se14  1  0.167900  0.832074  0.338182  1
  Se  Se15  1  0.167900  0.335851  0.338182  1
  Se  Se16  1  0.664107  0.832066  0.338180  1
  Se  Se17  1  0.832100  0.167926  0.661818  1
  Se  Se18  1  0.832100  0.664149  0.661818  1
  Se  Se19  1  0.335893  0.167934  0.661820  1
  Se  Se20  1  0.833752  0.166213  0.899064  1
  Se  Se21  1  0.833758  0.667608  0.899047  1
  Se  Se22  1  0.332339  0.166200  0.899031  1
  Se  Se23  1  0.166248  0.833787  0.100936  1
  Se  Se24  1  0.166242  0.332392  0.100953  1
  Se  Se25  1  0.667661  0.833800  0.100969  1
