# generated using pymatgen
data_Dy12Ni5Hg
_symmetry_space_group_name_H-M   'P 1'
_cell_length_a   8.27270007
_cell_length_b   8.27336372
_cell_length_c   8.27269894
_cell_angle_alpha   107.07126254
_cell_angle_beta   109.84533225
_cell_angle_gamma   111.52479239
_symmetry_Int_Tables_number   1
_chemical_formula_structural   Dy12Ni5Hg
_chemical_formula_sum   'Dy12 Ni5 Hg1'
_cell_volume   435.21723491
_cell_formula_units_Z   1
loop_
 _symmetry_equiv_pos_site_id
 _symmetry_equiv_pos_as_xyz
  1  'x, y, z'
loop_
 _atom_site_type_symbol
 _atom_site_label
 _atom_site_symmetry_multiplicity
 _atom_site_fract_x
 _atom_site_fract_y
 _atom_site_fract_z
 _atom_site_occupancy
  Dy  Dy0  1  0.478414  0.295313  0.183110  1
  Dy  Dy1  1  0.112203  0.295313  0.816900  1
  Dy  Dy2  1  0.887797  0.704687  0.183100  1
  Dy  Dy3  1  0.521586  0.704687  0.816890  1
  Dy  Dy4  1  0.302943  0.625587  0.322646  1
  Dy  Dy5  1  0.303054  0.980429  0.677374  1
  Dy  Dy6  1  0.697057  0.374413  0.677354  1
  Dy  Dy7  1  0.696946  0.019571  0.322626  1
  Dy  Dy8  1  0.190370  0.213973  0.404403  1
  Dy  Dy9  1  0.809630  0.786027  0.595597  1
  Dy  Dy10  1  0.190430  0.786027  0.976395  1
  Dy  Dy11  1  0.809570  0.213973  0.023605  1
  Ni  Ni12  1  0.500012  0.625713  0.125701  1
  Ni  Ni13  1  0.499988  0.374287  0.874299  1
  Ni  Ni14  1  0.365167  0.000000  0.365167  1
  Ni  Ni15  1  0.634833  0.000000  0.634833  1
  Ni  Ni16  1  0.000000  0.000000  0.000000  1
  Hg  Hg17  1  0.000000  0.500000  0.500000  1
