# generated using pymatgen
data_Hf3Zr5Ta2(GaSn3)2
_symmetry_space_group_name_H-M   'P 1'
_cell_length_a   8.62858002
_cell_length_b   8.62809356
_cell_length_c   5.80775405
_cell_angle_alpha   90.01503326
_cell_angle_beta   89.99248635
_cell_angle_gamma   119.99813627
_symmetry_Int_Tables_number   1
_chemical_formula_structural   Hf3Zr5Ta2(GaSn3)2
_chemical_formula_sum   'Hf3 Zr5 Ta2 Ga2 Sn6'
_cell_volume   374.45632097
_cell_formula_units_Z   1
loop_
 _symmetry_equiv_pos_site_id
 _symmetry_equiv_pos_as_xyz
  1  'x, y, z'
loop_
 _atom_site_type_symbol
 _atom_site_label
 _atom_site_symmetry_multiplicity
 _atom_site_fract_x
 _atom_site_fract_y
 _atom_site_fract_z
 _atom_site_occupancy
  Hf  Hf0  1  0.000000  0.731203  0.250533  1
  Hf  Hf1  1  0.333101  0.666774  0.499624  1
  Hf  Hf2  1  0.666899  0.333673  0.499624  1
  Zr  Zr3  1  0.732335  0.731860  0.749354  1
  Zr  Zr4  1  0.267665  0.999525  0.749354  1
  Zr  Zr5  1  0.000000  0.268075  0.749224  1
  Zr  Zr6  1  0.268350  0.268527  0.250667  1
  Zr  Zr7  1  0.731650  0.000177  0.250667  1
  Ta  Ta8  1  0.666952  0.333837  0.000372  1
  Ta  Ta9  1  0.333048  0.666885  0.000372  1
  Ga  Ga10  1  0.000000  0.999422  0.001088  1
  Ga  Ga11  1  0.000000  0.999521  0.499011  1
  Sn  Sn12  1  0.390013  0.390043  0.754451  1
  Sn  Sn13  1  0.609987  0.000030  0.754451  1
  Sn  Sn14  1  0.000000  0.609953  0.754549  1
  Sn  Sn15  1  0.610594  0.610251  0.245530  1
  Sn  Sn16  1  0.389406  0.999657  0.245530  1
  Sn  Sn17  1  0.000000  0.390587  0.245596  1
