# generated using pymatgen
data_NdSm3Mn2(Co3O10)2
_symmetry_space_group_name_H-M   'P 1'
_cell_length_a   5.72288365
_cell_length_b   7.45706375
_cell_length_c   8.55939073
_cell_angle_alpha   90.10770943
_cell_angle_beta   90.07788245
_cell_angle_gamma   90.03887343
_symmetry_Int_Tables_number   1
_chemical_formula_structural   NdSm3Mn2(Co3O10)2
_chemical_formula_sum   'Nd1 Sm3 Mn2 Co6 O20'
_cell_volume   365.27870572
_cell_formula_units_Z   1
loop_
 _symmetry_equiv_pos_site_id
 _symmetry_equiv_pos_as_xyz
  1  'x, y, z'
loop_
 _atom_site_type_symbol
 _atom_site_label
 _atom_site_symmetry_multiplicity
 _atom_site_fract_x
 _atom_site_fract_y
 _atom_site_fract_z
 _atom_site_occupancy
  Nd  Nd0  1  0.999710  0.140856  0.172371  1
  Sm  Sm1  1  0.999982  0.359080  0.672454  1
  Sm  Sm2  1  0.000552  0.641136  0.327689  1
  Sm  Sm3  1  0.999612  0.858175  0.826735  1
  Mn  Mn4  1  0.741062  0.501060  0.999588  1
  Mn  Mn5  1  0.259301  0.999599  0.500669  1
  Co  Co6  1  0.499458  0.089215  0.849872  1
  Co  Co7  1  0.498443  0.909242  0.149611  1
  Co  Co8  1  0.500586  0.589192  0.649888  1
  Co  Co9  1  0.501375  0.411267  0.350814  1
  Co  Co10  1  0.258030  0.501222  0.999670  1
  Co  Co11  1  0.741832  0.999413  0.500336  1
  O  O12  1  0.248600  0.897855  0.291307  1
  O  O13  1  0.247154  0.099835  0.709809  1
  O  O14  1  0.752305  0.403524  0.209754  1
  O  O15  1  0.752527  0.599617  0.790032  1
  O  O16  1  0.752036  0.097939  0.706702  1
  O  O17  1  0.749540  0.900240  0.294271  1
  O  O18  1  0.248635  0.598074  0.793340  1
  O  O19  1  0.249271  0.405948  0.206872  1
  O  O20  1  0.498129  0.344634  0.935020  1
  O  O21  1  0.498157  0.655874  0.063740  1
  O  O22  1  0.502656  0.844839  0.565539  1
  O  O23  1  0.501160  0.155403  0.434709  1
  O  O24  1  0.280230  0.998006  0.998830  1
  O  O25  1  0.721276  0.500506  0.500164  1
  O  O26  1  0.719786  0.997047  0.998153  1
  O  O27  1  0.278645  0.499323  0.500938  1
  O  O28  1  0.998189  0.158623  0.449997  1
  O  O29  1  0.999343  0.839805  0.552278  1
  O  O30  1  0.000874  0.660957  0.051925  1
  O  O31  1  0.001544  0.342494  0.946925  1
