# generated using pymatgen
data_LiY18Sc(Cd3Ru)2
_symmetry_space_group_name_H-M   'P 1'
_cell_length_a   9.53799600
_cell_length_b   9.53799614
_cell_length_c   9.75844300
_cell_angle_alpha   90.00000000
_cell_angle_beta   90.00000000
_cell_angle_gamma   119.99999951
_symmetry_Int_Tables_number   1
_chemical_formula_structural   LiY18Sc(Cd3Ru)2
_chemical_formula_sum   'Li1 Y18 Sc1 Cd6 Ru2'
_cell_volume   768.82136205
_cell_formula_units_Z   1
loop_
 _symmetry_equiv_pos_site_id
 _symmetry_equiv_pos_as_xyz
  1  'x, y, z'
loop_
 _atom_site_type_symbol
 _atom_site_label
 _atom_site_symmetry_multiplicity
 _atom_site_fract_x
 _atom_site_fract_y
 _atom_site_fract_z
 _atom_site_occupancy
  Li  Li0  1  0.000000  0.000000  0.500000  1
  Y  Y1  1  0.208105  0.791895  0.441256  1
  Y  Y2  1  0.208105  0.416209  0.441256  1
  Y  Y3  1  0.583791  0.791895  0.441256  1
  Y  Y4  1  0.791895  0.208105  0.558744  1
  Y  Y5  1  0.791895  0.583791  0.558744  1
  Y  Y6  1  0.416209  0.208105  0.558744  1
  Y  Y7  1  0.791266  0.208734  0.941259  1
  Y  Y8  1  0.791266  0.582532  0.941259  1
  Y  Y9  1  0.417468  0.208734  0.941259  1
  Y  Y10  1  0.208734  0.791266  0.058741  1
  Y  Y11  1  0.208734  0.417468  0.058741  1
  Y  Y12  1  0.582532  0.791266  0.058741  1
  Y  Y13  1  0.541518  0.458482  0.250766  1
  Y  Y14  1  0.541518  0.083037  0.250766  1
  Y  Y15  1  0.916963  0.458482  0.250766  1
  Y  Y16  1  0.458482  0.541518  0.749234  1
  Y  Y17  1  0.458482  0.916963  0.749234  1
  Y  Y18  1  0.083037  0.541518  0.749234  1
  Sc  Sc19  1  0.000000  0.000000  0.000000  1
  Cd  Cd20  1  0.889719  0.110281  0.251630  1
  Cd  Cd21  1  0.889719  0.779440  0.251630  1
  Cd  Cd22  1  0.220560  0.110281  0.251630  1
  Cd  Cd23  1  0.110281  0.889719  0.748370  1
  Cd  Cd24  1  0.110281  0.220560  0.748370  1
  Cd  Cd25  1  0.779440  0.889719  0.748370  1
  Ru  Ru26  1  0.333333  0.666667  0.250176  1
  Ru  Ru27  1  0.666667  0.333333  0.749824  1
