# generated using pymatgen
data_La16Al4TcIr3
_symmetry_space_group_name_H-M   'P 1'
_cell_length_a   10.02756783
_cell_length_b   10.02756826
_cell_length_c   10.02756802
_cell_angle_alpha   59.66366647
_cell_angle_beta   59.66366360
_cell_angle_gamma   59.66366861
_symmetry_Int_Tables_number   1
_chemical_formula_structural   La16Al4TcIr3
_chemical_formula_sum   'La16 Al4 Tc1 Ir3'
_cell_volume   707.52281864
_cell_formula_units_Z   1
loop_
 _symmetry_equiv_pos_site_id
 _symmetry_equiv_pos_as_xyz
  1  'x, y, z'
loop_
 _atom_site_type_symbol
 _atom_site_label
 _atom_site_symmetry_multiplicity
 _atom_site_fract_x
 _atom_site_fract_y
 _atom_site_fract_z
 _atom_site_occupancy
  La  La0  1  0.598815  0.598815  0.598815  1
  La  La1  1  0.598716  0.598716  0.203717  1
  La  La2  1  0.598716  0.203717  0.598716  1
  La  La3  1  0.203717  0.598716  0.598716  1
  La  La4  1  0.058836  0.444296  0.444296  1
  La  La5  1  0.444864  0.055083  0.055083  1
  La  La6  1  0.444296  0.058836  0.444296  1
  La  La7  1  0.055083  0.444864  0.055083  1
  La  La8  1  0.444296  0.444296  0.058836  1
  La  La9  1  0.055083  0.055083  0.444864  1
  La  La10  1  0.188522  0.811024  0.811024  1
  La  La11  1  0.808814  0.189250  0.189250  1
  La  La12  1  0.811024  0.188522  0.811024  1
  La  La13  1  0.189250  0.808814  0.189250  1
  La  La14  1  0.811024  0.811024  0.188522  1
  La  La15  1  0.189250  0.189250  0.808814  1
  Al  Al16  1  0.823924  0.823924  0.823924  1
  Al  Al17  1  0.823859  0.823859  0.528942  1
  Al  Al18  1  0.823859  0.528942  0.823859  1
  Al  Al19  1  0.528942  0.823859  0.823859  1
  Tc  Tc20  1  0.384950  0.384950  0.384950  1
  Ir  Ir21  1  0.391457  0.391457  0.831249  1
  Ir  Ir22  1  0.391457  0.831249  0.391457  1
  Ir  Ir23  1  0.831249  0.391457  0.391457  1
