# generated using pymatgen
data_Ac2Zn21Pd
_symmetry_space_group_name_H-M   'P 1'
_cell_length_a   8.39268028
_cell_length_b   8.39391892
_cell_length_c   8.39398866
_cell_angle_alpha   99.66532694
_cell_angle_beta   100.21306744
_cell_angle_gamma   130.91762085
_symmetry_Int_Tables_number   1
_chemical_formula_structural   Ac2Zn21Pd
_chemical_formula_sum   'Ac2 Zn21 Pd1'
_cell_volume   406.42756071
_cell_formula_units_Z   1
loop_
 _symmetry_equiv_pos_site_id
 _symmetry_equiv_pos_as_xyz
  1  'x, y, z'
loop_
 _atom_site_type_symbol
 _atom_site_label
 _atom_site_symmetry_multiplicity
 _atom_site_fract_x
 _atom_site_fract_y
 _atom_site_fract_z
 _atom_site_occupancy
  Ac  Ac0  1  0.496867  0.499980  0.996910  1
  Ac  Ac1  1  0.753133  0.250020  0.503090  1
  Zn  Zn2  1  0.846924  0.432919  0.170020  1
  Zn  Zn3  1  0.125000  0.875000  0.750000  1
  Zn  Zn4  1  0.322735  0.150620  0.582339  1
  Zn  Zn5  1  0.261530  0.432853  0.582782  1
  Zn  Zn6  1  0.322731  0.740393  0.172112  1
  Zn  Zn7  1  0.988470  0.317147  0.917218  1
  Zn  Zn8  1  0.261533  0.678748  0.828678  1
  Zn  Zn9  1  0.248043  0.754045  0.493999  1
  Zn  Zn10  1  0.988467  0.071252  0.671322  1
  Zn  Zn11  1  0.001957  0.995955  0.006001  1
  Zn  Zn12  1  0.682781  0.013255  0.084509  1
  Zn  Zn13  1  0.625000  0.875000  0.750000  1
  Zn  Zn14  1  0.403076  0.317081  0.329980  1
  Zn  Zn15  1  0.927269  0.009607  0.327888  1
  Zn  Zn16  1  0.846923  0.676902  0.414004  1
  Zn  Zn17  1  0.567220  0.736745  0.415490  1
  Zn  Zn18  1  0.682783  0.598271  0.669528  1
  Zn  Zn19  1  0.403077  0.073098  0.085996  1
  Zn  Zn20  1  0.927265  0.599380  0.917661  1
  Zn  Zn21  1  0.567217  0.151729  0.830472  1
  Zn  Zn22  1  0.125000  0.375000  0.250000  1
  Pd  Pd23  1  0.125000  0.875000  0.250000  1
