# generated using pymatgen
data_EuRe(P4Ir)3
_symmetry_space_group_name_H-M   'P 1'
_cell_length_a   7.06592140
_cell_length_b   7.02661142
_cell_length_c   7.06592104
_cell_angle_alpha   109.35855972
_cell_angle_beta   109.58364345
_cell_angle_gamma   109.35856463
_symmetry_Int_Tables_number   1
_chemical_formula_structural   EuRe(P4Ir)3
_chemical_formula_sum   'Eu1 Re1 P12 Ir3'
_cell_volume   270.43541642
_cell_formula_units_Z   1
loop_
 _symmetry_equiv_pos_site_id
 _symmetry_equiv_pos_as_xyz
  1  'x, y, z'
loop_
 _atom_site_type_symbol
 _atom_site_label
 _atom_site_symmetry_multiplicity
 _atom_site_fract_x
 _atom_site_fract_y
 _atom_site_fract_z
 _atom_site_occupancy
  Eu  Eu0  1  0.000000  0.000000  0.000000  1
  Re  Re1  1  0.000000  0.500000  0.000000  1
  P  P2  1  0.355888  0.215096  0.858401  1
  P  P3  1  0.644112  0.784904  0.141599  1
  P  P4  1  0.646527  0.502133  0.860432  1
  P  P5  1  0.353473  0.497867  0.139568  1
  P  P6  1  0.213905  0.855606  0.353473  1
  P  P7  1  0.786095  0.144394  0.646527  1
  P  P8  1  0.502512  0.859208  0.644112  1
  P  P9  1  0.497488  0.140792  0.355888  1
  P  P10  1  0.860432  0.358299  0.213905  1
  P  P11  1  0.139568  0.641701  0.786095  1
  P  P12  1  0.858401  0.643305  0.502512  1
  P  P13  1  0.141599  0.356695  0.497488  1
  Ir  Ir14  1  0.000000  0.000000  0.500000  1
  Ir  Ir15  1  0.500000  0.000000  0.000000  1
  Ir  Ir16  1  0.500000  0.500000  0.500000  1
