# generated using pymatgen
data_V12Zn3Ga4FeN4
_symmetry_space_group_name_H-M   'P 1'
_cell_length_a   6.56814471
_cell_length_b   6.56814471
_cell_length_c   6.56814471
_cell_angle_alpha   89.86796699
_cell_angle_beta   90.13203301
_cell_angle_gamma   90.13203301
_symmetry_Int_Tables_number   1
_chemical_formula_structural   V12Zn3Ga4FeN4
_chemical_formula_sum   'V12 Zn3 Ga4 Fe1 N4'
_cell_volume   283.35095700
_cell_formula_units_Z   1
loop_
 _symmetry_equiv_pos_site_id
 _symmetry_equiv_pos_as_xyz
  1  'x, y, z'
loop_
 _atom_site_type_symbol
 _atom_site_label
 _atom_site_symmetry_multiplicity
 _atom_site_fract_x
 _atom_site_fract_y
 _atom_site_fract_z
 _atom_site_occupancy
  V  V0  1  0.789581  0.959534  0.376562  1
  V  V1  1  0.708789  0.045779  0.875422  1
  V  V2  1  0.216392  0.461846  0.121236  1
  V  V3  1  0.294700  0.535385  0.631122  1
  V  V4  1  0.954221  0.375422  0.791211  1
  V  V5  1  0.040466  0.876562  0.710419  1
  V  V6  1  0.464615  0.131122  0.205300  1
  V  V7  1  0.538154  0.621236  0.283608  1
  V  V8  1  0.378764  0.783608  0.961846  1
  V  V9  1  0.868878  0.705300  0.035385  1
  V  V10  1  0.123438  0.210419  0.459534  1
  V  V11  1  0.624578  0.291211  0.545779  1
  Zn  Zn12  1  0.429647  0.929763  0.570686  1
  Zn  Zn13  1  0.929314  0.570353  0.429763  1
  Zn  Zn14  1  0.070237  0.070686  0.070353  1
  Ga  Ga15  1  0.177926  0.822074  0.322074  1
  Ga  Ga16  1  0.325108  0.181963  0.824184  1
  Ga  Ga17  1  0.818037  0.324184  0.174892  1
  Ga  Ga18  1  0.675816  0.674892  0.681963  1
  Fe  Fe19  1  0.572386  0.427614  0.927614  1
  N  N20  1  0.873627  0.126373  0.626373  1
  N  N21  1  0.626435  0.875916  0.125191  1
  N  N22  1  0.124084  0.625191  0.873565  1
  N  N23  1  0.374809  0.373565  0.375916  1
