# generated using pymatgen
data_Dy4YTm15(CoSb2)4
_symmetry_space_group_name_H-M   'P 1'
_cell_length_a   7.79703641
_cell_length_b   8.73218600
_cell_length_c   12.06977564
_cell_angle_alpha   90.00000000
_cell_angle_beta   90.03728195
_cell_angle_gamma   90.00000000
_symmetry_Int_Tables_number   1
_chemical_formula_structural   Dy4YTm15(CoSb2)4
_chemical_formula_sum   'Dy4 Y1 Tm15 Co4 Sb8'
_cell_volume   821.77257886
_cell_formula_units_Z   1
loop_
 _symmetry_equiv_pos_site_id
 _symmetry_equiv_pos_as_xyz
  1  'x, y, z'
loop_
 _atom_site_type_symbol
 _atom_site_label
 _atom_site_symmetry_multiplicity
 _atom_site_fract_x
 _atom_site_fract_y
 _atom_site_fract_z
 _atom_site_occupancy
  Dy  Dy0  1  0.622934  0.750000  0.307372  1
  Dy  Dy1  1  0.877874  0.750000  0.807152  1
  Dy  Dy2  1  0.377921  0.250000  0.692595  1
  Dy  Dy3  1  0.122155  0.250000  0.192581  1
  Y  Y4  1  0.156149  0.750000  0.205397  1
  Tm  Tm5  1  0.344607  0.750000  0.703515  1
  Tm  Tm6  1  0.844467  0.250000  0.796399  1
  Tm  Tm7  1  0.655168  0.250000  0.296795  1
  Tm  Tm8  1  0.450926  0.750000  0.997483  1
  Tm  Tm9  1  0.049869  0.750000  0.498613  1
  Tm  Tm10  1  0.550384  0.250000  0.001674  1
  Tm  Tm11  1  0.949668  0.250000  0.502422  1
  Tm  Tm12  1  0.822896  0.535606  0.064755  1
  Tm  Tm13  1  0.676480  0.963760  0.565451  1
  Tm  Tm14  1  0.176552  0.036571  0.934388  1
  Tm  Tm15  1  0.323524  0.463412  0.434879  1
  Tm  Tm16  1  0.176552  0.463429  0.934388  1
  Tm  Tm17  1  0.323524  0.036588  0.434879  1
  Tm  Tm18  1  0.822896  0.964394  0.064755  1
  Tm  Tm19  1  0.676480  0.536240  0.565451  1
  Co  Co20  1  0.433079  0.750000  0.491281  1
  Co  Co21  1  0.066179  0.750000  0.989998  1
  Co  Co22  1  0.566561  0.250000  0.508591  1
  Co  Co23  1  0.933224  0.250000  0.008467  1
  Sb  Sb24  1  0.929122  0.507498  0.328954  1
  Sb  Sb25  1  0.569646  0.991689  0.828189  1
  Sb  Sb26  1  0.069739  0.008631  0.671846  1
  Sb  Sb27  1  0.431457  0.490819  0.171370  1
  Sb  Sb28  1  0.069739  0.491369  0.671846  1
  Sb  Sb29  1  0.431457  0.009181  0.171370  1
  Sb  Sb30  1  0.929122  0.992502  0.328954  1
  Sb  Sb31  1  0.569646  0.508311  0.828189  1
