# generated using pymatgen
data_RbTbBi2Se5
_symmetry_space_group_name_H-M   'P 1'
_cell_length_a   4.17586900
_cell_length_b   12.47117200
_cell_length_c   22.32313100
_cell_angle_alpha   90.00000000
_cell_angle_beta   90.00000000
_cell_angle_gamma   90.00000000
_symmetry_Int_Tables_number   1
_chemical_formula_structural   RbTbBi2Se5
_chemical_formula_sum   'Rb4 Tb4 Bi8 Se20'
_cell_volume   1162.54358200
_cell_formula_units_Z   4
loop_
 _symmetry_equiv_pos_site_id
 _symmetry_equiv_pos_as_xyz
  1  'x, y, z'
loop_
 _atom_site_type_symbol
 _atom_site_label
 _atom_site_symmetry_multiplicity
 _atom_site_fract_x
 _atom_site_fract_y
 _atom_site_fract_z
 _atom_site_occupancy
  Rb  Rb0  1  0.250000  0.489561  0.210794  1
  Rb  Rb1  1  0.750000  0.510439  0.789206  1
  Rb  Rb2  1  0.750000  0.989561  0.289206  1
  Rb  Rb3  1  0.250000  0.010439  0.710794  1
  Tb  Tb4  1  0.250000  0.363514  0.024241  1
  Tb  Tb5  1  0.750000  0.636486  0.975759  1
  Tb  Tb6  1  0.750000  0.863514  0.475759  1
  Tb  Tb7  1  0.250000  0.136486  0.524241  1
  Bi  Bi8  1  0.250000  0.802560  0.125732  1
  Bi  Bi9  1  0.750000  0.197440  0.874268  1
  Bi  Bi10  1  0.750000  0.302560  0.374268  1
  Bi  Bi11  1  0.250000  0.697440  0.625732  1
  Bi  Bi12  1  0.250000  0.595662  0.423728  1
  Bi  Bi13  1  0.750000  0.404338  0.576272  1
  Bi  Bi14  1  0.750000  0.095662  0.076272  1
  Bi  Bi15  1  0.250000  0.904338  0.923728  1
  Se  Se16  1  0.250000  0.811252  0.390031  1
  Se  Se17  1  0.750000  0.188748  0.609969  1
  Se  Se18  1  0.750000  0.311252  0.109969  1
  Se  Se19  1  0.250000  0.688748  0.890031  1
  Se  Se20  1  0.250000  0.248093  0.295859  1
  Se  Se21  1  0.750000  0.751907  0.704141  1
  Se  Se22  1  0.750000  0.748093  0.204141  1
  Se  Se23  1  0.250000  0.251907  0.795859  1
  Se  Se24  1  0.250000  0.356504  0.481133  1
  Se  Se25  1  0.750000  0.643496  0.518867  1
  Se  Se26  1  0.750000  0.856504  0.018867  1
  Se  Se27  1  0.250000  0.143496  0.981133  1
  Se  Se28  1  0.250000  0.025542  0.158525  1
  Se  Se29  1  0.750000  0.974458  0.841475  1
  Se  Se30  1  0.750000  0.525542  0.341475  1
  Se  Se31  1  0.250000  0.474458  0.658525  1
  Se  Se32  1  0.250000  0.583090  0.060511  1
  Se  Se33  1  0.750000  0.416910  0.939489  1
  Se  Se34  1  0.750000  0.083090  0.439489  1
  Se  Se35  1  0.250000  0.916910  0.560511  1
