# generated using pymatgen
data_Zn22IrPd2Au
_symmetry_space_group_name_H-M   'P 1'
_cell_length_a   7.94734845
_cell_length_b   7.94734795
_cell_length_c   7.95057768
_cell_angle_alpha   109.30389380
_cell_angle_beta   109.30390438
_cell_angle_gamma   109.50771199
_symmetry_Int_Tables_number   1
_chemical_formula_structural   Zn22IrPd2Au
_chemical_formula_sum   'Zn22 Ir1 Pd2 Au1'
_cell_volume   387.97853347
_cell_formula_units_Z   1
loop_
 _symmetry_equiv_pos_site_id
 _symmetry_equiv_pos_as_xyz
  1  'x, y, z'
loop_
 _atom_site_type_symbol
 _atom_site_label
 _atom_site_symmetry_multiplicity
 _atom_site_fract_x
 _atom_site_fract_y
 _atom_site_fract_z
 _atom_site_occupancy
  Zn  Zn0  1  0.724005  0.375075  0.725542  1
  Zn  Zn1  1  0.622528  0.351236  0.353147  1
  Zn  Zn2  1  0.354839  0.354839  0.623321  1
  Zn  Zn3  1  0.652083  0.279638  0.004553  1
  Zn  Zn4  1  0.222420  0.222420  0.218151  1
  Zn  Zn5  1  0.997785  0.997785  0.783706  1
  Zn  Zn6  1  0.777968  0.997720  0.993421  1
  Zn  Zn7  1  0.997720  0.777968  0.993421  1
  Zn  Zn8  1  0.351566  0.351566  0.990360  1
  Zn  Zn9  1  0.001068  0.642802  0.641888  1
  Zn  Zn10  1  0.990356  0.354080  0.350639  1
  Zn  Zn11  1  0.354080  0.990356  0.350639  1
  Zn  Zn12  1  0.642802  0.001068  0.641888  1
  Zn  Zn13  1  0.639602  0.639602  0.997036  1
  Zn  Zn14  1  0.351236  0.622528  0.353147  1
  Zn  Zn15  1  0.285590  0.003140  0.656133  1
  Zn  Zn16  1  0.648481  0.003294  0.275441  1
  Zn  Zn17  1  0.279638  0.652083  0.004553  1
  Zn  Zn18  1  0.717744  0.717744  0.372422  1
  Zn  Zn19  1  0.375075  0.724005  0.725542  1
  Zn  Zn20  1  0.003294  0.648481  0.275441  1
  Zn  Zn21  1  0.003140  0.285590  0.656133  1
  Ir  Ir22  1  0.657441  0.657441  0.657554  1
  Pd  Pd23  1  0.001205  0.347108  0.001259  1
  Pd  Pd24  1  0.347108  0.001205  0.001259  1
  Au  Au25  1  0.001227  0.001227  0.353404  1
