# generated using pymatgen
data_SrCrNi2(PO4)3
_symmetry_space_group_name_H-M   'P 1'
_cell_length_a   9.05399027
_cell_length_b   9.05399143
_cell_length_c   9.05399096
_cell_angle_alpha   137.35427652
_cell_angle_beta   109.29957161
_cell_angle_gamma   86.21205318
_symmetry_Int_Tables_number   1
_chemical_formula_structural   SrCrNi2(PO4)3
_chemical_formula_sum   'Sr2 Cr2 Ni4 P6 O24'
_cell_volume   456.00121447
_cell_formula_units_Z   2
loop_
 _symmetry_equiv_pos_site_id
 _symmetry_equiv_pos_as_xyz
  1  'x, y, z'
loop_
 _atom_site_type_symbol
 _atom_site_label
 _atom_site_symmetry_multiplicity
 _atom_site_fract_x
 _atom_site_fract_y
 _atom_site_fract_z
 _atom_site_occupancy
  Sr  Sr0  1  0.250000  0.343152  0.093152  1
  Sr  Sr1  1  0.750000  0.656848  0.906848  1
  Cr  Cr2  1  0.000000  0.500000  0.500000  1
  Cr  Cr3  1  0.500000  0.000000  0.500000  1
  Ni  Ni4  1  0.116589  0.116589  0.500000  1
  Ni  Ni5  1  0.383411  0.883411  0.000000  1
  Ni  Ni6  1  0.616589  0.116589  0.000000  1
  Ni  Ni7  1  0.883411  0.883411  0.500000  1
  P  P8  1  0.250000  0.838497  0.588497  1
  P  P9  1  0.750000  0.161503  0.411503  1
  P  P10  1  0.322217  0.322217  0.500000  1
  P  P11  1  0.177783  0.677783  0.000000  1
  P  P12  1  0.822217  0.322217  0.000000  1
  P  P13  1  0.677783  0.677783  0.500000  1
  O  O14  1  0.344601  0.795643  0.451043  1
  O  O15  1  0.655399  0.204357  0.548957  1
  O  O16  1  0.844601  0.393558  0.548957  1
  O  O17  1  0.155399  0.606442  0.451043  1
  O  O18  1  0.131998  0.983337  0.615334  1
  O  O19  1  0.631998  0.016663  0.148661  1
  O  O20  1  0.868002  0.016663  0.384666  1
  O  O21  1  0.368002  0.983337  0.851339  1
  O  O22  1  0.347187  0.202430  0.277034  1
  O  O23  1  0.074605  0.797570  0.144757  1
  O  O24  1  0.847187  0.570152  0.144757  1
  O  O25  1  0.574605  0.429848  0.277034  1
  O  O26  1  0.652813  0.797570  0.722966  1
  O  O27  1  0.925395  0.202430  0.855243  1
  O  O28  1  0.152813  0.429848  0.855243  1
  O  O29  1  0.425395  0.570152  0.722966  1
  O  O30  1  0.131988  0.287623  0.432056  1
  O  O31  1  0.144433  0.712377  0.844366  1
  O  O32  1  0.631988  0.199933  0.844366  1
  O  O33  1  0.644433  0.800067  0.432056  1
  O  O34  1  0.868012  0.712377  0.567944  1
  O  O35  1  0.855567  0.287623  0.155634  1
  O  O36  1  0.368012  0.800067  0.155634  1
  O  O37  1  0.355567  0.199933  0.567944  1
