# generated using pymatgen
data_DyEr4CoSb2
_symmetry_space_group_name_H-M   'P 1'
_cell_length_a   7.82738100
_cell_length_b   8.73838500
_cell_length_c   12.11020300
_cell_angle_alpha   90.00000000
_cell_angle_beta   90.00000000
_cell_angle_gamma   90.00000000
_symmetry_Int_Tables_number   1
_chemical_formula_structural   DyEr4CoSb2
_chemical_formula_sum   'Dy4 Er16 Co4 Sb8'
_cell_volume   828.32176313
_cell_formula_units_Z   4
loop_
 _symmetry_equiv_pos_site_id
 _symmetry_equiv_pos_as_xyz
  1  'x, y, z'
loop_
 _atom_site_type_symbol
 _atom_site_label
 _atom_site_symmetry_multiplicity
 _atom_site_fract_x
 _atom_site_fract_y
 _atom_site_fract_z
 _atom_site_occupancy
  Dy  Dy0  1  0.622852  0.750000  0.307255  1
  Dy  Dy1  1  0.122852  0.250000  0.192745  1
  Dy  Dy2  1  0.377148  0.250000  0.692745  1
  Dy  Dy3  1  0.877148  0.750000  0.807255  1
  Er  Er4  1  0.156620  0.750000  0.203913  1
  Er  Er5  1  0.656620  0.250000  0.296087  1
  Er  Er6  1  0.843380  0.250000  0.796087  1
  Er  Er7  1  0.343380  0.750000  0.703913  1
  Er  Er8  1  0.451482  0.750000  0.997873  1
  Er  Er9  1  0.951482  0.250000  0.502127  1
  Er  Er10  1  0.548518  0.250000  0.002127  1
  Er  Er11  1  0.048518  0.750000  0.497873  1
  Er  Er12  1  0.822909  0.963182  0.065638  1
  Er  Er13  1  0.322909  0.036818  0.434362  1
  Er  Er14  1  0.177091  0.463182  0.934362  1
  Er  Er15  1  0.677091  0.536818  0.565638  1
  Er  Er16  1  0.177091  0.036818  0.934362  1
  Er  Er17  1  0.677091  0.963182  0.565638  1
  Er  Er18  1  0.822909  0.536818  0.065638  1
  Er  Er19  1  0.322909  0.463182  0.434362  1
  Co  Co20  1  0.431684  0.750000  0.490803  1
  Co  Co21  1  0.931684  0.250000  0.009197  1
  Co  Co22  1  0.568316  0.250000  0.509197  1
  Co  Co23  1  0.068316  0.750000  0.990803  1
  Sb  Sb24  1  0.930568  0.991569  0.327478  1
  Sb  Sb25  1  0.430568  0.008431  0.172522  1
  Sb  Sb26  1  0.069432  0.491569  0.672522  1
  Sb  Sb27  1  0.569432  0.508431  0.827478  1
  Sb  Sb28  1  0.069432  0.008431  0.672522  1
  Sb  Sb29  1  0.569432  0.991569  0.827478  1
  Sb  Sb30  1  0.930568  0.508431  0.327478  1
  Sb  Sb31  1  0.430568  0.491569  0.172522  1
