# generated using pymatgen
data_Rb5MgPb8
_symmetry_space_group_name_H-M   'P 1'
_cell_length_a   13.73046103
_cell_length_b   13.73046129
_cell_length_c   13.73046074
_cell_angle_alpha   29.62474077
_cell_angle_beta   29.62474053
_cell_angle_gamma   29.62473370
_symmetry_Int_Tables_number   1
_chemical_formula_structural   Rb5MgPb8
_chemical_formula_sum   'Rb5 Mg1 Pb8'
_cell_volume   559.95551261
_cell_formula_units_Z   1
loop_
 _symmetry_equiv_pos_site_id
 _symmetry_equiv_pos_as_xyz
  1  'x, y, z'
loop_
 _atom_site_type_symbol
 _atom_site_label
 _atom_site_symmetry_multiplicity
 _atom_site_fract_x
 _atom_site_fract_y
 _atom_site_fract_z
 _atom_site_occupancy
  Rb  Rb0  1  0.318174  0.318174  0.318174  1
  Rb  Rb1  1  0.500000  0.500000  0.500000  1
  Rb  Rb2  1  0.780443  0.780443  0.780443  1
  Rb  Rb3  1  0.681826  0.681826  0.681826  1
  Rb  Rb4  1  0.219557  0.219557  0.219557  1
  Mg  Mg5  1  0.000000  0.000000  0.000000  1
  Pb  Pb6  1  0.771180  0.771180  0.261177  1
  Pb  Pb7  1  0.873883  0.873883  0.873883  1
  Pb  Pb8  1  0.228820  0.738823  0.228820  1
  Pb  Pb9  1  0.261177  0.771180  0.771180  1
  Pb  Pb10  1  0.126117  0.126117  0.126117  1
  Pb  Pb11  1  0.771180  0.261177  0.771180  1
  Pb  Pb12  1  0.738822  0.228820  0.228820  1
  Pb  Pb13  1  0.228820  0.228820  0.738823  1
