# generated using pymatgen
data_SmAl2ZnGa
_symmetry_space_group_name_H-M   'P 1'
_cell_length_a   4.18957046
_cell_length_b   4.18957200
_cell_length_c   6.24789145
_cell_angle_alpha   70.41050598
_cell_angle_beta   70.41050017
_cell_angle_gamma   89.99997974
_symmetry_Int_Tables_number   1
_chemical_formula_structural   SmAl2ZnGa
_chemical_formula_sum   'Sm1 Al2 Zn1 Ga1'
_cell_volume   96.55457521
_cell_formula_units_Z   1
loop_
 _symmetry_equiv_pos_site_id
 _symmetry_equiv_pos_as_xyz
  1  'x, y, z'
loop_
 _atom_site_type_symbol
 _atom_site_label
 _atom_site_symmetry_multiplicity
 _atom_site_fract_x
 _atom_site_fract_y
 _atom_site_fract_z
 _atom_site_occupancy
  Sm  Sm0  1  0.001634  0.001634  0.996733  1
  Al  Al1  1  0.752441  0.252441  0.495118  1
  Al  Al2  1  0.252441  0.752441  0.495118  1
  Zn  Zn3  1  0.386847  0.386847  0.226306  1
  Ga  Ga4  1  0.606637  0.606637  0.786726  1
