# generated using pymatgen
data_Dy17Y3Cd3Ag3Ru2
_symmetry_space_group_name_H-M   'P 1'
_cell_length_a   9.61812000
_cell_length_b   9.61811978
_cell_length_c   9.67910100
_cell_angle_alpha   90.00000000
_cell_angle_beta   90.00000000
_cell_angle_gamma   120.00000076
_symmetry_Int_Tables_number   1
_chemical_formula_structural   Dy17Y3Cd3Ag3Ru2
_chemical_formula_sum   'Dy17 Y3 Cd3 Ag3 Ru2'
_cell_volume   775.43611244
_cell_formula_units_Z   1
loop_
 _symmetry_equiv_pos_site_id
 _symmetry_equiv_pos_as_xyz
  1  'x, y, z'
loop_
 _atom_site_type_symbol
 _atom_site_label
 _atom_site_symmetry_multiplicity
 _atom_site_fract_x
 _atom_site_fract_y
 _atom_site_fract_z
 _atom_site_occupancy
  Dy  Dy0  1  0.000000  0.000000  0.477870  1
  Dy  Dy1  1  0.000000  0.000000  0.022130  1
  Dy  Dy2  1  0.210322  0.789678  0.440688  1
  Dy  Dy3  1  0.210322  0.420646  0.440688  1
  Dy  Dy4  1  0.579354  0.789678  0.440688  1
  Dy  Dy5  1  0.790741  0.209259  0.559695  1
  Dy  Dy6  1  0.790741  0.581482  0.559695  1
  Dy  Dy7  1  0.418518  0.209259  0.559695  1
  Dy  Dy8  1  0.790741  0.209259  0.940305  1
  Dy  Dy9  1  0.790741  0.581482  0.940305  1
  Dy  Dy10  1  0.418518  0.209259  0.940305  1
  Dy  Dy11  1  0.210322  0.789678  0.059312  1
  Dy  Dy12  1  0.210322  0.420646  0.059312  1
  Dy  Dy13  1  0.579354  0.789678  0.059312  1
  Dy  Dy14  1  0.540914  0.459086  0.250000  1
  Dy  Dy15  1  0.540914  0.081829  0.250000  1
  Dy  Dy16  1  0.918171  0.459086  0.250000  1
  Y  Y17  1  0.458942  0.541058  0.750000  1
  Y  Y18  1  0.458942  0.917883  0.750000  1
  Y  Y19  1  0.082117  0.541058  0.750000  1
  Cd  Cd20  1  0.111270  0.888730  0.750000  1
  Cd  Cd21  1  0.111270  0.222538  0.750000  1
  Cd  Cd22  1  0.777462  0.888730  0.750000  1
  Ag  Ag23  1  0.876576  0.123424  0.250000  1
  Ag  Ag24  1  0.876576  0.753154  0.250000  1
  Ag  Ag25  1  0.246846  0.123424  0.250000  1
  Ru  Ru26  1  0.333333  0.666667  0.250000  1
  Ru  Ru27  1  0.666667  0.333333  0.750000  1
