# generated using pymatgen
data_Tb2YPa(Ga3Ir)6
_symmetry_space_group_name_H-M   'P 1'
_cell_length_a   7.62389600
_cell_length_b   7.61362376
_cell_length_c   9.45552800
_cell_angle_alpha   90.00000000
_cell_angle_beta   90.00000000
_cell_angle_gamma   119.87831574
_symmetry_Int_Tables_number   1
_chemical_formula_structural   Tb2YPa(Ga3Ir)6
_chemical_formula_sum   'Tb2 Y1 Pa1 Ga18 Ir6'
_cell_volume   475.90033039
_cell_formula_units_Z   1
loop_
 _symmetry_equiv_pos_site_id
 _symmetry_equiv_pos_as_xyz
  1  'x, y, z'
loop_
 _atom_site_type_symbol
 _atom_site_label
 _atom_site_symmetry_multiplicity
 _atom_site_fract_x
 _atom_site_fract_y
 _atom_site_fract_z
 _atom_site_occupancy
  Tb  Tb0  1  0.003984  0.331301  0.750000  1
  Tb  Tb1  1  0.331064  0.002942  0.750000  1
  Y  Y2  1  0.669598  0.996377  0.250000  1
  Pa  Pa3  1  0.997566  0.669049  0.250000  1
  Ga  Ga4  1  0.130402  0.130098  0.250000  1
  Ga  Ga5  1  0.872780  0.873644  0.750000  1
  Ga  Ga6  1  0.998767  0.331018  0.080144  1
  Ga  Ga7  1  0.000919  0.665498  0.917195  1
  Ga  Ga8  1  0.000919  0.665498  0.582805  1
  Ga  Ga9  1  0.338101  0.002514  0.419640  1
  Ga  Ga10  1  0.998767  0.331018  0.419856  1
  Ga  Ga11  1  0.665686  0.001497  0.580852  1
  Ga  Ga12  1  0.665686  0.001497  0.919148  1
  Ga  Ga13  1  0.338101  0.002514  0.080360  1
  Ga  Ga14  1  0.331685  0.331653  0.567063  1
  Ga  Ga15  1  0.664197  0.667604  0.434457  1
  Ga  Ga16  1  0.664197  0.667604  0.065543  1
  Ga  Ga17  1  0.331685  0.331653  0.932937  1
  Ga  Ga18  1  0.339194  0.544489  0.250000  1
  Ga  Ga19  1  0.660454  0.452868  0.750000  1
  Ga  Ga20  1  0.544222  0.340059  0.250000  1
  Ga  Ga21  1  0.453026  0.661248  0.750000  1
  Ir  Ir22  1  0.673959  0.331634  0.002141  1
  Ir  Ir23  1  0.326137  0.671186  0.002188  1
  Ir  Ir24  1  0.326137  0.671186  0.497812  1
  Ir  Ir25  1  0.673959  0.331634  0.497859  1
  Ir  Ir26  1  0.999405  0.996359  0.002611  1
  Ir  Ir27  1  0.999405  0.996359  0.497389  1
