# generated using pymatgen
data_Dy5TmNiBr10
_symmetry_space_group_name_H-M   'P 1'
_cell_length_a   7.29777386
_cell_length_b   9.14704025
_cell_length_c   9.19769672
_cell_angle_alpha   107.80184515
_cell_angle_beta   96.92860410
_cell_angle_gamma   105.02323425
_symmetry_Int_Tables_number   1
_chemical_formula_structural   Dy5TmNiBr10
_chemical_formula_sum   'Dy5 Tm1 Ni1 Br10'
_cell_volume   551.09766588
_cell_formula_units_Z   1
loop_
 _symmetry_equiv_pos_site_id
 _symmetry_equiv_pos_as_xyz
  1  'x, y, z'
loop_
 _atom_site_type_symbol
 _atom_site_label
 _atom_site_symmetry_multiplicity
 _atom_site_fract_x
 _atom_site_fract_y
 _atom_site_fract_z
 _atom_site_occupancy
  Dy  Dy0  1  0.121492  0.044888  0.757235  1
  Dy  Dy1  1  0.876265  0.954093  0.241893  1
  Dy  Dy2  1  0.968321  0.292522  0.090977  1
  Dy  Dy3  1  0.030353  0.707068  0.908102  1
  Dy  Dy4  1  0.352433  0.130109  0.174320  1
  Tm  Tm5  1  0.651416  0.870903  0.827508  1
  Ni  Ni6  1  0.999532  0.999800  0.000181  1
  Br  Br7  1  0.546031  0.176688  0.912692  1
  Br  Br8  1  0.453737  0.820089  0.083794  1
  Br  Br9  1  0.350430  0.451899  0.271150  1
  Br  Br10  1  0.647104  0.550996  0.728508  1
  Br  Br11  1  0.250820  0.083361  0.458314  1
  Br  Br12  1  0.746690  0.915783  0.543171  1
  Br  Br13  1  0.779753  0.255148  0.345355  1
  Br  Br14  1  0.225383  0.746458  0.656775  1
  Br  Br15  1  0.085445  0.371107  0.826051  1
  Br  Br16  1  0.914798  0.629086  0.173973  1
