# generated using pymatgen
data_Dy4Ho15LuPb16
_symmetry_space_group_name_H-M   'P 1'
_cell_length_a   8.17992100
_cell_length_b   8.25952273
_cell_length_c   15.58779600
_cell_angle_alpha   90.00088773
_cell_angle_beta   89.99756090
_cell_angle_gamma   89.95400726
_symmetry_Int_Tables_number   1
_chemical_formula_structural   Dy4Ho15LuPb16
_chemical_formula_sum   'Dy4 Ho15 Lu1 Pb16'
_cell_volume   1053.14612867
_cell_formula_units_Z   1
loop_
 _symmetry_equiv_pos_site_id
 _symmetry_equiv_pos_as_xyz
  1  'x, y, z'
loop_
 _atom_site_type_symbol
 _atom_site_label
 _atom_site_symmetry_multiplicity
 _atom_site_fract_x
 _atom_site_fract_y
 _atom_site_fract_z
 _atom_site_occupancy
  Dy  Dy0  1  0.463944  0.676341  0.099975  1
  Dy  Dy1  1  0.963866  0.823658  0.399870  1
  Dy  Dy2  1  0.535813  0.323939  0.600100  1
  Dy  Dy3  1  0.036322  0.176775  0.899933  1
  Ho  Ho4  1  0.376268  0.841085  0.879006  1
  Ho  Ho5  1  0.877292  0.658289  0.621058  1
  Ho  Ho6  1  0.623293  0.158709  0.379030  1
  Ho  Ho7  1  0.123335  0.341290  0.120794  1
  Ho  Ho8  1  0.623308  0.158694  0.120949  1
  Ho  Ho9  1  0.123360  0.341295  0.379231  1
  Ho  Ho10  1  0.376254  0.841091  0.620968  1
  Ho  Ho11  1  0.877270  0.658284  0.878963  1
  Ho  Ho12  1  0.535838  0.323981  0.899836  1
  Ho  Ho13  1  0.036356  0.176739  0.600125  1
  Ho  Ho14  1  0.463914  0.676310  0.399956  1
  Ho  Ho15  1  0.963828  0.823705  0.100192  1
  Ho  Ho16  1  0.708403  0.995942  0.749986  1
  Ho  Ho17  1  0.791509  0.495941  0.250016  1
  Ho  Ho18  1  0.291524  0.004246  0.249986  1
  Lu  Lu19  1  0.208827  0.504478  0.750022  1
  Pb  Pb20  1  0.281042  0.033132  0.042798  1
  Pb  Pb21  1  0.780974  0.466724  0.457216  1
  Pb  Pb22  1  0.719019  0.966803  0.542967  1
  Pb  Pb23  1  0.218971  0.532922  0.956447  1
  Pb  Pb24  1  0.718915  0.966708  0.957110  1
  Pb  Pb25  1  0.218875  0.533012  0.543477  1
  Pb  Pb26  1  0.281136  0.033230  0.457280  1
  Pb  Pb27  1  0.781083  0.466633  0.042710  1
  Pb  Pb28  1  0.570733  0.625551  0.749991  1
  Pb  Pb29  1  0.072314  0.872971  0.750013  1
  Pb  Pb30  1  0.427935  0.373772  0.249987  1
  Pb  Pb31  1  0.927940  0.126329  0.250009  1
  Pb  Pb32  1  0.347270  0.155281  0.750053  1
  Pb  Pb33  1  0.847874  0.346564  0.749951  1
  Pb  Pb34  1  0.652632  0.846148  0.250044  1
  Pb  Pb35  1  0.152758  0.653425  0.249950  1
