# generated using pymatgen
data_Dy8Ti7Si16Tc5
_symmetry_space_group_name_H-M   'P 1'
_cell_length_a   6.92334889
_cell_length_b   6.93289080
_cell_length_c   12.77138584
_cell_angle_alpha   90.25011534
_cell_angle_beta   89.86814951
_cell_angle_gamma   90.09354557
_symmetry_Int_Tables_number   1
_chemical_formula_structural   Dy8Ti7Si16Tc5
_chemical_formula_sum   'Dy8 Ti7 Si16 Tc5'
_cell_volume   613.00320253
_cell_formula_units_Z   1
loop_
 _symmetry_equiv_pos_site_id
 _symmetry_equiv_pos_as_xyz
  1  'x, y, z'
loop_
 _atom_site_type_symbol
 _atom_site_label
 _atom_site_symmetry_multiplicity
 _atom_site_fract_x
 _atom_site_fract_y
 _atom_site_fract_z
 _atom_site_occupancy
  Dy  Dy0  1  0.000133  0.659254  0.031285  1
  Dy  Dy1  1  0.001710  0.340235  0.530244  1
  Dy  Dy2  1  0.660425  0.998484  0.969961  1
  Dy  Dy3  1  0.159791  0.500433  0.779929  1
  Dy  Dy4  1  0.841045  0.499520  0.281772  1
  Dy  Dy5  1  0.502770  0.158579  0.221032  1
  Dy  Dy6  1  0.498964  0.840529  0.718670  1
  Dy  Dy7  1  0.340276  0.999350  0.468061  1
  Ti  Ti8  1  0.844112  0.996380  0.376750  1
  Ti  Ti9  1  0.006664  0.158358  0.122922  1
  Ti  Ti10  1  0.997835  0.845700  0.621179  1
  Ti  Ti11  1  0.504430  0.346251  0.627365  1
  Ti  Ti12  1  0.154311  0.005365  0.876764  1
  Ti  Ti13  1  0.495550  0.656054  0.124274  1
  Ti  Ti14  1  0.654016  0.496102  0.873156  1
  Si  Si15  1  0.053585  0.710851  0.430922  1
  Si  Si16  1  0.953061  0.290392  0.932302  1
  Si  Si17  1  0.710193  0.048440  0.567227  1
  Si  Si18  1  0.210534  0.458652  0.187851  1
  Si  Si19  1  0.790176  0.546691  0.682685  1
  Si  Si20  1  0.453593  0.210199  0.818074  1
  Si  Si21  1  0.538146  0.779207  0.318238  1
  Si  Si22  1  0.290303  0.953766  0.067337  1
  Si  Si23  1  0.800206  0.871978  0.184720  1
  Si  Si24  1  0.303703  0.627214  0.562364  1
  Si  Si25  1  0.699197  0.371565  0.066170  1
  Si  Si26  1  0.623955  0.306676  0.434629  1
  Si  Si27  1  0.371130  0.700176  0.933064  1
  Si  Si28  1  0.124280  0.202087  0.315728  1
  Si  Si29  1  0.199359  0.128359  0.684078  1
  Si  Si30  1  0.872462  0.800325  0.815261  1
  Tc  Tc31  1  0.338938  0.490301  0.373413  1
  Tc  Tc32  1  0.673884  0.670041  0.501681  1
  Tc  Tc33  1  0.829861  0.169678  0.749482  1
  Tc  Tc34  1  0.171189  0.832084  0.249008  1
  Tc  Tc35  1  0.330214  0.330724  0.002405  1
