# generated using pymatgen
data_CeEr3Al14(Ga2Ir3)2
_symmetry_space_group_name_H-M   'P 1'
_cell_length_a   7.55195302
_cell_length_b   7.55226991
_cell_length_c   9.51564600
_cell_angle_alpha   90.00000000
_cell_angle_beta   90.00000000
_cell_angle_gamma   119.67976938
_symmetry_Int_Tables_number   1
_chemical_formula_structural   CeEr3Al14(Ga2Ir3)2
_chemical_formula_sum   'Ce1 Er3 Al14 Ga4 Ir6'
_cell_volume   471.51777796
_cell_formula_units_Z   1
loop_
 _symmetry_equiv_pos_site_id
 _symmetry_equiv_pos_as_xyz
  1  'x, y, z'
loop_
 _atom_site_type_symbol
 _atom_site_label
 _atom_site_symmetry_multiplicity
 _atom_site_fract_x
 _atom_site_fract_y
 _atom_site_fract_z
 _atom_site_occupancy
  Ce  Ce0  1  0.995301  0.669149  0.750000  1
  Er  Er1  1  0.004717  0.334426  0.250000  1
  Er  Er2  1  0.671979  0.994981  0.750000  1
  Er  Er3  1  0.328188  0.997361  0.250000  1
  Al  Al4  1  0.875001  0.877680  0.250000  1
  Al  Al5  1  0.001884  0.332805  0.572293  1
  Al  Al6  1  0.998257  0.665087  0.422413  1
  Al  Al7  1  0.998257  0.665087  0.077587  1
  Al  Al8  1  0.336712  0.003662  0.927999  1
  Al  Al9  1  0.001884  0.332805  0.927707  1
  Al  Al10  1  0.665900  0.001210  0.075299  1
  Al  Al11  1  0.665900  0.001210  0.424701  1
  Al  Al12  1  0.336712  0.003662  0.572001  1
  Al  Al13  1  0.331671  0.331171  0.062517  1
  Al  Al14  1  0.663128  0.665349  0.953377  1
  Al  Al15  1  0.663128  0.665349  0.546623  1
  Al  Al16  1  0.331671  0.331171  0.437483  1
  Al  Al17  1  0.659928  0.448108  0.250000  1
  Ga  Ga18  1  0.130016  0.130904  0.750000  1
  Ga  Ga19  1  0.345398  0.549323  0.750000  1
  Ga  Ga20  1  0.544977  0.338511  0.750000  1
  Ga  Ga21  1  0.456394  0.662375  0.250000  1
  Ir  Ir22  1  0.671303  0.328750  0.497850  1
  Ir  Ir23  1  0.325814  0.671326  0.499892  1
  Ir  Ir24  1  0.325814  0.671326  0.000108  1
  Ir  Ir25  1  0.671303  0.328750  0.002150  1
  Ir  Ir26  1  0.999379  0.999229  0.498077  1
  Ir  Ir27  1  0.999379  0.999229  0.001923  1
