# generated using pymatgen
data_La4SiB4Rh9
_symmetry_space_group_name_H-M   'P 1'
_cell_length_a   5.57838100
_cell_length_b   5.57838283
_cell_length_c   20.73810100
_cell_angle_alpha   90.00000000
_cell_angle_beta   90.00000000
_cell_angle_gamma   119.99723173
_symmetry_Int_Tables_number   1
_chemical_formula_structural   La4SiB4Rh9
_chemical_formula_sum   'La8 Si2 B8 Rh18'
_cell_volume   558.89242000
_cell_formula_units_Z   2
loop_
 _symmetry_equiv_pos_site_id
 _symmetry_equiv_pos_as_xyz
  1  'x, y, z'
loop_
 _atom_site_type_symbol
 _atom_site_label
 _atom_site_symmetry_multiplicity
 _atom_site_fract_x
 _atom_site_fract_y
 _atom_site_fract_z
 _atom_site_occupancy
  La  La0  1  0.666664  0.333336  0.524287  1
  La  La1  1  0.333336  0.666664  0.475713  1
  La  La2  1  0.333336  0.666664  0.024287  1
  La  La3  1  0.666664  0.333336  0.975713  1
  La  La4  1  0.666636  0.333364  0.673762  1
  La  La5  1  0.333364  0.666636  0.326238  1
  La  La6  1  0.333364  0.666636  0.173762  1
  La  La7  1  0.666636  0.333364  0.826238  1
  Si  Si8  1  0.000000  0.000000  0.500000  1
  Si  Si9  1  0.000000  0.000000  0.000000  1
  B  B10  1  0.999989  0.000011  0.674987  1
  B  B11  1  0.000011  0.999989  0.325013  1
  B  B12  1  0.000011  0.999989  0.174987  1
  B  B13  1  0.999989  0.000011  0.825013  1
  B  B14  1  0.666706  0.333294  0.327361  1
  B  B15  1  0.333294  0.666706  0.672639  1
  B  B16  1  0.333294  0.666706  0.827361  1
  B  B17  1  0.666706  0.333294  0.172639  1
  Rh  Rh18  1  0.167242  0.334551  0.750000  1
  Rh  Rh19  1  0.167276  0.832724  0.750000  1
  Rh  Rh20  1  0.665449  0.832758  0.750000  1
  Rh  Rh21  1  0.832758  0.665449  0.250000  1
  Rh  Rh22  1  0.832724  0.167276  0.250000  1
  Rh  Rh23  1  0.334551  0.167242  0.250000  1
  Rh  Rh24  1  0.164381  0.328846  0.604306  1
  Rh  Rh25  1  0.164361  0.835639  0.604319  1
  Rh  Rh26  1  0.671154  0.835619  0.604306  1
  Rh  Rh27  1  0.835619  0.671154  0.395694  1
  Rh  Rh28  1  0.835639  0.164361  0.395681  1
  Rh  Rh29  1  0.328846  0.164381  0.395694  1
  Rh  Rh30  1  0.835619  0.671154  0.104306  1
  Rh  Rh31  1  0.835639  0.164361  0.104319  1
  Rh  Rh32  1  0.328846  0.164381  0.104306  1
  Rh  Rh33  1  0.164381  0.328846  0.895694  1
  Rh  Rh34  1  0.164361  0.835639  0.895681  1
  Rh  Rh35  1  0.671154  0.835619  0.895694  1
