# generated using pymatgen
data_Tb5Dy7Tc4
_symmetry_space_group_name_H-M   'P 1'
_cell_length_a   6.27798252
_cell_length_b   7.41525358
_cell_length_c   9.21450683
_cell_angle_alpha   90.01261282
_cell_angle_beta   89.89346497
_cell_angle_gamma   90.03936269
_symmetry_Int_Tables_number   1
_chemical_formula_structural   Tb5Dy7Tc4
_chemical_formula_sum   'Tb5 Dy7 Tc4'
_cell_volume   428.96053859
_cell_formula_units_Z   1
loop_
 _symmetry_equiv_pos_site_id
 _symmetry_equiv_pos_as_xyz
  1  'x, y, z'
loop_
 _atom_site_type_symbol
 _atom_site_label
 _atom_site_symmetry_multiplicity
 _atom_site_fract_x
 _atom_site_fract_y
 _atom_site_fract_z
 _atom_site_occupancy
  Tb  Tb0  1  0.337202  0.675384  0.062489  1
  Tb  Tb1  1  0.872490  0.542316  0.250324  1
  Tb  Tb2  1  0.628190  0.042737  0.250134  1
  Tb  Tb3  1  0.127038  0.457234  0.749834  1
  Tb  Tb4  1  0.372025  0.957663  0.749853  1
  Dy  Dy5  1  0.162130  0.175260  0.437420  1
  Dy  Dy6  1  0.661893  0.325339  0.563441  1
  Dy  Dy7  1  0.838007  0.824708  0.936468  1
  Dy  Dy8  1  0.662683  0.324792  0.937058  1
  Dy  Dy9  1  0.838218  0.824545  0.562775  1
  Dy  Dy10  1  0.338095  0.674750  0.436995  1
  Dy  Dy11  1  0.161582  0.175151  0.063384  1
  Tc  Tc12  1  0.039992  0.887504  0.250404  1
  Tc  Tc13  1  0.460068  0.387198  0.250191  1
  Tc  Tc14  1  0.959343  0.112524  0.750017  1
  Tc  Tc15  1  0.541044  0.612895  0.749213  1
