# generated using pymatgen
data_Th10Si2SnSb5
_symmetry_space_group_name_H-M   'P 1'
_cell_length_a   9.51945700
_cell_length_b   9.51191279
_cell_length_c   6.51643600
_cell_angle_alpha   90.00000000
_cell_angle_beta   90.00000000
_cell_angle_gamma   120.02622967
_symmetry_Int_Tables_number   1
_chemical_formula_structural   Th10Si2SnSb5
_chemical_formula_sum   'Th10 Si2 Sn1 Sb5'
_cell_volume   510.86476997
_cell_formula_units_Z   1
loop_
 _symmetry_equiv_pos_site_id
 _symmetry_equiv_pos_as_xyz
  1  'x, y, z'
loop_
 _atom_site_type_symbol
 _atom_site_label
 _atom_site_symmetry_multiplicity
 _atom_site_fract_x
 _atom_site_fract_y
 _atom_site_fract_z
 _atom_site_occupancy
  Th  Th0  1  0.257622  0.000000  0.250000  1
  Th  Th1  1  0.258200  0.258058  0.750000  1
  Th  Th2  1  0.000142  0.741942  0.750000  1
  Th  Th3  1  0.000098  0.258534  0.250000  1
  Th  Th4  1  0.741564  0.741466  0.250000  1
  Th  Th5  1  0.741990  0.000000  0.750000  1
  Th  Th6  1  0.333251  0.666390  0.000773  1
  Th  Th7  1  0.666863  0.333610  0.499227  1
  Th  Th8  1  0.666863  0.333610  0.000773  1
  Th  Th9  1  0.333251  0.666390  0.499227  1
  Si  Si10  1  0.999988  0.000000  0.999998  1
  Si  Si11  1  0.999988  0.000000  0.500002  1
  Sn  Sn12  1  0.609946  0.000000  0.250000  1
  Sb  Sb13  1  0.609648  0.610210  0.750000  1
  Sb  Sb14  1  0.999438  0.389790  0.750000  1
  Sb  Sb15  1  0.000072  0.609923  0.250000  1
  Sb  Sb16  1  0.390148  0.390077  0.250000  1
  Sb  Sb17  1  0.390928  0.000000  0.750000  1
