# generated using pymatgen
data_NdCd3(Ru2O7)2
_symmetry_space_group_name_H-M   'P 1'
_cell_length_a   7.26029396
_cell_length_b   7.26029371
_cell_length_c   7.31345124
_cell_angle_alpha   60.24014637
_cell_angle_beta   60.24014911
_cell_angle_gamma   60.00000138
_symmetry_Int_Tables_number   1
_chemical_formula_structural   NdCd3(Ru2O7)2
_chemical_formula_sum   'Nd1 Cd3 Ru4 O14'
_cell_volume   273.57895642
_cell_formula_units_Z   1
loop_
 _symmetry_equiv_pos_site_id
 _symmetry_equiv_pos_as_xyz
  1  'x, y, z'
loop_
 _atom_site_type_symbol
 _atom_site_label
 _atom_site_symmetry_multiplicity
 _atom_site_fract_x
 _atom_site_fract_y
 _atom_site_fract_z
 _atom_site_occupancy
  Nd  Nd0  1  0.125000  0.125000  0.625000  1
  Cd  Cd1  1  0.125000  0.625000  0.125000  1
  Cd  Cd2  1  0.625000  0.125000  0.125000  1
  Cd  Cd3  1  0.125000  0.125000  0.125000  1
  Ru  Ru4  1  0.625000  0.125000  0.625000  1
  Ru  Ru5  1  0.625000  0.625000  0.125000  1
  Ru  Ru6  1  0.125000  0.625000  0.625000  1
  Ru  Ru7  1  0.625000  0.625000  0.625000  1
  O  O8  1  0.688937  0.688937  0.313148  1
  O  O9  1  0.952664  0.549647  0.545026  1
  O  O10  1  0.561063  0.941023  0.936852  1
  O  O11  1  0.952664  0.952664  0.545026  1
  O  O12  1  0.941023  0.561063  0.936852  1
  O  O13  1  0.549647  0.952664  0.545026  1
  O  O14  1  0.308977  0.688937  0.313148  1
  O  O15  1  0.297336  0.700353  0.704974  1
  O  O16  1  0.688937  0.308977  0.313148  1
  O  O17  1  0.700353  0.297336  0.704974  1
  O  O18  1  0.561063  0.561063  0.936852  1
  O  O19  1  0.297336  0.297336  0.704974  1
  O  O20  1  0.256251  0.256251  0.231248  1
  O  O21  1  0.993749  0.993749  0.018752  1
