# generated using pymatgen
data_Er16Tm3MgIr12
_symmetry_space_group_name_H-M   'P 1'
_cell_length_a   10.75889200
_cell_length_b   10.75889200
_cell_length_c   6.26969100
_cell_angle_alpha   90.00000000
_cell_angle_beta   90.00000000
_cell_angle_gamma   90.00000000
_symmetry_Int_Tables_number   1
_chemical_formula_structural   Er16Tm3MgIr12
_chemical_formula_sum   'Er16 Tm3 Mg1 Ir12'
_cell_volume   725.74028890
_cell_formula_units_Z   1
loop_
 _symmetry_equiv_pos_site_id
 _symmetry_equiv_pos_as_xyz
  1  'x, y, z'
loop_
 _atom_site_type_symbol
 _atom_site_label
 _atom_site_symmetry_multiplicity
 _atom_site_fract_x
 _atom_site_fract_y
 _atom_site_fract_z
 _atom_site_occupancy
  Er  Er0  1  0.284235  0.084536  0.377984  1
  Er  Er1  1  0.290575  0.912238  0.878864  1
  Er  Er2  1  0.709425  0.087762  0.878864  1
  Er  Er3  1  0.715765  0.915464  0.377984  1
  Er  Er4  1  0.588388  0.791627  0.877863  1
  Er  Er5  1  0.587234  0.208297  0.376478  1
  Er  Er6  1  0.412766  0.791703  0.376478  1
  Er  Er7  1  0.411612  0.208373  0.877863  1
  Er  Er8  1  0.208297  0.412766  0.623522  1
  Er  Er9  1  0.208373  0.588388  0.122137  1
  Er  Er10  1  0.791627  0.411612  0.122137  1
  Er  Er11  1  0.791703  0.587234  0.623522  1
  Er  Er12  1  0.912238  0.709425  0.121136  1
  Er  Er13  1  0.915464  0.284235  0.622016  1
  Er  Er14  1  0.084536  0.715765  0.622016  1
  Er  Er15  1  0.087762  0.290575  0.121136  1
  Tm  Tm16  1  0.000000  0.000000  0.000000  1
  Tm  Tm17  1  0.500000  0.500000  0.000000  1
  Tm  Tm18  1  0.500000  0.500000  0.500000  1
  Mg  Mg19  1  0.000000  0.000000  0.500000  1
  Ir  Ir20  1  0.846347  0.154448  0.246964  1
  Ir  Ir21  1  0.845552  0.846347  0.753036  1
  Ir  Ir22  1  0.154448  0.153653  0.753036  1
  Ir  Ir23  1  0.153653  0.845552  0.246964  1
  Ir  Ir24  1  0.653964  0.346419  0.748587  1
  Ir  Ir25  1  0.653581  0.653964  0.251413  1
  Ir  Ir26  1  0.346419  0.346036  0.251413  1
  Ir  Ir27  1  0.346036  0.653581  0.748587  1
  Ir  Ir28  1  0.500000  0.000000  0.124414  1
  Ir  Ir29  1  0.500000  0.000000  0.620600  1
  Ir  Ir30  1  0.000000  0.500000  0.875586  1
  Ir  Ir31  1  0.000000  0.500000  0.379400  1
