# generated using pymatgen
data_Sc12Os(PtI8)2
_symmetry_space_group_name_H-M   'P 1'
_cell_length_a   9.07392104
_cell_length_b   11.96808594
_cell_length_c   12.66972323
_cell_angle_alpha   117.42813726
_cell_angle_beta   101.01029822
_cell_angle_gamma   100.61857206
_symmetry_Int_Tables_number   1
_chemical_formula_structural   Sc12Os(PtI8)2
_chemical_formula_sum   'Sc12 Os1 Pt2 I16'
_cell_volume   1138.72790410
_cell_formula_units_Z   1
loop_
 _symmetry_equiv_pos_site_id
 _symmetry_equiv_pos_as_xyz
  1  'x, y, z'
loop_
 _atom_site_type_symbol
 _atom_site_label
 _atom_site_symmetry_multiplicity
 _atom_site_fract_x
 _atom_site_fract_y
 _atom_site_fract_z
 _atom_site_occupancy
  Sc  Sc0  1  0.091781  0.272700  0.360586  1
  Sc  Sc1  1  0.911674  0.732113  0.642371  1
  Sc  Sc2  1  0.778859  0.536197  0.328889  1
  Sc  Sc3  1  0.222351  0.464504  0.667807  1
  Sc  Sc4  1  0.278069  0.728128  0.639806  1
  Sc  Sc5  1  0.721611  0.267130  0.357396  1
  Sc  Sc6  1  0.147669  0.535559  0.333078  1
  Sc  Sc7  1  0.854929  0.463788  0.670298  1
  Sc  Sc8  1  0.402516  0.361716  0.279079  1
  Sc  Sc9  1  0.586955  0.638214  0.720779  1
  Sc  Sc10  1  0.454037  0.311225  0.519881  1
  Sc  Sc11  1  0.535726  0.688730  0.480002  1
  Os  Os12  1  0.339438  0.500104  0.499674  1
  Pt  Pt13  1  0.997488  0.500068  0.500158  1
  Pt  Pt14  1  0.661616  0.499863  0.500350  1
  I  I15  1  0.392416  0.742175  0.885621  1
  I  I16  1  0.608191  0.259586  0.117141  1
  I  I17  1  0.188869  0.966423  0.784385  1
  I  I18  1  0.810617  0.033553  0.215714  1
  I  I19  1  0.343035  0.094939  0.251292  1
  I  I20  1  0.666736  0.905088  0.748781  1
  I  I21  1  0.560821  0.437192  0.797899  1
  I  I22  1  0.448014  0.562735  0.202096  1
  I  I23  1  0.304633  0.829429  0.462802  1
  I  I24  1  0.695399  0.172902  0.536815  1
  I  I25  1  0.161307  0.169101  0.533169  1
  I  I26  1  0.837323  0.828525  0.466914  1
  I  I27  1  0.926238  0.575639  0.160036  1
  I  I28  1  0.073491  0.424465  0.840002  1
  I  I29  1  0.926698  0.738554  0.882690  1
  I  I30  1  0.071495  0.259656  0.114488  1
