# generated using pymatgen
data_U9PaS20
_symmetry_space_group_name_H-M   'P 1'
_cell_length_a   10.15204800
_cell_length_b   10.15204800
_cell_length_c   6.25735500
_cell_angle_alpha   90.00000000
_cell_angle_beta   90.00000000
_cell_angle_gamma   90.00000000
_symmetry_Int_Tables_number   1
_chemical_formula_structural   U9PaS20
_chemical_formula_sum   'U9 Pa1 S20'
_cell_volume   644.90852751
_cell_formula_units_Z   1
loop_
 _symmetry_equiv_pos_site_id
 _symmetry_equiv_pos_as_xyz
  1  'x, y, z'
loop_
 _atom_site_type_symbol
 _atom_site_label
 _atom_site_symmetry_multiplicity
 _atom_site_fract_x
 _atom_site_fract_y
 _atom_site_fract_z
 _atom_site_occupancy
  U  U0  1  0.841332  0.152472  0.250045  1
  U  U1  1  0.652472  0.658668  0.250045  1
  U  U2  1  0.347528  0.341332  0.250045  1
  U  U3  1  0.158668  0.847528  0.250045  1
  U  U4  1  0.339338  0.649943  0.748579  1
  U  U5  1  0.149943  0.160662  0.748579  1
  U  U6  1  0.850057  0.839338  0.748579  1
  U  U7  1  0.660662  0.350057  0.748579  1
  U  U8  1  0.000000  0.500000  0.139961  1
  Pa  Pa9  1  0.500000  0.000000  0.864264  1
  S  S10  1  0.709213  0.089509  0.622803  1
  S  S11  1  0.589509  0.790787  0.622803  1
  S  S12  1  0.410491  0.209213  0.622803  1
  S  S13  1  0.290787  0.910491  0.622803  1
  S  S14  1  0.709855  0.910970  0.110003  1
  S  S15  1  0.589030  0.209855  0.110003  1
  S  S16  1  0.410970  0.790145  0.110003  1
  S  S17  1  0.290145  0.089030  0.110003  1
  S  S18  1  0.500000  0.500000  0.999631  1
  S  S19  1  0.000000  0.000000  0.999631  1
  S  S20  1  0.208653  0.411354  0.888791  1
  S  S21  1  0.088646  0.708653  0.888791  1
  S  S22  1  0.911354  0.291347  0.888791  1
  S  S23  1  0.791347  0.588646  0.888791  1
  S  S24  1  0.500000  0.500000  0.499257  1
  S  S25  1  0.000000  0.000000  0.499257  1
  S  S26  1  0.208489  0.588623  0.379278  1
  S  S27  1  0.088623  0.291511  0.379278  1
  S  S28  1  0.911377  0.708489  0.379278  1
  S  S29  1  0.791511  0.411377  0.379278  1
