# generated using pymatgen
data_YAl2GaCu
_symmetry_space_group_name_H-M   'P 1'
_cell_length_a   4.09894648
_cell_length_b   4.09959059
_cell_length_c   6.11166749
_cell_angle_alpha   70.40372850
_cell_angle_beta   70.40691792
_cell_angle_gamma   90.00000911
_symmetry_Int_Tables_number   1
_chemical_formula_structural   YAl2GaCu
_chemical_formula_sum   'Y1 Al2 Ga1 Cu1'
_cell_volume   90.41503233
_cell_formula_units_Z   1
loop_
 _symmetry_equiv_pos_site_id
 _symmetry_equiv_pos_as_xyz
  1  'x, y, z'
loop_
 _atom_site_type_symbol
 _atom_site_label
 _atom_site_symmetry_multiplicity
 _atom_site_fract_x
 _atom_site_fract_y
 _atom_site_fract_z
 _atom_site_occupancy
  Y  Y0  1  0.993371  0.993371  0.013258  1
  Al  Al1  1  0.743219  0.243219  0.513563  1
  Al  Al2  1  0.243296  0.743296  0.513408  1
  Ga  Ga3  1  0.400176  0.400176  0.199649  1
  Cu  Cu4  1  0.619939  0.619939  0.760121  1
