# generated using pymatgen
data_Er10NiRhPb6
_symmetry_space_group_name_H-M   'P 1'
_cell_length_a   9.11403700
_cell_length_b   9.11403812
_cell_length_c   6.71272900
_cell_angle_alpha   90.00000000
_cell_angle_beta   90.00000000
_cell_angle_gamma   120.00000682
_symmetry_Int_Tables_number   1
_chemical_formula_structural   Er10NiRhPb6
_chemical_formula_sum   'Er10 Ni1 Rh1 Pb6'
_cell_volume   482.89348318
_cell_formula_units_Z   1
loop_
 _symmetry_equiv_pos_site_id
 _symmetry_equiv_pos_as_xyz
  1  'x, y, z'
loop_
 _atom_site_type_symbol
 _atom_site_label
 _atom_site_symmetry_multiplicity
 _atom_site_fract_x
 _atom_site_fract_y
 _atom_site_fract_z
 _atom_site_occupancy
  Er  Er0  1  0.237860  0.000000  0.250378  1
  Er  Er1  1  0.762140  0.000000  0.749622  1
  Er  Er2  1  0.000000  0.237860  0.250378  1
  Er  Er3  1  0.000000  0.762140  0.749622  1
  Er  Er4  1  0.762140  0.762140  0.250378  1
  Er  Er5  1  0.237860  0.237860  0.749622  1
  Er  Er6  1  0.333333  0.666667  0.000000  1
  Er  Er7  1  0.666667  0.333333  0.000000  1
  Er  Er8  1  0.666667  0.333333  0.500000  1
  Er  Er9  1  0.333333  0.666667  0.500000  1
  Ni  Ni10  1  0.000000  0.000000  0.000000  1
  Rh  Rh11  1  0.000000  0.000000  0.500000  1
  Pb  Pb12  1  0.599194  0.000000  0.248922  1
  Pb  Pb13  1  0.400806  0.000000  0.751078  1
  Pb  Pb14  1  0.000000  0.599194  0.248922  1
  Pb  Pb15  1  0.000000  0.400806  0.751078  1
  Pb  Pb16  1  0.400806  0.400806  0.248922  1
  Pb  Pb17  1  0.599194  0.599194  0.751078  1
