# generated using pymatgen
data_Ta6Zn6Ir11Rh
_symmetry_space_group_name_H-M   'P 1'
_cell_length_a   4.10747400
_cell_length_b   7.18070000
_cell_length_c   12.32743700
_cell_angle_alpha   90.00010830
_cell_angle_beta   90.00005579
_cell_angle_gamma   90.00010367
_symmetry_Int_Tables_number   1
_chemical_formula_structural   Ta6Zn6Ir11Rh
_chemical_formula_sum   'Ta6 Zn6 Ir11 Rh1'
_cell_volume   363.59206584
_cell_formula_units_Z   1
loop_
 _symmetry_equiv_pos_site_id
 _symmetry_equiv_pos_as_xyz
  1  'x, y, z'
loop_
 _atom_site_type_symbol
 _atom_site_label
 _atom_site_symmetry_multiplicity
 _atom_site_fract_x
 _atom_site_fract_y
 _atom_site_fract_z
 _atom_site_occupancy
  Ta  Ta0  1  0.000001  0.499917  0.999946  1
  Ta  Ta1  1  0.500004  0.999623  0.166711  1
  Ta  Ta2  1  0.000004  0.499875  0.333330  1
  Ta  Ta3  1  0.500000  0.999622  0.499975  1
  Ta  Ta4  1  0.999996  0.499913  0.666721  1
  Ta  Ta5  1  0.499998  0.000970  0.833314  1
  Zn  Zn6  1  0.000000  0.999138  0.999455  1
  Zn  Zn7  1  0.500003  0.500004  0.166747  1
  Zn  Zn8  1  0.000003  0.999970  0.333345  1
  Zn  Zn9  1  0.500000  0.500006  0.499896  1
  Zn  Zn10  1  0.999996  0.999139  0.667199  1
  Zn  Zn11  1  0.499997  0.501765  0.833356  1
  Ir  Ir12  1  0.499999  0.250000  0.000250  1
  Ir  Ir13  1  0.500002  0.749859  0.999557  1
  Ir  Ir14  1  0.000005  0.250576  0.166555  1
  Ir  Ir15  1  0.000004  0.750269  0.166533  1
  Ir  Ir16  1  0.500000  0.249916  0.333337  1
  Ir  Ir17  1  0.500001  0.750304  0.333336  1
  Ir  Ir18  1  0.000001  0.250634  0.500116  1
  Ir  Ir19  1  0.000000  0.750209  0.500138  1
  Ir  Ir20  1  0.499997  0.250057  0.666415  1
  Ir  Ir21  1  0.500000  0.749806  0.667106  1
  Ir  Ir22  1  0.999996  0.249052  0.833331  1
  Rh  Rh23  1  0.999995  0.749374  0.833329  1
