# generated using pymatgen
data_KPr(LuTe2)2
_symmetry_space_group_name_H-M   'P 1'
_cell_length_a   4.36971700
_cell_length_b   4.36971768
_cell_length_c   15.72687100
_cell_angle_alpha   90.00000000
_cell_angle_beta   90.00000000
_cell_angle_gamma   119.99998730
_symmetry_Int_Tables_number   1
_chemical_formula_structural   KPr(LuTe2)2
_chemical_formula_sum   'K1 Pr1 Lu2 Te4'
_cell_volume   260.06367875
_cell_formula_units_Z   1
loop_
 _symmetry_equiv_pos_site_id
 _symmetry_equiv_pos_as_xyz
  1  'x, y, z'
loop_
 _atom_site_type_symbol
 _atom_site_label
 _atom_site_symmetry_multiplicity
 _atom_site_fract_x
 _atom_site_fract_y
 _atom_site_fract_z
 _atom_site_occupancy
  K  K0  1  0.666667  0.333333  0.750000  1
  Pr  Pr1  1  0.333333  0.666667  0.250000  1
  Lu  Lu2  1  0.000000  0.000000  0.015540  1
  Lu  Lu3  1  0.000000  0.000000  0.484460  1
  Te  Te4  1  0.333333  0.666667  0.591970  1
  Te  Te5  1  0.666667  0.333333  0.122601  1
  Te  Te6  1  0.666667  0.333333  0.377399  1
  Te  Te7  1  0.333333  0.666667  0.908030  1
