# generated using pymatgen
data_Tb6Re16O
_symmetry_space_group_name_H-M   'P 1'
_cell_length_a   8.12320550
_cell_length_b   8.12320560
_cell_length_c   8.12320500
_cell_angle_alpha   109.47121165
_cell_angle_beta   109.47121192
_cell_angle_gamma   109.47122909
_symmetry_Int_Tables_number   1
_chemical_formula_structural   Tb6Re16O
_chemical_formula_sum   'Tb6 Re16 O1'
_cell_volume   412.62967480
_cell_formula_units_Z   1
loop_
 _symmetry_equiv_pos_site_id
 _symmetry_equiv_pos_as_xyz
  1  'x, y, z'
loop_
 _atom_site_type_symbol
 _atom_site_label
 _atom_site_symmetry_multiplicity
 _atom_site_fract_x
 _atom_site_fract_y
 _atom_site_fract_z
 _atom_site_occupancy
  Tb  Tb0  1  0.261293  0.000000  0.261293  1
  Tb  Tb1  1  0.000000  0.261293  0.261293  1
  Tb  Tb2  1  0.000000  0.738707  0.738707  1
  Tb  Tb3  1  0.261293  0.261293  0.000000  1
  Tb  Tb4  1  0.738707  0.738707  0.000000  1
  Tb  Tb5  1  0.738707  0.000000  0.738707  1
  Re  Re6  1  0.000000  0.000000  0.500000  1
  Re  Re7  1  0.500000  0.000000  0.000000  1
  Re  Re8  1  0.000000  0.500000  0.000000  1
  Re  Re9  1  0.500000  0.500000  0.500000  1
  Re  Re10  1  0.339883  0.000000  0.660117  1
  Re  Re11  1  0.679767  0.339883  0.339883  1
  Re  Re12  1  0.000000  0.339883  0.660117  1
  Re  Re13  1  0.660117  0.660117  0.320233  1
  Re  Re14  1  0.339883  0.660117  0.000000  1
  Re  Re15  1  0.339883  0.679767  0.339883  1
  Re  Re16  1  0.660117  0.320233  0.660117  1
  Re  Re17  1  0.339883  0.339883  0.679767  1
  Re  Re18  1  0.320233  0.660117  0.660117  1
  Re  Re19  1  0.660117  0.339883  0.000000  1
  Re  Re20  1  0.000000  0.660117  0.339883  1
  Re  Re21  1  0.660117  0.000000  0.339883  1
  O  O22  1  0.000000  0.000000  0.000000  1
