# generated using pymatgen
data_KTi2V3O12
_symmetry_space_group_name_H-M   'P 1'
_cell_length_a   9.54906558
_cell_length_b   9.54906508
_cell_length_c   9.54906690
_cell_angle_alpha   56.90786788
_cell_angle_beta   56.90786899
_cell_angle_gamma   56.90787787
_symmetry_Int_Tables_number   1
_chemical_formula_structural   KTi2V3O12
_chemical_formula_sum   'K2 Ti4 V6 O24'
_cell_volume   571.78030928
_cell_formula_units_Z   2
loop_
 _symmetry_equiv_pos_site_id
 _symmetry_equiv_pos_as_xyz
  1  'x, y, z'
loop_
 _atom_site_type_symbol
 _atom_site_label
 _atom_site_symmetry_multiplicity
 _atom_site_fract_x
 _atom_site_fract_y
 _atom_site_fract_z
 _atom_site_occupancy
  K  K0  1  0.500000  0.500000  0.500000  1
  K  K1  1  0.000000  0.000000  0.000000  1
  Ti  Ti2  1  0.355788  0.355788  0.355788  1
  Ti  Ti3  1  0.855788  0.855788  0.855788  1
  Ti  Ti4  1  0.644212  0.644212  0.644212  1
  Ti  Ti5  1  0.144212  0.144212  0.144212  1
  V  V6  1  0.968924  0.531076  0.250000  1
  V  V7  1  0.250000  0.968924  0.531076  1
  V  V8  1  0.531076  0.250000  0.968924  1
  V  V9  1  0.750000  0.031076  0.468924  1
  V  V10  1  0.468924  0.750000  0.031076  1
  V  V11  1  0.031076  0.468924  0.750000  1
  O  O12  1  0.152548  0.499856  0.273680  1
  O  O13  1  0.273680  0.152548  0.499856  1
  O  O14  1  0.499856  0.273680  0.152548  1
  O  O15  1  0.773680  0.999856  0.652548  1
  O  O16  1  0.652548  0.773680  0.999856  1
  O  O17  1  0.999856  0.652548  0.773680  1
  O  O18  1  0.847452  0.500144  0.726320  1
  O  O19  1  0.726320  0.847452  0.500144  1
  O  O20  1  0.500144  0.726320  0.847452  1
  O  O21  1  0.226320  0.000144  0.347452  1
  O  O22  1  0.347452  0.226320  0.000144  1
  O  O23  1  0.000144  0.347452  0.226320  1
  O  O24  1  0.219996  0.434638  0.561893  1
  O  O25  1  0.561893  0.219996  0.434638  1
  O  O26  1  0.434638  0.561893  0.219996  1
  O  O27  1  0.061893  0.934638  0.719996  1
  O  O28  1  0.719996  0.061893  0.934638  1
  O  O29  1  0.934638  0.719996  0.061893  1
  O  O30  1  0.780004  0.565362  0.438107  1
  O  O31  1  0.438107  0.780004  0.565362  1
  O  O32  1  0.565362  0.438107  0.780004  1
  O  O33  1  0.938107  0.065362  0.280004  1
  O  O34  1  0.280004  0.938107  0.065362  1
  O  O35  1  0.065362  0.280004  0.938107  1
