# generated using pymatgen
data_Na4SmUS6
_symmetry_space_group_name_H-M   'P 1'
_cell_length_a   6.99307547
_cell_length_b   6.99307556
_cell_length_c   7.00365300
_cell_angle_alpha   80.31081349
_cell_angle_beta   80.31081336
_cell_angle_gamma   119.98962746
_symmetry_Int_Tables_number   1
_chemical_formula_structural   Na4SmUS6
_chemical_formula_sum   'Na4 Sm1 U1 S6'
_cell_volume   279.34000000
_cell_formula_units_Z   1
loop_
 _symmetry_equiv_pos_site_id
 _symmetry_equiv_pos_as_xyz
  1  'x, y, z'
loop_
 _atom_site_type_symbol
 _atom_site_label
 _atom_site_symmetry_multiplicity
 _atom_site_fract_x
 _atom_site_fract_y
 _atom_site_fract_z
 _atom_site_occupancy
  Na  Na0  1  0.000079  0.999921  0.000000  1
  Na  Na1  1  0.499570  0.500430  0.500000  1
  Na  Na2  1  0.838917  0.161083  0.500000  1
  Na  Na3  1  0.160831  0.839169  0.500000  1
  Sm  Sm4  1  0.667165  0.332835  0.000000  1
  U  U5  1  0.332706  0.667294  0.000000  1
  S  S6  1  0.270079  0.285370  0.229984  1
  S  S7  1  0.423931  0.060950  0.770188  1
  S  S8  1  0.092929  0.439888  0.774207  1
  S  S9  1  0.714630  0.729921  0.770016  1
  S  S10  1  0.560112  0.907071  0.225793  1
  S  S11  1  0.939050  0.576069  0.229812  1
