# generated using pymatgen
data_Pu2CoB10
_symmetry_space_group_name_H-M   'P 1'
_cell_length_a   4.14125000
_cell_length_b   5.55708800
_cell_length_c   11.05210800
_cell_angle_alpha   90.00000000
_cell_angle_beta   90.00000000
_cell_angle_gamma   90.00000000
_symmetry_Int_Tables_number   1
_chemical_formula_structural   Pu2CoB10
_chemical_formula_sum   'Pu4 Co2 B20'
_cell_volume   254.34537403
_cell_formula_units_Z   2
loop_
 _symmetry_equiv_pos_site_id
 _symmetry_equiv_pos_as_xyz
  1  'x, y, z'
loop_
 _atom_site_type_symbol
 _atom_site_label
 _atom_site_symmetry_multiplicity
 _atom_site_fract_x
 _atom_site_fract_y
 _atom_site_fract_z
 _atom_site_occupancy
  Pu  Pu0  1  0.500000  0.306422  0.863400  1
  Pu  Pu1  1  0.500000  0.693578  0.136600  1
  Pu  Pu2  1  0.500000  0.806422  0.636600  1
  Pu  Pu3  1  0.500000  0.193578  0.363400  1
  Co  Co4  1  0.000000  0.500000  0.500000  1
  Co  Co5  1  0.000000  0.000000  0.000000  1
  B  B6  1  0.000000  0.128551  0.538456  1
  B  B7  1  0.000000  0.871449  0.461544  1
  B  B8  1  0.000000  0.628551  0.961544  1
  B  B9  1  0.000000  0.371449  0.038456  1
  B  B10  1  0.000000  0.156194  0.697295  1
  B  B11  1  0.000000  0.843806  0.302705  1
  B  B12  1  0.300778  0.200633  0.111899  1
  B  B13  1  0.300778  0.799367  0.888101  1
  B  B14  1  0.699222  0.700633  0.388101  1
  B  B15  1  0.699222  0.299367  0.611899  1
  B  B16  1  0.699222  0.799367  0.888101  1
  B  B17  1  0.699222  0.200633  0.111899  1
  B  B18  1  0.300778  0.299367  0.611899  1
  B  B19  1  0.300778  0.700633  0.388101  1
  B  B20  1  0.000000  0.030325  0.186309  1
  B  B21  1  0.000000  0.969675  0.813691  1
  B  B22  1  0.000000  0.530325  0.313691  1
  B  B23  1  0.000000  0.469675  0.686309  1
  B  B24  1  0.000000  0.343806  0.197295  1
  B  B25  1  0.000000  0.656194  0.802705  1
