# generated using pymatgen
data_YbPrB12
_symmetry_space_group_name_H-M   'P 1'
_cell_length_a   5.84166973
_cell_length_b   5.84166603
_cell_length_c   5.84167000
_cell_angle_alpha   60.00001278
_cell_angle_beta   59.99991394
_cell_angle_gamma   60.00002296
_symmetry_Int_Tables_number   1
_chemical_formula_structural   YbPrB12
_chemical_formula_sum   'Yb1 Pr1 B12'
_cell_volume   140.95989948
_cell_formula_units_Z   1
loop_
 _symmetry_equiv_pos_site_id
 _symmetry_equiv_pos_as_xyz
  1  'x, y, z'
loop_
 _atom_site_type_symbol
 _atom_site_label
 _atom_site_symmetry_multiplicity
 _atom_site_fract_x
 _atom_site_fract_y
 _atom_site_fract_z
 _atom_site_occupancy
  Yb  Yb0  1  0.500000  0.500000  0.500000  1
  Pr  Pr1  1  0.000000  0.000000  0.000000  1
  B  B2  1  0.899939  0.600061  0.600061  1
  B  B3  1  0.399939  0.100061  0.100061  1
  B  B4  1  0.899939  0.899939  0.600061  1
  B  B5  1  0.399939  0.399939  0.100061  1
  B  B6  1  0.600061  0.899939  0.600061  1
  B  B7  1  0.100061  0.399939  0.100061  1
  B  B8  1  0.600061  0.600061  0.899939  1
  B  B9  1  0.100061  0.100061  0.399939  1
  B  B10  1  0.899939  0.600061  0.899939  1
  B  B11  1  0.399939  0.100061  0.399939  1
  B  B12  1  0.600061  0.899939  0.899939  1
  B  B13  1  0.100061  0.399939  0.399939  1
