# generated using pymatgen
data_Lu8Sc12(Si3Sb)3
_symmetry_space_group_name_H-M   'P 1'
_cell_length_a   5.93522000
_cell_length_b   8.14475327
_cell_length_c   14.27974337
_cell_angle_alpha   90.05590050
_cell_angle_beta   90.00000000
_cell_angle_gamma   90.00000000
_symmetry_Int_Tables_number   1
_chemical_formula_structural   Lu8Sc12(Si3Sb)3
_chemical_formula_sum   'Lu8 Sc12 Si9 Sb3'
_cell_volume   690.29535397
_cell_formula_units_Z   1
loop_
 _symmetry_equiv_pos_site_id
 _symmetry_equiv_pos_as_xyz
  1  'x, y, z'
loop_
 _atom_site_type_symbol
 _atom_site_label
 _atom_site_symmetry_multiplicity
 _atom_site_fract_x
 _atom_site_fract_y
 _atom_site_fract_z
 _atom_site_occupancy
  Lu  Lu0  1  0.000000  0.267571  0.501322  1
  Lu  Lu1  1  0.000000  0.767436  0.992130  1
  Lu  Lu2  1  0.500000  0.739816  0.500100  1
  Lu  Lu3  1  0.500000  0.238905  0.999496  1
  Lu  Lu4  1  0.500000  0.876830  0.120829  1
  Lu  Lu5  1  0.500000  0.378364  0.622611  1
  Lu  Lu6  1  0.500000  0.377566  0.378179  1
  Lu  Lu7  1  0.500000  0.876902  0.876601  1
  Sc  Sc8  1  0.743402  0.009559  0.333766  1
  Sc  Sc9  1  0.747586  0.502339  0.826514  1
  Sc  Sc10  1  0.743938  0.490975  0.171269  1
  Sc  Sc11  1  0.747389  0.003551  0.671764  1
  Sc  Sc12  1  0.256062  0.490975  0.171269  1
  Sc  Sc13  1  0.252611  0.003551  0.671764  1
  Sc  Sc14  1  0.256598  0.009559  0.333766  1
  Sc  Sc15  1  0.252414  0.502339  0.826514  1
  Sc  Sc16  1  0.000000  0.609850  0.378069  1
  Sc  Sc17  1  0.000000  0.115714  0.870672  1
  Sc  Sc18  1  0.000000  0.127325  0.126400  1
  Sc  Sc19  1  0.000000  0.614386  0.627619  1
  Si  Si20  1  0.000000  0.303349  0.699180  1
  Si  Si21  1  0.000000  0.302655  0.301977  1
  Si  Si22  1  0.000000  0.803717  0.798272  1
  Si  Si23  1  0.500000  0.603442  0.999442  1
  Si  Si24  1  0.500000  0.104975  0.501645  1
  Si  Si25  1  0.500000  0.698433  0.303197  1
  Si  Si26  1  0.500000  0.199919  0.802391  1
  Si  Si27  1  0.500000  0.196038  0.197939  1
  Si  Si28  1  0.500000  0.700413  0.697053  1
  Sb  Sb29  1  0.000000  0.889196  0.501275  1
  Sb  Sb30  1  0.000000  0.391996  0.997806  1
  Sb  Sb31  1  0.000000  0.802283  0.199158  1
