# generated using pymatgen
data_Ba9Sr3(WN4)4
_symmetry_space_group_name_H-M   'P 1'
_cell_length_a   10.12469636
_cell_length_b   10.59423700
_cell_length_c   12.17125400
_cell_angle_alpha   90.00000000
_cell_angle_beta   89.94102742
_cell_angle_gamma   90.00000000
_symmetry_Int_Tables_number   1
_chemical_formula_structural   Ba9Sr3(WN4)4
_chemical_formula_sum   'Ba18 Sr6 W8 N32'
_cell_volume   1305.52979426
_cell_formula_units_Z   2
loop_
 _symmetry_equiv_pos_site_id
 _symmetry_equiv_pos_as_xyz
  1  'x, y, z'
loop_
 _atom_site_type_symbol
 _atom_site_label
 _atom_site_symmetry_multiplicity
 _atom_site_fract_x
 _atom_site_fract_y
 _atom_site_fract_z
 _atom_site_occupancy
  Ba  Ba0  1  0.629052  0.028228  0.645771  1
  Ba  Ba1  1  0.870948  0.528228  0.354230  1
  Ba  Ba2  1  0.125044  0.966660  0.856877  1
  Ba  Ba3  1  0.374956  0.466660  0.143123  1
  Ba  Ba4  1  0.376271  0.974824  0.353227  1
  Ba  Ba5  1  0.123729  0.474824  0.646773  1
  Ba  Ba6  1  0.875729  0.030613  0.146274  1
  Ba  Ba7  1  0.624271  0.530613  0.853726  1
  Ba  Ba8  1  0.308475  0.771027  0.617055  1
  Ba  Ba9  1  0.191525  0.271027  0.382945  1
  Ba  Ba10  1  0.801058  0.228269  0.884081  1
  Ba  Ba11  1  0.698942  0.728269  0.115919  1
  Ba  Ba12  1  0.691714  0.230683  0.381808  1
  Ba  Ba13  1  0.808286  0.730683  0.618192  1
  Ba  Ba14  1  0.192112  0.768276  0.118727  1
  Ba  Ba15  1  0.307888  0.268276  0.881273  1
  Ba  Ba16  1  0.968278  0.126168  0.608341  1
  Ba  Ba17  1  0.531722  0.626168  0.391659  1
  Sr  Sr18  1  0.466648  0.876292  0.895857  1
  Sr  Sr19  1  0.033352  0.376292  0.104143  1
  Sr  Sr20  1  0.037333  0.876654  0.393588  1
  Sr  Sr21  1  0.462667  0.376654  0.606412  1
  Sr  Sr22  1  0.532602  0.120196  0.104452  1
  Sr  Sr23  1  0.967398  0.620196  0.895548  1
  W  W24  1  0.304080  0.095407  0.614667  1
  W  W25  1  0.195920  0.595407  0.385333  1
  W  W26  1  0.793327  0.900945  0.887082  1
  W  W27  1  0.706673  0.400945  0.112918  1
  W  W28  1  0.708261  0.907770  0.380463  1
  W  W29  1  0.791739  0.407770  0.619537  1
  W  W30  1  0.206046  0.094857  0.116468  1
  W  W31  1  0.293954  0.594857  0.883532  1
  N  N32  1  0.189047  0.991464  0.532379  1
  N  N33  1  0.310953  0.491464  0.467621  1
  N  N34  1  0.677231  0.003289  0.969298  1
  N  N35  1  0.822769  0.503289  0.030702  1
  N  N36  1  0.827329  0.012469  0.455857  1
  N  N37  1  0.672671  0.512469  0.544143  1
  N  N38  1  0.320813  0.991066  0.033992  1
  N  N39  1  0.179187  0.491066  0.966008  1
  N  N40  1  0.433853  0.159071  0.517750  1
  N  N41  1  0.066147  0.659071  0.482250  1
  N  N42  1  0.923367  0.834352  0.983268  1
  N  N43  1  0.576633  0.334352  0.016732  1
  N  N44  1  0.581337  0.848402  0.482384  1
  N  N45  1  0.918663  0.348402  0.517616  1
  N  N46  1  0.077522  0.160386  0.019120  1
  N  N47  1  0.422478  0.660386  0.980880  1
  N  N48  1  0.381194  0.993080  0.723996  1
  N  N49  1  0.118806  0.493080  0.276004  1
  N  N50  1  0.875330  0.005467  0.783355  1
  N  N51  1  0.624670  0.505467  0.216645  1
  N  N52  1  0.624133  0.008614  0.274047  1
  N  N53  1  0.875867  0.508614  0.725953  1
  N  N54  1  0.123726  0.991805  0.222185  1
  N  N55  1  0.376274  0.491805  0.777815  1
  N  N56  1  0.208211  0.228841  0.678820  1
  N  N57  1  0.291789  0.728841  0.321180  1
  N  N58  1  0.691530  0.776941  0.815287  1
  N  N59  1  0.808470  0.276941  0.184713  1
  N  N60  1  0.806081  0.776978  0.313551  1
  N  N61  1  0.693919  0.276978  0.686449  1
  N  N62  1  0.307791  0.220903  0.186448  1
  N  N63  1  0.192209  0.720903  0.813552  1
