# generated using pymatgen
data_Ac3Ge3Cl2
_symmetry_space_group_name_H-M   'P 1'
_cell_length_a   9.64374345
_cell_length_b   9.64374291
_cell_length_c   11.13089325
_cell_angle_alpha   82.22472651
_cell_angle_beta   82.22472754
_cell_angle_gamma   26.89431986
_symmetry_Int_Tables_number   1
_chemical_formula_structural   Ac3Ge3Cl2
_chemical_formula_sum   'Ac6 Ge6 Cl4'
_cell_volume   463.71326352
_cell_formula_units_Z   2
loop_
 _symmetry_equiv_pos_site_id
 _symmetry_equiv_pos_as_xyz
  1  'x, y, z'
loop_
 _atom_site_type_symbol
 _atom_site_label
 _atom_site_symmetry_multiplicity
 _atom_site_fract_x
 _atom_site_fract_y
 _atom_site_fract_z
 _atom_site_occupancy
  Ac  Ac0  1  0.316376  0.316376  0.148393  1
  Ac  Ac1  1  0.468183  0.468183  0.831949  1
  Ac  Ac2  1  0.616119  0.616119  0.509996  1
  Ac  Ac3  1  0.683624  0.683624  0.851607  1
  Ac  Ac4  1  0.531817  0.531817  0.168051  1
  Ac  Ac5  1  0.383881  0.383881  0.490004  1
  Ge  Ge6  1  0.022589  0.022589  0.385375  1
  Ge  Ge7  1  0.095495  0.095495  0.717984  1
  Ge  Ge8  1  0.904505  0.904505  0.282016  1
  Ge  Ge9  1  0.069492  0.069492  0.954334  1
  Ge  Ge10  1  0.977411  0.977411  0.614625  1
  Ge  Ge11  1  0.930508  0.930508  0.045666  1
  Cl  Cl12  1  0.226374  0.226374  0.392822  1
  Cl  Cl13  1  0.701562  0.701562  0.126050  1
  Cl  Cl14  1  0.298438  0.298438  0.873950  1
  Cl  Cl15  1  0.773626  0.773626  0.607178  1
