# generated using pymatgen
data_Re3S4F
_symmetry_space_group_name_H-M   'P 1'
_cell_length_a   6.44160107
_cell_length_b   6.47824876
_cell_length_c   8.65388083
_cell_angle_alpha   103.62180499
_cell_angle_beta   110.28517297
_cell_angle_gamma   86.29117986
_symmetry_Int_Tables_number   1
_chemical_formula_structural   Re3S4F
_chemical_formula_sum   'Re6 S8 F2'
_cell_volume   329.14626540
_cell_formula_units_Z   2
loop_
 _symmetry_equiv_pos_site_id
 _symmetry_equiv_pos_as_xyz
  1  'x, y, z'
loop_
 _atom_site_type_symbol
 _atom_site_label
 _atom_site_symmetry_multiplicity
 _atom_site_fract_x
 _atom_site_fract_y
 _atom_site_fract_z
 _atom_site_occupancy
  Re  Re0  1  0.110820  0.239120  0.538241  1
  Re  Re1  1  0.162339  0.633336  0.724411  1
  Re  Re2  1  0.837661  0.366664  0.275589  1
  Re  Re3  1  0.233912  0.539972  0.430914  1
  Re  Re4  1  0.889180  0.760880  0.461759  1
  Re  Re5  1  0.766088  0.460028  0.569086  1
  S  S6  1  0.169031  0.177460  0.270221  1
  S  S7  1  0.830969  0.822540  0.729779  1
  S  S8  1  0.470119  0.409126  0.687841  1
  S  S9  1  0.278486  0.895785  0.608209  1
  S  S10  1  0.721514  0.104215  0.391791  1
  S  S11  1  0.529881  0.590874  0.312159  1
  S  S12  1  0.963656  0.656471  0.198750  1
  S  S13  1  0.036344  0.343529  0.801250  1
  F  F14  1  0.668512  0.228470  0.042777  1
  F  F15  1  0.331488  0.771530  0.957223  1
