# generated using pymatgen
data_Al13Pd12Rh
_symmetry_space_group_name_H-M   'P 1'
_cell_length_a   9.27820887
_cell_length_b   9.27820954
_cell_length_c   9.27821021
_cell_angle_alpha   116.48956560
_cell_angle_beta   116.48957061
_cell_angle_gamma   116.48956948
_symmetry_Int_Tables_number   1
_chemical_formula_structural   Al13Pd12Rh
_chemical_formula_sum   'Al13 Pd12 Rh1'
_cell_volume   379.43981642
_cell_formula_units_Z   1
loop_
 _symmetry_equiv_pos_site_id
 _symmetry_equiv_pos_as_xyz
  1  'x, y, z'
loop_
 _atom_site_type_symbol
 _atom_site_label
 _atom_site_symmetry_multiplicity
 _atom_site_fract_x
 _atom_site_fract_y
 _atom_site_fract_z
 _atom_site_occupancy
  Al  Al0  1  0.343549  0.098046  0.055534  1
  Al  Al1  1  0.055535  0.343549  0.098045  1
  Al  Al2  1  0.098045  0.055536  0.343548  1
  Al  Al3  1  0.656450  0.901953  0.944464  1
  Al  Al4  1  0.944464  0.656450  0.901953  1
  Al  Al5  1  0.901953  0.944463  0.656450  1
  Al  Al6  1  0.154520  0.597989  0.753144  1
  Al  Al7  1  0.753144  0.154520  0.597989  1
  Al  Al8  1  0.597989  0.753143  0.154520  1
  Al  Al9  1  0.845480  0.402011  0.246857  1
  Al  Al10  1  0.246857  0.845480  0.402011  1
  Al  Al11  1  0.402011  0.246857  0.845480  1
  Al  Al12  1  0.500001  0.500001  0.500001  1
  Pd  Pd13  1  0.654592  0.099118  0.251704  1
  Pd  Pd14  1  0.251704  0.654592  0.099118  1
  Pd  Pd15  1  0.099118  0.251704  0.654592  1
  Pd  Pd16  1  0.345410  0.900884  0.748298  1
  Pd  Pd17  1  0.748299  0.345410  0.900884  1
  Pd  Pd18  1  0.900884  0.748299  0.345410  1
  Pd  Pd19  1  0.844676  0.597937  0.555444  1
  Pd  Pd20  1  0.555443  0.844675  0.597938  1
  Pd  Pd21  1  0.597938  0.555444  0.844675  1
  Pd  Pd22  1  0.155326  0.402065  0.444558  1
  Pd  Pd23  1  0.444559  0.155327  0.402064  1
  Pd  Pd24  1  0.402065  0.444558  0.155327  1
  Rh  Rh25  1  0.000000  0.000000  0.000000  1
