# generated using pymatgen
data_Tb5Y5(Bi2Sb)2
_symmetry_space_group_name_H-M   'P 1'
_cell_length_a   8.22291200
_cell_length_b   9.49899108
_cell_length_c   12.06193410
_cell_angle_alpha   90.01476332
_cell_angle_beta   90.00000000
_cell_angle_gamma   90.00000000
_symmetry_Int_Tables_number   1
_chemical_formula_structural   Tb5Y5(Bi2Sb)2
_chemical_formula_sum   'Tb10 Y10 Bi8 Sb4'
_cell_volume   942.15001488
_cell_formula_units_Z   2
loop_
 _symmetry_equiv_pos_site_id
 _symmetry_equiv_pos_as_xyz
  1  'x, y, z'
loop_
 _atom_site_type_symbol
 _atom_site_label
 _atom_site_symmetry_multiplicity
 _atom_site_fract_x
 _atom_site_fract_y
 _atom_site_fract_z
 _atom_site_occupancy
  Tb  Tb0  1  0.029468  0.750024  0.988264  1
  Tb  Tb1  1  0.529468  0.749976  0.511736  1
  Tb  Tb2  1  0.970579  0.250082  0.011768  1
  Tb  Tb3  1  0.470579  0.249918  0.488232  1
  Tb  Tb4  1  0.183392  0.750010  0.718495  1
  Tb  Tb5  1  0.683392  0.749990  0.781505  1
  Tb  Tb6  1  0.816550  0.249981  0.281547  1
  Tb  Tb7  1  0.316550  0.250019  0.218453  1
  Tb  Tb8  1  0.309634  0.438832  0.941199  1
  Tb  Tb9  1  0.809634  0.061168  0.558801  1
  Y  Y10  1  0.690291  0.939167  0.058803  1
  Y  Y11  1  0.190291  0.560833  0.441197  1
  Y  Y12  1  0.690148  0.560824  0.058751  1
  Y  Y13  1  0.190148  0.939176  0.441249  1
  Y  Y14  1  0.309761  0.060921  0.941216  1
  Y  Y15  1  0.809761  0.439079  0.558784  1
  Y  Y16  1  0.354114  0.749996  0.212645  1
  Y  Y17  1  0.854114  0.750004  0.287355  1
  Y  Y18  1  0.645837  0.249968  0.787303  1
  Y  Y19  1  0.145837  0.250032  0.712697  1
  Bi  Bi20  1  0.433490  0.003920  0.673993  1
  Bi  Bi21  1  0.933490  0.496080  0.826007  1
  Bi  Bi22  1  0.566497  0.504013  0.326030  1
  Bi  Bi23  1  0.066497  0.995987  0.173970  1
  Bi  Bi24  1  0.566510  0.996007  0.326016  1
  Bi  Bi25  1  0.066510  0.503993  0.173984  1
  Bi  Bi26  1  0.433551  0.496041  0.673948  1
  Bi  Bi27  1  0.933551  0.003959  0.826052  1
  Sb  Sb28  1  0.410505  0.750290  0.959323  1
  Sb  Sb29  1  0.910505  0.749710  0.540677  1
  Sb  Sb30  1  0.589673  0.249868  0.040736  1
  Sb  Sb31  1  0.089673  0.250132  0.459264  1
