# generated using pymatgen
data_Yb4Si10AgPt5
_symmetry_space_group_name_H-M   'P 1'
_cell_length_a   8.29949975
_cell_length_b   8.29949961
_cell_length_c   8.29950057
_cell_angle_alpha   138.48456468
_cell_angle_beta   104.57433331
_cell_angle_gamma   89.97634033
_symmetry_Int_Tables_number   1
_chemical_formula_structural   Yb4Si10AgPt5
_chemical_formula_sum   'Yb4 Si10 Ag1 Pt5'
_cell_volume   350.62789420
_cell_formula_units_Z   1
loop_
 _symmetry_equiv_pos_site_id
 _symmetry_equiv_pos_as_xyz
  1  'x, y, z'
loop_
 _atom_site_type_symbol
 _atom_site_label
 _atom_site_symmetry_multiplicity
 _atom_site_fract_x
 _atom_site_fract_y
 _atom_site_fract_z
 _atom_site_occupancy
  Yb  Yb0  1  0.108086  0.869413  0.231943  1
  Yb  Yb1  1  0.891915  0.123857  0.761327  1
  Yb  Yb2  1  0.637470  0.376143  0.268057  1
  Yb  Yb3  1  0.362530  0.630588  0.738673  1
  Si  Si4  1  0.000000  0.750000  0.750000  1
  Si  Si5  1  0.000000  0.250000  0.250000  1
  Si  Si6  1  0.269822  0.019822  0.750000  1
  Si  Si7  1  0.730178  0.480178  0.750000  1
  Si  Si8  1  0.733344  0.983344  0.250000  1
  Si  Si9  1  0.266656  0.516656  0.250000  1
  Si  Si10  1  0.769693  0.609154  0.142140  1
  Si  Si11  1  0.230307  0.372447  0.839460  1
  Si  Si12  1  0.467013  0.127553  0.357860  1
  Si  Si13  1  0.532987  0.890847  0.660540  1
  Ag  Ag14  1  0.500000  0.750000  0.250000  1
  Pt  Pt15  1  0.500000  0.250000  0.750000  1
  Pt  Pt16  1  0.019466  0.634927  0.384080  1
  Pt  Pt17  1  0.980533  0.364614  0.615460  1
  Pt  Pt18  1  0.250847  0.135386  0.115920  1
  Pt  Pt19  1  0.749153  0.865073  0.884540  1
