# generated using pymatgen
data_Sc10Si5Pb
_symmetry_space_group_name_H-M   'P 1'
_cell_length_a   8.00101400
_cell_length_b   8.02446443
_cell_length_c   5.90395900
_cell_angle_alpha   90.00000000
_cell_angle_beta   90.00000000
_cell_angle_gamma   119.90336765
_symmetry_Int_Tables_number   1
_chemical_formula_structural   Sc10Si5Pb
_chemical_formula_sum   'Sc10 Si5 Pb1'
_cell_volume   328.59209726
_cell_formula_units_Z   1
loop_
 _symmetry_equiv_pos_site_id
 _symmetry_equiv_pos_as_xyz
  1  'x, y, z'
loop_
 _atom_site_type_symbol
 _atom_site_label
 _atom_site_symmetry_multiplicity
 _atom_site_fract_x
 _atom_site_fract_y
 _atom_site_fract_z
 _atom_site_occupancy
  Sc  Sc0  1  0.985495  0.747502  0.750000  1
  Sc  Sc1  1  0.998762  0.241799  0.250000  1
  Sc  Sc2  1  0.756963  0.758201  0.250000  1
  Sc  Sc3  1  0.769728  0.000000  0.750000  1
  Sc  Sc4  1  0.237993  0.252498  0.750000  1
  Sc  Sc5  1  0.237666  0.000000  0.250000  1
  Sc  Sc6  1  0.331283  0.655139  0.495485  1
  Sc  Sc7  1  0.676146  0.344861  0.004515  1
  Sc  Sc8  1  0.676146  0.344861  0.495485  1
  Sc  Sc9  1  0.331283  0.655139  0.004515  1
  Si  Si10  1  0.394489  0.392301  0.250000  1
  Si  Si11  1  0.002188  0.607699  0.250000  1
  Si  Si12  1  0.998002  0.395048  0.750000  1
  Si  Si13  1  0.602954  0.604952  0.750000  1
  Si  Si14  1  0.606369  0.000000  0.250000  1
  Pb  Pb15  1  0.394535  0.000000  0.750000  1
