# generated using pymatgen
data_Hf4ZrZnPb3
_symmetry_space_group_name_H-M   'P 1'
_cell_length_a   8.77895000
_cell_length_b   8.77877461
_cell_length_c   5.90139900
_cell_angle_alpha   90.00000000
_cell_angle_beta   90.00000000
_cell_angle_gamma   119.99933201
_symmetry_Int_Tables_number   1
_chemical_formula_structural   Hf4ZrZnPb3
_chemical_formula_sum   'Hf8 Zr2 Zn2 Pb6'
_cell_volume   393.88097843
_cell_formula_units_Z   2
loop_
 _symmetry_equiv_pos_site_id
 _symmetry_equiv_pos_as_xyz
  1  'x, y, z'
loop_
 _atom_site_type_symbol
 _atom_site_label
 _atom_site_symmetry_multiplicity
 _atom_site_fract_x
 _atom_site_fract_y
 _atom_site_fract_z
 _atom_site_occupancy
  Hf  Hf0  1  0.333397  0.666699  0.000000  1
  Hf  Hf1  1  0.667030  0.333515  0.500000  1
  Hf  Hf2  1  0.667030  0.333515  0.000000  1
  Hf  Hf3  1  0.333397  0.666699  0.500000  1
  Hf  Hf4  1  0.999925  0.736515  0.750000  1
  Hf  Hf5  1  0.999925  0.263410  0.250000  1
  Hf  Hf6  1  0.736759  0.736585  0.250000  1
  Hf  Hf7  1  0.736759  0.000174  0.750000  1
  Zr  Zr8  1  0.263658  0.999739  0.250000  1
  Zr  Zr9  1  0.263658  0.263919  0.750000  1
  Zn  Zn10  1  0.998902  0.999451  0.000000  1
  Zn  Zn11  1  0.998902  0.999451  0.500000  1
  Pb  Pb12  1  0.614937  0.999998  0.250000  1
  Pb  Pb13  1  0.614937  0.614940  0.750000  1
  Pb  Pb14  1  0.999674  0.385789  0.750000  1
  Pb  Pb15  1  0.999674  0.613886  0.250000  1
  Pb  Pb16  1  0.385717  0.386047  0.250000  1
  Pb  Pb17  1  0.385717  0.999670  0.750000  1
