# generated using pymatgen
data_Dy6MnB14Os
_symmetry_space_group_name_H-M   'P 1'
_cell_length_a   8.04689821
_cell_length_b   8.04689807
_cell_length_c   9.31671600
_cell_angle_alpha   90.00000000
_cell_angle_beta   90.00000000
_cell_angle_gamma   154.96798240
_symmetry_Int_Tables_number   1
_chemical_formula_structural   Dy6MnB14Os
_chemical_formula_sum   'Dy6 Mn1 B14 Os1'
_cell_volume   255.26319061
_cell_formula_units_Z   1
loop_
 _symmetry_equiv_pos_site_id
 _symmetry_equiv_pos_as_xyz
  1  'x, y, z'
loop_
 _atom_site_type_symbol
 _atom_site_label
 _atom_site_symmetry_multiplicity
 _atom_site_fract_x
 _atom_site_fract_y
 _atom_site_fract_z
 _atom_site_occupancy
  Dy  Dy0  1  0.894748  0.105252  0.442807  1
  Dy  Dy1  1  0.104698  0.895302  0.563406  1
  Dy  Dy2  1  0.894748  0.105252  0.057193  1
  Dy  Dy3  1  0.104698  0.895302  0.936594  1
  Dy  Dy4  1  0.244248  0.755752  0.250000  1
  Dy  Dy5  1  0.759154  0.240846  0.750000  1
  Mn  Mn6  1  0.946957  0.053043  0.750000  1
  B  B7  1  0.727079  0.272921  0.466592  1
  B  B8  1  0.272312  0.727688  0.533950  1
  B  B9  1  0.727079  0.272921  0.033408  1
  B  B10  1  0.272312  0.727688  0.966050  1
  B  B11  1  0.631850  0.368150  0.150507  1
  B  B12  1  0.370075  0.629925  0.846122  1
  B  B13  1  0.631850  0.368150  0.349493  1
  B  B14  1  0.370075  0.629925  0.653878  1
  B  B15  1  0.520353  0.479647  0.095968  1
  B  B16  1  0.478384  0.521616  0.901233  1
  B  B17  1  0.520353  0.479647  0.404032  1
  B  B18  1  0.478384  0.521616  0.598767  1
  B  B19  1  0.456317  0.543683  0.250000  1
  B  B20  1  0.540509  0.459491  0.750000  1
  Os  Os21  1  0.053817  0.946183  0.250000  1
