# generated using pymatgen
data_Sr2PuNbO8
_symmetry_space_group_name_H-M   'P 1'
_cell_length_a   5.12144700
_cell_length_b   5.64639200
_cell_length_c   13.18256100
_cell_angle_alpha   90.00000000
_cell_angle_beta   90.00000000
_cell_angle_gamma   90.00000000
_symmetry_Int_Tables_number   1
_chemical_formula_structural   Sr2PuNbO8
_chemical_formula_sum   'Sr4 Pu2 Nb2 O16'
_cell_volume   381.20930955
_cell_formula_units_Z   2
loop_
 _symmetry_equiv_pos_site_id
 _symmetry_equiv_pos_as_xyz
  1  'x, y, z'
loop_
 _atom_site_type_symbol
 _atom_site_label
 _atom_site_symmetry_multiplicity
 _atom_site_fract_x
 _atom_site_fract_y
 _atom_site_fract_z
 _atom_site_occupancy
  Sr  Sr0  1  0.750000  0.000000  0.662054  1
  Sr  Sr1  1  0.250000  0.500000  0.837946  1
  Sr  Sr2  1  0.250000  0.000000  0.338351  1
  Sr  Sr3  1  0.750000  0.500000  0.161649  1
  Pu  Pu4  1  0.750000  0.500000  0.431027  1
  Pu  Pu5  1  0.250000  0.000000  0.068973  1
  Nb  Nb6  1  0.250000  0.500000  0.582924  1
  Nb  Nb7  1  0.750000  0.000000  0.917076  1
  O  O8  1  0.119249  0.284968  0.675287  1
  O  O9  1  0.619249  0.215032  0.824713  1
  O  O10  1  0.880751  0.784968  0.824713  1
  O  O11  1  0.380751  0.715032  0.675287  1
  O  O12  1  0.886977  0.703505  0.323409  1
  O  O13  1  0.386977  0.796495  0.176591  1
  O  O14  1  0.113023  0.203505  0.176591  1
  O  O15  1  0.613023  0.296495  0.323409  1
  O  O16  1  0.565163  0.301159  0.543148  1
  O  O17  1  0.065163  0.198841  0.956852  1
  O  O18  1  0.434837  0.801159  0.956852  1
  O  O19  1  0.934837  0.698841  0.543148  1
  O  O20  1  0.434292  0.695861  0.449719  1
  O  O21  1  0.934292  0.804139  0.050281  1
  O  O22  1  0.565708  0.195861  0.050281  1
  O  O23  1  0.065708  0.304139  0.449719  1
