# generated using pymatgen
data_Sr4YTm(GaO5)2
_symmetry_space_group_name_H-M   'P 1'
_cell_length_a   5.94991100
_cell_length_b   7.62239898
_cell_length_c   12.44675523
_cell_angle_alpha   91.53536404
_cell_angle_beta   90.00000000
_cell_angle_gamma   90.00000000
_symmetry_Int_Tables_number   1
_chemical_formula_structural   Sr4YTm(GaO5)2
_chemical_formula_sum   'Sr8 Y2 Tm2 Ga4 O20'
_cell_volume   564.28999027
_cell_formula_units_Z   2
loop_
 _symmetry_equiv_pos_site_id
 _symmetry_equiv_pos_as_xyz
  1  'x, y, z'
loop_
 _atom_site_type_symbol
 _atom_site_label
 _atom_site_symmetry_multiplicity
 _atom_site_fract_x
 _atom_site_fract_y
 _atom_site_fract_z
 _atom_site_occupancy
  Sr  Sr0  1  0.772314  0.486232  0.330358  1
  Sr  Sr1  1  0.727686  0.986232  0.830358  1
  Sr  Sr2  1  0.228188  0.512905  0.669414  1
  Sr  Sr3  1  0.271812  0.012905  0.169414  1
  Sr  Sr4  1  0.771863  0.985912  0.367796  1
  Sr  Sr5  1  0.728137  0.485912  0.867796  1
  Sr  Sr6  1  0.228860  0.015409  0.631927  1
  Sr  Sr7  1  0.271140  0.515409  0.131927  1
  Y  Y8  1  0.244857  0.729156  0.379822  1
  Y  Y9  1  0.255143  0.229156  0.879822  1
  Tm  Tm10  1  0.756671  0.269814  0.620928  1
  Tm  Tm11  1  0.743329  0.769814  0.120928  1
  Ga  Ga12  1  0.719849  0.742100  0.580306  1
  Ga  Ga13  1  0.780151  0.242100  0.080306  1
  Ga  Ga14  1  0.280384  0.258308  0.421087  1
  Ga  Ga15  1  0.219616  0.758308  0.921087  1
  O  O16  1  0.788282  0.972955  0.627858  1
  O  O17  1  0.711718  0.472955  0.127858  1
  O  O18  1  0.211406  0.029483  0.371700  1
  O  O19  1  0.288594  0.529483  0.871700  1
  O  O20  1  0.717098  0.064964  0.176129  1
  O  O21  1  0.782902  0.564964  0.676129  1
  O  O22  1  0.282743  0.931571  0.822757  1
  O  O23  1  0.217257  0.431571  0.322757  1
  O  O24  1  0.541217  0.747267  0.273670  1
  O  O25  1  0.958783  0.247267  0.773670  1
  O  O26  1  0.462353  0.252932  0.723299  1
  O  O27  1  0.037647  0.752932  0.223299  1
  O  O28  1  0.597027  0.213147  0.959654  1
  O  O29  1  0.902973  0.713147  0.459654  1
  O  O30  1  0.408047  0.786947  0.040263  1
  O  O31  1  0.091953  0.286947  0.540263  1
  O  O32  1  0.090246  0.237047  0.046495  1
  O  O33  1  0.409754  0.737047  0.546495  1
  O  O34  1  0.909792  0.763851  0.956539  1
  O  O35  1  0.590208  0.263851  0.456539  1
