# generated using pymatgen
data_Er2Th2(Al8Pt3)3
_symmetry_space_group_name_H-M   'P 1'
_cell_length_a   7.57923866
_cell_length_b   7.57621766
_cell_length_c   13.17384912
_cell_angle_alpha   84.51890566
_cell_angle_beta   101.06121731
_cell_angle_gamma   119.88719851
_symmetry_Int_Tables_number   1
_chemical_formula_structural   Er2Th2(Al8Pt3)3
_chemical_formula_sum   'Er2 Th2 Al24 Pt9'
_cell_volume   643.67996069
_cell_formula_units_Z   1
loop_
 _symmetry_equiv_pos_site_id
 _symmetry_equiv_pos_as_xyz
  1  'x, y, z'
loop_
 _atom_site_type_symbol
 _atom_site_label
 _atom_site_symmetry_multiplicity
 _atom_site_fract_x
 _atom_site_fract_y
 _atom_site_fract_z
 _atom_site_occupancy
  Er  Er0  1  0.062341  0.667787  0.193146  1
  Er  Er1  1  0.937659  0.332213  0.806854  1
  Th  Th2  1  0.732660  0.999013  0.193235  1
  Th  Th3  1  0.267340  0.000987  0.806765  1
  Al  Al4  1  0.804084  0.867970  0.815028  1
  Al  Al5  1  0.195916  0.132030  0.184972  1
  Al  Al6  1  0.979497  0.662923  0.945885  1
  Al  Al7  1  0.020503  0.337077  0.054115  1
  Al  Al8  1  0.398144  0.660034  0.816607  1
  Al  Al9  1  0.601856  0.339966  0.183393  1
  Al  Al10  1  0.878137  0.661760  0.667914  1
  Al  Al11  1  0.121863  0.338240  0.332086  1
  Al  Al12  1  0.606432  0.462492  0.816020  1
  Al  Al13  1  0.393568  0.537508  0.183980  1
  Al  Al14  1  0.228803  0.343679  0.666142  1
  Al  Al15  1  0.771197  0.656321  0.333858  1
  Al  Al16  1  0.852489  0.333625  0.559000  1
  Al  Al17  1  0.185913  0.999342  0.557654  1
  Al  Al18  1  0.814087  0.000658  0.442346  1
  Al  Al19  1  0.348332  0.998987  0.056456  1
  Al  Al20  1  0.651668  0.001013  0.943544  1
  Al  Al21  1  0.558661  0.993670  0.667841  1
  Al  Al22  1  0.441339  0.006330  0.332159  1
  Al  Al23  1  0.520149  0.666560  0.561585  1
  Al  Al24  1  0.479851  0.333440  0.438415  1
  Al  Al25  1  0.682919  0.664811  0.045643  1
  Al  Al26  1  0.317081  0.335189  0.954357  1
  Al  Al27  1  0.147511  0.666375  0.441000  1
  Pt  Pt28  1  0.329172  0.672881  0.000177  1
  Pt  Pt29  1  0.545059  0.324024  0.637703  1
  Pt  Pt30  1  0.454941  0.675976  0.362297  1
  Pt  Pt31  1  0.888511  0.008666  0.639104  1
  Pt  Pt32  1  0.111489  0.991334  0.360896  1
  Pt  Pt33  1  0.670828  0.327119  0.999823  1
  Pt  Pt34  1  0.203959  0.667243  0.639094  1
  Pt  Pt35  1  0.796041  0.332757  0.360906  1
  Pt  Pt36  1  0.000000  0.000000  0.000000  1
