# generated using pymatgen
data_Ho8Ti10Nb2Si15Ir
_symmetry_space_group_name_H-M   'P 1'
_cell_length_a   7.05193495
_cell_length_b   7.04248930
_cell_length_c   12.99599142
_cell_angle_alpha   89.92409953
_cell_angle_beta   89.84127963
_cell_angle_gamma   90.00190615
_symmetry_Int_Tables_number   1
_chemical_formula_structural   Ho8Ti10Nb2Si15Ir
_chemical_formula_sum   'Ho8 Ti10 Nb2 Si15 Ir1'
_cell_volume   645.41917186
_cell_formula_units_Z   1
loop_
 _symmetry_equiv_pos_site_id
 _symmetry_equiv_pos_as_xyz
  1  'x, y, z'
loop_
 _atom_site_type_symbol
 _atom_site_label
 _atom_site_symmetry_multiplicity
 _atom_site_fract_x
 _atom_site_fract_y
 _atom_site_fract_z
 _atom_site_occupancy
  Ho  Ho0  1  0.338124  0.001344  0.466677  1
  Ho  Ho1  1  0.499108  0.841248  0.717300  1
  Ho  Ho2  1  0.500690  0.159214  0.217141  1
  Ho  Ho3  1  0.841327  0.497809  0.283131  1
  Ho  Ho4  1  0.157817  0.501855  0.783249  1
  Ho  Ho5  1  0.660530  0.998713  0.967468  1
  Ho  Ho6  1  0.002654  0.338117  0.534926  1
  Ho  Ho7  1  0.999890  0.658413  0.033250  1
  Ti  Ti8  1  0.833900  0.170229  0.747215  1
  Ti  Ti9  1  0.671840  0.671041  0.499053  1
  Ti  Ti10  1  0.158890  0.010979  0.875423  1
  Ti  Ti11  1  0.490858  0.652620  0.125796  1
  Ti  Ti12  1  0.498927  0.343514  0.626196  1
  Ti  Ti13  1  0.655862  0.496510  0.875925  1
  Ti  Ti14  1  0.346932  0.507689  0.373501  1
  Ti  Ti15  1  0.847050  0.992474  0.374037  1
  Ti  Ti16  1  0.009683  0.152749  0.125623  1
  Ti  Ti17  1  0.992010  0.850556  0.620569  1
  Nb  Nb18  1  0.327922  0.326432  0.001372  1
  Nb  Nb19  1  0.172725  0.827180  0.249898  1
  Si  Si20  1  0.370929  0.702443  0.934971  1
  Si  Si21  1  0.630956  0.296490  0.434033  1
  Si  Si22  1  0.704356  0.369445  0.066634  1
  Si  Si23  1  0.301571  0.630816  0.563677  1
  Si  Si24  1  0.795345  0.868840  0.183164  1
  Si  Si25  1  0.130159  0.203304  0.315866  1
  Si  Si26  1  0.868051  0.798478  0.815382  1
  Si  Si27  1  0.293487  0.953581  0.064789  1
  Si  Si28  1  0.546736  0.791264  0.314688  1
  Si  Si29  1  0.459303  0.213766  0.815338  1
  Si  Si30  1  0.787397  0.549295  0.685360  1
  Si  Si31  1  0.207518  0.453780  0.186195  1
  Si  Si32  1  0.704864  0.044794  0.561772  1
  Si  Si33  1  0.952082  0.291852  0.937467  1
  Si  Si34  1  0.045246  0.706600  0.434562  1
  Ir  Ir35  1  0.195260  0.126570  0.688354  1
