# generated using pymatgen
data_La6YbFeBr12
_symmetry_space_group_name_H-M   'P 1'
_cell_length_a   9.63306384
_cell_length_b   9.63306411
_cell_length_c   9.63306507
_cell_angle_alpha   107.05648442
_cell_angle_beta   107.05647859
_cell_angle_gamma   107.05647635
_symmetry_Int_Tables_number   1
_chemical_formula_structural   La6YbFeBr12
_chemical_formula_sum   'La6 Yb1 Fe1 Br12'
_cell_volume   743.30612692
_cell_formula_units_Z   1
loop_
 _symmetry_equiv_pos_site_id
 _symmetry_equiv_pos_as_xyz
  1  'x, y, z'
loop_
 _atom_site_type_symbol
 _atom_site_label
 _atom_site_symmetry_multiplicity
 _atom_site_fract_x
 _atom_site_fract_y
 _atom_site_fract_z
 _atom_site_occupancy
  La  La0  1  0.812469  0.526244  0.606768  1
  La  La1  1  0.526244  0.606768  0.812469  1
  La  La2  1  0.187531  0.473756  0.393232  1
  La  La3  1  0.473756  0.393232  0.187531  1
  La  La4  1  0.606768  0.812469  0.526244  1
  La  La5  1  0.393232  0.187531  0.473756  1
  Yb  Yb6  1  0.000000  0.000000  0.000000  1
  Fe  Fe7  1  0.500000  0.500000  0.500000  1
  Br  Br8  1  0.721119  0.182492  0.570864  1
  Br  Br9  1  0.961148  0.883161  0.672885  1
  Br  Br10  1  0.570864  0.721119  0.182492  1
  Br  Br11  1  0.116839  0.327115  0.038852  1
  Br  Br12  1  0.672885  0.961148  0.883161  1
  Br  Br13  1  0.883161  0.672885  0.961148  1
  Br  Br14  1  0.038852  0.116839  0.327115  1
  Br  Br15  1  0.817508  0.429136  0.278881  1
  Br  Br16  1  0.327115  0.038852  0.116839  1
  Br  Br17  1  0.278881  0.817508  0.429136  1
  Br  Br18  1  0.182492  0.570864  0.721119  1
  Br  Br19  1  0.429136  0.278881  0.817508  1
