# generated using pymatgen
data_Sm2Al20Os3Rh
_symmetry_space_group_name_H-M   'P 1'
_cell_length_a   6.88220570
_cell_length_b   6.87397560
_cell_length_c   9.18681802
_cell_angle_alpha   90.09117967
_cell_angle_beta   90.24366114
_cell_angle_gamma   96.76234749
_symmetry_Int_Tables_number   1
_chemical_formula_structural   Sm2Al20Os3Rh
_chemical_formula_sum   'Sm2 Al20 Os3 Rh1'
_cell_volume   431.58263060
_cell_formula_units_Z   1
loop_
 _symmetry_equiv_pos_site_id
 _symmetry_equiv_pos_as_xyz
  1  'x, y, z'
loop_
 _atom_site_type_symbol
 _atom_site_label
 _atom_site_symmetry_multiplicity
 _atom_site_fract_x
 _atom_site_fract_y
 _atom_site_fract_z
 _atom_site_occupancy
  Sm  Sm0  1  0.872943  0.129526  0.749986  1
  Sm  Sm1  1  0.127057  0.870474  0.250014  1
  Al  Al2  1  0.516483  0.780373  0.747732  1
  Al  Al3  1  0.782818  0.516330  0.249305  1
  Al  Al4  1  0.483517  0.219627  0.252268  1
  Al  Al5  1  0.217182  0.483670  0.750695  1
  Al  Al6  1  0.624090  0.378802  0.951943  1
  Al  Al7  1  0.375910  0.621198  0.048057  1
  Al  Al8  1  0.623865  0.376996  0.545894  1
  Al  Al9  1  0.376135  0.623004  0.454106  1
  Al  Al10  1  0.414693  0.147457  0.749793  1
  Al  Al11  1  0.146148  0.412860  0.250466  1
  Al  Al12  1  0.585307  0.852543  0.250207  1
  Al  Al13  1  0.853852  0.587140  0.749534  1
  Al  Al14  1  0.842916  0.156421  0.398187  1
  Al  Al15  1  0.157084  0.843579  0.601813  1
  Al  Al16  1  0.843334  0.157940  0.103810  1
  Al  Al17  1  0.156666  0.842060  0.896190  1
  Al  Al18  1  0.774259  0.773966  0.000518  1
  Al  Al19  1  0.776231  0.775872  0.499069  1
  Al  Al20  1  0.225741  0.226034  0.999482  1
  Al  Al21  1  0.223769  0.224128  0.500931  1
  Os  Os22  1  0.000000  0.500000  0.000000  1
  Os  Os23  1  0.500000  0.000000  0.500000  1
  Os  Os24  1  0.000000  0.500000  0.500000  1
  Rh  Rh25  1  0.500000  0.000000  0.000000  1
