# generated using pymatgen
data_Pr3In3Pd2Au
_symmetry_space_group_name_H-M   'P 1'
_cell_length_a   7.85927300
_cell_length_b   7.85927369
_cell_length_c   4.09990100
_cell_angle_alpha   90.00000000
_cell_angle_beta   90.00000000
_cell_angle_gamma   120.00000974
_symmetry_Int_Tables_number   1
_chemical_formula_structural   Pr3In3Pd2Au
_chemical_formula_sum   'Pr3 In3 Pd2 Au1'
_cell_volume   219.31520716
_cell_formula_units_Z   1
loop_
 _symmetry_equiv_pos_site_id
 _symmetry_equiv_pos_as_xyz
  1  'x, y, z'
loop_
 _atom_site_type_symbol
 _atom_site_label
 _atom_site_symmetry_multiplicity
 _atom_site_fract_x
 _atom_site_fract_y
 _atom_site_fract_z
 _atom_site_occupancy
  Pr  Pr0  1  0.406463  0.412621  0.500000  1
  Pr  Pr1  1  0.587379  0.993842  0.500000  1
  Pr  Pr2  1  0.006158  0.593537  0.500000  1
  In  In3  1  0.748406  0.752935  0.000000  1
  In  In4  1  0.247065  0.995472  0.000000  1
  In  In5  1  0.004528  0.251594  0.000000  1
  Pd  Pd6  1  0.333333  0.666667  0.000000  1
  Pd  Pd7  1  0.000000  0.000000  0.500000  1
  Au  Au8  1  0.666667  0.333333  0.000000  1
