# generated using pymatgen
data_TbY3Al18Co5Ni
_symmetry_space_group_name_H-M   'P 1'
_cell_length_a   7.40281985
_cell_length_b   7.40289989
_cell_length_c   9.32379201
_cell_angle_alpha   89.97415525
_cell_angle_beta   89.97347672
_cell_angle_gamma   119.26527972
_symmetry_Int_Tables_number   1
_chemical_formula_structural   TbY3Al18Co5Ni
_chemical_formula_sum   'Tb1 Y3 Al18 Co5 Ni1'
_cell_volume   445.74863612
_cell_formula_units_Z   1
loop_
 _symmetry_equiv_pos_site_id
 _symmetry_equiv_pos_as_xyz
  1  'x, y, z'
loop_
 _atom_site_type_symbol
 _atom_site_label
 _atom_site_symmetry_multiplicity
 _atom_site_fract_x
 _atom_site_fract_y
 _atom_site_fract_z
 _atom_site_occupancy
  Tb  Tb0  1  0.993373  0.672020  0.250464  1
  Y  Y1  1  0.006745  0.327831  0.749656  1
  Y  Y2  1  0.672150  0.993269  0.250340  1
  Y  Y3  1  0.327973  0.006652  0.749533  1
  Al  Al4  1  0.125258  0.124807  0.250211  1
  Al  Al5  1  0.875227  0.874761  0.749788  1
  Al  Al6  1  0.332165  0.332060  0.541726  1
  Al  Al7  1  0.667548  0.670124  0.043179  1
  Al  Al8  1  0.329874  0.332432  0.956819  1
  Al  Al9  1  0.667919  0.667834  0.458280  1
  Al  Al10  1  0.339735  0.554122  0.250073  1
  Al  Al11  1  0.660352  0.447557  0.747412  1
  Al  Al12  1  0.552399  0.339628  0.252587  1
  Al  Al13  1  0.445869  0.660287  0.749926  1
  Al  Al14  1  0.000672  0.335493  0.071986  1
  Al  Al15  1  0.002322  0.664651  0.570779  1
  Al  Al16  1  0.335378  0.997698  0.429236  1
  Al  Al17  1  0.664484  0.999325  0.928024  1
  Al  Al18  1  0.004473  0.667506  0.928237  1
  Al  Al19  1  0.997896  0.334837  0.428838  1
  Al  Al20  1  0.665140  0.002105  0.571157  1
  Al  Al21  1  0.332521  0.995544  0.071750  1
  Co  Co22  1  0.999905  0.000099  0.999986  1
  Co  Co23  1  0.000256  0.999741  0.500010  1
  Co  Co24  1  0.329151  0.670845  0.500012  1
  Co  Co25  1  0.329079  0.670918  0.999985  1
  Co  Co26  1  0.671089  0.328901  0.500012  1
  Ni  Ni27  1  0.671049  0.328953  0.999994  1
