# generated using pymatgen
data_Ba4NaAgO6
_symmetry_space_group_name_H-M   'P 1'
_cell_length_a   7.44956300
_cell_length_b   7.44956335
_cell_length_c   11.48547100
_cell_angle_alpha   90.00000000
_cell_angle_beta   90.00000000
_cell_angle_gamma   133.39223137
_symmetry_Int_Tables_number   1
_chemical_formula_structural   Ba4NaAgO6
_chemical_formula_sum   'Ba8 Na2 Ag2 O12'
_cell_volume   463.17632864
_cell_formula_units_Z   2
loop_
 _symmetry_equiv_pos_site_id
 _symmetry_equiv_pos_as_xyz
  1  'x, y, z'
loop_
 _atom_site_type_symbol
 _atom_site_label
 _atom_site_symmetry_multiplicity
 _atom_site_fract_x
 _atom_site_fract_y
 _atom_site_fract_z
 _atom_site_occupancy
  Ba  Ba0  1  0.197283  0.898899  0.750000  1
  Ba  Ba1  1  0.649247  0.350753  0.500000  1
  Ba  Ba2  1  0.802717  0.101101  0.250000  1
  Ba  Ba3  1  0.898899  0.197283  0.750000  1
  Ba  Ba4  1  0.101101  0.802717  0.250000  1
  Ba  Ba5  1  0.350753  0.649247  0.000000  1
  Ba  Ba6  1  0.350753  0.649247  0.500000  1
  Ba  Ba7  1  0.649247  0.350753  0.000000  1
  Na  Na8  1  0.476761  0.476761  0.250000  1
  Na  Na9  1  0.523239  0.523239  0.750000  1
  Ag  Ag10  1  0.000000  0.000000  0.000000  1
  Ag  Ag11  1  0.000000  0.000000  0.500000  1
  O  O12  1  0.233579  0.566189  0.250000  1
  O  O13  1  0.151978  0.848022  0.500000  1
  O  O14  1  0.566189  0.233579  0.250000  1
  O  O15  1  0.724561  0.724561  0.396611  1
  O  O16  1  0.151978  0.848022  0.000000  1
  O  O17  1  0.848022  0.151978  0.000000  1
  O  O18  1  0.433811  0.766421  0.750000  1
  O  O19  1  0.766421  0.433811  0.750000  1
  O  O20  1  0.724561  0.724561  0.103389  1
  O  O21  1  0.848022  0.151978  0.500000  1
  O  O22  1  0.275439  0.275439  0.603389  1
  O  O23  1  0.275439  0.275439  0.896611  1
