# generated using pymatgen
data_Ba12Y4Ti5Pd3O34
_symmetry_space_group_name_H-M   'P 1'
_cell_length_a   6.00024600
_cell_length_b   6.00024696
_cell_length_c   30.10463800
_cell_angle_alpha   90.00000000
_cell_angle_beta   90.00000000
_cell_angle_gamma   120.00000572
_symmetry_Int_Tables_number   1
_chemical_formula_structural   Ba12Y4Ti5Pd3O34
_chemical_formula_sum   'Ba12 Y4 Ti5 Pd3 O34'
_cell_volume   938.64678701
_cell_formula_units_Z   1
loop_
 _symmetry_equiv_pos_site_id
 _symmetry_equiv_pos_as_xyz
  1  'x, y, z'
loop_
 _atom_site_type_symbol
 _atom_site_label
 _atom_site_symmetry_multiplicity
 _atom_site_fract_x
 _atom_site_fract_y
 _atom_site_fract_z
 _atom_site_occupancy
  Ba  Ba0  1  0.666667  0.333333  0.818847  1
  Ba  Ba1  1  0.333333  0.666667  0.184835  1
  Ba  Ba2  1  0.666667  0.333333  0.408537  1
  Ba  Ba3  1  0.333333  0.666667  0.909656  1
  Ba  Ba4  1  0.333333  0.666667  0.590017  1
  Ba  Ba5  1  0.666667  0.333333  0.089026  1
  Ba  Ba6  1  0.000000  0.000000  0.499139  1
  Ba  Ba7  1  0.000000  0.000000  0.999870  1
  Ba  Ba8  1  0.333333  0.666667  0.318675  1
  Ba  Ba9  1  0.000000  0.000000  0.253344  1
  Ba  Ba10  1  0.000000  0.000000  0.749259  1
  Ba  Ba11  1  0.666667  0.333333  0.679846  1
  Y  Y12  1  0.000000  0.000000  0.625223  1
  Y  Y13  1  0.000000  0.000000  0.874091  1
  Y  Y14  1  0.000000  0.000000  0.373897  1
  Y  Y15  1  0.000000  0.000000  0.126637  1
  Ti  Ti16  1  0.666667  0.333333  0.202498  1
  Ti  Ti17  1  0.666667  0.333333  0.553650  1
  Ti  Ti18  1  0.666667  0.333333  0.945856  1
  Ti  Ti19  1  0.333333  0.666667  0.054758  1
  Ti  Ti20  1  0.333333  0.666667  0.445798  1
  Pd  Pd21  1  0.666667  0.333333  0.293253  1
  Pd  Pd22  1  0.333333  0.666667  0.795013  1
  Pd  Pd23  1  0.333333  0.666667  0.704962  1
  O  O24  1  0.484849  0.969696  0.750038  1
  O  O25  1  0.515487  0.484513  0.249154  1
  O  O26  1  0.969026  0.484513  0.249154  1
  O  O27  1  0.030304  0.515151  0.750038  1
  O  O28  1  0.484849  0.515151  0.750038  1
  O  O29  1  0.515487  0.030974  0.249154  1
  O  O30  1  0.345466  0.172733  0.331542  1
  O  O31  1  0.827267  0.172733  0.331542  1
  O  O32  1  0.827267  0.654534  0.331542  1
  O  O33  1  0.173302  0.346605  0.832584  1
  O  O34  1  0.654359  0.827179  0.667665  1
  O  O35  1  0.653395  0.826698  0.832584  1
  O  O36  1  0.173302  0.826698  0.832584  1
  O  O37  1  0.823419  0.646839  0.169231  1
  O  O38  1  0.823419  0.176581  0.169231  1
  O  O39  1  0.172821  0.827179  0.667665  1
  O  O40  1  0.172821  0.345641  0.667665  1
  O  O41  1  0.353161  0.176581  0.169231  1
  O  O42  1  0.663477  0.831739  0.422950  1
  O  O43  1  0.168261  0.831739  0.422950  1
  O  O44  1  0.168261  0.336523  0.422950  1
  O  O45  1  0.831773  0.663545  0.923238  1
  O  O46  1  0.337312  0.168655  0.576980  1
  O  O47  1  0.336455  0.168227  0.923238  1
  O  O48  1  0.333333  0.666667  0.995852  1
  O  O49  1  0.666667  0.333333  0.494815  1
  O  O50  1  0.666667  0.333333  0.004852  1
  O  O51  1  0.333333  0.666667  0.504778  1
  O  O52  1  0.663755  0.831878  0.077621  1
  O  O53  1  0.831345  0.662688  0.576980  1
  O  O54  1  0.831345  0.168655  0.576980  1
  O  O55  1  0.168122  0.831878  0.077621  1
  O  O56  1  0.168122  0.336245  0.077621  1
  O  O57  1  0.831773  0.168227  0.923238  1
