# generated using pymatgen
data_YLu4P12Ru17Pt2
_symmetry_space_group_name_H-M   'P 1'
_cell_length_a   12.60112500
_cell_length_b   12.50651901
_cell_length_c   3.96912000
_cell_angle_alpha   90.00000000
_cell_angle_beta   90.00000000
_cell_angle_gamma   120.25054719
_symmetry_Int_Tables_number   1
_chemical_formula_structural   YLu4P12Ru17Pt2
_chemical_formula_sum   'Y1 Lu4 P12 Ru17 Pt2'
_cell_volume   540.34187846
_cell_formula_units_Z   1
loop_
 _symmetry_equiv_pos_site_id
 _symmetry_equiv_pos_as_xyz
  1  'x, y, z'
loop_
 _atom_site_type_symbol
 _atom_site_label
 _atom_site_symmetry_multiplicity
 _atom_site_fract_x
 _atom_site_fract_y
 _atom_site_fract_z
 _atom_site_occupancy
  Y  Y0  1  0.183481  0.000000  0.500000  1
  Lu  Lu1  1  0.001255  0.182342  0.500000  1
  Lu  Lu2  1  0.818913  0.817658  0.500000  1
  Lu  Lu3  1  0.664291  0.327259  0.000000  1
  Lu  Lu4  1  0.337031  0.672741  0.000000  1
  P  P5  1  0.997340  0.812854  0.000000  1
  P  P6  1  0.184486  0.187146  0.000000  1
  P  P7  1  0.818462  0.000000  0.000000  1
  P  P8  1  0.692768  0.170227  0.500000  1
  P  P9  1  0.816299  0.515417  0.500000  1
  P  P10  1  0.478426  0.299647  0.500000  1
  P  P11  1  0.178780  0.700353  0.500000  1
  P  P12  1  0.522541  0.829773  0.500000  1
  P  P13  1  0.300881  0.484583  0.500000  1
  P  P14  1  0.000394  0.364550  0.000000  1
  P  P15  1  0.635844  0.635450  0.000000  1
  P  P16  1  0.373108  0.000000  0.000000  1
  Ru  Ru17  1  0.555230  0.000000  0.000000  1
  Ru  Ru18  1  0.997055  0.709685  0.500000  1
  Ru  Ru19  1  0.287370  0.290315  0.500000  1
  Ru  Ru20  1  0.719437  0.000000  0.500000  1
  Ru  Ru21  1  0.809504  0.185032  0.000000  1
  Ru  Ru22  1  0.812572  0.618440  0.000000  1
  Ru  Ru23  1  0.376964  0.193389  0.000000  1
  Ru  Ru24  1  0.183577  0.806611  0.000000  1
  Ru  Ru25  1  0.624474  0.814968  0.000000  1
  Ru  Ru26  1  0.194133  0.381560  0.000000  1
  Ru  Ru27  1  0.869489  0.364959  0.500000  1
  Ru  Ru28  1  0.629146  0.505233  0.500000  1
  Ru  Ru29  1  0.492722  0.124740  0.500000  1
  Ru  Ru30  1  0.367982  0.875260  0.500000  1
  Ru  Ru31  1  0.504531  0.635041  0.500000  1
  Ru  Ru32  1  0.123914  0.494767  0.500000  1
  Ru  Ru33  1  0.000997  0.000000  0.000000  1
  Pt  Pt34  1  0.998147  0.549690  0.000000  1
  Pt  Pt35  1  0.448457  0.450310  0.000000  1
