# generated using pymatgen
data_Ho4Al24Cu2Pd6Rh
_symmetry_space_group_name_H-M   'P 1'
_cell_length_a   7.50152545
_cell_length_b   7.52981699
_cell_length_c   13.10463868
_cell_angle_alpha   84.74093919
_cell_angle_beta   79.14048109
_cell_angle_gamma   59.95572413
_symmetry_Int_Tables_number   1
_chemical_formula_structural   Ho4Al24Cu2Pd6Rh
_chemical_formula_sum   'Ho4 Al24 Cu2 Pd6 Rh1'
_cell_volume   629.28274239
_cell_formula_units_Z   1
loop_
 _symmetry_equiv_pos_site_id
 _symmetry_equiv_pos_as_xyz
  1  'x, y, z'
loop_
 _atom_site_type_symbol
 _atom_site_label
 _atom_site_symmetry_multiplicity
 _atom_site_fract_x
 _atom_site_fract_y
 _atom_site_fract_z
 _atom_site_occupancy
  Ho  Ho0  1  0.393175  0.168972  0.808087  1
  Ho  Ho1  1  0.606825  0.831028  0.191913  1
  Ho  Ho2  1  0.733832  0.498661  0.808035  1
  Ho  Ho3  1  0.266168  0.501339  0.191965  1
  Al  Al4  1  0.686915  0.830302  0.946293  1
  Al  Al5  1  0.313085  0.169698  0.053707  1
  Al  Al6  1  0.144805  0.833846  0.563273  1
  Al  Al7  1  0.855195  0.166154  0.436727  1
  Al  Al8  1  0.478707  0.167423  0.560987  1
  Al  Al9  1  0.521293  0.832577  0.439013  1
  Al  Al10  1  0.214339  0.167945  0.327655  1
  Al  Al11  1  0.785661  0.832055  0.672345  1
  Al  Al12  1  0.432525  0.507292  0.672738  1
  Al  Al13  1  0.567475  0.492708  0.327262  1
  Al  Al14  1  0.109521  0.162303  0.670657  1
  Al  Al15  1  0.890479  0.837697  0.329343  1
  Al  Al16  1  0.349215  0.499030  0.946144  1
  Al  Al17  1  0.650785  0.500970  0.053856  1
  Al  Al18  1  0.014968  0.171371  0.955372  1
  Al  Al19  1  0.985032  0.828629  0.044628  1
  Al  Al20  1  0.185616  0.499895  0.441963  1
  Al  Al21  1  0.814384  0.500105  0.558037  1
  Al  Al22  1  0.733364  0.164000  0.183811  1
  Al  Al23  1  0.266636  0.836000  0.816189  1
  Al  Al24  1  0.060982  0.627132  0.815979  1
  Al  Al25  1  0.939018  0.372868  0.184021  1
  Al  Al26  1  0.855494  0.042061  0.816067  1
  Al  Al27  1  0.144506  0.957939  0.183933  1
  Cu  Cu28  1  0.119159  0.492215  0.639419  1
  Cu  Cu29  1  0.880841  0.507785  0.360581  1
  Pd  Pd30  1  0.657641  0.171384  0.999866  1
  Pd  Pd31  1  0.342359  0.828616  0.000134  1
  Pd  Pd32  1  0.536078  0.167914  0.363984  1
  Pd  Pd33  1  0.463922  0.832086  0.636016  1
  Pd  Pd34  1  0.779651  0.175943  0.636106  1
  Pd  Pd35  1  0.220349  0.824057  0.363894  1
  Rh  Rh36  1  0.000000  0.500000  0.000000  1
