# generated using pymatgen
data_Tb2Al9IrPd2
_symmetry_space_group_name_H-M   'P 1'
_cell_length_a   7.61215291
_cell_length_b   7.61215282
_cell_length_c   9.47366600
_cell_angle_alpha   90.00000000
_cell_angle_beta   90.00000000
_cell_angle_gamma   119.62170274
_symmetry_Int_Tables_number   1
_chemical_formula_structural   Tb2Al9IrPd2
_chemical_formula_sum   'Tb4 Al18 Ir2 Pd4'
_cell_volume   477.20680999
_cell_formula_units_Z   2
loop_
 _symmetry_equiv_pos_site_id
 _symmetry_equiv_pos_as_xyz
  1  'x, y, z'
loop_
 _atom_site_type_symbol
 _atom_site_label
 _atom_site_symmetry_multiplicity
 _atom_site_fract_x
 _atom_site_fract_y
 _atom_site_fract_z
 _atom_site_occupancy
  Tb  Tb0  1  0.994130  0.668865  0.250000  1
  Tb  Tb1  1  0.005870  0.331135  0.750000  1
  Tb  Tb2  1  0.668865  0.994130  0.250000  1
  Tb  Tb3  1  0.331135  0.005870  0.750000  1
  Al  Al4  1  0.128302  0.128302  0.250000  1
  Al  Al5  1  0.871698  0.871698  0.750000  1
  Al  Al6  1  0.000078  0.331506  0.075880  1
  Al  Al7  1  0.999922  0.668494  0.924120  1
  Al  Al8  1  0.999922  0.668494  0.575880  1
  Al  Al9  1  0.331506  0.000078  0.424120  1
  Al  Al10  1  0.000078  0.331506  0.424120  1
  Al  Al11  1  0.668494  0.999922  0.575880  1
  Al  Al12  1  0.668494  0.999922  0.924120  1
  Al  Al13  1  0.331506  0.000078  0.075880  1
  Al  Al14  1  0.330954  0.330954  0.555435  1
  Al  Al15  1  0.669046  0.669046  0.444565  1
  Al  Al16  1  0.669046  0.669046  0.055435  1
  Al  Al17  1  0.330954  0.330954  0.944565  1
  Al  Al18  1  0.340714  0.547477  0.250000  1
  Al  Al19  1  0.659286  0.452523  0.750000  1
  Al  Al20  1  0.547477  0.340714  0.250000  1
  Al  Al21  1  0.452523  0.659286  0.750000  1
  Ir  Ir22  1  0.000000  0.000000  0.000000  1
  Ir  Ir23  1  0.000000  0.000000  0.500000  1
  Pd  Pd24  1  0.672226  0.327774  0.000000  1
  Pd  Pd25  1  0.327774  0.672226  0.000000  1
  Pd  Pd26  1  0.327774  0.672226  0.500000  1
  Pd  Pd27  1  0.672226  0.327774  0.500000  1
