# generated using pymatgen
data_CsK4Rb3(ZrTe3)4
_symmetry_space_group_name_H-M   'P 1'
_cell_length_a   14.60434152
_cell_length_b   6.97520170
_cell_length_c   9.69044847
_cell_angle_alpha   71.31881012
_cell_angle_beta   90.55201923
_cell_angle_gamma   90.49857567
_symmetry_Int_Tables_number   1
_chemical_formula_structural   CsK4Rb3(ZrTe3)4
_chemical_formula_sum   'Cs1 K4 Rb3 Zr4 Te12'
_cell_volume   935.08152024
_cell_formula_units_Z   1
loop_
 _symmetry_equiv_pos_site_id
 _symmetry_equiv_pos_as_xyz
  1  'x, y, z'
loop_
 _atom_site_type_symbol
 _atom_site_label
 _atom_site_symmetry_multiplicity
 _atom_site_fract_x
 _atom_site_fract_y
 _atom_site_fract_z
 _atom_site_occupancy
  Cs  Cs0  1  0.547969  0.162089  0.662480  1
  K  K1  1  0.863944  0.061441  0.900856  1
  K  K2  1  0.363336  0.438307  0.099781  1
  K  K3  1  0.135033  0.938494  0.099725  1
  K  K4  1  0.636808  0.561939  0.898331  1
  Rb  Rb5  1  0.957657  0.665881  0.654375  1
  Rb  Rb6  1  0.457756  0.833948  0.344995  1
  Rb  Rb7  1  0.042596  0.334270  0.344957  1
  Zr  Zr8  1  0.750212  0.675995  0.285239  1
  Zr  Zr9  1  0.247454  0.824208  0.713813  1
  Zr  Zr10  1  0.249516  0.323896  0.714131  1
  Zr  Zr11  1  0.751769  0.176467  0.285243  1
  Te  Te12  1  0.913997  0.912738  0.265420  1
  Te  Te13  1  0.411966  0.593827  0.735471  1
  Te  Te14  1  0.085159  0.088213  0.733840  1
  Te  Te15  1  0.587902  0.409984  0.260702  1
  Te  Te16  1  0.813281  0.297652  0.523022  1
  Te  Te17  1  0.308797  0.204347  0.476176  1
  Te  Te18  1  0.187193  0.702234  0.475584  1
  Te  Te19  1  0.690691  0.793949  0.523331  1
  Te  Te20  1  0.848230  0.498009  0.076157  1
  Te  Te21  1  0.344457  0.004392  0.926672  1
  Te  Te22  1  0.151744  0.502159  0.923089  1
  Te  Te23  1  0.652534  0.995559  0.076610  1
