# generated using pymatgen
data_Na4ErRuO6
_symmetry_space_group_name_H-M   'P 1'
_cell_length_a   5.65708054
_cell_length_b   5.65709015
_cell_length_c   5.80752833
_cell_angle_alpha   99.27337075
_cell_angle_beta   99.27365319
_cell_angle_gamma   120.10338363
_symmetry_Int_Tables_number   1
_chemical_formula_structural   Na4ErRuO6
_chemical_formula_sum   'Na4 Er1 Ru1 O6'
_cell_volume   152.18073225
_cell_formula_units_Z   1
loop_
 _symmetry_equiv_pos_site_id
 _symmetry_equiv_pos_as_xyz
  1  'x, y, z'
loop_
 _atom_site_type_symbol
 _atom_site_label
 _atom_site_symmetry_multiplicity
 _atom_site_fract_x
 _atom_site_fract_y
 _atom_site_fract_z
 _atom_site_occupancy
  Na  Na0  1  0.499149  0.500846  0.000002  1
  Na  Na1  1  0.014675  0.985322  0.499999  1
  Na  Na2  1  0.656311  0.343690  0.500001  1
  Na  Na3  1  0.335463  0.664538  0.500000  1
  Er  Er4  1  0.833351  0.166650  0.000001  1
  Ru  Ru5  1  0.167072  0.832926  0.000000  1
  O  O6  1  0.949938  0.598928  0.206969  1
  O  O7  1  0.537111  0.922207  0.212283  1
  O  O8  1  0.217946  0.189884  0.212797  1
  O  O9  1  0.810117  0.782051  0.787205  1
  O  O10  1  0.077795  0.462892  0.787717  1
  O  O11  1  0.401075  0.050064  0.793028  1
