# generated using pymatgen
data_Ba6DySc(BO3)6
_symmetry_space_group_name_H-M   'P 1'
_cell_length_a   8.16053607
_cell_length_b   8.16053532
_cell_length_c   8.16053688
_cell_angle_alpha   105.73284632
_cell_angle_beta   105.73283995
_cell_angle_gamma   105.73284011
_symmetry_Int_Tables_number   1
_chemical_formula_structural   Ba6DySc(BO3)6
_chemical_formula_sum   'Ba6 Dy1 Sc1 B6 O18'
_cell_volume   467.34971230
_cell_formula_units_Z   1
loop_
 _symmetry_equiv_pos_site_id
 _symmetry_equiv_pos_as_xyz
  1  'x, y, z'
loop_
 _atom_site_type_symbol
 _atom_site_label
 _atom_site_symmetry_multiplicity
 _atom_site_fract_x
 _atom_site_fract_y
 _atom_site_fract_z
 _atom_site_occupancy
  Ba  Ba0  1  0.347472  0.733531  0.835808  1
  Ba  Ba1  1  0.835808  0.347472  0.733531  1
  Ba  Ba2  1  0.733531  0.835808  0.347472  1
  Ba  Ba3  1  0.652528  0.266469  0.164192  1
  Ba  Ba4  1  0.164192  0.652528  0.266469  1
  Ba  Ba5  1  0.266469  0.164192  0.652528  1
  Dy  Dy6  1  0.000000  0.000000  0.000000  1
  Sc  Sc7  1  0.500000  0.500000  0.500000  1
  B  B8  1  0.374622  0.051069  0.293246  1
  B  B9  1  0.293246  0.374622  0.051069  1
  B  B10  1  0.051069  0.293246  0.374622  1
  B  B11  1  0.706754  0.625378  0.948931  1
  B  B12  1  0.948931  0.706754  0.625378  1
  B  B13  1  0.625378  0.948931  0.706754  1
  O  O14  1  0.426618  0.488718  0.225480  1
  O  O15  1  0.225480  0.426618  0.488718  1
  O  O16  1  0.812697  0.011594  0.738482  1
  O  O17  1  0.011594  0.738482  0.812697  1
  O  O18  1  0.738482  0.812697  0.011594  1
  O  O19  1  0.261518  0.187303  0.988406  1
  O  O20  1  0.187303  0.988406  0.261518  1
  O  O21  1  0.988406  0.261518  0.187303  1
  O  O22  1  0.551255  0.059142  0.797957  1
  O  O23  1  0.059142  0.797957  0.551255  1
  O  O24  1  0.797957  0.551255  0.059142  1
  O  O25  1  0.448745  0.940858  0.202043  1
  O  O26  1  0.940858  0.202043  0.448745  1
  O  O27  1  0.202043  0.448745  0.940858  1
  O  O28  1  0.511282  0.774520  0.573382  1
  O  O29  1  0.774520  0.573382  0.511282  1
  O  O30  1  0.573382  0.511282  0.774520  1
  O  O31  1  0.488718  0.225480  0.426618  1
