# generated using pymatgen
data_Y4MnCr3B16
_symmetry_space_group_name_H-M   'P 1'
_cell_length_a   3.43462900
_cell_length_b   5.92374701
_cell_length_c   11.44403502
_cell_angle_alpha   89.99323288
_cell_angle_beta   90.00000000
_cell_angle_gamma   90.00000000
_symmetry_Int_Tables_number   1
_chemical_formula_structural   Y4MnCr3B16
_chemical_formula_sum   'Y4 Mn1 Cr3 B16'
_cell_volume   232.83888459
_cell_formula_units_Z   1
loop_
 _symmetry_equiv_pos_site_id
 _symmetry_equiv_pos_as_xyz
  1  'x, y, z'
loop_
 _atom_site_type_symbol
 _atom_site_label
 _atom_site_symmetry_multiplicity
 _atom_site_fract_x
 _atom_site_fract_y
 _atom_site_fract_z
 _atom_site_occupancy
  Y  Y0  1  0.000000  0.624498  0.349592  1
  Y  Y1  1  0.000000  0.375913  0.650754  1
  Y  Y2  1  0.000000  0.124098  0.151144  1
  Y  Y3  1  0.000000  0.876100  0.848476  1
  Mn  Mn4  1  0.000000  0.876572  0.580951  1
  Cr  Cr5  1  0.000000  0.623582  0.081072  1
  Cr  Cr6  1  0.000000  0.376652  0.918141  1
  Cr  Cr7  1  0.000000  0.123951  0.419456  1
  B  B8  1  0.500000  0.781463  0.184393  1
  B  B9  1  0.500000  0.218098  0.815203  1
  B  B10  1  0.500000  0.281079  0.316224  1
  B  B11  1  0.500000  0.721041  0.682693  1
  B  B12  1  0.500000  0.862711  0.032528  1
  B  B13  1  0.500000  0.136973  0.967127  1
  B  B14  1  0.500000  0.362114  0.468274  1
  B  B15  1  0.500000  0.639075  0.532946  1
  B  B16  1  0.500000  0.886040  0.454572  1
  B  B17  1  0.500000  0.111056  0.547616  1
  B  B18  1  0.500000  0.386549  0.046541  1
  B  B19  1  0.500000  0.613483  0.953037  1
  B  B20  1  0.500000  0.974739  0.309302  1
  B  B21  1  0.500000  0.023731  0.690545  1
  B  B22  1  0.500000  0.474619  0.191503  1
  B  B23  1  0.500000  0.525862  0.807910  1
