# generated using pymatgen
data_Dy2MnCo8P7W3
_symmetry_space_group_name_H-M   'P 1'
_cell_length_a   9.09244503
_cell_length_b   9.07628423
_cell_length_c   3.70970600
_cell_angle_alpha   90.00000000
_cell_angle_beta   90.00000000
_cell_angle_gamma   119.90128037
_symmetry_Int_Tables_number   1
_chemical_formula_structural   Dy2MnCo8P7W3
_chemical_formula_sum   'Dy2 Mn1 Co8 P7 W3'
_cell_volume   265.39336317
_cell_formula_units_Z   1
loop_
 _symmetry_equiv_pos_site_id
 _symmetry_equiv_pos_as_xyz
  1  'x, y, z'
loop_
 _atom_site_type_symbol
 _atom_site_label
 _atom_site_symmetry_multiplicity
 _atom_site_fract_x
 _atom_site_fract_y
 _atom_site_fract_z
 _atom_site_occupancy
  Dy  Dy0  1  0.667456  0.333467  0.000000  1
  Dy  Dy1  1  0.333314  0.666776  0.500000  1
  Mn  Mn2  1  0.841475  0.120388  0.000000  1
  Co  Co3  1  0.368494  0.937105  0.000000  1
  Co  Co4  1  0.064363  0.432993  0.000000  1
  Co  Co5  1  0.568660  0.629581  0.000000  1
  Co  Co6  1  0.880105  0.721023  0.000000  1
  Co  Co7  1  0.279587  0.159296  0.000000  1
  Co  Co8  1  0.948200  0.562549  0.500000  1
  Co  Co9  1  0.437526  0.385473  0.500000  1
  Co  Co10  1  0.611858  0.051566  0.500000  1
  P  P11  1  0.111779  0.697241  0.000000  1
  P  P12  1  0.303941  0.415206  0.000000  1
  P  P13  1  0.585967  0.888765  0.000000  1
  P  P14  1  0.708861  0.588460  0.500000  1
  P  P15  1  0.410243  0.118972  0.500000  1
  P  P16  1  0.876943  0.289270  0.500000  1
  P  P17  1  0.000255  0.000436  0.000000  1
  W  W18  1  0.122732  0.902615  0.500000  1
  W  W19  1  0.099131  0.221525  0.500000  1
  W  W20  1  0.779109  0.877298  0.500000  1
