# generated using pymatgen
data_RbLaBeF6
_symmetry_space_group_name_H-M   'P 1'
_cell_length_a   6.17784300
_cell_length_b   6.71182371
_cell_length_c   7.55087881
_cell_angle_alpha   66.92414225
_cell_angle_beta   90.00000000
_cell_angle_gamma   90.00000000
_symmetry_Int_Tables_number   1
_chemical_formula_structural   RbLaBeF6
_chemical_formula_sum   'Rb2 La2 Be2 F12'
_cell_volume   288.04243374
_cell_formula_units_Z   2
loop_
 _symmetry_equiv_pos_site_id
 _symmetry_equiv_pos_as_xyz
  1  'x, y, z'
loop_
 _atom_site_type_symbol
 _atom_site_label
 _atom_site_symmetry_multiplicity
 _atom_site_fract_x
 _atom_site_fract_y
 _atom_site_fract_z
 _atom_site_occupancy
  Rb  Rb0  1  0.250000  0.074832  0.790827  1
  Rb  Rb1  1  0.750000  0.925168  0.209173  1
  La  La2  1  0.250000  0.387900  0.186838  1
  La  La3  1  0.750000  0.612100  0.813162  1
  Be  Be4  1  0.250000  0.767517  0.465444  1
  Be  Be5  1  0.750000  0.232483  0.534556  1
  F  F6  1  0.455743  0.765919  0.588198  1
  F  F7  1  0.544257  0.234081  0.411802  1
  F  F8  1  0.955743  0.234081  0.411802  1
  F  F9  1  0.044257  0.765919  0.588198  1
  F  F10  1  0.250000  0.566357  0.412310  1
  F  F11  1  0.750000  0.433643  0.587690  1
  F  F12  1  0.498750  0.682826  0.029306  1
  F  F13  1  0.501250  0.317174  0.970694  1
  F  F14  1  0.998750  0.317174  0.970694  1
  F  F15  1  0.001250  0.682826  0.029306  1
  F  F16  1  0.250000  0.980776  0.277011  1
  F  F17  1  0.750000  0.019224  0.722989  1
