# generated using pymatgen
data_Dy(Lu2Zn)4
_symmetry_space_group_name_H-M   'P 1'
_cell_length_a   8.36962179
_cell_length_b   8.36962239
_cell_length_c   8.37794253
_cell_angle_alpha   94.89928918
_cell_angle_beta   95.22941648
_cell_angle_gamma   145.41408529
_symmetry_Int_Tables_number   1
_chemical_formula_structural   Dy(Lu2Zn)4
_chemical_formula_sum   'Dy1 Lu8 Zn4'
_cell_volume   318.10754966
_cell_formula_units_Z   1
loop_
 _symmetry_equiv_pos_site_id
 _symmetry_equiv_pos_as_xyz
  1  'x, y, z'
loop_
 _atom_site_type_symbol
 _atom_site_label
 _atom_site_symmetry_multiplicity
 _atom_site_fract_x
 _atom_site_fract_y
 _atom_site_fract_z
 _atom_site_occupancy
  Dy  Dy0  1  0.817897  0.111310  0.929206  1
  Lu  Lu1  1  0.500908  0.499568  0.000478  1
  Lu  Lu2  1  0.181848  0.889113  0.070963  1
  Lu  Lu3  1  0.111551  0.181488  0.293040  1
  Lu  Lu4  1  0.883143  0.402118  0.285264  1
  Lu  Lu5  1  0.598535  0.882395  0.480932  1
  Lu  Lu6  1  0.401117  0.116301  0.517417  1
  Lu  Lu7  1  0.115730  0.598816  0.714545  1
  Lu  Lu8  1  0.889266  0.817495  0.706764  1
  Zn  Zn9  1  0.393101  0.736578  0.129680  1
  Zn  Zn10  1  0.735998  0.607774  0.343775  1
  Zn  Zn11  1  0.264313  0.391891  0.656203  1
  Zn  Zn12  1  0.606587  0.265145  0.871732  1
