# generated using pymatgen
data_Er6HfCo17As12
_symmetry_space_group_name_H-M   'P 1'
_cell_length_a   3.81442400
_cell_length_b   10.97070700
_cell_length_c   12.73735700
_cell_angle_alpha   90.00000000
_cell_angle_beta   90.00000000
_cell_angle_gamma   90.00000000
_symmetry_Int_Tables_number   1
_chemical_formula_structural   Er6HfCo17As12
_chemical_formula_sum   'Er6 Hf1 Co17 As12'
_cell_volume   533.01926228
_cell_formula_units_Z   1
loop_
 _symmetry_equiv_pos_site_id
 _symmetry_equiv_pos_as_xyz
  1  'x, y, z'
loop_
 _atom_site_type_symbol
 _atom_site_label
 _atom_site_symmetry_multiplicity
 _atom_site_fract_x
 _atom_site_fract_y
 _atom_site_fract_z
 _atom_site_occupancy
  Er  Er0  1  0.000000  0.500000  0.530400  1
  Er  Er1  1  0.500000  0.000000  0.475294  1
  Er  Er2  1  0.500000  0.822379  0.208629  1
  Er  Er3  1  0.500000  0.177621  0.208629  1
  Er  Er4  1  0.000000  0.681267  0.796723  1
  Er  Er5  1  0.000000  0.318733  0.796723  1
  Hf  Hf6  1  0.500000  0.500000  0.153799  1
  Co  Co7  1  0.000000  0.000000  0.839445  1
  Co  Co8  1  0.500000  0.500000  0.702199  1
  Co  Co9  1  0.000000  0.000000  0.297862  1
  Co  Co10  1  0.000000  0.500000  0.986810  1
  Co  Co11  1  0.500000  0.000000  0.013533  1
  Co  Co12  1  0.500000  0.327953  0.991023  1
  Co  Co13  1  0.500000  0.672047  0.991023  1
  Co  Co14  1  0.000000  0.161834  0.000145  1
  Co  Co15  1  0.000000  0.838166  0.000145  1
  Co  Co16  1  0.500000  0.295118  0.433799  1
  Co  Co17  1  0.500000  0.704882  0.433799  1
  Co  Co18  1  0.000000  0.201502  0.569900  1
  Co  Co19  1  0.000000  0.798498  0.569900  1
  Co  Co20  1  0.500000  0.880183  0.704652  1
  Co  Co21  1  0.500000  0.119817  0.704652  1
  Co  Co22  1  0.000000  0.622212  0.294285  1
  Co  Co23  1  0.000000  0.377788  0.294285  1
  As  As24  1  0.500000  0.500000  0.880157  1
  As  As25  1  0.000000  0.000000  0.119048  1
  As  As26  1  0.500000  0.500000  0.362233  1
  As  As27  1  0.000000  0.000000  0.651214  1
  As  As28  1  0.500000  0.312416  0.618224  1
  As  As29  1  0.500000  0.687584  0.618224  1
  As  As30  1  0.000000  0.186246  0.385447  1
  As  As31  1  0.000000  0.813754  0.385447  1
  As  As32  1  0.500000  0.850153  0.885906  1
  As  As33  1  0.500000  0.149847  0.885906  1
  As  As34  1  0.000000  0.666036  0.105268  1
  As  As35  1  0.000000  0.333964  0.105268  1
