# generated using pymatgen
data_Ba4ErReWO12
_symmetry_space_group_name_H-M   'P 1'
_cell_length_a   10.13889878
_cell_length_b   10.13889864
_cell_length_c   10.13889907
_cell_angle_alpha   33.90136100
_cell_angle_beta   33.90135920
_cell_angle_gamma   33.90136080
_symmetry_Int_Tables_number   1
_chemical_formula_structural   Ba4ErReWO12
_chemical_formula_sum   'Ba4 Er1 Re1 W1 O12'
_cell_volume   288.97774474
_cell_formula_units_Z   1
loop_
 _symmetry_equiv_pos_site_id
 _symmetry_equiv_pos_as_xyz
  1  'x, y, z'
loop_
 _atom_site_type_symbol
 _atom_site_label
 _atom_site_symmetry_multiplicity
 _atom_site_fract_x
 _atom_site_fract_y
 _atom_site_fract_z
 _atom_site_occupancy
  Ba  Ba0  1  0.709183  0.709183  0.709183  1
  Ba  Ba1  1  0.287381  0.287381  0.287381  1
  Ba  Ba2  1  0.869060  0.869060  0.869060  1
  Ba  Ba3  1  0.137455  0.137455  0.137455  1
  Er  Er4  1  0.999685  0.999685  0.999685  1
  Re  Re5  1  0.420766  0.420766  0.420766  1
  W  W6  1  0.578542  0.578542  0.578542  1
  O  O7  1  0.385524  0.385524  0.863730  1
  O  O8  1  0.863730  0.385524  0.385524  1
  O  O9  1  0.385524  0.863730  0.385524  1
  O  O10  1  0.608162  0.608162  0.144268  1
  O  O11  1  0.144268  0.608162  0.608162  1
  O  O12  1  0.608162  0.144268  0.608162  1
  O  O13  1  0.225063  0.225063  0.684019  1
  O  O14  1  0.684019  0.225063  0.225063  1
  O  O15  1  0.225063  0.684019  0.225063  1
  O  O16  1  0.779122  0.779122  0.310170  1
  O  O17  1  0.310170  0.779122  0.779122  1
  O  O18  1  0.779122  0.310170  0.779122  1
