# generated using pymatgen
data_Hf3Ti3Si2Ge
_symmetry_space_group_name_H-M   'P 1'
_cell_length_a   7.03690600
_cell_length_b   7.03690619
_cell_length_c   3.66716900
_cell_angle_alpha   90.00000000
_cell_angle_beta   90.00000000
_cell_angle_gamma   120.00000852
_symmetry_Int_Tables_number   1
_chemical_formula_structural   Hf3Ti3Si2Ge
_chemical_formula_sum   'Hf3 Ti3 Si2 Ge1'
_cell_volume   157.26244742
_cell_formula_units_Z   1
loop_
 _symmetry_equiv_pos_site_id
 _symmetry_equiv_pos_as_xyz
  1  'x, y, z'
loop_
 _atom_site_type_symbol
 _atom_site_label
 _atom_site_symmetry_multiplicity
 _atom_site_fract_x
 _atom_site_fract_y
 _atom_site_fract_z
 _atom_site_occupancy
  Hf  Hf0  1  0.400276  0.404473  0.500000  1
  Hf  Hf1  1  0.595527  0.995803  0.500000  1
  Hf  Hf2  1  0.004197  0.599724  0.500000  1
  Ti  Ti3  1  0.749982  0.751480  0.000000  1
  Ti  Ti4  1  0.248520  0.998501  0.000000  1
  Ti  Ti5  1  0.001499  0.250018  0.000000  1
  Si  Si6  1  0.333333  0.666667  0.000000  1
  Si  Si7  1  0.000000  0.000000  0.500000  1
  Ge  Ge8  1  0.666667  0.333333  0.000000  1
