# generated using pymatgen
data_Lu12Fe3Ag2
_symmetry_space_group_name_H-M   'P 1'
_cell_length_a   8.07407868
_cell_length_b   8.07407817
_cell_length_c   8.07407831
_cell_angle_alpha   108.35701090
_cell_angle_beta   108.35701459
_cell_angle_gamma   111.72338458
_symmetry_Int_Tables_number   1
_chemical_formula_structural   Lu12Fe3Ag2
_chemical_formula_sum   'Lu12 Fe3 Ag2'
_cell_volume   404.71680035
_cell_formula_units_Z   1
loop_
 _symmetry_equiv_pos_site_id
 _symmetry_equiv_pos_as_xyz
  1  'x, y, z'
loop_
 _atom_site_type_symbol
 _atom_site_label
 _atom_site_symmetry_multiplicity
 _atom_site_fract_x
 _atom_site_fract_y
 _atom_site_fract_z
 _atom_site_occupancy
  Lu  Lu0  1  0.310515  0.310515  0.621030  1
  Lu  Lu1  1  0.689485  0.689485  0.378970  1
  Lu  Lu2  1  0.689485  0.310515  0.000000  1
  Lu  Lu3  1  0.310515  0.689485  0.000000  1
  Lu  Lu4  1  0.189492  0.430510  0.241018  1
  Lu  Lu5  1  0.810508  0.569490  0.758982  1
  Lu  Lu6  1  0.189492  0.948473  0.758982  1
  Lu  Lu7  1  0.948473  0.189492  0.758982  1
  Lu  Lu8  1  0.810508  0.051527  0.241018  1
  Lu  Lu9  1  0.051527  0.810508  0.241018  1
  Lu  Lu10  1  0.430510  0.189492  0.241018  1
  Lu  Lu11  1  0.569490  0.810508  0.758982  1
  Fe  Fe12  1  0.378327  0.378327  0.000000  1
  Fe  Fe13  1  0.621673  0.621673  0.000000  1
  Fe  Fe14  1  0.000000  0.000000  0.000000  1
  Ag  Ag15  1  0.000000  0.500000  0.500000  1
  Ag  Ag16  1  0.500000  0.000000  0.500000  1
