# generated using pymatgen
data_Sc2TlNi2
_symmetry_space_group_name_H-M   'P 1'
_cell_length_a   7.15835292
_cell_length_b   7.15835220
_cell_length_c   3.41583100
_cell_angle_alpha   90.00000000
_cell_angle_beta   90.00000000
_cell_angle_gamma   148.38360383
_symmetry_Int_Tables_number   1
_chemical_formula_structural   Sc2TlNi2
_chemical_formula_sum   'Sc2 Tl1 Ni2'
_cell_volume   91.75803414
_cell_formula_units_Z   1
loop_
 _symmetry_equiv_pos_site_id
 _symmetry_equiv_pos_as_xyz
  1  'x, y, z'
loop_
 _atom_site_type_symbol
 _atom_site_label
 _atom_site_symmetry_multiplicity
 _atom_site_fract_x
 _atom_site_fract_y
 _atom_site_fract_z
 _atom_site_occupancy
  Sc  Sc0  1  0.644066  0.355934  0.500000  1
  Sc  Sc1  1  0.355934  0.644066  0.500000  1
  Tl  Tl2  1  0.000000  0.000000  0.000000  1
  Ni  Ni3  1  0.802779  0.197221  0.000000  1
  Ni  Ni4  1  0.197221  0.802779  0.000000  1
