# generated using pymatgen
data_Nd5Ge3Sb9Rh19
_symmetry_space_group_name_H-M   'P 1'
_cell_length_a   13.63044500
_cell_length_b   13.63044420
_cell_length_c   4.19560300
_cell_angle_alpha   90.00000000
_cell_angle_beta   90.00000000
_cell_angle_gamma   119.99999951
_symmetry_Int_Tables_number   1
_chemical_formula_structural   Nd5Ge3Sb9Rh19
_chemical_formula_sum   'Nd5 Ge3 Sb9 Rh19'
_cell_volume   675.06418121
_cell_formula_units_Z   1
loop_
 _symmetry_equiv_pos_site_id
 _symmetry_equiv_pos_as_xyz
  1  'x, y, z'
loop_
 _atom_site_type_symbol
 _atom_site_label
 _atom_site_symmetry_multiplicity
 _atom_site_fract_x
 _atom_site_fract_y
 _atom_site_fract_z
 _atom_site_occupancy
  Nd  Nd0  1  0.000000  0.183672  0.500000  1
  Nd  Nd1  1  0.816328  0.816328  0.500000  1
  Nd  Nd2  1  0.183672  0.000000  0.500000  1
  Nd  Nd3  1  0.666667  0.333333  0.000000  1
  Nd  Nd4  1  0.333333  0.666667  0.000000  1
  Ge  Ge5  1  0.823007  0.000000  0.000000  1
  Ge  Ge6  1  0.176993  0.176993  0.000000  1
  Ge  Ge7  1  0.000000  0.823007  0.000000  1
  Sb  Sb8  1  0.478324  0.320918  0.500000  1
  Sb  Sb9  1  0.372267  0.000000  0.000000  1
  Sb  Sb10  1  0.679082  0.157406  0.500000  1
  Sb  Sb11  1  0.842594  0.521676  0.500000  1
  Sb  Sb12  1  0.521676  0.842594  0.500000  1
  Sb  Sb13  1  0.157406  0.679082  0.500000  1
  Sb  Sb14  1  0.320918  0.478324  0.500000  1
  Sb  Sb15  1  0.000000  0.372267  0.000000  1
  Sb  Sb16  1  0.627733  0.627733  0.000000  1
  Rh  Rh17  1  0.808115  0.173809  0.000000  1
  Rh  Rh18  1  0.365694  0.191885  0.000000  1
  Rh  Rh19  1  0.651055  0.522340  0.500000  1
  Rh  Rh20  1  0.871285  0.348945  0.500000  1
  Rh  Rh21  1  0.348945  0.871285  0.500000  1
  Rh  Rh22  1  0.522340  0.651055  0.500000  1
  Rh  Rh23  1  0.128715  0.477660  0.500000  1
  Rh  Rh24  1  0.826191  0.634306  0.000000  1
  Rh  Rh25  1  0.634306  0.826191  0.000000  1
  Rh  Rh26  1  0.173809  0.808115  0.000000  1
  Rh  Rh27  1  0.191885  0.365694  0.000000  1
  Rh  Rh28  1  0.000000  0.733275  0.500000  1
  Rh  Rh29  1  0.266725  0.266725  0.500000  1
  Rh  Rh30  1  0.733275  0.000000  0.500000  1
  Rh  Rh31  1  0.000000  0.564642  0.000000  1
  Rh  Rh32  1  0.435358  0.435358  0.000000  1
  Rh  Rh33  1  0.564642  0.000000  0.000000  1
  Rh  Rh34  1  0.000000  0.000000  0.000000  1
  Rh  Rh35  1  0.477660  0.128715  0.500000  1
