# generated using pymatgen
data_Y3TcB7
_symmetry_space_group_name_H-M   'P 1'
_cell_length_a   8.11005262
_cell_length_b   8.11005183
_cell_length_c   9.37515500
_cell_angle_alpha   90.00000000
_cell_angle_beta   90.00000000
_cell_angle_gamma   154.77731416
_symmetry_Int_Tables_number   1
_chemical_formula_structural   Y3TcB7
_chemical_formula_sum   'Y6 Tc2 B14'
_cell_volume   262.76984800
_cell_formula_units_Z   2
loop_
 _symmetry_equiv_pos_site_id
 _symmetry_equiv_pos_as_xyz
  1  'x, y, z'
loop_
 _atom_site_type_symbol
 _atom_site_label
 _atom_site_symmetry_multiplicity
 _atom_site_fract_x
 _atom_site_fract_y
 _atom_site_fract_z
 _atom_site_occupancy
  Y  Y0  1  0.895197  0.104803  0.939732  1
  Y  Y1  1  0.104803  0.895197  0.060268  1
  Y  Y2  1  0.758183  0.241817  0.250000  1
  Y  Y3  1  0.241817  0.758183  0.750000  1
  Y  Y4  1  0.895197  0.104803  0.560268  1
  Y  Y5  1  0.104803  0.895197  0.439732  1
  Tc  Tc6  1  0.052966  0.947034  0.750000  1
  Tc  Tc7  1  0.947034  0.052966  0.250000  1
  B  B8  1  0.541746  0.458254  0.250000  1
  B  B9  1  0.458254  0.541746  0.750000  1
  B  B10  1  0.521034  0.478966  0.904120  1
  B  B11  1  0.478966  0.521034  0.095880  1
  B  B12  1  0.478966  0.521034  0.404120  1
  B  B13  1  0.521034  0.478966  0.595880  1
  B  B14  1  0.631774  0.368226  0.848944  1
  B  B15  1  0.368226  0.631774  0.151056  1
  B  B16  1  0.727132  0.272868  0.966622  1
  B  B17  1  0.272868  0.727132  0.033378  1
  B  B18  1  0.272868  0.727132  0.466622  1
  B  B19  1  0.727132  0.272868  0.533378  1
  B  B20  1  0.631774  0.368226  0.651056  1
  B  B21  1  0.368226  0.631774  0.348944  1
