# generated using pymatgen
data_Ho16Tm4Sn15Pb
_symmetry_space_group_name_H-M   'P 1'
_cell_length_a   8.05750441
_cell_length_b   8.13045910
_cell_length_c   15.42859900
_cell_angle_alpha   89.99904160
_cell_angle_beta   90.08758449
_cell_angle_gamma   89.89717093
_symmetry_Int_Tables_number   1
_chemical_formula_structural   Ho16Tm4Sn15Pb
_chemical_formula_sum   'Ho16 Tm4 Sn15 Pb1'
_cell_volume   1010.74338098
_cell_formula_units_Z   1
loop_
 _symmetry_equiv_pos_site_id
 _symmetry_equiv_pos_as_xyz
  1  'x, y, z'
loop_
 _atom_site_type_symbol
 _atom_site_label
 _atom_site_symmetry_multiplicity
 _atom_site_fract_x
 _atom_site_fract_y
 _atom_site_fract_z
 _atom_site_occupancy
  Ho  Ho0  1  0.378566  0.837431  0.878395  1
  Ho  Ho1  1  0.877471  0.661980  0.621459  1
  Ho  Ho2  1  0.622312  0.161951  0.378774  1
  Ho  Ho3  1  0.124189  0.338075  0.121542  1
  Ho  Ho4  1  0.621030  0.159580  0.122011  1
  Ho  Ho5  1  0.123070  0.338040  0.378901  1
  Ho  Ho6  1  0.377918  0.837552  0.621366  1
  Ho  Ho7  1  0.878533  0.663302  0.877490  1
  Ho  Ho8  1  0.529196  0.321018  0.899382  1
  Ho  Ho9  1  0.030320  0.178004  0.598884  1
  Ho  Ho10  1  0.468962  0.677318  0.401107  1
  Ho  Ho11  1  0.969572  0.825408  0.099649  1
  Ho  Ho12  1  0.465217  0.679347  0.100094  1
  Ho  Ho13  1  0.969491  0.822381  0.401412  1
  Ho  Ho14  1  0.531041  0.322786  0.599360  1
  Ho  Ho15  1  0.032684  0.176208  0.899839  1
  Tm  Tm16  1  0.208927  0.504175  0.749864  1
  Tm  Tm17  1  0.708912  0.995885  0.749992  1
  Tm  Tm18  1  0.791395  0.495716  0.251526  1
  Tm  Tm19  1  0.290960  0.004182  0.250168  1
  Sn  Sn20  1  0.284854  0.033595  0.042095  1
  Sn  Sn21  1  0.785150  0.465712  0.458023  1
  Sn  Sn22  1  0.714936  0.966331  0.542682  1
  Sn  Sn23  1  0.215183  0.533465  0.957198  1
  Sn  Sn24  1  0.715819  0.966866  0.957361  1
  Sn  Sn25  1  0.215013  0.534130  0.542553  1
  Sn  Sn26  1  0.285290  0.033898  0.457677  1
  Sn  Sn27  1  0.575157  0.620045  0.749805  1
  Sn  Sn28  1  0.075177  0.879732  0.749653  1
  Sn  Sn29  1  0.425404  0.380481  0.250043  1
  Sn  Sn30  1  0.925112  0.120518  0.250073  1
  Sn  Sn31  1  0.340988  0.148059  0.749295  1
  Sn  Sn32  1  0.841396  0.351319  0.749882  1
  Sn  Sn33  1  0.659093  0.850701  0.250494  1
  Sn  Sn34  1  0.158315  0.648923  0.250394  1
  Pb  Pb35  1  0.783347  0.465886  0.041557  1
