# generated using pymatgen
data_Hf4Ta6BeSi7
_symmetry_space_group_name_H-M   'P 1'
_cell_length_a   6.62492944
_cell_length_b   6.78467929
_cell_length_c   13.04033100
_cell_angle_alpha   90.00000000
_cell_angle_beta   90.00000000
_cell_angle_gamma   89.70140198
_symmetry_Int_Tables_number   1
_chemical_formula_structural   Hf4Ta6BeSi7
_chemical_formula_sum   'Hf8 Ta12 Be2 Si14'
_cell_volume   586.12911931
_cell_formula_units_Z   2
loop_
 _symmetry_equiv_pos_site_id
 _symmetry_equiv_pos_as_xyz
  1  'x, y, z'
loop_
 _atom_site_type_symbol
 _atom_site_label
 _atom_site_symmetry_multiplicity
 _atom_site_fract_x
 _atom_site_fract_y
 _atom_site_fract_z
 _atom_site_occupancy
  Hf  Hf0  1  0.996189  0.170194  0.093782  1
  Hf  Hf1  1  0.003811  0.829806  0.906218  1
  Hf  Hf2  1  0.503034  0.673524  0.905559  1
  Hf  Hf3  1  0.003811  0.829806  0.593782  1
  Hf  Hf4  1  0.496966  0.326476  0.094441  1
  Hf  Hf5  1  0.996189  0.170194  0.406218  1
  Hf  Hf6  1  0.496966  0.326476  0.405559  1
  Hf  Hf7  1  0.503034  0.673524  0.594441  1
  Ta  Ta8  1  0.162508  0.494338  0.750000  1
  Ta  Ta9  1  0.837492  0.505662  0.250000  1
  Ta  Ta10  1  0.335403  0.994856  0.250000  1
  Ta  Ta11  1  0.664597  0.005144  0.750000  1
  Ta  Ta12  1  0.332480  0.170861  0.624649  1
  Ta  Ta13  1  0.667520  0.829139  0.375351  1
  Ta  Ta14  1  0.157529  0.676809  0.373860  1
  Ta  Ta15  1  0.667520  0.829139  0.124649  1
  Ta  Ta16  1  0.842471  0.323191  0.626140  1
  Ta  Ta17  1  0.332480  0.170861  0.875351  1
  Ta  Ta18  1  0.842471  0.323191  0.873860  1
  Ta  Ta19  1  0.157529  0.676809  0.126140  1
  Be  Be20  1  0.043852  0.113186  0.750000  1
  Be  Be21  1  0.956148  0.886814  0.250000  1
  Si  Si22  1  0.460518  0.613172  0.250000  1
  Si  Si23  1  0.539482  0.386828  0.750000  1
  Si  Si24  1  0.284946  0.869516  0.750000  1
  Si  Si25  1  0.715054  0.130484  0.250000  1
  Si  Si26  1  0.203620  0.359438  0.250000  1
  Si  Si27  1  0.796380  0.640562  0.750000  1
  Si  Si28  1  0.171787  0.465623  0.536569  1
  Si  Si29  1  0.828213  0.534377  0.463431  1
  Si  Si30  1  0.329091  0.964863  0.461257  1
  Si  Si31  1  0.828213  0.534377  0.036569  1
  Si  Si32  1  0.670909  0.035137  0.538743  1
  Si  Si33  1  0.171787  0.465623  0.963431  1
  Si  Si34  1  0.670909  0.035137  0.961257  1
  Si  Si35  1  0.329091  0.964863  0.038743  1
