# generated using pymatgen
data_Ba3SrSiSn
_symmetry_space_group_name_H-M   'P 1'
_cell_length_a   5.45898000
_cell_length_b   8.77428353
_cell_length_c   10.18119625
_cell_angle_alpha   87.73831655
_cell_angle_beta   90.00000000
_cell_angle_gamma   90.00000000
_symmetry_Int_Tables_number   1
_chemical_formula_structural   Ba3SrSiSn
_chemical_formula_sum   'Ba6 Sr2 Si2 Sn2'
_cell_volume   487.28554999
_cell_formula_units_Z   2
loop_
 _symmetry_equiv_pos_site_id
 _symmetry_equiv_pos_as_xyz
  1  'x, y, z'
loop_
 _atom_site_type_symbol
 _atom_site_label
 _atom_site_symmetry_multiplicity
 _atom_site_fract_x
 _atom_site_fract_y
 _atom_site_fract_z
 _atom_site_occupancy
  Ba  Ba0  1  0.250000  0.987100  0.316699  1
  Ba  Ba1  1  0.750000  0.012900  0.683301  1
  Ba  Ba2  1  0.250000  0.465194  0.165790  1
  Ba  Ba3  1  0.750000  0.534806  0.834210  1
  Ba  Ba4  1  0.750000  0.658864  0.403745  1
  Ba  Ba5  1  0.250000  0.341136  0.596255  1
  Sr  Sr6  1  0.750000  0.137339  0.063249  1
  Sr  Sr7  1  0.250000  0.862661  0.936751  1
  Si  Si8  1  0.250000  0.232745  0.913311  1
  Si  Si9  1  0.750000  0.767255  0.086689  1
  Sn  Sn10  1  0.250000  0.746575  0.618652  1
  Sn  Sn11  1  0.750000  0.253425  0.381348  1
