# generated using pymatgen
data_Ho2Mn3Si7Pt9
_symmetry_space_group_name_H-M   'P 1'
_cell_length_a   9.89653000
_cell_length_b   9.89653116
_cell_length_c   3.91925500
_cell_angle_alpha   90.00000000
_cell_angle_beta   90.00000000
_cell_angle_gamma   119.99999880
_symmetry_Int_Tables_number   1
_chemical_formula_structural   Ho2Mn3Si7Pt9
_chemical_formula_sum   'Ho2 Mn3 Si7 Pt9'
_cell_volume   332.42991615
_cell_formula_units_Z   1
loop_
 _symmetry_equiv_pos_site_id
 _symmetry_equiv_pos_as_xyz
  1  'x, y, z'
loop_
 _atom_site_type_symbol
 _atom_site_label
 _atom_site_symmetry_multiplicity
 _atom_site_fract_x
 _atom_site_fract_y
 _atom_site_fract_z
 _atom_site_occupancy
  Ho  Ho0  1  0.000000  0.000000  0.000000  1
  Ho  Ho1  1  0.333333  0.666667  0.500000  1
  Mn  Mn2  1  0.883106  0.454579  0.500000  1
  Mn  Mn3  1  0.571473  0.116894  0.500000  1
  Mn  Mn4  1  0.545421  0.428527  0.500000  1
  Si  Si5  1  0.260512  0.216434  0.500000  1
  Si  Si6  1  0.783566  0.044079  0.500000  1
  Si  Si7  1  0.955921  0.739488  0.500000  1
  Si  Si8  1  0.552384  0.632075  0.000000  1
  Si  Si9  1  0.367925  0.920307  0.000000  1
  Si  Si10  1  0.079693  0.447616  0.000000  1
  Si  Si11  1  0.666667  0.333333  0.000000  1
  Pt  Pt12  1  0.223028  0.946645  0.500000  1
  Pt  Pt13  1  0.053355  0.276384  0.500000  1
  Pt  Pt14  1  0.723616  0.776972  0.500000  1
  Pt  Pt15  1  0.302972  0.408572  0.000000  1
  Pt  Pt16  1  0.591428  0.894400  0.000000  1
  Pt  Pt17  1  0.105600  0.697028  0.000000  1
  Pt  Pt18  1  0.393622  0.177519  0.000000  1
  Pt  Pt19  1  0.822481  0.216102  0.000000  1
  Pt  Pt20  1  0.783898  0.606378  0.000000  1
