# generated using pymatgen
data_Dy2Er10TcOs3
_symmetry_space_group_name_H-M   'P 1'
_cell_length_a   6.26663610
_cell_length_b   7.38662484
_cell_length_c   8.99046000
_cell_angle_alpha   90.00000000
_cell_angle_beta   90.00000000
_cell_angle_gamma   90.05550229
_symmetry_Int_Tables_number   1
_chemical_formula_structural   Dy2Er10TcOs3
_chemical_formula_sum   'Dy2 Er10 Tc1 Os3'
_cell_volume   416.16181335
_cell_formula_units_Z   1
loop_
 _symmetry_equiv_pos_site_id
 _symmetry_equiv_pos_as_xyz
  1  'x, y, z'
loop_
 _atom_site_type_symbol
 _atom_site_label
 _atom_site_symmetry_multiplicity
 _atom_site_fract_x
 _atom_site_fract_y
 _atom_site_fract_z
 _atom_site_occupancy
  Dy  Dy0  1  0.872059  0.539542  0.250000  1
  Dy  Dy1  1  0.626467  0.039358  0.250000  1
  Er  Er2  1  0.335471  0.674831  0.062180  1
  Er  Er3  1  0.165495  0.175421  0.437586  1
  Er  Er4  1  0.666555  0.324401  0.562849  1
  Er  Er5  1  0.834540  0.824988  0.936557  1
  Er  Er6  1  0.666555  0.324401  0.937151  1
  Er  Er7  1  0.834540  0.824988  0.563443  1
  Er  Er8  1  0.335471  0.674831  0.437820  1
  Er  Er9  1  0.165495  0.175421  0.062414  1
  Er  Er10  1  0.129943  0.459909  0.750000  1
  Er  Er11  1  0.369522  0.960650  0.750000  1
  Tc  Tc12  1  0.039289  0.882802  0.250000  1
  Os  Os13  1  0.459319  0.382333  0.250000  1
  Os  Os14  1  0.959650  0.118592  0.750000  1
  Os  Os15  1  0.539627  0.617534  0.750000  1
