# generated using pymatgen
data_DyLu19(SiBi2)4
_symmetry_space_group_name_H-M   'P 1'
_cell_length_a   7.90427750
_cell_length_b   9.03836000
_cell_length_c   11.79509675
_cell_angle_alpha   90.00000000
_cell_angle_beta   89.95911543
_cell_angle_gamma   90.00000000
_symmetry_Int_Tables_number   1
_chemical_formula_structural   DyLu19(SiBi2)4
_chemical_formula_sum   'Dy1 Lu19 Si4 Bi8'
_cell_volume   842.66161521
_cell_formula_units_Z   1
loop_
 _symmetry_equiv_pos_site_id
 _symmetry_equiv_pos_as_xyz
  1  'x, y, z'
loop_
 _atom_site_type_symbol
 _atom_site_label
 _atom_site_symmetry_multiplicity
 _atom_site_fract_x
 _atom_site_fract_y
 _atom_site_fract_z
 _atom_site_occupancy
  Dy  Dy0  1  0.138033  0.250000  0.205270  1
  Lu  Lu1  1  0.820513  0.555625  0.062330  1
  Lu  Lu2  1  0.679600  0.944138  0.562436  1
  Lu  Lu3  1  0.179454  0.055381  0.937088  1
  Lu  Lu4  1  0.320701  0.444865  0.438359  1
  Lu  Lu5  1  0.179454  0.444619  0.937088  1
  Lu  Lu6  1  0.320701  0.055135  0.438359  1
  Lu  Lu7  1  0.820513  0.944375  0.062330  1
  Lu  Lu8  1  0.679600  0.555862  0.562436  1
  Lu  Lu9  1  0.164358  0.750000  0.211849  1
  Lu  Lu10  1  0.335106  0.750000  0.711896  1
  Lu  Lu11  1  0.834115  0.250000  0.786970  1
  Lu  Lu12  1  0.664032  0.250000  0.288437  1
  Lu  Lu13  1  0.460670  0.750000  0.001580  1
  Lu  Lu14  1  0.039280  0.750000  0.502269  1
  Lu  Lu15  1  0.539267  0.250000  0.997967  1
  Lu  Lu16  1  0.959965  0.250000  0.498867  1
  Lu  Lu17  1  0.637608  0.750000  0.294538  1
  Lu  Lu18  1  0.862785  0.750000  0.794478  1
  Lu  Lu19  1  0.363000  0.250000  0.705662  1
  Si  Si20  1  0.410379  0.750000  0.477829  1
  Si  Si21  1  0.089847  0.750000  0.977764  1
  Si  Si22  1  0.589970  0.250000  0.522622  1
  Si  Si23  1  0.908708  0.250000  0.019767  1
  Bi  Bi24  1  0.930498  0.511836  0.326444  1
  Bi  Bi25  1  0.568457  0.988740  0.825483  1
  Bi  Bi26  1  0.068827  0.010967  0.674489  1
  Bi  Bi27  1  0.433388  0.490160  0.174487  1
  Bi  Bi28  1  0.068827  0.489033  0.674489  1
  Bi  Bi29  1  0.433388  0.009840  0.174487  1
  Bi  Bi30  1  0.930498  0.988164  0.326444  1
  Bi  Bi31  1  0.568457  0.511260  0.825483  1
