# generated using pymatgen
data_LiRe(S8F3)2
_symmetry_space_group_name_H-M   'P 1'
_cell_length_a   7.77467200
_cell_length_b   9.48320328
_cell_length_c   15.58702500
_cell_angle_alpha   101.23545505
_cell_angle_beta   90.00000000
_cell_angle_gamma   114.19968563
_symmetry_Int_Tables_number   1
_chemical_formula_structural   LiRe(S8F3)2
_chemical_formula_sum   'Li2 Re2 S32 F12'
_cell_volume   1024.02776150
_cell_formula_units_Z   2
loop_
 _symmetry_equiv_pos_site_id
 _symmetry_equiv_pos_as_xyz
  1  'x, y, z'
loop_
 _atom_site_type_symbol
 _atom_site_label
 _atom_site_symmetry_multiplicity
 _atom_site_fract_x
 _atom_site_fract_y
 _atom_site_fract_z
 _atom_site_occupancy
  Li  Li0  1  0.618666  0.000000  0.250000  1
  Li  Li1  1  0.381334  0.000000  0.750000  1
  Re  Re2  1  0.500001  0.000000  0.000000  1
  Re  Re3  1  0.500000  0.000000  0.500000  1
  S  S4  1  0.705795  0.702332  0.058681  1
  S  S5  1  0.915699  0.628128  0.074975  1
  S  S6  1  0.479765  0.574570  0.120783  1
  S  S7  1  0.064519  0.157948  0.145856  1
  S  S8  1  0.970115  0.332744  0.161514  1
  S  S9  1  0.116199  0.803342  0.168354  1
  S  S10  1  0.331743  0.255365  0.211283  1
  S  S11  1  0.483022  0.704333  0.244085  1
  S  S12  1  0.778689  0.295667  0.255915  1
  S  S13  1  0.076377  0.744635  0.288716  1
  S  S14  1  0.312858  0.196658  0.331645  1
  S  S15  1  0.637371  0.667256  0.338486  1
  S  S16  1  0.906571  0.842052  0.354144  1
  S  S17  1  0.905196  0.425430  0.379216  1
  S  S18  1  0.287572  0.371872  0.425024  1
  S  S19  1  0.003462  0.297667  0.441319  1
  S  S20  1  0.996538  0.702333  0.558682  1
  S  S21  1  0.712429  0.628128  0.574976  1
  S  S22  1  0.094805  0.574571  0.620783  1
  S  S23  1  0.093429  0.157949  0.645856  1
  S  S24  1  0.362630  0.332745  0.661514  1
  S  S25  1  0.687143  0.803342  0.668355  1
  S  S26  1  0.923622  0.255366  0.711284  1
  S  S27  1  0.221311  0.704333  0.744085  1
  S  S28  1  0.516978  0.295667  0.755915  1
  S  S29  1  0.668257  0.744635  0.788716  1
  S  S30  1  0.883800  0.196658  0.831645  1
  S  S31  1  0.029885  0.667256  0.838486  1
  S  S32  1  0.935481  0.842052  0.854144  1
  S  S33  1  0.520234  0.425430  0.879217  1
  S  S34  1  0.084301  0.371872  0.925024  1
  S  S35  1  0.294205  0.297667  0.941318  1
  F  F36  1  0.248245  0.963851  0.023604  1
  F  F37  1  0.575560  0.220573  0.038424  1
  F  F38  1  0.558186  0.984815  0.121718  1
  F  F39  1  0.573371  0.015185  0.378282  1
  F  F40  1  0.354988  0.779427  0.461576  1
  F  F41  1  0.284394  0.036149  0.476396  1
  F  F42  1  0.715605  0.963851  0.523604  1
  F  F43  1  0.645013  0.220572  0.538424  1
  F  F44  1  0.426629  0.984815  0.621718  1
  F  F45  1  0.441813  0.015185  0.878282  1
  F  F46  1  0.424439  0.779427  0.961576  1
  F  F47  1  0.751755  0.036149  0.976396  1
