# generated using pymatgen
data_Y5Si2PbO
_symmetry_space_group_name_H-M   'P 1'
_cell_length_a   8.78942156
_cell_length_b   8.78942316
_cell_length_c   8.78942300
_cell_angle_alpha   126.23410407
_cell_angle_beta   126.23409557
_cell_angle_gamma   79.50372014
_symmetry_Int_Tables_number   1
_chemical_formula_structural   Y5Si2PbO
_chemical_formula_sum   'Y10 Si4 Pb2 O2'
_cell_volume   426.94159688
_cell_formula_units_Z   2
loop_
 _symmetry_equiv_pos_site_id
 _symmetry_equiv_pos_as_xyz
  1  'x, y, z'
loop_
 _atom_site_type_symbol
 _atom_site_label
 _atom_site_symmetry_multiplicity
 _atom_site_fract_x
 _atom_site_fract_y
 _atom_site_fract_z
 _atom_site_occupancy
  Y  Y0  1  0.492446  0.289089  0.500000  1
  Y  Y1  1  0.789089  0.992446  0.500000  1
  Y  Y2  1  0.992446  0.492446  0.203357  1
  Y  Y3  1  0.289089  0.789089  0.796643  1
  Y  Y4  1  0.510201  0.713441  0.500000  1
  Y  Y5  1  0.213441  0.010201  0.500000  1
  Y  Y6  1  0.010201  0.510201  0.796760  1
  Y  Y7  1  0.713441  0.213441  0.203240  1
  Y  Y8  1  0.501281  0.501281  0.000000  1
  Y  Y9  1  0.001281  0.001281  0.000000  1
  Si  Si10  1  0.150710  0.351787  0.500000  1
  Si  Si11  1  0.851787  0.650710  0.500000  1
  Si  Si12  1  0.650710  0.150710  0.798921  1
  Si  Si13  1  0.351787  0.851787  0.201079  1
  Pb  Pb14  1  0.751112  0.751112  0.000000  1
  Pb  Pb15  1  0.251112  0.251112  0.000000  1
  O  O16  1  0.751351  0.251351  0.500000  1
  O  O17  1  0.251351  0.751351  0.500000  1
