# generated using pymatgen
data_Lu12AlCo4Rh
_symmetry_space_group_name_H-M   'P 1'
_cell_length_a   8.08114330
_cell_length_b   8.08114247
_cell_length_c   8.08114261
_cell_angle_alpha   111.12313585
_cell_angle_beta   111.27301749
_cell_angle_gamma   106.07014204
_symmetry_Int_Tables_number   1
_chemical_formula_structural   Lu12AlCo4Rh
_chemical_formula_sum   'Lu12 Al1 Co4 Rh1'
_cell_volume   405.18675220
_cell_formula_units_Z   1
loop_
 _symmetry_equiv_pos_site_id
 _symmetry_equiv_pos_as_xyz
  1  'x, y, z'
loop_
 _atom_site_type_symbol
 _atom_site_label
 _atom_site_symmetry_multiplicity
 _atom_site_fract_x
 _atom_site_fract_y
 _atom_site_fract_z
 _atom_site_occupancy
  Lu  Lu0  1  0.583891  0.277634  0.306257  1
  Lu  Lu1  1  0.186041  0.214074  0.400115  1
  Lu  Lu2  1  0.186041  0.785926  0.971968  1
  Lu  Lu3  1  0.684074  0.488116  0.804042  1
  Lu  Lu4  1  0.684074  0.880032  0.195958  1
  Lu  Lu5  1  0.971376  0.277634  0.693743  1
  Lu  Lu6  1  0.028624  0.722366  0.306257  1
  Lu  Lu7  1  0.315926  0.119968  0.804042  1
  Lu  Lu8  1  0.315926  0.511884  0.195958  1
  Lu  Lu9  1  0.813959  0.214074  0.028032  1
  Lu  Lu10  1  0.813959  0.785926  0.599885  1
  Lu  Lu11  1  0.416109  0.722366  0.693743  1
  Al  Al12  1  0.500000  0.000000  0.500000  1
  Co  Co13  1  0.885783  0.885783  0.000000  1
  Co  Co14  1  0.373259  0.500000  0.873259  1
  Co  Co15  1  0.626741  0.500000  0.126741  1
  Co  Co16  1  0.114217  0.114217  0.000000  1
  Rh  Rh17  1  0.000000  0.500000  0.500000  1
