# generated using pymatgen
data_CaIn3GaRh
_symmetry_space_group_name_H-M   'P 1'
_cell_length_a   4.29211200
_cell_length_b   7.52309100
_cell_length_c   8.29635400
_cell_angle_alpha   90.00000000
_cell_angle_beta   90.00000000
_cell_angle_gamma   90.00000000
_symmetry_Int_Tables_number   1
_chemical_formula_structural   CaIn3GaRh
_chemical_formula_sum   'Ca2 In6 Ga2 Rh2'
_cell_volume   267.88884886
_cell_formula_units_Z   2
loop_
 _symmetry_equiv_pos_site_id
 _symmetry_equiv_pos_as_xyz
  1  'x, y, z'
loop_
 _atom_site_type_symbol
 _atom_site_label
 _atom_site_symmetry_multiplicity
 _atom_site_fract_x
 _atom_site_fract_y
 _atom_site_fract_z
 _atom_site_occupancy
  Ca  Ca0  1  0.000000  0.398774  0.250000  1
  Ca  Ca1  1  0.000000  0.601226  0.750000  1
  In  In2  1  0.500000  0.069982  0.250000  1
  In  In3  1  0.500000  0.930018  0.750000  1
  In  In4  1  0.500000  0.690921  0.059749  1
  In  In5  1  0.500000  0.309079  0.940251  1
  In  In6  1  0.500000  0.690921  0.440251  1
  In  In7  1  0.500000  0.309079  0.559749  1
  Ga  Ga8  1  0.000000  0.000000  0.000000  1
  Ga  Ga9  1  0.000000  0.000000  0.500000  1
  Rh  Rh10  1  0.000000  0.823757  0.250000  1
  Rh  Rh11  1  0.000000  0.176243  0.750000  1
