# generated using pymatgen
data_CeSmTh2(ReC2)2
_symmetry_space_group_name_H-M   'P 1'
_cell_length_a   5.34136700
_cell_length_b   6.68626600
_cell_length_c   9.99346000
_cell_angle_alpha   90.00000000
_cell_angle_beta   90.00000000
_cell_angle_gamma   90.00000000
_symmetry_Int_Tables_number   1
_chemical_formula_structural   CeSmTh2(ReC2)2
_chemical_formula_sum   'Ce2 Sm2 Th4 Re4 C8'
_cell_volume   356.90443740
_cell_formula_units_Z   2
loop_
 _symmetry_equiv_pos_site_id
 _symmetry_equiv_pos_as_xyz
  1  'x, y, z'
loop_
 _atom_site_type_symbol
 _atom_site_label
 _atom_site_symmetry_multiplicity
 _atom_site_fract_x
 _atom_site_fract_y
 _atom_site_fract_z
 _atom_site_occupancy
  Ce  Ce0  1  0.250000  0.814966  0.452730  1
  Ce  Ce1  1  0.750000  0.685034  0.952730  1
  Sm  Sm2  1  0.250000  0.314668  0.050130  1
  Sm  Sm3  1  0.750000  0.185332  0.550130  1
  Th  Th4  1  0.250000  0.974667  0.778945  1
  Th  Th5  1  0.750000  0.525333  0.278945  1
  Th  Th6  1  0.250000  0.473354  0.716486  1
  Th  Th7  1  0.750000  0.026646  0.216486  1
  Re  Re8  1  0.250000  0.770125  0.138030  1
  Re  Re9  1  0.750000  0.729875  0.638030  1
  Re  Re10  1  0.250000  0.271207  0.361819  1
  Re  Re11  1  0.750000  0.228793  0.861819  1
  C  C12  1  0.250000  0.170380  0.550054  1
  C  C13  1  0.750000  0.329620  0.050054  1
  C  C14  1  0.250000  0.675375  0.948930  1
  C  C15  1  0.750000  0.824625  0.448930  1
  C  C16  1  0.250000  0.535079  0.259749  1
  C  C17  1  0.750000  0.964921  0.759749  1
  C  C18  1  0.250000  0.033608  0.243127  1
  C  C19  1  0.750000  0.466392  0.743127  1
