# generated using pymatgen
data_YbSm2Ho(B6Os)2
_symmetry_space_group_name_H-M   'P 1'
_cell_length_a   3.68430800
_cell_length_b   9.17097779
_cell_length_c   11.58220025
_cell_angle_alpha   89.92852406
_cell_angle_beta   90.00000000
_cell_angle_gamma   90.00000000
_symmetry_Int_Tables_number   1
_chemical_formula_structural   YbSm2Ho(B6Os)2
_chemical_formula_sum   'Yb2 Sm4 Ho2 B24 Os4'
_cell_volume   391.34726414
_cell_formula_units_Z   2
loop_
 _symmetry_equiv_pos_site_id
 _symmetry_equiv_pos_as_xyz
  1  'x, y, z'
loop_
 _atom_site_type_symbol
 _atom_site_label
 _atom_site_symmetry_multiplicity
 _atom_site_fract_x
 _atom_site_fract_y
 _atom_site_fract_z
 _atom_site_occupancy
  Yb  Yb0  1  0.000000  0.942613  0.370415  1
  Yb  Yb1  1  0.000000  0.057387  0.629585  1
  Sm  Sm2  1  0.000000  0.321134  0.414485  1
  Sm  Sm3  1  0.000000  0.678866  0.585515  1
  Sm  Sm4  1  0.000000  0.823317  0.086735  1
  Sm  Sm5  1  0.000000  0.176683  0.913265  1
  Ho  Ho6  1  0.000000  0.443109  0.128976  1
  Ho  Ho7  1  0.000000  0.556891  0.871024  1
  B  B8  1  0.500000  0.555430  0.431455  1
  B  B9  1  0.500000  0.444570  0.568545  1
  B  B10  1  0.500000  0.054792  0.069125  1
  B  B11  1  0.500000  0.945208  0.930875  1
  B  B12  1  0.500000  0.750294  0.417213  1
  B  B13  1  0.500000  0.249706  0.582787  1
  B  B14  1  0.500000  0.248917  0.082326  1
  B  B15  1  0.500000  0.751083  0.917674  1
  B  B16  1  0.500000  0.791053  0.266942  1
  B  B17  1  0.500000  0.208947  0.733058  1
  B  B18  1  0.500000  0.289577  0.233839  1
  B  B19  1  0.500000  0.710423  0.766161  1
  B  B20  1  0.500000  0.630651  0.186386  1
  B  B21  1  0.500000  0.369349  0.813614  1
  B  B22  1  0.500000  0.128829  0.314554  1
  B  B23  1  0.500000  0.871171  0.685446  1
  B  B24  1  0.500000  0.984147  0.213914  1
  B  B25  1  0.500000  0.015853  0.786086  1
  B  B26  1  0.500000  0.484054  0.287198  1
  B  B27  1  0.500000  0.515946  0.712802  1
  B  B28  1  0.500000  0.603085  0.028515  1
  B  B29  1  0.500000  0.396915  0.971485  1
  B  B30  1  0.500000  0.097104  0.473017  1
  B  B31  1  0.500000  0.902896  0.526983  1
  Os  Os32  1  0.000000  0.638399  0.320162  1
  Os  Os33  1  0.000000  0.361601  0.679838  1
  Os  Os34  1  0.000000  0.138657  0.179590  1
  Os  Os35  1  0.000000  0.861343  0.820410  1
