# generated using pymatgen
data_CeTh7(AlTc)8
_symmetry_space_group_name_H-M   'P 1'
_cell_length_a   4.05760000
_cell_length_b   7.35774834
_cell_length_c   16.44331471
_cell_angle_alpha   90.03024696
_cell_angle_beta   90.00000000
_cell_angle_gamma   90.00000000
_symmetry_Int_Tables_number   1
_chemical_formula_structural   CeTh7(AlTc)8
_chemical_formula_sum   'Ce1 Th7 Al8 Tc8'
_cell_volume   490.91179818
_cell_formula_units_Z   1
loop_
 _symmetry_equiv_pos_site_id
 _symmetry_equiv_pos_as_xyz
  1  'x, y, z'
loop_
 _atom_site_type_symbol
 _atom_site_label
 _atom_site_symmetry_multiplicity
 _atom_site_fract_x
 _atom_site_fract_y
 _atom_site_fract_z
 _atom_site_occupancy
  Ce  Ce0  1  0.250000  0.543432  0.717680  1
  Th  Th1  1  0.750000  0.959883  0.219460  1
  Th  Th2  1  0.250000  0.171616  0.563439  1
  Th  Th3  1  0.750000  0.829745  0.439027  1
  Th  Th4  1  0.750000  0.460123  0.280418  1
  Th  Th5  1  0.750000  0.330246  0.061352  1
  Th  Th6  1  0.250000  0.671116  0.936082  1
  Th  Th7  1  0.250000  0.041502  0.780224  1
  Al  Al8  1  0.750000  0.502840  0.564180  1
  Al  Al9  1  0.750000  0.367686  0.848603  1
  Al  Al10  1  0.750000  0.003076  0.936512  1
  Al  Al11  1  0.750000  0.864251  0.650801  1
  Al  Al12  1  0.250000  0.496965  0.437689  1
  Al  Al13  1  0.250000  0.996466  0.062253  1
  Al  Al14  1  0.250000  0.634872  0.149001  1
  Al  Al15  1  0.250000  0.134619  0.351001  1
  Tc  Tc16  1  0.750000  0.743599  0.812331  1
  Tc  Tc17  1  0.250000  0.239095  0.936461  1
  Tc  Tc18  1  0.750000  0.259379  0.438356  1
  Tc  Tc19  1  0.250000  0.752247  0.313704  1
  Tc  Tc20  1  0.750000  0.758740  0.061877  1
  Tc  Tc21  1  0.750000  0.249453  0.687313  1
  Tc  Tc22  1  0.250000  0.251827  0.186778  1
  Tc  Tc23  1  0.250000  0.737224  0.565458  1
