# generated using pymatgen
data_Ho3Hf3(Be2Ir5)2
_symmetry_space_group_name_H-M   'P 1'
_cell_length_a   9.72073282
_cell_length_b   9.72073282
_cell_length_c   3.27919200
_cell_angle_alpha   90.00000000
_cell_angle_beta   90.00000000
_cell_angle_gamma   89.78055943
_symmetry_Int_Tables_number   1
_chemical_formula_structural   Ho3Hf3(Be2Ir5)2
_chemical_formula_sum   'Ho3 Hf3 Be4 Ir10'
_cell_volume   309.85725829
_cell_formula_units_Z   1
loop_
 _symmetry_equiv_pos_site_id
 _symmetry_equiv_pos_as_xyz
  1  'x, y, z'
loop_
 _atom_site_type_symbol
 _atom_site_label
 _atom_site_symmetry_multiplicity
 _atom_site_fract_x
 _atom_site_fract_y
 _atom_site_fract_z
 _atom_site_occupancy
  Ho  Ho0  1  0.175608  0.675482  0.000000  1
  Ho  Ho1  1  0.325057  0.174943  0.000000  1
  Ho  Ho2  1  0.824518  0.324392  0.000000  1
  Hf  Hf3  1  0.499774  0.498981  0.000000  1
  Hf  Hf4  1  0.674843  0.825157  0.000000  1
  Hf  Hf5  1  0.001019  0.000226  0.000000  1
  Be  Be6  1  0.381508  0.878599  0.000000  1
  Be  Be7  1  0.119533  0.380467  0.000000  1
  Be  Be8  1  0.878193  0.621807  0.000000  1
  Be  Be9  1  0.621401  0.118492  0.000000  1
  Ir  Ir10  1  0.219348  0.930080  0.500000  1
  Ir  Ir11  1  0.921272  0.786472  0.500000  1
  Ir  Ir12  1  0.437371  0.717527  0.500000  1
  Ir  Ir13  1  0.569920  0.280652  0.500000  1
  Ir  Ir14  1  0.713528  0.578728  0.500000  1
  Ir  Ir15  1  0.282197  0.431714  0.500000  1
  Ir  Ir16  1  0.068286  0.217803  0.500000  1
  Ir  Ir17  1  0.997517  0.502483  0.500000  1
  Ir  Ir18  1  0.506633  0.993367  0.500000  1
  Ir  Ir19  1  0.782473  0.062629  0.500000  1
