# generated using pymatgen
data_Lu8Co3Si12Rh
_symmetry_space_group_name_H-M   'P 1'
_cell_length_a   7.97658700
_cell_length_b   7.97658677
_cell_length_c   7.71313200
_cell_angle_alpha   90.00000000
_cell_angle_beta   90.00000000
_cell_angle_gamma   119.99999681
_symmetry_Int_Tables_number   1
_chemical_formula_structural   Lu8Co3Si12Rh
_chemical_formula_sum   'Lu8 Co3 Si12 Rh1'
_cell_volume   425.00653670
_cell_formula_units_Z   1
loop_
 _symmetry_equiv_pos_site_id
 _symmetry_equiv_pos_as_xyz
  1  'x, y, z'
loop_
 _atom_site_type_symbol
 _atom_site_label
 _atom_site_symmetry_multiplicity
 _atom_site_fract_x
 _atom_site_fract_y
 _atom_site_fract_z
 _atom_site_occupancy
  Lu  Lu0  1  0.983117  0.491559  0.248436  1
  Lu  Lu1  1  0.508441  0.491559  0.248436  1
  Lu  Lu2  1  0.494396  0.988791  0.750250  1
  Lu  Lu3  1  0.011209  0.505604  0.750250  1
  Lu  Lu4  1  0.494396  0.505604  0.750250  1
  Lu  Lu5  1  0.508441  0.016883  0.248436  1
  Lu  Lu6  1  0.000000  0.000000  0.751355  1
  Lu  Lu7  1  0.000000  0.000000  0.248976  1
  Co  Co8  1  0.333333  0.666667  0.033924  1
  Co  Co9  1  0.666667  0.333333  0.966830  1
  Co  Co10  1  0.666667  0.333333  0.533430  1
  Si  Si11  1  0.166064  0.833936  0.500479  1
  Si  Si12  1  0.166064  0.332128  0.500479  1
  Si  Si13  1  0.667872  0.833936  0.500479  1
  Si  Si14  1  0.342311  0.171156  0.998465  1
  Si  Si15  1  0.827947  0.655895  0.501242  1
  Si  Si16  1  0.828844  0.171156  0.998465  1
  Si  Si17  1  0.828844  0.657689  0.998465  1
  Si  Si18  1  0.171824  0.343648  0.001150  1
  Si  Si19  1  0.656352  0.828176  0.001150  1
  Si  Si20  1  0.344105  0.172053  0.501242  1
  Si  Si21  1  0.827947  0.172053  0.501242  1
  Si  Si22  1  0.171824  0.828176  0.001150  1
  Rh  Rh23  1  0.333333  0.666667  0.465418  1
