# generated using pymatgen
data_YHo2Np7O20
_symmetry_space_group_name_H-M   'P 1'
_cell_length_a   6.57663367
_cell_length_b   7.58394417
_cell_length_c   8.47818789
_cell_angle_alpha   102.65007933
_cell_angle_beta   97.33635004
_cell_angle_gamma   106.86199713
_symmetry_Int_Tables_number   1
_chemical_formula_structural   YHo2Np7O20
_chemical_formula_sum   'Y1 Ho2 Np7 O20'
_cell_volume   386.49327288
_cell_formula_units_Z   1
loop_
 _symmetry_equiv_pos_site_id
 _symmetry_equiv_pos_as_xyz
  1  'x, y, z'
loop_
 _atom_site_type_symbol
 _atom_site_label
 _atom_site_symmetry_multiplicity
 _atom_site_fract_x
 _atom_site_fract_y
 _atom_site_fract_z
 _atom_site_occupancy
  Y  Y0  1  0.999424  0.999763  0.999622  1
  Ho  Ho1  1  0.799747  0.599650  0.599598  1
  Ho  Ho2  1  0.600638  0.200657  0.200578  1
  Np  Np3  1  0.998911  0.499550  0.999453  1
  Np  Np4  1  0.799611  0.099986  0.599621  1
  Np  Np5  1  0.199420  0.398955  0.398051  1
  Np  Np6  1  0.601053  0.700172  0.200689  1
  Np  Np7  1  0.400135  0.299034  0.801070  1
  Np  Np8  1  0.200221  0.901190  0.399117  1
  Np  Np9  1  0.400752  0.800898  0.802142  1
  O  O10  1  0.857545  0.320804  0.453809  1
  O  O11  1  0.642708  0.915264  0.051247  1
  O  O12  1  0.441870  0.520848  0.654276  1
  O  O13  1  0.950557  0.768395  0.153480  1
  O  O14  1  0.855594  0.831779  0.447763  1
  O  O15  1  0.744389  0.368415  0.752399  1
  O  O16  1  0.247794  0.125073  0.257981  1
  O  O17  1  0.649977  0.430916  0.047160  1
  O  O18  1  0.955972  0.285768  0.150230  1
  O  O19  1  0.446988  0.026837  0.646852  1
  O  O20  1  0.548700  0.969701  0.354745  1
  O  O21  1  0.055951  0.718096  0.850505  1
  O  O22  1  0.740493  0.878459  0.745352  1
  O  O23  1  0.251440  0.628121  0.247216  1
  O  O24  1  0.349499  0.571694  0.952976  1
  O  O25  1  0.051216  0.231162  0.844984  1
  O  O26  1  0.545026  0.481145  0.348785  1
  O  O27  1  0.151730  0.173138  0.552475  1
  O  O28  1  0.354918  0.076193  0.942846  1
  O  O29  1  0.157720  0.678338  0.544979  1
