# generated using pymatgen
data_Nd2Ga8SiIr3
_symmetry_space_group_name_H-M   'P 1'
_cell_length_a   7.64002063
_cell_length_b   7.60567605
_cell_length_c   9.58780609
_cell_angle_alpha   89.96327908
_cell_angle_beta   89.82145281
_cell_angle_gamma   119.69557773
_symmetry_Int_Tables_number   1
_chemical_formula_structural   Nd2Ga8SiIr3
_chemical_formula_sum   'Nd4 Ga16 Si2 Ir6'
_cell_volume   483.95258581
_cell_formula_units_Z   2
loop_
 _symmetry_equiv_pos_site_id
 _symmetry_equiv_pos_as_xyz
  1  'x, y, z'
loop_
 _atom_site_type_symbol
 _atom_site_label
 _atom_site_symmetry_multiplicity
 _atom_site_fract_x
 _atom_site_fract_y
 _atom_site_fract_z
 _atom_site_occupancy
  Nd  Nd0  1  0.996278  0.666611  0.247582  1
  Nd  Nd1  1  0.003722  0.333389  0.752418  1
  Nd  Nd2  1  0.674073  0.001703  0.247633  1
  Nd  Nd3  1  0.325927  0.998297  0.752367  1
  Ga  Ga4  1  0.131665  0.130518  0.250260  1
  Ga  Ga5  1  0.868335  0.869482  0.749740  1
  Ga  Ga6  1  0.998765  0.665207  0.574747  1
  Ga  Ga7  1  0.335032  0.000101  0.422295  1
  Ga  Ga8  1  0.001235  0.334793  0.425253  1
  Ga  Ga9  1  0.664968  0.999899  0.577705  1
  Ga  Ga10  1  0.660790  0.995485  0.919098  1
  Ga  Ga11  1  0.339210  0.004515  0.080902  1
  Ga  Ga12  1  0.333023  0.331888  0.560255  1
  Ga  Ga13  1  0.666977  0.668112  0.439745  1
  Ga  Ga14  1  0.661255  0.666607  0.063224  1
  Ga  Ga15  1  0.338745  0.333393  0.936776  1
  Ga  Ga16  1  0.340742  0.546300  0.250341  1
  Ga  Ga17  1  0.659258  0.453700  0.749659  1
  Ga  Ga18  1  0.547673  0.341837  0.250071  1
  Ga  Ga19  1  0.452327  0.658163  0.749929  1
  Si  Si20  1  0.002364  0.330507  0.071918  1
  Si  Si21  1  0.997636  0.669493  0.928082  1
  Ir  Ir22  1  0.695830  0.343220  0.000652  1
  Ir  Ir23  1  0.304170  0.656780  0.999348  1
  Ir  Ir24  1  0.328994  0.670660  0.499928  1
  Ir  Ir25  1  0.671006  0.329340  0.500072  1
  Ir  Ir26  1  0.000000  0.000000  0.000000  1
  Ir  Ir27  1  0.000000  0.000000  0.500000  1
