# generated using pymatgen
data_Tb9Lu(CoTe)4
_symmetry_space_group_name_H-M   'P 1'
_cell_length_a   7.78826900
_cell_length_b   7.78826963
_cell_length_c   15.03014000
_cell_angle_alpha   90.00000000
_cell_angle_beta   90.00000000
_cell_angle_gamma   150.33394999
_symmetry_Int_Tables_number   1
_chemical_formula_structural   Tb9Lu(CoTe)4
_chemical_formula_sum   'Tb9 Lu1 Co4 Te4'
_cell_volume   451.23305776
_cell_formula_units_Z   1
loop_
 _symmetry_equiv_pos_site_id
 _symmetry_equiv_pos_as_xyz
  1  'x, y, z'
loop_
 _atom_site_type_symbol
 _atom_site_label
 _atom_site_symmetry_multiplicity
 _atom_site_fract_x
 _atom_site_fract_y
 _atom_site_fract_z
 _atom_site_occupancy
  Tb  Tb0  1  0.606356  0.393644  0.250000  1
  Tb  Tb1  1  0.742090  0.257910  0.631080  1
  Tb  Tb2  1  0.961601  0.038399  0.125519  1
  Tb  Tb3  1  0.037447  0.962553  0.873204  1
  Tb  Tb4  1  0.961601  0.038399  0.374481  1
  Tb  Tb5  1  0.037447  0.962553  0.626796  1
  Tb  Tb6  1  0.258744  0.741256  0.130433  1
  Tb  Tb7  1  0.258744  0.741256  0.369567  1
  Tb  Tb8  1  0.742090  0.257910  0.868920  1
  Lu  Lu9  1  0.394091  0.605909  0.750000  1
  Co  Co10  1  0.411917  0.588083  0.250000  1
  Co  Co11  1  0.587193  0.412807  0.750000  1
  Co  Co12  1  0.820494  0.179506  0.250000  1
  Co  Co13  1  0.180344  0.819656  0.750000  1
  Te  Te14  1  0.617867  0.382133  0.038088  1
  Te  Te15  1  0.617867  0.382133  0.461912  1
  Te  Te16  1  0.382052  0.617948  0.539312  1
  Te  Te17  1  0.382052  0.617948  0.960688  1
