# generated using pymatgen
data_Rb4Na2TbDyAs4
_symmetry_space_group_name_H-M   'P 1'
_cell_length_a   9.46934248
_cell_length_b   9.46934293
_cell_length_c   9.46934195
_cell_angle_alpha   135.23311788
_cell_angle_beta   135.16659288
_cell_angle_gamma   65.21983964
_symmetry_Int_Tables_number   1
_chemical_formula_structural   Rb4Na2TbDyAs4
_chemical_formula_sum   'Rb4 Na2 Tb1 Dy1 As4'
_cell_volume   415.46029014
_cell_formula_units_Z   1
loop_
 _symmetry_equiv_pos_site_id
 _symmetry_equiv_pos_as_xyz
  1  'x, y, z'
loop_
 _atom_site_type_symbol
 _atom_site_label
 _atom_site_symmetry_multiplicity
 _atom_site_fract_x
 _atom_site_fract_y
 _atom_site_fract_z
 _atom_site_occupancy
  Rb  Rb0  1  0.682315  0.394635  0.712491  1
  Rb  Rb1  1  0.817685  0.030176  0.212320  1
  Rb  Rb2  1  0.182144  0.969824  0.787509  1
  Rb  Rb3  1  0.317856  0.605365  0.287680  1
  Na  Na4  1  0.750000  0.000000  0.750000  1
  Na  Na5  1  0.250000  0.000000  0.250000  1
  Tb  Tb6  1  0.250000  0.500000  0.750000  1
  Dy  Dy7  1  0.750000  0.500000  0.250000  1
  As  As8  1  0.406256  0.182363  0.777983  1
  As  As9  1  0.595620  0.817637  0.223894  1
  As  As10  1  0.093744  0.371726  0.276106  1
  As  As11  1  0.904380  0.628274  0.722017  1
