# generated using pymatgen
data_Hf18GaRe8P
_symmetry_space_group_name_H-M   'P 1'
_cell_length_a   8.57795100
_cell_length_b   8.57795034
_cell_length_c   8.65113800
_cell_angle_alpha   90.00000000
_cell_angle_beta   90.00000000
_cell_angle_gamma   119.99999871
_symmetry_Int_Tables_number   1
_chemical_formula_structural   Hf18GaRe8P
_chemical_formula_sum   'Hf18 Ga1 Re8 P1'
_cell_volume   551.27838635
_cell_formula_units_Z   1
loop_
 _symmetry_equiv_pos_site_id
 _symmetry_equiv_pos_as_xyz
  1  'x, y, z'
loop_
 _atom_site_type_symbol
 _atom_site_label
 _atom_site_symmetry_multiplicity
 _atom_site_fract_x
 _atom_site_fract_y
 _atom_site_fract_z
 _atom_site_occupancy
  Hf  Hf0  1  0.193800  0.806200  0.453028  1
  Hf  Hf1  1  0.193800  0.387600  0.453028  1
  Hf  Hf2  1  0.612400  0.806200  0.453028  1
  Hf  Hf3  1  0.803754  0.196246  0.549017  1
  Hf  Hf4  1  0.803754  0.607509  0.549017  1
  Hf  Hf5  1  0.392491  0.196246  0.549017  1
  Hf  Hf6  1  0.803754  0.196246  0.950983  1
  Hf  Hf7  1  0.803754  0.607509  0.950983  1
  Hf  Hf8  1  0.392491  0.196246  0.950983  1
  Hf  Hf9  1  0.193800  0.806200  0.046972  1
  Hf  Hf10  1  0.193800  0.387600  0.046972  1
  Hf  Hf11  1  0.612400  0.806200  0.046972  1
  Hf  Hf12  1  0.540366  0.459634  0.250000  1
  Hf  Hf13  1  0.540366  0.080732  0.250000  1
  Hf  Hf14  1  0.919268  0.459634  0.250000  1
  Hf  Hf15  1  0.459343  0.540657  0.750000  1
  Hf  Hf16  1  0.459343  0.918686  0.750000  1
  Hf  Hf17  1  0.081314  0.540657  0.750000  1
  Ga  Ga18  1  0.333333  0.666667  0.250000  1
  Re  Re19  1  0.890458  0.109542  0.250000  1
  Re  Re20  1  0.890458  0.780915  0.250000  1
  Re  Re21  1  0.219085  0.109542  0.250000  1
  Re  Re22  1  0.109362  0.890638  0.750000  1
  Re  Re23  1  0.109362  0.218725  0.750000  1
  Re  Re24  1  0.781275  0.890638  0.750000  1
  Re  Re25  1  0.000000  0.000000  0.500515  1
  Re  Re26  1  0.000000  0.000000  0.999485  1
  P  P27  1  0.666667  0.333333  0.750000  1
