# generated using pymatgen
data_Ce8Sc12Si15Sb
_symmetry_space_group_name_H-M   'P 1'
_cell_length_a   7.24530229
_cell_length_b   7.51913867
_cell_length_c   14.21048800
_cell_angle_alpha   90.00000000
_cell_angle_beta   90.00000000
_cell_angle_gamma   90.35776396
_symmetry_Int_Tables_number   1
_chemical_formula_structural   Ce8Sc12Si15Sb
_chemical_formula_sum   'Ce8 Sc12 Si15 Sb1'
_cell_volume   774.15002076
_cell_formula_units_Z   1
loop_
 _symmetry_equiv_pos_site_id
 _symmetry_equiv_pos_as_xyz
  1  'x, y, z'
loop_
 _atom_site_type_symbol
 _atom_site_label
 _atom_site_symmetry_multiplicity
 _atom_site_fract_x
 _atom_site_fract_y
 _atom_site_fract_z
 _atom_site_occupancy
  Ce  Ce0  1  0.998235  0.161292  0.089247  1
  Ce  Ce1  1  0.481850  0.328050  0.405698  1
  Ce  Ce2  1  0.512265  0.672886  0.902705  1
  Ce  Ce3  1  0.010662  0.827167  0.597776  1
  Ce  Ce4  1  0.010662  0.827167  0.902224  1
  Ce  Ce5  1  0.512265  0.672886  0.597295  1
  Ce  Ce6  1  0.481850  0.328050  0.094302  1
  Ce  Ce7  1  0.998235  0.161292  0.410753  1
  Sc  Sc8  1  0.657970  0.993860  0.250000  1
  Sc  Sc9  1  0.173399  0.498451  0.250000  1
  Sc  Sc10  1  0.837855  0.506057  0.750000  1
  Sc  Sc11  1  0.337979  0.993622  0.750000  1
  Sc  Sc12  1  0.830897  0.683192  0.122424  1
  Sc  Sc13  1  0.326860  0.825636  0.377423  1
  Sc  Sc14  1  0.670049  0.176374  0.875359  1
  Sc  Sc15  1  0.169851  0.324158  0.625306  1
  Sc  Sc16  1  0.169851  0.324158  0.874694  1
  Sc  Sc17  1  0.670049  0.176374  0.624641  1
  Sc  Sc18  1  0.326860  0.825636  0.122577  1
  Sc  Sc19  1  0.830897  0.683192  0.377576  1
  Si  Si20  1  0.289190  0.123969  0.250000  1
  Si  Si21  1  0.711982  0.878003  0.750000  1
  Si  Si22  1  0.212563  0.622574  0.750000  1
  Si  Si23  1  0.033920  0.880407  0.250000  1
  Si  Si24  1  0.526228  0.635603  0.250000  1
  Si  Si25  1  0.465953  0.380712  0.750000  1
  Si  Si26  1  0.964328  0.119015  0.750000  1
  Si  Si27  1  0.845241  0.464874  0.961188  1
  Si  Si28  1  0.344519  0.034731  0.541244  1
  Si  Si29  1  0.654094  0.967519  0.039056  1
  Si  Si30  1  0.151405  0.535091  0.461507  1
  Si  Si31  1  0.151405  0.535091  0.038493  1
  Si  Si32  1  0.654094  0.967519  0.460944  1
  Si  Si33  1  0.344519  0.034731  0.958756  1
  Si  Si34  1  0.845241  0.464874  0.538812  1
  Sb  Sb35  1  0.796781  0.365787  0.250000  1
