# generated using pymatgen
data_Ce6Al24Os7Pt
_symmetry_space_group_name_H-M   'P 1'
_cell_length_a   8.92625500
_cell_length_b   8.90277195
_cell_length_c   9.57416081
_cell_angle_alpha   90.18082195
_cell_angle_beta   90.00000000
_cell_angle_gamma   120.08730478
_symmetry_Int_Tables_number   1
_chemical_formula_structural   Ce6Al24Os7Pt
_chemical_formula_sum   'Ce6 Al24 Os7 Pt1'
_cell_volume   658.32486622
_cell_formula_units_Z   1
loop_
 _symmetry_equiv_pos_site_id
 _symmetry_equiv_pos_as_xyz
  1  'x, y, z'
loop_
 _atom_site_type_symbol
 _atom_site_label
 _atom_site_symmetry_multiplicity
 _atom_site_fract_x
 _atom_site_fract_y
 _atom_site_fract_z
 _atom_site_occupancy
  Ce  Ce0  1  0.194163  0.388326  0.252146  1
  Ce  Ce1  1  0.805837  0.611674  0.747854  1
  Ce  Ce2  1  0.613883  0.802582  0.252989  1
  Ce  Ce3  1  0.386117  0.197418  0.747011  1
  Ce  Ce4  1  0.188700  0.802582  0.252989  1
  Ce  Ce5  1  0.811300  0.197418  0.747011  1
  Al  Al6  1  0.331673  0.663348  0.021772  1
  Al  Al7  1  0.668327  0.336652  0.978228  1
  Al  Al8  1  0.666548  0.333095  0.518486  1
  Al  Al9  1  0.333452  0.666905  0.481514  1
  Al  Al10  1  0.163725  0.327450  0.575413  1
  Al  Al11  1  0.836275  0.672550  0.424587  1
  Al  Al12  1  0.674319  0.837720  0.576964  1
  Al  Al13  1  0.836586  0.673173  0.076581  1
  Al  Al14  1  0.325681  0.162280  0.423036  1
  Al  Al15  1  0.163414  0.326827  0.923419  1
  Al  Al16  1  0.163400  0.837720  0.576964  1
  Al  Al17  1  0.324121  0.166743  0.077295  1
  Al  Al18  1  0.836600  0.162280  0.423036  1
  Al  Al19  1  0.675879  0.833257  0.922705  1
  Al  Al20  1  0.842622  0.166743  0.077295  1
  Al  Al21  1  0.157378  0.833257  0.922705  1
  Al  Al22  1  0.562012  0.124023  0.251999  1
  Al  Al23  1  0.437988  0.875977  0.748001  1
  Al  Al24  1  0.874494  0.436276  0.249476  1
  Al  Al25  1  0.125506  0.563724  0.750524  1
  Al  Al26  1  0.561783  0.436276  0.249476  1
  Al  Al27  1  0.438217  0.563724  0.750524  1
  Al  Al28  1  0.999634  0.999269  0.250143  1
  Al  Al29  1  0.000366  0.000731  0.749857  1
  Os  Os30  1  0.000000  0.500000  0.000000  1
  Os  Os31  1  0.500000  0.000000  0.500000  1
  Os  Os32  1  0.500000  0.500000  0.000000  1
  Os  Os33  1  0.000000  0.500000  0.500000  1
  Os  Os34  1  0.500000  0.500000  0.500000  1
  Os  Os35  1  0.000000  0.000000  0.000000  1
  Os  Os36  1  0.000000  0.000000  0.500000  1
  Pt  Pt37  1  0.500000  0.000000  0.000000  1
