# generated using pymatgen
data_Ho3Tm(B6Rh)2
_symmetry_space_group_name_H-M   'P 1'
_cell_length_a   3.64258300
_cell_length_b   9.15091664
_cell_length_c   11.48239280
_cell_angle_alpha   89.95715259
_cell_angle_beta   90.00000000
_cell_angle_gamma   90.00000000
_symmetry_Int_Tables_number   1
_chemical_formula_structural   Ho3Tm(B6Rh)2
_chemical_formula_sum   'Ho6 Tm2 B24 Rh4'
_cell_volume   382.74218668
_cell_formula_units_Z   2
loop_
 _symmetry_equiv_pos_site_id
 _symmetry_equiv_pos_as_xyz
  1  'x, y, z'
loop_
 _atom_site_type_symbol
 _atom_site_label
 _atom_site_symmetry_multiplicity
 _atom_site_fract_x
 _atom_site_fract_y
 _atom_site_fract_z
 _atom_site_occupancy
  Ho  Ho0  1  0.500000  0.321924  0.413694  1
  Ho  Ho1  1  0.500000  0.678076  0.586306  1
  Ho  Ho2  1  0.500000  0.177065  0.913425  1
  Ho  Ho3  1  0.500000  0.822935  0.086575  1
  Ho  Ho4  1  0.500000  0.444280  0.126864  1
  Ho  Ho5  1  0.500000  0.555720  0.873136  1
  Tm  Tm6  1  0.500000  0.055545  0.626543  1
  Tm  Tm7  1  0.500000  0.944455  0.373457  1
  B  B8  1  0.000000  0.108593  0.470516  1
  B  B9  1  0.000000  0.891407  0.529484  1
  B  B10  1  0.000000  0.388743  0.969833  1
  B  B11  1  0.000000  0.611257  0.030167  1
  B  B12  1  0.000000  0.132376  0.316360  1
  B  B13  1  0.000000  0.867624  0.683640  1
  B  B14  1  0.000000  0.366547  0.815632  1
  B  B15  1  0.000000  0.633453  0.184368  1
  B  B16  1  0.000000  0.053896  0.065468  1
  B  B17  1  0.000000  0.946104  0.934532  1
  B  B18  1  0.000000  0.445632  0.565368  1
  B  B19  1  0.000000  0.554368  0.434632  1
  B  B20  1  0.000000  0.483027  0.286913  1
  B  B21  1  0.000000  0.516973  0.713087  1
  B  B22  1  0.000000  0.017517  0.786065  1
  B  B23  1  0.000000  0.982483  0.213935  1
  B  B24  1  0.000000  0.248877  0.079344  1
  B  B25  1  0.000000  0.751123  0.920656  1
  B  B26  1  0.000000  0.249783  0.579176  1
  B  B27  1  0.000000  0.750217  0.420824  1
  B  B28  1  0.000000  0.293829  0.236087  1
  B  B29  1  0.000000  0.706171  0.763913  1
  B  B30  1  0.000000  0.205032  0.735370  1
  B  B31  1  0.000000  0.794968  0.264630  1
  Rh  Rh32  1  0.500000  0.138760  0.179566  1
  Rh  Rh33  1  0.500000  0.861240  0.820434  1
  Rh  Rh34  1  0.500000  0.359542  0.678612  1
  Rh  Rh35  1  0.500000  0.640458  0.321388  1
