# generated using pymatgen
data_Ba4Lu(US4)3
_symmetry_space_group_name_H-M   'P 1'
_cell_length_a   7.17750897
_cell_length_b   7.26919396
_cell_length_c   10.34510200
_cell_angle_alpha   90.23978687
_cell_angle_beta   90.29005203
_cell_angle_gamma   89.92332481
_symmetry_Int_Tables_number   1
_chemical_formula_structural   Ba4Lu(US4)3
_chemical_formula_sum   'Ba4 Lu1 U3 S12'
_cell_volume   539.74053272
_cell_formula_units_Z   1
loop_
 _symmetry_equiv_pos_site_id
 _symmetry_equiv_pos_as_xyz
  1  'x, y, z'
loop_
 _atom_site_type_symbol
 _atom_site_label
 _atom_site_symmetry_multiplicity
 _atom_site_fract_x
 _atom_site_fract_y
 _atom_site_fract_z
 _atom_site_occupancy
  Ba  Ba0  1  0.991609  0.050759  0.244315  1
  Ba  Ba1  1  0.487457  0.444833  0.756802  1
  Ba  Ba2  1  0.512543  0.555167  0.243198  1
  Ba  Ba3  1  0.008391  0.949241  0.755685  1
  Lu  Lu4  1  0.500000  0.000000  0.000000  1
  U  U5  1  0.000000  0.500000  0.000000  1
  U  U6  1  0.000000  0.500000  0.500000  1
  U  U7  1  0.500000  0.000000  0.500000  1
  S  S8  1  0.695723  0.303491  0.461050  1
  S  S9  1  0.194408  0.196346  0.539652  1
  S  S10  1  0.794556  0.791520  0.040433  1
  S  S11  1  0.291204  0.706251  0.960376  1
  S  S12  1  0.304277  0.696509  0.538950  1
  S  S13  1  0.805592  0.803654  0.460348  1
  S  S14  1  0.205444  0.208480  0.959567  1
  S  S15  1  0.708796  0.293749  0.039624  1
  S  S16  1  0.077652  0.483948  0.250444  1
  S  S17  1  0.572128  0.012678  0.748628  1
  S  S18  1  0.427872  0.987322  0.251372  1
  S  S19  1  0.922348  0.516052  0.749556  1
