# generated using pymatgen
data_Fe7Si16Rh
_symmetry_space_group_name_H-M   'P 1'
_cell_length_a   6.33884418
_cell_length_b   6.33884397
_cell_length_c   7.88297418
_cell_angle_alpha   89.73522539
_cell_angle_beta   89.73522155
_cell_angle_gamma   103.86028930
_symmetry_Int_Tables_number   1
_chemical_formula_structural   Fe7Si16Rh
_chemical_formula_sum   'Fe7 Si16 Rh1'
_cell_volume   307.51395466
_cell_formula_units_Z   1
loop_
 _symmetry_equiv_pos_site_id
 _symmetry_equiv_pos_as_xyz
  1  'x, y, z'
loop_
 _atom_site_type_symbol
 _atom_site_label
 _atom_site_symmetry_multiplicity
 _atom_site_fract_x
 _atom_site_fract_y
 _atom_site_fract_z
 _atom_site_occupancy
  Fe  Fe0  1  0.305703  0.305703  0.309925  1
  Fe  Fe1  1  0.697206  0.697206  0.689197  1
  Fe  Fe2  1  0.805605  0.805605  0.188767  1
  Fe  Fe3  1  0.279454  0.716090  0.498490  1
  Fe  Fe4  1  0.218720  0.783355  0.000651  1
  Fe  Fe5  1  0.716090  0.279454  0.498490  1
  Fe  Fe6  1  0.783355  0.218720  0.000651  1
  Si  Si7  1  0.418185  0.671352  0.228322  1
  Si  Si8  1  0.077864  0.818320  0.724809  1
  Si  Si9  1  0.167915  0.915036  0.271936  1
  Si  Si10  1  0.336821  0.594624  0.771655  1
  Si  Si11  1  0.594624  0.336821  0.771655  1
  Si  Si12  1  0.915036  0.167915  0.271936  1
  Si  Si13  1  0.818320  0.077864  0.724809  1
  Si  Si14  1  0.671352  0.418185  0.228322  1
  Si  Si15  1  0.143613  0.408772  0.057755  1
  Si  Si16  1  0.356805  0.095006  0.540642  1
  Si  Si17  1  0.898148  0.643482  0.450734  1
  Si  Si18  1  0.599708  0.855908  0.953363  1
  Si  Si19  1  0.855908  0.599708  0.953363  1
  Si  Si20  1  0.643482  0.898148  0.450734  1
  Si  Si21  1  0.095006  0.356805  0.540642  1
  Si  Si22  1  0.408772  0.143613  0.057755  1
  Rh  Rh23  1  0.192307  0.192307  0.815395  1
