# generated using pymatgen
data_La5Si12Tc2Ir17
_symmetry_space_group_name_H-M   'P 1'
_cell_length_a   13.04526000
_cell_length_b   13.04526086
_cell_length_c   4.05029100
_cell_angle_alpha   90.00000000
_cell_angle_beta   90.00000000
_cell_angle_gamma   120.30258695
_symmetry_Int_Tables_number   1
_chemical_formula_structural   La5Si12Tc2Ir17
_chemical_formula_sum   'La5 Si12 Tc2 Ir17'
_cell_volume   595.10017950
_cell_formula_units_Z   1
loop_
 _symmetry_equiv_pos_site_id
 _symmetry_equiv_pos_as_xyz
  1  'x, y, z'
loop_
 _atom_site_type_symbol
 _atom_site_label
 _atom_site_symmetry_multiplicity
 _atom_site_fract_x
 _atom_site_fract_y
 _atom_site_fract_z
 _atom_site_occupancy
  La  La0  1  0.331721  0.668103  0.000000  1
  La  La1  1  0.668103  0.331721  0.000000  1
  La  La2  1  0.812911  0.999794  0.500000  1
  La  La3  1  0.999794  0.812911  0.500000  1
  La  La4  1  0.185500  0.185500  0.500000  1
  Si  Si5  1  0.185225  0.001092  0.000000  1
  Si  Si6  1  0.001092  0.185225  0.000000  1
  Si  Si7  1  0.812864  0.812864  0.000000  1
  Si  Si8  1  0.164912  0.478751  0.500000  1
  Si  Si9  1  0.521479  0.690460  0.500000  1
  Si  Si10  1  0.313025  0.837938  0.500000  1
  Si  Si11  1  0.690460  0.521479  0.500000  1
  Si  Si12  1  0.837938  0.313025  0.500000  1
  Si  Si13  1  0.478751  0.164912  0.500000  1
  Si  Si14  1  0.623010  0.999759  0.000000  1
  Si  Si15  1  0.999759  0.623010  0.000000  1
  Si  Si16  1  0.373010  0.373010  0.000000  1
  Tc  Tc17  1  0.440684  0.001214  0.000000  1
  Tc  Tc18  1  0.001214  0.440684  0.000000  1
  Ir  Ir19  1  0.554414  0.554414  0.000000  1
  Ir  Ir20  1  0.363192  0.488452  0.500000  1
  Ir  Ir21  1  0.512251  0.875050  0.500000  1
  Ir  Ir22  1  0.126672  0.639551  0.500000  1
  Ir  Ir23  1  0.875050  0.512251  0.500000  1
  Ir  Ir24  1  0.639551  0.126672  0.500000  1
  Ir  Ir25  1  0.488452  0.363192  0.500000  1
  Ir  Ir26  1  0.184509  0.379431  0.000000  1
  Ir  Ir27  1  0.621406  0.804215  0.000000  1
  Ir  Ir28  1  0.194047  0.818351  0.000000  1
  Ir  Ir29  1  0.804215  0.621406  0.000000  1
  Ir  Ir30  1  0.818351  0.194047  0.000000  1
  Ir  Ir31  1  0.379431  0.184509  0.000000  1
  Ir  Ir32  1  0.282881  0.002011  0.500000  1
  Ir  Ir33  1  0.002011  0.282881  0.500000  1
  Ir  Ir34  1  0.713732  0.713732  0.500000  1
  Ir  Ir35  1  0.998380  0.998380  0.000000  1
