# generated using pymatgen
data_Ac4GaPd12
_symmetry_space_group_name_H-M   'P 1'
_cell_length_a   7.64941569
_cell_length_b   7.64941521
_cell_length_c   7.64941501
_cell_angle_alpha   109.58097616
_cell_angle_beta   109.41635800
_cell_angle_gamma   109.41638386
_symmetry_Int_Tables_number   1
_chemical_formula_structural   Ac4GaPd12
_chemical_formula_sum   'Ac4 Ga1 Pd12'
_cell_volume   344.55744069
_cell_formula_units_Z   1
loop_
 _symmetry_equiv_pos_site_id
 _symmetry_equiv_pos_as_xyz
  1  'x, y, z'
loop_
 _atom_site_type_symbol
 _atom_site_label
 _atom_site_symmetry_multiplicity
 _atom_site_fract_x
 _atom_site_fract_y
 _atom_site_fract_z
 _atom_site_occupancy
  Ac  Ac0  1  0.500859  0.971563  0.971563  1
  Ac  Ac1  1  0.000000  0.971563  0.470705  1
  Ac  Ac2  1  0.499141  0.470705  0.470705  1
  Ac  Ac3  1  0.000000  0.470705  0.971563  1
  Ga  Ga4  1  0.000000  0.467972  0.467972  1
  Pd  Pd5  1  0.250550  0.970189  0.220739  1
  Pd  Pd6  1  0.000000  0.758201  0.758201  1
  Pd  Pd7  1  0.288925  0.760697  0.471772  1
  Pd  Pd8  1  0.711075  0.471772  0.182847  1
  Pd  Pd9  1  0.500000  0.221539  0.721539  1
  Pd  Pd10  1  0.711075  0.182847  0.471772  1
  Pd  Pd11  1  0.749450  0.719639  0.970189  1
  Pd  Pd12  1  0.749450  0.970189  0.719639  1
  Pd  Pd13  1  0.288925  0.471772  0.760697  1
  Pd  Pd14  1  0.500000  0.721539  0.221539  1
  Pd  Pd15  1  0.250550  0.220739  0.970189  1
  Pd  Pd16  1  0.000000  0.178362  0.178362  1
