# generated using pymatgen
data_LiTm9Se10
_symmetry_space_group_name_H-M   'P 1'
_cell_length_a   6.90162164
_cell_length_b   8.02384866
_cell_length_c   9.00866813
_cell_angle_alpha   103.53561622
_cell_angle_beta   97.01551048
_cell_angle_gamma   106.61031975
_symmetry_Int_Tables_number   1
_chemical_formula_structural   LiTm9Se10
_chemical_formula_sum   'Li1 Tm9 Se10'
_cell_volume   455.11332796
_cell_formula_units_Z   1
loop_
 _symmetry_equiv_pos_site_id
 _symmetry_equiv_pos_as_xyz
  1  'x, y, z'
loop_
 _atom_site_type_symbol
 _atom_site_label
 _atom_site_symmetry_multiplicity
 _atom_site_fract_x
 _atom_site_fract_y
 _atom_site_fract_z
 _atom_site_occupancy
  Li  Li0  1  0.000000  0.500000  0.000000  1
  Tm  Tm1  1  0.799952  0.600333  0.597439  1
  Tm  Tm2  1  0.597671  0.199355  0.204049  1
  Tm  Tm3  1  0.402329  0.800645  0.795951  1
  Tm  Tm4  1  0.600418  0.704430  0.205961  1
  Tm  Tm5  1  0.200048  0.399667  0.402561  1
  Tm  Tm6  1  0.399582  0.295570  0.794039  1
  Tm  Tm7  1  0.000000  0.000000  0.000000  1
  Tm  Tm8  1  0.202827  0.902312  0.404958  1
  Tm  Tm9  1  0.797173  0.097688  0.595042  1
  Se  Se10  1  0.703455  0.646596  0.903290  1
  Se  Se11  1  0.501292  0.251644  0.499736  1
  Se  Se12  1  0.705314  0.156980  0.903585  1
  Se  Se13  1  0.294686  0.843020  0.096415  1
  Se  Se14  1  0.498708  0.748356  0.500264  1
  Se  Se15  1  0.096031  0.450980  0.707333  1
  Se  Se16  1  0.296545  0.353404  0.096710  1
  Se  Se17  1  0.903717  0.050469  0.298581  1
  Se  Se18  1  0.096283  0.949531  0.701419  1
  Se  Se19  1  0.903969  0.549020  0.292667  1
