# generated using pymatgen
data_GdY3Se3N2
_symmetry_space_group_name_H-M   'P 1'
_cell_length_a   6.98582680
_cell_length_b   6.98582668
_cell_length_c   10.35492156
_cell_angle_alpha   52.18505476
_cell_angle_beta   52.18505416
_cell_angle_gamma   32.93475679
_symmetry_Int_Tables_number   1
_chemical_formula_structural   GdY3Se3N2
_chemical_formula_sum   'Gd1 Y3 Se3 N2'
_cell_volume   211.25801441
_cell_formula_units_Z   1
loop_
 _symmetry_equiv_pos_site_id
 _symmetry_equiv_pos_as_xyz
  1  'x, y, z'
loop_
 _atom_site_type_symbol
 _atom_site_label
 _atom_site_symmetry_multiplicity
 _atom_site_fract_x
 _atom_site_fract_y
 _atom_site_fract_z
 _atom_site_occupancy
  Gd  Gd0  1  0.242859  0.242859  0.640156  1
  Y  Y1  1  0.758335  0.758336  0.358186  1
  Y  Y2  1  0.559115  0.559115  0.150052  1
  Y  Y3  1  0.440922  0.440922  0.849651  1
  Se  Se4  1  0.999564  0.999564  0.000692  1
  Se  Se5  1  0.831861  0.831861  0.776453  1
  Se  Se6  1  0.167557  0.167557  0.226283  1
  N  N7  1  0.352214  0.352214  0.361774  1
  N  N8  1  0.647573  0.647573  0.636753  1
