# generated using pymatgen
data_Dy4YTi2Co16TcP12
_symmetry_space_group_name_H-M   'P 1'
_cell_length_a   12.09135200
_cell_length_b   12.09135075
_cell_length_c   3.68824700
_cell_angle_alpha   90.00000000
_cell_angle_beta   90.00000000
_cell_angle_gamma   119.95602594
_symmetry_Int_Tables_number   1
_chemical_formula_structural   Dy4YTi2Co16TcP12
_chemical_formula_sum   'Dy4 Y1 Ti2 Co16 Tc1 P12'
_cell_volume   467.18897342
_cell_formula_units_Z   1
loop_
 _symmetry_equiv_pos_site_id
 _symmetry_equiv_pos_as_xyz
  1  'x, y, z'
loop_
 _atom_site_type_symbol
 _atom_site_label
 _atom_site_symmetry_multiplicity
 _atom_site_fract_x
 _atom_site_fract_y
 _atom_site_fract_z
 _atom_site_occupancy
  Dy  Dy0  1  0.665911  0.333696  0.000000  1
  Dy  Dy1  1  0.333696  0.665911  0.000000  1
  Dy  Dy2  1  0.816203  0.001462  0.500000  1
  Dy  Dy3  1  0.001462  0.816203  0.500000  1
  Y  Y4  1  0.186241  0.186241  0.500000  1
  Ti  Ti5  1  0.438607  0.999320  0.000000  1
  Ti  Ti6  1  0.999320  0.438607  0.000000  1
  Co  Co7  1  0.821771  0.197325  0.000000  1
  Co  Co8  1  0.800656  0.625405  0.000000  1
  Co  Co9  1  0.377063  0.179441  0.000000  1
  Co  Co10  1  0.197325  0.821771  0.000000  1
  Co  Co11  1  0.625405  0.800656  0.000000  1
  Co  Co12  1  0.179441  0.377063  0.000000  1
  Co  Co13  1  0.644274  0.124813  0.500000  1
  Co  Co14  1  0.873104  0.519551  0.500000  1
  Co  Co15  1  0.482343  0.357658  0.500000  1
  Co  Co16  1  0.124813  0.644274  0.500000  1
  Co  Co17  1  0.519551  0.873104  0.500000  1
  Co  Co18  1  0.357658  0.482343  0.500000  1
  Co  Co19  1  0.718002  0.718002  0.500000  1
  Co  Co20  1  0.281989  0.000411  0.500000  1
  Co  Co21  1  0.000411  0.281989  0.500000  1
  Co  Co22  1  0.999878  0.999878  0.000000  1
  Tc  Tc23  1  0.553151  0.553151  0.000000  1
  P  P24  1  0.362261  0.362261  0.000000  1
  P  P25  1  0.639797  0.998360  0.000000  1
  P  P26  1  0.998360  0.639797  0.000000  1
  P  P27  1  0.832035  0.312308  0.500000  1
  P  P28  1  0.685375  0.521197  0.500000  1
  P  P29  1  0.480669  0.167651  0.500000  1
  P  P30  1  0.312308  0.832035  0.500000  1
  P  P31  1  0.521197  0.685375  0.500000  1
  P  P32  1  0.167651  0.480669  0.500000  1
  P  P33  1  0.821683  0.821683  0.000000  1
  P  P34  1  0.179533  0.000856  0.000000  1
  P  P35  1  0.000856  0.179533  0.000000  1
