# generated using pymatgen
data_LiGd3SiS7
_symmetry_space_group_name_H-M   'P 1'
_cell_length_a   10.01372001
_cell_length_b   10.01135774
_cell_length_c   5.66135300
_cell_angle_alpha   90.00000000
_cell_angle_beta   90.00000000
_cell_angle_gamma   119.98914437
_symmetry_Int_Tables_number   1
_chemical_formula_structural   LiGd3SiS7
_chemical_formula_sum   'Li2 Gd6 Si2 S14'
_cell_volume   491.57160409
_cell_formula_units_Z   2
loop_
 _symmetry_equiv_pos_site_id
 _symmetry_equiv_pos_as_xyz
  1  'x, y, z'
loop_
 _atom_site_type_symbol
 _atom_site_label
 _atom_site_symmetry_multiplicity
 _atom_site_fract_x
 _atom_site_fract_y
 _atom_site_fract_z
 _atom_site_occupancy
  Li  Li0  1  0.000029  0.000012  0.488918  1
  Li  Li1  1  0.999971  0.999988  0.988918  1
  Gd  Gd2  1  0.122908  0.356260  0.236212  1
  Gd  Gd3  1  0.233356  0.877063  0.236086  1
  Gd  Gd4  1  0.643713  0.766638  0.236240  1
  Gd  Gd5  1  0.877092  0.643741  0.736212  1
  Gd  Gd6  1  0.766644  0.122937  0.736087  1
  Gd  Gd7  1  0.356286  0.233361  0.736240  1
  Si  Si8  1  0.666692  0.333336  0.150206  1
  Si  Si9  1  0.333309  0.666664  0.650207  1
  S  S10  1  0.890600  0.411207  0.001222  1
  S  S11  1  0.588763  0.479479  0.001167  1
  S  S12  1  0.520669  0.109302  0.001164  1
  S  S13  1  0.333282  0.666636  0.021284  1
  S  S14  1  0.838622  0.084915  0.253520  1
  S  S15  1  0.246292  0.161409  0.253488  1
  S  S16  1  0.915142  0.753745  0.253490  1
  S  S17  1  0.109400  0.588793  0.501222  1
  S  S18  1  0.411236  0.520521  0.501168  1
  S  S19  1  0.479331  0.890699  0.501165  1
  S  S20  1  0.666718  0.333365  0.521284  1
  S  S21  1  0.161378  0.915085  0.753519  1
  S  S22  1  0.753708  0.838591  0.753488  1
  S  S23  1  0.084858  0.246255  0.753490  1
