# generated using pymatgen
data_TbPa2P4Pd7
_symmetry_space_group_name_H-M   'P 1'
_cell_length_a   7.92489275
_cell_length_b   7.92489245
_cell_length_c   9.47660580
_cell_angle_alpha   55.91953775
_cell_angle_beta   55.91953991
_cell_angle_gamma   29.50485938
_symmetry_Int_Tables_number   1
_chemical_formula_structural   TbPa2P4Pd7
_chemical_formula_sum   'Tb1 Pa2 P4 Pd7'
_cell_volume   238.89227464
_cell_formula_units_Z   1
loop_
 _symmetry_equiv_pos_site_id
 _symmetry_equiv_pos_as_xyz
  1  'x, y, z'
loop_
 _atom_site_type_symbol
 _atom_site_label
 _atom_site_symmetry_multiplicity
 _atom_site_fract_x
 _atom_site_fract_y
 _atom_site_fract_z
 _atom_site_occupancy
  Tb  Tb0  1  0.315415  0.315415  0.683688  1
  Pa  Pa1  1  0.682023  0.682023  0.320875  1
  Pa  Pa2  1  0.001495  0.001495  0.997495  1
  P  P3  1  0.346785  0.346785  0.240752  1
  P  P4  1  0.652779  0.652779  0.759094  1
  P  P5  1  0.894956  0.894956  0.824810  1
  P  P6  1  0.105670  0.105670  0.176829  1
  Pd  Pd7  1  0.310097  0.310097  0.021904  1
  Pd  Pd8  1  0.691232  0.691232  0.979534  1
  Pd  Pd9  1  0.511811  0.511811  0.702001  1
  Pd  Pd10  1  0.829937  0.829937  0.428908  1
  Pd  Pd11  1  0.489531  0.489531  0.294917  1
  Pd  Pd12  1  0.167640  0.167640  0.567111  1
  Pd  Pd13  1  0.000630  0.000630  0.502082  1
