# generated using pymatgen
data_La2Tb2YbSi4
_symmetry_space_group_name_H-M   'P 1'
_cell_length_a   7.89165600
_cell_length_b   7.89165600
_cell_length_c   14.47941300
_cell_angle_alpha   90.00000000
_cell_angle_beta   90.00000000
_cell_angle_gamma   90.00000000
_symmetry_Int_Tables_number   1
_chemical_formula_structural   La2Tb2YbSi4
_chemical_formula_sum   'La8 Tb8 Yb4 Si16'
_cell_volume   901.75227711
_cell_formula_units_Z   4
loop_
 _symmetry_equiv_pos_site_id
 _symmetry_equiv_pos_as_xyz
  1  'x, y, z'
loop_
 _atom_site_type_symbol
 _atom_site_label
 _atom_site_symmetry_multiplicity
 _atom_site_fract_x
 _atom_site_fract_y
 _atom_site_fract_z
 _atom_site_occupancy
  La  La0  1  0.991457  0.636289  0.042312  1
  La  La1  1  0.008543  0.363711  0.542312  1
  La  La2  1  0.636289  0.991457  0.957688  1
  La  La3  1  0.136289  0.508543  0.792312  1
  La  La4  1  0.863711  0.491457  0.292312  1
  La  La5  1  0.508543  0.136289  0.207688  1
  La  La6  1  0.491457  0.863711  0.707688  1
  La  La7  1  0.363711  0.008543  0.457688  1
  Tb  Tb8  1  0.367861  0.493810  0.375860  1
  Tb  Tb9  1  0.867861  0.006190  0.374140  1
  Tb  Tb10  1  0.993810  0.132139  0.125860  1
  Tb  Tb11  1  0.006190  0.867861  0.625860  1
  Tb  Tb12  1  0.632139  0.506190  0.875860  1
  Tb  Tb13  1  0.493810  0.367861  0.624140  1
  Tb  Tb14  1  0.506190  0.632139  0.124140  1
  Tb  Tb15  1  0.132139  0.993810  0.874140  1
  Yb  Yb16  1  0.686793  0.686793  0.500000  1
  Yb  Yb17  1  0.813207  0.186793  0.750000  1
  Yb  Yb18  1  0.186793  0.813207  0.250000  1
  Yb  Yb19  1  0.313207  0.313207  0.000000  1
  Si  Si20  1  0.076205  0.711564  0.441363  1
  Si  Si21  1  0.923795  0.288436  0.941363  1
  Si  Si22  1  0.711564  0.076205  0.558637  1
  Si  Si23  1  0.211565  0.423795  0.191363  1
  Si  Si24  1  0.788436  0.576205  0.691363  1
  Si  Si25  1  0.423795  0.211565  0.808637  1
  Si  Si26  1  0.576205  0.788436  0.308637  1
  Si  Si27  1  0.288436  0.923795  0.058637  1
  Si  Si28  1  0.846802  0.788849  0.811589  1
  Si  Si29  1  0.153198  0.211151  0.311589  1
  Si  Si30  1  0.788849  0.846802  0.188411  1
  Si  Si31  1  0.288849  0.653198  0.561589  1
  Si  Si32  1  0.711151  0.346802  0.061589  1
  Si  Si33  1  0.653198  0.288849  0.438411  1
  Si  Si34  1  0.346802  0.711151  0.938411  1
  Si  Si35  1  0.211151  0.153198  0.688411  1
