# generated using pymatgen
data_Tb15NdMgAg2HgPt4
_symmetry_space_group_name_H-M   'P 1'
_cell_length_a   9.68279360
_cell_length_b   9.70938727
_cell_length_c   9.69329000
_cell_angle_alpha   60.05482801
_cell_angle_beta   59.96413423
_cell_angle_gamma   59.94234884
_symmetry_Int_Tables_number   1
_chemical_formula_structural   Tb15NdMgAg2HgPt4
_chemical_formula_sum   'Tb15 Nd1 Mg1 Ag2 Hg1 Pt4'
_cell_volume   644.20004531
_cell_formula_units_Z   1
loop_
 _symmetry_equiv_pos_site_id
 _symmetry_equiv_pos_as_xyz
  1  'x, y, z'
loop_
 _atom_site_type_symbol
 _atom_site_label
 _atom_site_symmetry_multiplicity
 _atom_site_fract_x
 _atom_site_fract_y
 _atom_site_fract_z
 _atom_site_occupancy
  Tb  Tb0  1  0.352430  0.351087  0.349684  1
  Tb  Tb1  1  0.352764  0.351412  0.946172  1
  Tb  Tb2  1  0.355379  0.943189  0.350774  1
  Tb  Tb3  1  0.930819  0.358157  0.355456  1
  Tb  Tb4  1  0.809108  0.191180  0.190141  1
  Tb  Tb5  1  0.188863  0.811767  0.811161  1
  Tb  Tb6  1  0.188742  0.811775  0.187862  1
  Tb  Tb7  1  0.808765  0.191582  0.808957  1
  Tb  Tb8  1  0.187990  0.189332  0.811045  1
  Tb  Tb9  1  0.809599  0.810118  0.190060  1
  Tb  Tb10  1  0.934541  0.562919  0.565736  1
  Tb  Tb11  1  0.562347  0.935500  0.936368  1
  Tb  Tb12  1  0.561868  0.937292  0.565723  1
  Tb  Tb13  1  0.933300  0.563206  0.938052  1
  Tb  Tb14  1  0.564926  0.566526  0.935760  1
  Nd  Nd15  1  0.932985  0.932163  0.567466  1
  Mg  Mg16  1  0.287974  0.568742  0.570871  1
  Ag  Ag17  1  0.582157  0.586700  0.243645  1
  Ag  Ag18  1  0.578426  0.246098  0.587252  1
  Hg  Hg19  1  0.582568  0.586886  0.586861  1
  Pt  Pt20  1  0.141588  0.145864  0.144383  1
  Pt  Pt21  1  0.141867  0.146044  0.568059  1
  Pt  Pt22  1  0.140610  0.569600  0.144959  1
  Pt  Pt23  1  0.570387  0.142866  0.143559  1
