# generated using pymatgen
data_Ac4Ga3Si
_symmetry_space_group_name_H-M   'P 1'
_cell_length_a   4.31432300
_cell_length_b   6.39503738
_cell_length_c   8.77891454
_cell_angle_alpha   89.83921695
_cell_angle_beta   90.00000000
_cell_angle_gamma   90.00000000
_symmetry_Int_Tables_number   1
_chemical_formula_structural   Ac4Ga3Si
_chemical_formula_sum   'Ac4 Ga3 Si1'
_cell_volume   242.21155348
_cell_formula_units_Z   1
loop_
 _symmetry_equiv_pos_site_id
 _symmetry_equiv_pos_as_xyz
  1  'x, y, z'
loop_
 _atom_site_type_symbol
 _atom_site_label
 _atom_site_symmetry_multiplicity
 _atom_site_fract_x
 _atom_site_fract_y
 _atom_site_fract_z
 _atom_site_occupancy
  Ac  Ac0  1  0.250000  0.389934  0.678080  1
  Ac  Ac1  1  0.750000  0.611963  0.318214  1
  Ac  Ac2  1  0.750000  0.887944  0.823921  1
  Ac  Ac3  1  0.250000  0.108135  0.176779  1
  Ga  Ga4  1  0.250000  0.882829  0.529439  1
  Ga  Ga5  1  0.750000  0.118890  0.471106  1
  Ga  Ga6  1  0.750000  0.385679  0.972341  1
  Si  Si7  1  0.250000  0.614625  0.030121  1
