# generated using pymatgen
data_Tb3Pr16HoIr12
_symmetry_space_group_name_H-M   'P 1'
_cell_length_a   11.26286900
_cell_length_b   11.26286900
_cell_length_c   6.57282300
_cell_angle_alpha   90.00000000
_cell_angle_beta   90.00000000
_cell_angle_gamma   90.00000000
_symmetry_Int_Tables_number   1
_chemical_formula_structural   Tb3Pr16HoIr12
_chemical_formula_sum   'Tb3 Pr16 Ho1 Ir12'
_cell_volume   833.77717680
_cell_formula_units_Z   1
loop_
 _symmetry_equiv_pos_site_id
 _symmetry_equiv_pos_as_xyz
  1  'x, y, z'
loop_
 _atom_site_type_symbol
 _atom_site_label
 _atom_site_symmetry_multiplicity
 _atom_site_fract_x
 _atom_site_fract_y
 _atom_site_fract_z
 _atom_site_occupancy
  Tb  Tb0  1  0.000000  0.000000  0.500000  1
  Tb  Tb1  1  0.000000  0.000000  0.000000  1
  Tb  Tb2  1  0.500000  0.500000  0.000000  1
  Pr  Pr3  1  0.289041  0.087741  0.381851  1
  Pr  Pr4  1  0.289033  0.912308  0.881889  1
  Pr  Pr5  1  0.710967  0.087692  0.881889  1
  Pr  Pr6  1  0.710959  0.912259  0.381851  1
  Pr  Pr7  1  0.587694  0.789007  0.881804  1
  Pr  Pr8  1  0.587700  0.211123  0.381907  1
  Pr  Pr9  1  0.412300  0.788877  0.381907  1
  Pr  Pr10  1  0.412306  0.210993  0.881804  1
  Pr  Pr11  1  0.211123  0.412300  0.618093  1
  Pr  Pr12  1  0.210993  0.587694  0.118196  1
  Pr  Pr13  1  0.789007  0.412306  0.118196  1
  Pr  Pr14  1  0.788877  0.587700  0.618093  1
  Pr  Pr15  1  0.912308  0.710967  0.118111  1
  Pr  Pr16  1  0.912259  0.289041  0.618149  1
  Pr  Pr17  1  0.087741  0.710959  0.618149  1
  Pr  Pr18  1  0.087692  0.289033  0.118111  1
  Ho  Ho19  1  0.500000  0.500000  0.500000  1
  Ir  Ir20  1  0.851883  0.148127  0.249990  1
  Ir  Ir21  1  0.851873  0.851883  0.750010  1
  Ir  Ir22  1  0.148127  0.148117  0.750010  1
  Ir  Ir23  1  0.148117  0.851873  0.249990  1
  Ir  Ir24  1  0.647800  0.352164  0.749531  1
  Ir  Ir25  1  0.647836  0.647800  0.250469  1
  Ir  Ir26  1  0.352164  0.352200  0.250469  1
  Ir  Ir27  1  0.352200  0.647836  0.749531  1
  Ir  Ir28  1  0.500000  0.000000  0.117617  1
  Ir  Ir29  1  0.500000  0.000000  0.617662  1
  Ir  Ir30  1  0.000000  0.500000  0.882383  1
  Ir  Ir31  1  0.000000  0.500000  0.382338  1
