# generated using pymatgen
data_YbAs12IrRu3
_symmetry_space_group_name_H-M   'P 1'
_cell_length_a   7.45126378
_cell_length_b   7.46157584
_cell_length_c   7.45126300
_cell_angle_alpha   109.49924897
_cell_angle_beta   109.44317026
_cell_angle_gamma   109.49925983
_symmetry_Int_Tables_number   1
_chemical_formula_structural   YbAs12IrRu3
_chemical_formula_sum   'Yb1 As12 Ir1 Ru3'
_cell_volume   318.79987103
_cell_formula_units_Z   1
loop_
 _symmetry_equiv_pos_site_id
 _symmetry_equiv_pos_as_xyz
  1  'x, y, z'
loop_
 _atom_site_type_symbol
 _atom_site_label
 _atom_site_symmetry_multiplicity
 _atom_site_fract_x
 _atom_site_fract_y
 _atom_site_fract_z
 _atom_site_occupancy
  Yb  Yb0  1  0.000000  0.000000  0.000000  1
  As  As1  1  0.348601  0.199296  0.850773  1
  As  As2  1  0.651399  0.800704  0.149227  1
  As  As3  1  0.648156  0.502459  0.850408  1
  As  As4  1  0.351844  0.497541  0.149592  1
  As  As5  1  0.202252  0.854302  0.351844  1
  As  As6  1  0.797748  0.145698  0.648156  1
  As  As7  1  0.502173  0.850695  0.651399  1
  As  As8  1  0.497827  0.149305  0.348601  1
  As  As9  1  0.850408  0.347949  0.202252  1
  As  As10  1  0.149592  0.652051  0.797748  1
  As  As11  1  0.850773  0.651477  0.502173  1
  As  As12  1  0.149227  0.348523  0.497827  1
  Ir  Ir13  1  0.000000  0.500000  0.000000  1
  Ru  Ru14  1  0.000000  0.000000  0.500000  1
  Ru  Ru15  1  0.500000  0.000000  0.000000  1
  Ru  Ru16  1  0.500000  0.500000  0.500000  1
