# generated using pymatgen
data_Y12HoTh3(MgIr)4
_symmetry_space_group_name_H-M   'P 1'
_cell_length_a   9.80601501
_cell_length_b   9.81491527
_cell_length_c   9.81491500
_cell_angle_alpha   59.99999755
_cell_angle_beta   59.96996876
_cell_angle_gamma   59.96997477
_symmetry_Int_Tables_number   1
_chemical_formula_structural   Y12HoTh3(MgIr)4
_chemical_formula_sum   'Y12 Ho1 Th3 Mg4 Ir4'
_cell_volume   667.65695972
_cell_formula_units_Z   1
loop_
 _symmetry_equiv_pos_site_id
 _symmetry_equiv_pos_as_xyz
  1  'x, y, z'
loop_
 _atom_site_type_symbol
 _atom_site_label
 _atom_site_symmetry_multiplicity
 _atom_site_fract_x
 _atom_site_fract_y
 _atom_site_fract_z
 _atom_site_occupancy
  Y  Y0  1  0.062574  0.438248  0.438248  1
  Y  Y1  1  0.437567  0.062817  0.062817  1
  Y  Y2  1  0.437567  0.062817  0.436801  1
  Y  Y3  1  0.062574  0.438248  0.060932  1
  Y  Y4  1  0.437567  0.436801  0.062817  1
  Y  Y5  1  0.062574  0.060932  0.438248  1
  Y  Y6  1  0.186368  0.813779  0.813779  1
  Y  Y7  1  0.814361  0.185432  0.185432  1
  Y  Y8  1  0.814361  0.185432  0.814773  1
  Y  Y9  1  0.186368  0.813779  0.186075  1
  Y  Y10  1  0.814361  0.814773  0.185432  1
  Y  Y11  1  0.186368  0.186075  0.813779  1
  Ho  Ho12  1  0.205819  0.598061  0.598061  1
  Th  Th13  1  0.595478  0.598036  0.598036  1
  Th  Th14  1  0.595478  0.598036  0.208451  1
  Th  Th15  1  0.595478  0.208451  0.598036  1
  Mg  Mg16  1  0.830725  0.829699  0.829699  1
  Mg  Mg17  1  0.830725  0.829699  0.509879  1
  Mg  Mg18  1  0.830725  0.509879  0.829699  1
  Mg  Mg19  1  0.508281  0.830574  0.830574  1
  Ir  Ir20  1  0.395029  0.391933  0.391933  1
  Ir  Ir21  1  0.395029  0.391933  0.821106  1
  Ir  Ir22  1  0.395029  0.821106  0.391933  1
  Ir  Ir23  1  0.819600  0.393466  0.393466  1
