# generated using pymatgen
data_Tb3Pa(TcB6)2
_symmetry_space_group_name_H-M   'P 1'
_cell_length_a   3.72162500
_cell_length_b   9.20524524
_cell_length_c   11.56695912
_cell_angle_alpha   90.38634072
_cell_angle_beta   90.00000000
_cell_angle_gamma   90.00000000
_symmetry_Int_Tables_number   1
_chemical_formula_structural   Tb3Pa(TcB6)2
_chemical_formula_sum   'Tb6 Pa2 Tc4 B24'
_cell_volume   396.25732274
_cell_formula_units_Z   2
loop_
 _symmetry_equiv_pos_site_id
 _symmetry_equiv_pos_as_xyz
  1  'x, y, z'
loop_
 _atom_site_type_symbol
 _atom_site_label
 _atom_site_symmetry_multiplicity
 _atom_site_fract_x
 _atom_site_fract_y
 _atom_site_fract_z
 _atom_site_occupancy
  Tb  Tb0  1  0.000000  0.824871  0.085797  1
  Tb  Tb1  1  0.000000  0.175129  0.914203  1
  Tb  Tb2  1  0.000000  0.944764  0.372827  1
  Tb  Tb3  1  0.000000  0.055236  0.627173  1
  Tb  Tb4  1  0.000000  0.443693  0.127069  1
  Tb  Tb5  1  0.000000  0.556307  0.872931  1
  Pa  Pa6  1  0.000000  0.322917  0.412825  1
  Pa  Pa7  1  0.000000  0.677083  0.587175  1
  Tc  Tc8  1  0.000000  0.634868  0.325597  1
  Tc  Tc9  1  0.000000  0.365132  0.674403  1
  Tc  Tc10  1  0.000000  0.140732  0.182106  1
  Tc  Tc11  1  0.000000  0.859268  0.817894  1
  B  B12  1  0.500000  0.552807  0.433214  1
  B  B13  1  0.500000  0.447193  0.566786  1
  B  B14  1  0.500000  0.053551  0.067857  1
  B  B15  1  0.500000  0.946449  0.932143  1
  B  B16  1  0.500000  0.746491  0.420244  1
  B  B17  1  0.500000  0.253509  0.579756  1
  B  B18  1  0.500000  0.247034  0.080563  1
  B  B19  1  0.500000  0.752966  0.919437  1
  B  B20  1  0.500000  0.790800  0.266664  1
  B  B21  1  0.500000  0.209200  0.733336  1
  B  B22  1  0.500000  0.292217  0.233872  1
  B  B23  1  0.500000  0.707783  0.766128  1
  B  B24  1  0.500000  0.631902  0.186425  1
  B  B25  1  0.500000  0.368098  0.813575  1
  B  B26  1  0.500000  0.133493  0.313971  1
  B  B27  1  0.500000  0.866507  0.686029  1
  B  B28  1  0.500000  0.983182  0.212587  1
  B  B29  1  0.500000  0.016818  0.787413  1
  B  B30  1  0.500000  0.483354  0.287394  1
  B  B31  1  0.500000  0.516646  0.712606  1
  B  B32  1  0.500000  0.607451  0.030194  1
  B  B33  1  0.500000  0.392549  0.969806  1
  B  B34  1  0.500000  0.116223  0.467928  1
  B  B35  1  0.500000  0.883777  0.532072  1
