# generated using pymatgen
data_Zr6Al16Cu3NiRh3
_symmetry_space_group_name_H-M   'P 1'
_cell_length_a   8.68761968
_cell_length_b   8.66183626
_cell_length_c   8.69152374
_cell_angle_alpha   60.27849751
_cell_angle_beta   59.78894505
_cell_angle_gamma   60.12792469
_symmetry_Int_Tables_number   1
_chemical_formula_structural   Zr6Al16Cu3NiRh3
_chemical_formula_sum   'Zr6 Al16 Cu3 Ni1 Rh3'
_cell_volume   463.14354293
_cell_formula_units_Z   1
loop_
 _symmetry_equiv_pos_site_id
 _symmetry_equiv_pos_as_xyz
  1  'x, y, z'
loop_
 _atom_site_type_symbol
 _atom_site_label
 _atom_site_symmetry_multiplicity
 _atom_site_fract_x
 _atom_site_fract_y
 _atom_site_fract_z
 _atom_site_occupancy
  Zr  Zr0  1  0.687820  0.687867  0.312133  1
  Zr  Zr1  1  0.303553  0.695882  0.304118  1
  Zr  Zr2  1  0.688491  0.311509  0.311509  1
  Zr  Zr3  1  0.312180  0.312133  0.687867  1
  Zr  Zr4  1  0.696447  0.304118  0.695882  1
  Zr  Zr5  1  0.311509  0.688491  0.688491  1
  Al  Al6  1  0.874979  0.884243  0.357996  1
  Al  Al7  1  0.882784  0.357996  0.884243  1
  Al  Al8  1  0.358982  0.885871  0.877932  1
  Al  Al9  1  0.877215  0.877932  0.885871  1
  Al  Al10  1  0.125021  0.115757  0.642004  1
  Al  Al11  1  0.117216  0.642004  0.115757  1
  Al  Al12  1  0.641018  0.114129  0.122068  1
  Al  Al13  1  0.122785  0.122068  0.114129  1
  Al  Al14  1  0.662482  0.670698  0.002092  1
  Al  Al15  1  0.664728  0.002092  0.670698  1
  Al  Al16  1  0.000818  0.667326  0.665276  1
  Al  Al17  1  0.666581  0.665276  0.667326  1
  Al  Al18  1  0.337518  0.329302  0.997908  1
  Al  Al19  1  0.335272  0.997908  0.329302  1
  Al  Al20  1  0.999182  0.332674  0.334724  1
  Al  Al21  1  0.333419  0.334724  0.332674  1
  Cu  Cu22  1  0.000000  0.000000  0.500000  1
  Cu  Cu23  1  0.000000  0.500000  0.500000  1
  Cu  Cu24  1  0.500000  0.500000  0.000000  1
  Ni  Ni25  1  0.500000  0.000000  0.000000  1
  Rh  Rh26  1  0.000000  0.000000  0.000000  1
  Rh  Rh27  1  0.500000  0.000000  0.500000  1
  Rh  Rh28  1  0.000000  0.500000  0.000000  1
