# generated using pymatgen
data_DyY3TmRu2
_symmetry_space_group_name_H-M   'P 1'
_cell_length_a   6.35170776
_cell_length_b   7.28084225
_cell_length_c   8.47734948
_cell_angle_alpha   96.69471399
_cell_angle_beta   112.00133458
_cell_angle_gamma   90.00000539
_symmetry_Int_Tables_number   1
_chemical_formula_structural   DyY3TmRu2
_chemical_formula_sum   'Dy2 Y6 Tm2 Ru4'
_cell_volume   360.60651943
_cell_formula_units_Z   2
loop_
 _symmetry_equiv_pos_site_id
 _symmetry_equiv_pos_as_xyz
  1  'x, y, z'
loop_
 _atom_site_type_symbol
 _atom_site_label
 _atom_site_symmetry_multiplicity
 _atom_site_fract_x
 _atom_site_fract_y
 _atom_site_fract_z
 _atom_site_occupancy
  Dy  Dy0  1  0.793323  0.815151  0.432923  1
  Dy  Dy1  1  0.360400  0.684849  0.567077  1
  Y  Y2  1  0.791960  0.083896  0.814552  1
  Y  Y3  1  0.977408  0.416104  0.185448  1
  Y  Y4  1  0.208070  0.916000  0.185489  1
  Y  Y5  1  0.022581  0.584000  0.814511  1
  Y  Y6  1  0.206449  0.184912  0.566660  1
  Y  Y7  1  0.639788  0.315088  0.433340  1
  Tm  Tm8  1  0.422431  0.250000  0.000000  1
  Tm  Tm9  1  0.577473  0.750000  0.000000  1
  Ru  Ru10  1  0.601694  0.425890  0.782072  1
  Ru  Ru11  1  0.819621  0.074110  0.217928  1
  Ru  Ru12  1  0.398514  0.575593  0.218229  1
  Ru  Ru13  1  0.180286  0.924407  0.781771  1
