# generated using pymatgen
data_Tb16In3Rh4Au
_symmetry_space_group_name_H-M   'P 1'
_cell_length_a   9.67135722
_cell_length_b   9.67135690
_cell_length_c   9.67135651
_cell_angle_alpha   59.87583460
_cell_angle_beta   59.87583536
_cell_angle_gamma   59.87583331
_symmetry_Int_Tables_number   1
_chemical_formula_structural   Tb16In3Rh4Au
_chemical_formula_sum   'Tb16 In3 Rh4 Au1'
_cell_volume   637.85497914
_cell_formula_units_Z   1
loop_
 _symmetry_equiv_pos_site_id
 _symmetry_equiv_pos_as_xyz
  1  'x, y, z'
loop_
 _atom_site_type_symbol
 _atom_site_label
 _atom_site_symmetry_multiplicity
 _atom_site_fract_x
 _atom_site_fract_y
 _atom_site_fract_z
 _atom_site_occupancy
  Tb  Tb0  1  0.809053  0.809053  0.191604  1
  Tb  Tb1  1  0.809053  0.191604  0.809053  1
  Tb  Tb2  1  0.189894  0.189894  0.812023  1
  Tb  Tb3  1  0.648089  0.052330  0.648089  1
  Tb  Tb4  1  0.062664  0.062664  0.437744  1
  Tb  Tb5  1  0.437444  0.437444  0.069413  1
  Tb  Tb6  1  0.650357  0.650357  0.650357  1
  Tb  Tb7  1  0.812023  0.189894  0.189894  1
  Tb  Tb8  1  0.191604  0.809053  0.809053  1
  Tb  Tb9  1  0.052330  0.648089  0.648089  1
  Tb  Tb10  1  0.437744  0.062664  0.062664  1
  Tb  Tb11  1  0.437444  0.069413  0.437444  1
  Tb  Tb12  1  0.062664  0.437744  0.062664  1
  Tb  Tb13  1  0.648089  0.648089  0.052330  1
  Tb  Tb14  1  0.189894  0.812023  0.189894  1
  Tb  Tb15  1  0.069413  0.437444  0.437444  1
  In  In16  1  0.417885  0.417885  0.744988  1
  In  In17  1  0.417885  0.744988  0.417885  1
  In  In18  1  0.744988  0.417885  0.417885  1
  Rh  Rh19  1  0.857781  0.427002  0.857781  1
  Rh  Rh20  1  0.856990  0.856990  0.856990  1
  Rh  Rh21  1  0.857781  0.857781  0.427002  1
  Rh  Rh22  1  0.427002  0.857781  0.857781  1
  Au  Au23  1  0.411929  0.411929  0.411929  1
