# generated using pymatgen
data_CdPb(ClO4)4
_symmetry_space_group_name_H-M   'P 1'
_cell_length_a   5.26446765
_cell_length_b   7.63493704
_cell_length_c   9.45427073
_cell_angle_alpha   90.15304195
_cell_angle_beta   89.50571330
_cell_angle_gamma   98.49866346
_symmetry_Int_Tables_number   1
_chemical_formula_structural   CdPb(ClO4)4
_chemical_formula_sum   'Cd1 Pb1 Cl4 O16'
_cell_volume   375.81675079
_cell_formula_units_Z   1
loop_
 _symmetry_equiv_pos_site_id
 _symmetry_equiv_pos_as_xyz
  1  'x, y, z'
loop_
 _atom_site_type_symbol
 _atom_site_label
 _atom_site_symmetry_multiplicity
 _atom_site_fract_x
 _atom_site_fract_y
 _atom_site_fract_z
 _atom_site_occupancy
  Cd  Cd0  1  0.500000  0.500000  0.500000  1
  Pb  Pb1  1  0.000000  0.000000  0.000000  1
  Cl  Cl2  1  0.552420  0.261218  0.179618  1
  Cl  Cl3  1  0.938891  0.258854  0.659658  1
  Cl  Cl4  1  0.447580  0.738782  0.820382  1
  Cl  Cl5  1  0.061109  0.741146  0.340342  1
  O  O6  1  0.564846  0.286811  0.333885  1
  O  O7  1  0.930279  0.232300  0.813764  1
  O  O8  1  0.435154  0.713189  0.666115  1
  O  O9  1  0.069721  0.767700  0.186236  1
  O  O10  1  0.283173  0.250903  0.135301  1
  O  O11  1  0.211108  0.282968  0.614541  1
  O  O12  1  0.716827  0.749097  0.864699  1
  O  O13  1  0.788892  0.717032  0.385459  1
  O  O14  1  0.633891  0.086470  0.151295  1
  O  O15  1  0.836547  0.426516  0.632597  1
  O  O16  1  0.366109  0.913530  0.848705  1
  O  O17  1  0.163453  0.573484  0.367403  1
  O  O18  1  0.713870  0.399517  0.106334  1
  O  O19  1  0.794854  0.112620  0.587380  1
  O  O20  1  0.286130  0.600483  0.893666  1
  O  O21  1  0.205146  0.887380  0.412620  1
