# generated using pymatgen
data_Er5Mg(Si3Pt2)4
_symmetry_space_group_name_H-M   'P 1'
_cell_length_a   4.25510800
_cell_length_b   8.47341020
_cell_length_c   12.86369900
_cell_angle_alpha   80.18851223
_cell_angle_beta   90.00000000
_cell_angle_gamma   90.00000000
_symmetry_Int_Tables_number   1
_chemical_formula_structural   Er5Mg(Si3Pt2)4
_chemical_formula_sum   'Er5 Mg1 Si12 Pt8'
_cell_volume   457.02049629
_cell_formula_units_Z   1
loop_
 _symmetry_equiv_pos_site_id
 _symmetry_equiv_pos_as_xyz
  1  'x, y, z'
loop_
 _atom_site_type_symbol
 _atom_site_label
 _atom_site_symmetry_multiplicity
 _atom_site_fract_x
 _atom_site_fract_y
 _atom_site_fract_z
 _atom_site_occupancy
  Er  Er0  1  0.250000  0.584834  0.186633  1
  Er  Er1  1  0.750000  0.233715  0.560071  1
  Er  Er2  1  0.750000  0.413809  0.812241  1
  Er  Er3  1  0.750000  0.929413  0.815850  1
  Er  Er4  1  0.250000  0.072166  0.186224  1
  Mg  Mg5  1  0.250000  0.769335  0.425205  1
  Si  Si6  1  0.750000  0.592124  0.568670  1
  Si  Si7  1  0.750000  0.127405  0.004400  1
  Si  Si8  1  0.750000  0.869069  0.572841  1
  Si  Si9  1  0.250000  0.696986  0.713893  1
  Si  Si10  1  0.750000  0.302351  0.289780  1
  Si  Si11  1  0.750000  0.805252  0.276717  1
  Si  Si12  1  0.250000  0.874187  0.995435  1
  Si  Si13  1  0.250000  0.194812  0.721850  1
  Si  Si14  1  0.250000  0.378740  0.004325  1
  Si  Si15  1  0.250000  0.126013  0.427425  1
  Si  Si16  1  0.750000  0.618796  0.999454  1
  Si  Si17  1  0.250000  0.413730  0.430578  1
  Pt  Pt18  1  0.750000  0.349216  0.103407  1
  Pt  Pt19  1  0.250000  0.969628  0.623421  1
  Pt  Pt20  1  0.750000  0.848450  0.088650  1
  Pt  Pt21  1  0.750000  0.022545  0.379865  1
  Pt  Pt22  1  0.250000  0.647903  0.900611  1
  Pt  Pt23  1  0.250000  0.153172  0.910716  1
  Pt  Pt24  1  0.750000  0.535902  0.378917  1
  Pt  Pt25  1  0.250000  0.470447  0.622823  1
