# generated using pymatgen
data_TiVGeRh5
_symmetry_space_group_name_H-M   'P 1'
_cell_length_a   3.96069300
_cell_length_b   5.41806764
_cell_length_c   10.58870023
_cell_angle_alpha   89.94457957
_cell_angle_beta   90.00000000
_cell_angle_gamma   90.00000000
_symmetry_Int_Tables_number   1
_chemical_formula_structural   TiVGeRh5
_chemical_formula_sum   'Ti2 V2 Ge2 Rh10'
_cell_volume   227.22601573
_cell_formula_units_Z   2
loop_
 _symmetry_equiv_pos_site_id
 _symmetry_equiv_pos_as_xyz
  1  'x, y, z'
loop_
 _atom_site_type_symbol
 _atom_site_label
 _atom_site_symmetry_multiplicity
 _atom_site_fract_x
 _atom_site_fract_y
 _atom_site_fract_z
 _atom_site_occupancy
  Ti  Ti0  1  0.500000  0.824607  0.359021  1
  Ti  Ti1  1  0.500000  0.175393  0.640979  1
  V  V2  1  0.500000  0.327608  0.144823  1
  V  V3  1  0.500000  0.672392  0.855177  1
  Ge  Ge4  1  0.000000  0.000000  0.000000  1
  Ge  Ge5  1  0.000000  0.500000  0.500000  1
  Rh  Rh6  1  0.000000  0.000000  0.500000  1
  Rh  Rh7  1  0.000000  0.500000  0.000000  1
  Rh  Rh8  1  0.000000  0.075089  0.238307  1
  Rh  Rh9  1  0.000000  0.924911  0.761693  1
  Rh  Rh10  1  0.000000  0.566413  0.253110  1
  Rh  Rh11  1  0.000000  0.433587  0.746890  1
  Rh  Rh12  1  0.500000  0.309796  0.386889  1
  Rh  Rh13  1  0.500000  0.690204  0.613111  1
  Rh  Rh14  1  0.500000  0.800214  0.105266  1
  Rh  Rh15  1  0.500000  0.199786  0.894734  1
