# generated using pymatgen
data_Y3SiPdPt4
_symmetry_space_group_name_H-M   'P 1'
_cell_length_a   8.22813519
_cell_length_b   8.22813532
_cell_length_c   8.22813431
_cell_angle_alpha   127.40031403
_cell_angle_beta   125.73475501
_cell_angle_gamma   78.96469086
_symmetry_Int_Tables_number   1
_chemical_formula_structural   Y3SiPdPt4
_chemical_formula_sum   'Y6 Si2 Pd2 Pt8'
_cell_volume   347.50872957
_cell_formula_units_Z   2
loop_
 _symmetry_equiv_pos_site_id
 _symmetry_equiv_pos_as_xyz
  1  'x, y, z'
loop_
 _atom_site_type_symbol
 _atom_site_label
 _atom_site_symmetry_multiplicity
 _atom_site_fract_x
 _atom_site_fract_y
 _atom_site_fract_z
 _atom_site_occupancy
  Y  Y0  1  0.827218  0.547655  0.279565  1
  Y  Y1  1  0.606984  0.250000  0.356984  1
  Y  Y2  1  0.172782  0.452345  0.720435  1
  Y  Y3  1  0.393016  0.750000  0.643016  1
  Y  Y4  1  0.231910  0.952345  0.279565  1
  Y  Y5  1  0.768090  0.047655  0.720435  1
  Si  Si6  1  0.219738  0.250000  0.969738  1
  Si  Si7  1  0.780262  0.750000  0.030262  1
  Pd  Pd8  1  0.000000  0.000000  0.500000  1
  Pd  Pd9  1  0.000000  0.500000  0.000000  1
  Pt  Pt10  1  0.166860  0.900257  0.854099  1
  Pt  Pt11  1  0.833140  0.099743  0.145901  1
  Pt  Pt12  1  0.453842  0.187239  0.854099  1
  Pt  Pt13  1  0.546158  0.400257  0.733397  1
  Pt  Pt14  1  0.833140  0.687239  0.733397  1
  Pt  Pt15  1  0.453842  0.599743  0.266603  1
  Pt  Pt16  1  0.546158  0.812761  0.145901  1
  Pt  Pt17  1  0.166860  0.312761  0.266603  1
