# generated using pymatgen
data_Gd2C2I
_symmetry_space_group_name_H-M   'P 1'
_cell_length_a   7.91565640
_cell_length_b   7.91565604
_cell_length_c   6.72641644
_cell_angle_alpha   79.96698927
_cell_angle_beta   79.96698936
_cell_angle_gamma   31.35936732
_symmetry_Int_Tables_number   1
_chemical_formula_structural   Gd2C2I
_chemical_formula_sum   'Gd4 C4 I2'
_cell_volume   215.70957206
_cell_formula_units_Z   2
loop_
 _symmetry_equiv_pos_site_id
 _symmetry_equiv_pos_as_xyz
  1  'x, y, z'
loop_
 _atom_site_type_symbol
 _atom_site_label
 _atom_site_symmetry_multiplicity
 _atom_site_fract_x
 _atom_site_fract_y
 _atom_site_fract_z
 _atom_site_occupancy
  Gd  Gd0  1  0.525011  0.145805  0.148958  1
  Gd  Gd1  1  0.145805  0.525011  0.648958  1
  Gd  Gd2  1  0.474989  0.854195  0.851042  1
  Gd  Gd3  1  0.854195  0.474989  0.351042  1
  C  C4  1  0.352494  0.099269  0.473749  1
  C  C5  1  0.900731  0.647506  0.026251  1
  C  C6  1  0.647506  0.900731  0.526251  1
  C  C7  1  0.099269  0.352494  0.973749  1
  I  I8  1  0.769552  0.230448  0.750000  1
  I  I9  1  0.230448  0.769552  0.250000  1
