# generated using pymatgen
data_Tb4DyHo3Al4
_symmetry_space_group_name_H-M   'P 1'
_cell_length_a   5.11041800
_cell_length_b   6.56005471
_cell_length_c   9.43872200
_cell_angle_alpha   90.04280159
_cell_angle_beta   90.00000000
_cell_angle_gamma   90.00000000
_symmetry_Int_Tables_number   1
_chemical_formula_structural   Tb4DyHo3Al4
_chemical_formula_sum   'Tb4 Dy1 Ho3 Al4'
_cell_volume   316.42949603
_cell_formula_units_Z   1
loop_
 _symmetry_equiv_pos_site_id
 _symmetry_equiv_pos_as_xyz
  1  'x, y, z'
loop_
 _atom_site_type_symbol
 _atom_site_label
 _atom_site_symmetry_multiplicity
 _atom_site_fract_x
 _atom_site_fract_y
 _atom_site_fract_z
 _atom_site_occupancy
  Tb  Tb0  1  0.750000  0.688226  0.426844  1
  Tb  Tb1  1  0.250000  0.311765  0.572644  1
  Tb  Tb2  1  0.750000  0.187865  0.073167  1
  Tb  Tb3  1  0.250000  0.812234  0.927325  1
  Dy  Dy4  1  0.750000  0.527901  0.789632  1
  Ho  Ho5  1  0.250000  0.472258  0.210045  1
  Ho  Ho6  1  0.750000  0.027826  0.710380  1
  Ho  Ho7  1  0.250000  0.972143  0.289680  1
  Al  Al8  1  0.750000  0.208187  0.397702  1
  Al  Al9  1  0.250000  0.791823  0.602233  1
  Al  Al10  1  0.750000  0.708295  0.102646  1
  Al  Al11  1  0.250000  0.291477  0.897703  1
