# generated using pymatgen
data_La3Sm3Np2O14
_symmetry_space_group_name_H-M   'P 1'
_cell_length_a   6.75094026
_cell_length_b   6.79375770
_cell_length_c   7.95920000
_cell_angle_alpha   106.93618360
_cell_angle_beta   89.89081363
_cell_angle_gamma   98.64628973
_symmetry_Int_Tables_number   1
_chemical_formula_structural   La3Sm3Np2O14
_chemical_formula_sum   'La3 Sm3 Np2 O14'
_cell_volume   344.90330854
_cell_formula_units_Z   1
loop_
 _symmetry_equiv_pos_site_id
 _symmetry_equiv_pos_as_xyz
  1  'x, y, z'
loop_
 _atom_site_type_symbol
 _atom_site_label
 _atom_site_symmetry_multiplicity
 _atom_site_fract_x
 _atom_site_fract_y
 _atom_site_fract_z
 _atom_site_occupancy
  La  La0  1  0.729846  0.464979  0.117611  1
  La  La1  1  0.741904  0.485444  0.619209  1
  La  La2  1  0.255742  0.515083  0.383640  1
  Sm  Sm3  1  0.459940  0.005214  0.250970  1
  Sm  Sm4  1  0.539437  0.994044  0.749233  1
  Sm  Sm5  1  0.269746  0.539783  0.881523  1
  Np  Np6  1  0.001100  0.002055  0.501459  1
  Np  Np7  1  0.002847  0.999257  0.998354  1
  O  O8  1  0.438789  0.649253  0.163635  1
  O  O9  1  0.547775  0.349828  0.833023  1
  O  O10  1  0.299089  0.920466  0.951671  1
  O  O11  1  0.704819  0.073517  0.048814  1
  O  O12  1  0.289239  0.931025  0.515283  1
  O  O13  1  0.712500  0.069925  0.485031  1
  O  O14  1  0.545631  0.360918  0.344703  1
  O  O15  1  0.450665  0.639716  0.659153  1
  O  O16  1  0.934117  0.678515  0.952268  1
  O  O17  1  0.075609  0.316666  0.037444  1
  O  O18  1  0.070192  0.342144  0.620561  1
  O  O19  1  0.931806  0.660592  0.386163  1
  O  O20  1  0.874321  0.916127  0.727899  1
  O  O21  1  0.124888  0.085449  0.272353  1
