# generated using pymatgen
data_HoLu2ThMgCo
_symmetry_space_group_name_H-M   'P 1'
_cell_length_a   9.54200995
_cell_length_b   9.52874809
_cell_length_c   9.52874824
_cell_angle_alpha   60.09209508
_cell_angle_beta   59.95395006
_cell_angle_gamma   59.95395582
_symmetry_Int_Tables_number   1
_chemical_formula_structural   HoLu2ThMgCo
_chemical_formula_sum   'Ho4 Lu8 Th4 Mg4 Co4'
_cell_volume   612.62523769
_cell_formula_units_Z   4
loop_
 _symmetry_equiv_pos_site_id
 _symmetry_equiv_pos_as_xyz
  1  'x, y, z'
loop_
 _atom_site_type_symbol
 _atom_site_label
 _atom_site_symmetry_multiplicity
 _atom_site_fract_x
 _atom_site_fract_y
 _atom_site_fract_z
 _atom_site_occupancy
  Ho  Ho0  1  0.565258  0.934742  0.565258  1
  Ho  Ho1  1  0.934742  0.565258  0.934742  1
  Ho  Ho2  1  0.565258  0.565258  0.934742  1
  Ho  Ho3  1  0.934742  0.934742  0.565258  1
  Lu  Lu4  1  0.814972  0.185028  0.185028  1
  Lu  Lu5  1  0.185028  0.814972  0.814972  1
  Lu  Lu6  1  0.185270  0.814730  0.185270  1
  Lu  Lu7  1  0.814730  0.185270  0.814730  1
  Lu  Lu8  1  0.185270  0.185270  0.814730  1
  Lu  Lu9  1  0.814730  0.814730  0.185270  1
  Lu  Lu10  1  0.935613  0.564387  0.564387  1
  Lu  Lu11  1  0.564387  0.935613  0.935613  1
  Th  Th12  1  0.344934  0.345450  0.345450  1
  Th  Th13  1  0.345450  0.344934  0.964168  1
  Th  Th14  1  0.345450  0.964168  0.344934  1
  Th  Th15  1  0.964168  0.345450  0.345450  1
  Mg  Mg16  1  0.580613  0.580217  0.580217  1
  Mg  Mg17  1  0.580217  0.580613  0.258950  1
  Mg  Mg18  1  0.580217  0.258950  0.580613  1
  Mg  Mg19  1  0.258950  0.580217  0.580217  1
  Co  Co20  1  0.144313  0.143744  0.143744  1
  Co  Co21  1  0.143744  0.144313  0.568198  1
  Co  Co22  1  0.143744  0.568198  0.144313  1
  Co  Co23  1  0.568198  0.143744  0.143744  1
