# generated using pymatgen
data_Rb2Sn(WO4)3
_symmetry_space_group_name_H-M   'P 1'
_cell_length_a   7.42884803
_cell_length_b   7.42884858
_cell_length_c   7.42041839
_cell_angle_alpha   59.98484041
_cell_angle_beta   59.98483776
_cell_angle_gamma   60.00330189
_symmetry_Int_Tables_number   1
_chemical_formula_structural   Rb2Sn(WO4)3
_chemical_formula_sum   'Rb2 Sn1 W3 O12'
_cell_volume   289.51271843
_cell_formula_units_Z   1
loop_
 _symmetry_equiv_pos_site_id
 _symmetry_equiv_pos_as_xyz
  1  'x, y, z'
loop_
 _atom_site_type_symbol
 _atom_site_label
 _atom_site_symmetry_multiplicity
 _atom_site_fract_x
 _atom_site_fract_y
 _atom_site_fract_z
 _atom_site_occupancy
  Rb  Rb0  1  0.889156  0.838880  0.889886  1
  Rb  Rb1  1  0.161120  0.110844  0.110114  1
  Sn  Sn2  1  0.501440  0.498560  0.000000  1
  W  W3  1  0.503080  0.997231  0.498927  1
  W  W4  1  0.002769  0.496920  0.501073  1
  W  W5  1  0.502262  0.497738  0.500000  1
  O  O6  1  0.192074  0.190323  0.556772  1
  O  O7  1  0.567542  0.569935  0.192795  1
  O  O8  1  0.567204  0.169617  0.192748  1
  O  O9  1  0.191699  0.561265  0.556395  1
  O  O10  1  0.170482  0.567767  0.193172  1
  O  O11  1  0.561053  0.190972  0.556266  1
  O  O12  1  0.809677  0.807926  0.443228  1
  O  O13  1  0.430065  0.432458  0.807205  1
  O  O14  1  0.432233  0.829518  0.806828  1
  O  O15  1  0.809028  0.438947  0.443734  1
  O  O16  1  0.830383  0.432796  0.807252  1
  O  O17  1  0.438735  0.808301  0.443605  1
