# generated using pymatgen
data_Er2ZnB2Ir5
_symmetry_space_group_name_H-M   'P 1'
_cell_length_a   9.59935400
_cell_length_b   9.59935400
_cell_length_c   3.13570600
_cell_angle_alpha   90.00000000
_cell_angle_beta   90.00000000
_cell_angle_gamma   90.00000000
_symmetry_Int_Tables_number   1
_chemical_formula_structural   Er2ZnB2Ir5
_chemical_formula_sum   'Er4 Zn2 B4 Ir10'
_cell_volume   288.94777348
_cell_formula_units_Z   2
loop_
 _symmetry_equiv_pos_site_id
 _symmetry_equiv_pos_as_xyz
  1  'x, y, z'
loop_
 _atom_site_type_symbol
 _atom_site_label
 _atom_site_symmetry_multiplicity
 _atom_site_fract_x
 _atom_site_fract_y
 _atom_site_fract_z
 _atom_site_occupancy
  Er  Er0  1  0.322987  0.822987  0.000000  1
  Er  Er1  1  0.677013  0.177013  0.000000  1
  Er  Er2  1  0.177013  0.322987  0.000000  1
  Er  Er3  1  0.822987  0.677013  0.000000  1
  Zn  Zn4  1  0.500000  0.500000  0.000000  1
  Zn  Zn5  1  0.000000  0.000000  0.000000  1
  B  B6  1  0.124792  0.624792  0.000000  1
  B  B7  1  0.875208  0.375208  0.000000  1
  B  B8  1  0.375208  0.124792  0.000000  1
  B  B9  1  0.624792  0.875208  0.000000  1
  Ir  Ir10  1  0.568437  0.719737  0.500000  1
  Ir  Ir11  1  0.431563  0.280263  0.500000  1
  Ir  Ir12  1  0.931563  0.219737  0.500000  1
  Ir  Ir13  1  0.068437  0.780263  0.500000  1
  Ir  Ir14  1  0.780263  0.931563  0.500000  1
  Ir  Ir15  1  0.219737  0.068437  0.500000  1
  Ir  Ir16  1  0.280263  0.568437  0.500000  1
  Ir  Ir17  1  0.719737  0.431563  0.500000  1
  Ir  Ir18  1  0.000000  0.500000  0.500000  1
  Ir  Ir19  1  0.500000  0.000000  0.500000  1
