# generated using pymatgen
data_LaTb4Dy2MnBr12
_symmetry_space_group_name_H-M   'P 1'
_cell_length_a   9.38809479
_cell_length_b   9.40304152
_cell_length_c   9.12565522
_cell_angle_alpha   106.33423669
_cell_angle_beta   107.38817848
_cell_angle_gamma   106.79323197
_symmetry_Int_Tables_number   1
_chemical_formula_structural   LaTb4Dy2MnBr12
_chemical_formula_sum   'La1 Tb4 Dy2 Mn1 Br12'
_cell_volume   673.78504901
_cell_formula_units_Z   1
loop_
 _symmetry_equiv_pos_site_id
 _symmetry_equiv_pos_as_xyz
  1  'x, y, z'
loop_
 _atom_site_type_symbol
 _atom_site_label
 _atom_site_symmetry_multiplicity
 _atom_site_fract_x
 _atom_site_fract_y
 _atom_site_fract_z
 _atom_site_occupancy
  La  La0  1  0.593932  0.520955  0.789628  1
  Tb  Tb1  1  0.808795  0.600526  0.524265  1
  Tb  Tb2  1  0.403940  0.477815  0.211002  1
  Tb  Tb3  1  0.479061  0.191841  0.399225  1
  Tb  Tb4  1  0.190862  0.399430  0.481336  1
  Dy  Dy5  1  0.000331  0.003132  0.996425  1
  Dy  Dy6  1  0.520280  0.804274  0.598801  1
  Mn  Mn7  1  0.508234  0.500110  0.526276  1
  Br  Br8  1  0.566981  0.163700  0.712732  1
  Br  Br9  1  0.178769  0.717294  0.564506  1
  Br  Br10  1  0.713878  0.566292  0.180952  1
  Br  Br11  1  0.426360  0.809973  0.273531  1
  Br  Br12  1  0.818294  0.280919  0.425413  1
  Br  Br13  1  0.261745  0.423994  0.817973  1
  Br  Br14  1  0.675973  0.900898  0.965576  1
  Br  Br15  1  0.881662  0.959641  0.658990  1
  Br  Br16  1  0.978090  0.683091  0.888324  1
  Br  Br17  1  0.331557  0.123159  0.037421  1
  Br  Br18  1  0.117743  0.039824  0.332348  1
  Br  Br19  1  0.043512  0.333131  0.115274  1
