# generated using pymatgen
data_Zr2Sc2Re7W
_symmetry_space_group_name_H-M   'P 1'
_cell_length_a   5.31143437
_cell_length_b   5.33314384
_cell_length_c   8.67028322
_cell_angle_alpha   90.00000302
_cell_angle_beta   90.05278978
_cell_angle_gamma   120.13529130
_symmetry_Int_Tables_number   1
_chemical_formula_structural   Zr2Sc2Re7W
_chemical_formula_sum   'Zr2 Sc2 Re7 W1'
_cell_volume   212.40517995
_cell_formula_units_Z   1
loop_
 _symmetry_equiv_pos_site_id
 _symmetry_equiv_pos_as_xyz
  1  'x, y, z'
loop_
 _atom_site_type_symbol
 _atom_site_label
 _atom_site_symmetry_multiplicity
 _atom_site_fract_x
 _atom_site_fract_y
 _atom_site_fract_z
 _atom_site_occupancy
  Zr  Zr0  1  0.333779  0.666890  0.437147  1
  Zr  Zr1  1  0.666438  0.333218  0.939544  1
  Sc  Sc2  1  0.666125  0.333062  0.561078  1
  Sc  Sc3  1  0.333918  0.666959  0.062726  1
  Re  Re4  1  0.340988  0.170494  0.249868  1
  Re  Re5  1  0.828430  0.171237  0.249869  1
  Re  Re6  1  0.169150  0.341366  0.749847  1
  Re  Re7  1  0.169150  0.827786  0.749847  1
  Re  Re8  1  0.828430  0.657192  0.249869  1
  Re  Re9  1  0.002178  0.001089  0.498792  1
  Re  Re10  1  0.001661  0.000831  0.001616  1
  W  W11  1  0.659752  0.829877  0.749799  1
