# generated using pymatgen
data_Er4Tc2Os5W
_symmetry_space_group_name_H-M   'P 1'
_cell_length_a   5.28913474
_cell_length_b   5.22092522
_cell_length_c   8.93573200
_cell_angle_alpha   90.00000000
_cell_angle_beta   90.00000000
_cell_angle_gamma   117.45285655
_symmetry_Int_Tables_number   1
_chemical_formula_structural   Er4Tc2Os5W
_chemical_formula_sum   'Er4 Tc2 Os5 W1'
_cell_volume   218.96615695
_cell_formula_units_Z   1
loop_
 _symmetry_equiv_pos_site_id
 _symmetry_equiv_pos_as_xyz
  1  'x, y, z'
loop_
 _atom_site_type_symbol
 _atom_site_label
 _atom_site_symmetry_multiplicity
 _atom_site_fract_x
 _atom_site_fract_y
 _atom_site_fract_z
 _atom_site_occupancy
  Er  Er0  1  0.329090  0.670168  0.434525  1
  Er  Er1  1  0.668839  0.332333  0.566134  1
  Er  Er2  1  0.668839  0.332333  0.933866  1
  Er  Er3  1  0.329090  0.670168  0.065475  1
  Tc  Tc4  1  0.165549  0.829817  0.750000  1
  Tc  Tc5  1  0.173539  0.347052  0.750000  1
  Os  Os6  1  0.999195  0.004826  0.501939  1
  Os  Os7  1  0.999195  0.004826  0.998061  1
  Os  Os8  1  0.824894  0.649069  0.250000  1
  Os  Os9  1  0.350650  0.174441  0.250000  1
  Os  Os10  1  0.651990  0.824628  0.750000  1
  W  W11  1  0.839127  0.160343  0.250000  1
