# generated using pymatgen
data_Pa2Nb3P7Rh9
_symmetry_space_group_name_H-M   'P 1'
_cell_length_a   3.96547700
_cell_length_b   9.62838507
_cell_length_c   9.62874126
_cell_angle_alpha   119.99871176
_cell_angle_beta   90.00004238
_cell_angle_gamma   90.00006228
_symmetry_Int_Tables_number   1
_chemical_formula_structural   Pa2Nb3P7Rh9
_chemical_formula_sum   'Pa2 Nb3 P7 Rh9'
_cell_volume   318.38651990
_cell_formula_units_Z   1
loop_
 _symmetry_equiv_pos_site_id
 _symmetry_equiv_pos_as_xyz
  1  'x, y, z'
loop_
 _atom_site_type_symbol
 _atom_site_label
 _atom_site_symmetry_multiplicity
 _atom_site_fract_x
 _atom_site_fract_y
 _atom_site_fract_z
 _atom_site_occupancy
  Pa  Pa0  1  0.261998  0.666663  0.333324  1
  Pa  Pa1  1  0.762130  0.333333  0.666687  1
  Nb  Nb2  1  0.761958  0.093668  0.872812  1
  Nb  Nb3  1  0.761954  0.127186  0.220823  1
  Nb  Nb4  1  0.761949  0.779108  0.906350  1
  P  P5  1  0.262185  0.999996  0.000010  1
  P  P6  1  0.761684  0.879137  0.593331  1
  P  P7  1  0.761668  0.406678  0.285767  1
  P  P8  1  0.761672  0.714230  0.120945  1
  P  P9  1  0.261973  0.114286  0.411885  1
  P  P10  1  0.261974  0.588105  0.702386  1
  P  P11  1  0.261975  0.297591  0.885701  1
  Rh  Rh12  1  0.261832  0.880274  0.161739  1
  Rh  Rh13  1  0.261853  0.838256  0.718578  1
  Rh  Rh14  1  0.261841  0.281462  0.119704  1
  Rh  Rh15  1  0.761878  0.609802  0.554622  1
  Rh  Rh16  1  0.761869  0.445360  0.055140  1
  Rh  Rh17  1  0.761858  0.944913  0.390239  1
  Rh  Rh18  1  0.261929  0.368676  0.441496  1
  Rh  Rh19  1  0.261913  0.558460  0.927146  1
  Rh  Rh20  1  0.261908  0.072817  0.631314  1
