# generated using pymatgen
data_Nd3Ho(Si3Ni5)4
_symmetry_space_group_name_H-M   'P 1'
_cell_length_a   3.83562900
_cell_length_b   18.91499167
_cell_length_c   6.60435072
_cell_angle_alpha   89.99727819
_cell_angle_beta   90.00000000
_cell_angle_gamma   90.00000000
_symmetry_Int_Tables_number   1
_chemical_formula_structural   Nd3Ho(Si3Ni5)4
_chemical_formula_sum   'Nd3 Ho1 Si12 Ni20'
_cell_volume   479.15152629
_cell_formula_units_Z   1
loop_
 _symmetry_equiv_pos_site_id
 _symmetry_equiv_pos_as_xyz
  1  'x, y, z'
loop_
 _atom_site_type_symbol
 _atom_site_label
 _atom_site_symmetry_multiplicity
 _atom_site_fract_x
 _atom_site_fract_y
 _atom_site_fract_z
 _atom_site_occupancy
  Nd  Nd0  1  0.750000  0.643260  0.123573  1
  Nd  Nd1  1  0.250000  0.355661  0.874970  1
  Nd  Nd2  1  0.250000  0.857889  0.625193  1
  Ho  Ho3  1  0.750000  0.143943  0.377758  1
  Si  Si4  1  0.750000  0.736248  0.618153  1
  Si  Si5  1  0.250000  0.261538  0.382803  1
  Si  Si6  1  0.250000  0.765117  0.116837  1
  Si  Si7  1  0.750000  0.234380  0.883263  1
  Si  Si8  1  0.750000  0.928275  0.339518  1
  Si  Si9  1  0.250000  0.073521  0.654671  1
  Si  Si10  1  0.250000  0.571013  0.839016  1
  Si  Si11  1  0.750000  0.427166  0.160262  1
  Si  Si12  1  0.750000  0.916196  0.928775  1
  Si  Si13  1  0.250000  0.088079  0.080201  1
  Si  Si14  1  0.250000  0.586712  0.430856  1
  Si  Si15  1  0.750000  0.411432  0.567378  1
  Ni  Ni16  1  0.750000  0.801751  0.310219  1
  Ni  Ni17  1  0.250000  0.197314  0.687585  1
  Ni  Ni18  1  0.250000  0.698919  0.810165  1
  Ni  Ni19  1  0.750000  0.299306  0.190634  1
  Ni  Ni20  1  0.750000  0.995893  0.634603  1
  Ni  Ni21  1  0.250000  0.006895  0.362896  1
  Ni  Ni22  1  0.250000  0.504675  0.138273  1
  Ni  Ni23  1  0.750000  0.493655  0.860960  1
  Ni  Ni24  1  0.750000  0.516391  0.390783  1
  Ni  Ni25  1  0.250000  0.481907  0.607782  1
  Ni  Ni26  1  0.250000  0.986722  0.891044  1
  Ni  Ni27  1  0.750000  0.019215  0.116472  1
  Ni  Ni28  1  0.750000  0.793898  0.927564  1
  Ni  Ni29  1  0.250000  0.206832  0.073937  1
  Ni  Ni30  1  0.250000  0.708319  0.427366  1
  Ni  Ni31  1  0.750000  0.289599  0.571778  1
  Ni  Ni32  1  0.750000  0.615591  0.646551  1
  Ni  Ni33  1  0.250000  0.382433  0.352702  1
  Ni  Ni34  1  0.250000  0.885899  0.144252  1
  Ni  Ni35  1  0.750000  0.114358  0.851208  1
