# generated using pymatgen
data_TbBi5MoWO14
_symmetry_space_group_name_H-M   'P 1'
_cell_length_a   6.58067643
_cell_length_b   6.94944548
_cell_length_c   7.65993855
_cell_angle_alpha   106.40926641
_cell_angle_beta   89.07938081
_cell_angle_gamma   101.61359023
_symmetry_Int_Tables_number   1
_chemical_formula_structural   TbBi5MoWO14
_chemical_formula_sum   'Tb1 Bi5 Mo1 W1 O14'
_cell_volume   328.84622962
_cell_formula_units_Z   1
loop_
 _symmetry_equiv_pos_site_id
 _symmetry_equiv_pos_as_xyz
  1  'x, y, z'
loop_
 _atom_site_type_symbol
 _atom_site_label
 _atom_site_symmetry_multiplicity
 _atom_site_fract_x
 _atom_site_fract_y
 _atom_site_fract_z
 _atom_site_occupancy
  Tb  Tb0  1  0.539336  0.999679  0.747731  1
  Bi  Bi1  1  0.476112  0.998548  0.243948  1
  Bi  Bi2  1  0.267924  0.511993  0.878372  1
  Bi  Bi3  1  0.744823  0.482320  0.119342  1
  Bi  Bi4  1  0.744760  0.522377  0.641905  1
  Bi  Bi5  1  0.261751  0.474989  0.360775  1
  Mo  Mo6  1  0.002042  0.999901  0.998018  1
  W  W7  1  0.000594  0.001438  0.501469  1
  O  O8  1  0.466635  0.630187  0.177590  1
  O  O9  1  0.542337  0.351274  0.816634  1
  O  O10  1  0.287600  0.945840  0.950091  1
  O  O11  1  0.707756  0.060465  0.040320  1
  O  O12  1  0.266326  0.952815  0.544338  1
  O  O13  1  0.719147  0.057972  0.481866  1
  O  O14  1  0.532460  0.343391  0.348139  1
  O  O15  1  0.471860  0.652372  0.647720  1
  O  O16  1  0.885880  0.686428  0.943680  1
  O  O17  1  0.108118  0.314970  0.053509  1
  O  O18  1  0.087488  0.295875  0.631200  1
  O  O19  1  0.908109  0.712398  0.370035  1
  O  O20  1  0.890179  0.930921  0.723674  1
  O  O21  1  0.088764  0.073847  0.279643  1
