# generated using pymatgen
data_Sc5WC5
_symmetry_space_group_name_H-M   'P 1'
_cell_length_a   5.68400951
_cell_length_b   5.65596399
_cell_length_c   5.65317257
_cell_angle_alpha   100.50030106
_cell_angle_beta   98.27789744
_cell_angle_gamma   119.95567773
_symmetry_Int_Tables_number   1
_chemical_formula_structural   Sc5WC5
_chemical_formula_sum   'Sc5 W1 C5'
_cell_volume   148.82011584
_cell_formula_units_Z   1
loop_
 _symmetry_equiv_pos_site_id
 _symmetry_equiv_pos_as_xyz
  1  'x, y, z'
loop_
 _atom_site_type_symbol
 _atom_site_label
 _atom_site_symmetry_multiplicity
 _atom_site_fract_x
 _atom_site_fract_y
 _atom_site_fract_z
 _atom_site_occupancy
  Sc  Sc0  1  0.092681  0.440334  0.253923  1
  Sc  Sc1  1  0.739507  0.729824  0.259950  1
  Sc  Sc2  1  0.259106  0.259233  0.733562  1
  Sc  Sc3  1  0.914681  0.574261  0.747793  1
  Sc  Sc4  1  0.555556  0.908989  0.742227  1
  W  W5  1  0.467857  0.092376  0.270843  1
  C  C6  1  0.651191  0.316181  0.016735  1
  C  C7  1  0.333546  0.689865  0.011429  1
  C  C8  1  0.813149  0.161841  0.485208  1
  C  C9  1  0.496544  0.476548  0.489938  1
  C  C10  1  0.176183  0.850552  0.488389  1
