# generated using pymatgen
data_Cs3Rb11Nb2(In3P5)2
_symmetry_space_group_name_H-M   'P 1'
_cell_length_a   8.57400366
_cell_length_b   9.56762878
_cell_length_c   14.36038535
_cell_angle_alpha   85.48643935
_cell_angle_beta   84.78748172
_cell_angle_gamma   86.65973008
_symmetry_Int_Tables_number   1
_chemical_formula_structural   Cs3Rb11Nb2(In3P5)2
_chemical_formula_sum   'Cs3 Rb11 Nb2 In6 P10'
_cell_volume   1167.96270358
_cell_formula_units_Z   1
loop_
 _symmetry_equiv_pos_site_id
 _symmetry_equiv_pos_as_xyz
  1  'x, y, z'
loop_
 _atom_site_type_symbol
 _atom_site_label
 _atom_site_symmetry_multiplicity
 _atom_site_fract_x
 _atom_site_fract_y
 _atom_site_fract_z
 _atom_site_occupancy
  Cs  Cs0  1  0.179834  0.189223  0.868932  1
  Cs  Cs1  1  0.315470  0.923099  0.113359  1
  Cs  Cs2  1  0.681523  0.659678  0.406933  1
  Rb  Rb3  1  0.846816  0.361909  0.651871  1
  Rb  Rb4  1  0.814852  0.804795  0.138116  1
  Rb  Rb5  1  0.236950  0.005680  0.466117  1
  Rb  Rb6  1  0.271404  0.257634  0.252236  1
  Rb  Rb7  1  0.739247  0.500321  0.973860  1
  Rb  Rb8  1  0.259141  0.502417  0.025315  1
  Rb  Rb9  1  0.680047  0.083604  0.885422  1
  Rb  Rb10  1  0.760477  0.997891  0.534075  1
  Rb  Rb11  1  0.726492  0.743617  0.747544  1
  Rb  Rb12  1  0.345384  0.343316  0.598619  1
  Rb  Rb13  1  0.161482  0.635349  0.347894  1
  Nb  Nb14  1  0.354255  0.604625  0.772434  1
  Nb  Nb15  1  0.645110  0.395126  0.226221  1
  In  In16  1  0.058576  0.810077  0.868655  1
  In  In17  1  0.938608  0.187835  0.131321  1
  In  In18  1  0.361548  0.948303  0.700667  1
  In  In19  1  0.090554  0.717470  0.621705  1
  In  In20  1  0.905903  0.280522  0.377306  1
  In  In21  1  0.635788  0.051317  0.296950  1
  P  P22  1  0.919798  0.449219  0.210881  1
  P  P23  1  0.620695  0.202806  0.125248  1
  P  P24  1  0.079740  0.550074  0.788897  1
  P  P25  1  0.585434  0.296117  0.387347  1
  P  P26  1  0.409598  0.703359  0.611211  1
  P  P27  1  0.031726  0.982709  0.701252  1
  P  P28  1  0.517812  0.405817  0.807212  1
  P  P29  1  0.484017  0.594108  0.190535  1
  P  P30  1  0.378670  0.798256  0.872066  1
  P  P31  1  0.963050  0.013725  0.299798  1
