# generated using pymatgen
data_Ba2Li2US5
_symmetry_space_group_name_H-M   'P 1'
_cell_length_a   4.17686370
_cell_length_b   7.20244512
_cell_length_c   9.19018023
_cell_angle_alpha   99.64287766
_cell_angle_beta   103.13499228
_cell_angle_gamma   106.85564865
_symmetry_Int_Tables_number   1
_chemical_formula_structural   Ba2Li2US5
_chemical_formula_sum   'Ba2 Li2 U1 S5'
_cell_volume   249.46293543
_cell_formula_units_Z   1
loop_
 _symmetry_equiv_pos_site_id
 _symmetry_equiv_pos_as_xyz
  1  'x, y, z'
loop_
 _atom_site_type_symbol
 _atom_site_label
 _atom_site_symmetry_multiplicity
 _atom_site_fract_x
 _atom_site_fract_y
 _atom_site_fract_z
 _atom_site_occupancy
  Ba  Ba0  1  0.451971  0.623200  0.280743  1
  Ba  Ba1  1  0.548029  0.376800  0.719257  1
  Li  Li2  1  0.752707  0.180416  0.324999  1
  Li  Li3  1  0.247293  0.819584  0.675001  1
  U  U4  1  0.000000  0.000000  0.000000  1
  S  S5  1  0.668721  0.271441  0.066002  1
  S  S6  1  0.138592  0.984294  0.292891  1
  S  S7  1  0.000001  0.500001  0.500000  1
  S  S8  1  0.861408  0.015706  0.707110  1
  S  S9  1  0.331280  0.728561  0.933998  1
