# generated using pymatgen
data_Cs2SmPWO8
_symmetry_space_group_name_H-M   'P 1'
_cell_length_a   7.13500616
_cell_length_b   12.58124002
_cell_length_c   12.81625800
_cell_angle_alpha   119.39523309
_cell_angle_beta   106.16220399
_cell_angle_gamma   89.99999989
_symmetry_Int_Tables_number   1
_chemical_formula_structural   Cs2SmPWO8
_chemical_formula_sum   'Cs8 Sm4 P4 W4 O32'
_cell_volume   949.82672032
_cell_formula_units_Z   4
loop_
 _symmetry_equiv_pos_site_id
 _symmetry_equiv_pos_as_xyz
  1  'x, y, z'
loop_
 _atom_site_type_symbol
 _atom_site_label
 _atom_site_symmetry_multiplicity
 _atom_site_fract_x
 _atom_site_fract_y
 _atom_site_fract_z
 _atom_site_occupancy
  Cs  Cs0  1  0.872603  0.256587  0.180604  1
  Cs  Cs1  1  0.372603  0.424017  0.180604  1
  Cs  Cs2  1  0.308001  0.756587  0.180604  1
  Cs  Cs3  1  0.808001  0.924017  0.180604  1
  Cs  Cs4  1  0.192000  0.075983  0.819396  1
  Cs  Cs5  1  0.691999  0.243413  0.819396  1
  Cs  Cs6  1  0.627397  0.575983  0.819396  1
  Cs  Cs7  1  0.127397  0.743413  0.819396  1
  Sm  Sm8  1  0.250000  0.171055  0.500000  1
  Sm  Sm9  1  0.750000  0.328946  0.500000  1
  Sm  Sm10  1  0.250000  0.671055  0.500000  1
  Sm  Sm11  1  0.750000  0.828946  0.500000  1
  P  P12  1  0.750000  0.073383  0.500000  1
  P  P13  1  0.250000  0.426617  0.500000  1
  P  P14  1  0.750000  0.573383  0.500000  1
  P  P15  1  0.250000  0.926617  0.500000  1
  W  W16  1  0.342109  0.092109  0.184218  1
  W  W17  1  0.842108  0.592109  0.184218  1
  W  W18  1  0.157892  0.407891  0.815783  1
  W  W19  1  0.657891  0.907891  0.815783  1
  O  O20  1  0.228619  0.153542  0.085403  1
  O  O21  1  0.728619  0.431861  0.085403  1
  O  O22  1  0.856784  0.653542  0.085403  1
  O  O23  1  0.356783  0.931861  0.085403  1
  O  O24  1  0.187048  0.105730  0.280929  1
  O  O25  1  0.593881  0.175198  0.280929  1
  O  O26  1  0.093880  0.605730  0.280929  1
  O  O27  1  0.687048  0.675198  0.280929  1
  O  O28  1  0.715296  0.441404  0.384914  1
  O  O29  1  0.215296  0.443510  0.384914  1
  O  O30  1  0.669617  0.941404  0.384914  1
  O  O31  1  0.169618  0.943510  0.384914  1
  O  O32  1  0.910960  0.143901  0.483815  1
  O  O33  1  0.072856  0.339913  0.483815  1
  O  O34  1  0.572855  0.643901  0.483815  1
  O  O35  1  0.410959  0.839913  0.483815  1
  O  O36  1  0.589040  0.160087  0.516184  1
  O  O37  1  0.427144  0.356099  0.516184  1
  O  O38  1  0.927145  0.660087  0.516184  1
  O  O39  1  0.089040  0.856099  0.516184  1
  O  O40  1  0.830382  0.056490  0.615086  1
  O  O41  1  0.330383  0.058596  0.615086  1
  O  O42  1  0.784703  0.556490  0.615086  1
  O  O43  1  0.284704  0.558596  0.615086  1
  O  O44  1  0.312952  0.324802  0.719072  1
  O  O45  1  0.906119  0.394270  0.719072  1
  O  O46  1  0.406120  0.824802  0.719072  1
  O  O47  1  0.812953  0.894270  0.719072  1
  O  O48  1  0.643217  0.068140  0.914597  1
  O  O49  1  0.143217  0.346458  0.914597  1
  O  O50  1  0.271381  0.568140  0.914597  1
  O  O51  1  0.771380  0.846458  0.914597  1
