# generated using pymatgen
data_Ca4Pr15ThGa12
_symmetry_space_group_name_H-M   'P 1'
_cell_length_a   7.91506200
_cell_length_b   7.91532783
_cell_length_c   14.62537800
_cell_angle_alpha   89.91629296
_cell_angle_beta   89.92381130
_cell_angle_gamma   89.91167209
_symmetry_Int_Tables_number   1
_chemical_formula_structural   Ca4Pr15ThGa12
_chemical_formula_sum   'Ca4 Pr15 Th1 Ga12'
_cell_volume   916.28159888
_cell_formula_units_Z   1
loop_
 _symmetry_equiv_pos_site_id
 _symmetry_equiv_pos_as_xyz
  1  'x, y, z'
loop_
 _atom_site_type_symbol
 _atom_site_label
 _atom_site_symmetry_multiplicity
 _atom_site_fract_x
 _atom_site_fract_y
 _atom_site_fract_z
 _atom_site_occupancy
  Ca  Ca0  1  0.001652  0.498370  0.746941  1
  Ca  Ca1  1  0.998979  0.500028  0.248105  1
  Ca  Ca2  1  0.499832  0.999070  0.253216  1
  Ca  Ca3  1  0.498585  0.001279  0.752759  1
  Pr  Pr4  1  0.173507  0.828126  0.100970  1
  Pr  Pr5  1  0.169895  0.827117  0.399926  1
  Pr  Pr6  1  0.829538  0.172648  0.400063  1
  Pr  Pr7  1  0.673605  0.671310  0.401098  1
  Pr  Pr8  1  0.671967  0.327229  0.601618  1
  Pr  Pr9  1  0.329978  0.674575  0.601473  1
  Pr  Pr10  1  0.670565  0.672931  0.101745  1
  Pr  Pr11  1  0.674044  0.329592  0.897270  1
  Pr  Pr12  1  0.828567  0.826044  0.898421  1
  Pr  Pr13  1  0.325922  0.328628  0.399272  1
  Pr  Pr14  1  0.171701  0.168786  0.599719  1
  Pr  Pr15  1  0.825926  0.171616  0.101041  1
  Pr  Pr16  1  0.327294  0.671575  0.897312  1
  Pr  Pr17  1  0.328715  0.326634  0.102099  1
  Pr  Pr18  1  0.170288  0.172529  0.897940  1
  Th  Th19  1  0.827454  0.829791  0.599392  1
  Ga  Ga20  1  0.616684  0.382699  0.251288  1
  Ga  Ga21  1  0.115251  0.880932  0.748319  1
  Ga  Ga22  1  0.383768  0.383566  0.749231  1
  Ga  Ga23  1  0.382358  0.616827  0.251207  1
  Ga  Ga24  1  0.882565  0.882665  0.250389  1
  Ga  Ga25  1  0.620269  0.620116  0.747715  1
  Ga  Ga26  1  0.999943  0.503232  0.503489  1
  Ga  Ga27  1  0.881080  0.114919  0.748232  1
  Ga  Ga28  1  0.503173  0.000150  0.500747  1
  Ga  Ga29  1  0.499871  0.000570  0.998464  1
  Ga  Ga30  1  0.116394  0.116647  0.250073  1
  Ga  Ga31  1  0.000629  0.499799  0.000465  1
