# generated using pymatgen
data_Dy4Y8InCo4Cu
_symmetry_space_group_name_H-M   'P 1'
_cell_length_a   8.29967969
_cell_length_b   8.29967999
_cell_length_c   8.29968111
_cell_angle_alpha   111.25511264
_cell_angle_beta   110.59169988
_cell_angle_gamma   106.60504706
_symmetry_Int_Tables_number   1
_chemical_formula_structural   Dy4Y8InCo4Cu
_chemical_formula_sum   'Dy4 Y8 In1 Co4 Cu1'
_cell_volume   439.27464939
_cell_formula_units_Z   1
loop_
 _symmetry_equiv_pos_site_id
 _symmetry_equiv_pos_as_xyz
  1  'x, y, z'
loop_
 _atom_site_type_symbol
 _atom_site_label
 _atom_site_symmetry_multiplicity
 _atom_site_fract_x
 _atom_site_fract_y
 _atom_site_fract_z
 _atom_site_occupancy
  Dy  Dy0  1  0.315130  0.620706  0.305575  1
  Dy  Dy1  1  0.684870  0.379294  0.694425  1
  Dy  Dy2  1  0.315130  0.009554  0.694425  1
  Dy  Dy3  1  0.684870  0.990446  0.305575  1
  Y  Y4  1  0.417178  0.219020  0.198159  1
  Y  Y5  1  0.582822  0.780980  0.801841  1
  Y  Y6  1  0.020861  0.219020  0.801841  1
  Y  Y7  1  0.979139  0.780980  0.198159  1
  Y  Y8  1  0.186142  0.289806  0.475949  1
  Y  Y9  1  0.813858  0.710194  0.524051  1
  Y  Y10  1  0.186142  0.710194  0.896336  1
  Y  Y11  1  0.813858  0.289806  0.103664  1
  In  In12  1  0.500000  0.500000  0.000000  1
  Co  Co13  1  0.377929  0.000000  0.377929  1
  Co  Co14  1  0.622071  0.000000  0.622071  1
  Co  Co15  1  0.112289  0.612289  0.500000  1
  Co  Co16  1  0.887711  0.387711  0.500000  1
  Cu  Cu17  1  0.000000  0.000000  0.000000  1
