# generated using pymatgen
data_Pr6Nd2Cd2TcPd
_symmetry_space_group_name_H-M   'P 1'
_cell_length_a   10.05074584
_cell_length_b   10.05074625
_cell_length_c   10.16117200
_cell_angle_alpha   59.63588185
_cell_angle_beta   59.63588048
_cell_angle_gamma   59.37339994
_symmetry_Int_Tables_number   1
_chemical_formula_structural   Pr6Nd2Cd2TcPd
_chemical_formula_sum   'Pr12 Nd4 Cd4 Tc2 Pd2'
_cell_volume   718.35137517
_cell_formula_units_Z   2
loop_
 _symmetry_equiv_pos_site_id
 _symmetry_equiv_pos_as_xyz
  1  'x, y, z'
loop_
 _atom_site_type_symbol
 _atom_site_label
 _atom_site_symmetry_multiplicity
 _atom_site_fract_x
 _atom_site_fract_y
 _atom_site_fract_z
 _atom_site_occupancy
  Pr  Pr0  1  0.814929  0.191029  0.190943  1
  Pr  Pr1  1  0.191029  0.814929  0.803099  1
  Pr  Pr2  1  0.191029  0.814929  0.190943  1
  Pr  Pr3  1  0.814929  0.191029  0.803099  1
  Pr  Pr4  1  0.190921  0.190921  0.809079  1
  Pr  Pr5  1  0.805507  0.805507  0.194493  1
  Pr  Pr6  1  0.937277  0.556826  0.565701  1
  Pr  Pr7  1  0.556826  0.937277  0.940195  1
  Pr  Pr8  1  0.556826  0.937277  0.565701  1
  Pr  Pr9  1  0.937277  0.556826  0.940195  1
  Pr  Pr10  1  0.563002  0.563002  0.936998  1
  Pr  Pr11  1  0.940484  0.940484  0.559516  1
  Nd  Nd12  1  0.347298  0.347298  0.355564  1
  Nd  Nd13  1  0.347298  0.347298  0.949841  1
  Nd  Nd14  1  0.342764  0.958896  0.349171  1
  Nd  Nd15  1  0.958896  0.342764  0.349171  1
  Cd  Cd16  1  0.579583  0.579583  0.579770  1
  Cd  Cd17  1  0.579583  0.579583  0.261063  1
  Cd  Cd18  1  0.579698  0.259846  0.580228  1
  Cd  Cd19  1  0.259846  0.579698  0.580228  1
  Tc  Tc20  1  0.142211  0.142211  0.133455  1
  Tc  Tc21  1  0.142211  0.142211  0.582124  1
  Pd  Pd22  1  0.147165  0.573410  0.139713  1
  Pd  Pd23  1  0.573410  0.147165  0.139713  1
