# generated using pymatgen
data_Sr2DyTm(NiP)4
_symmetry_space_group_name_H-M   'P 1'
_cell_length_a   3.90221800
_cell_length_b   3.90221857
_cell_length_c   16.67141200
_cell_angle_alpha   90.00000000
_cell_angle_beta   90.00000000
_cell_angle_gamma   120.00001212
_symmetry_Int_Tables_number   1
_chemical_formula_structural   Sr2DyTm(NiP)4
_chemical_formula_sum   'Sr2 Dy1 Tm1 Ni4 P4'
_cell_volume   219.84980371
_cell_formula_units_Z   1
loop_
 _symmetry_equiv_pos_site_id
 _symmetry_equiv_pos_as_xyz
  1  'x, y, z'
loop_
 _atom_site_type_symbol
 _atom_site_label
 _atom_site_symmetry_multiplicity
 _atom_site_fract_x
 _atom_site_fract_y
 _atom_site_fract_z
 _atom_site_occupancy
  Sr  Sr0  1  0.000000  0.000000  0.249230  1
  Sr  Sr1  1  0.000000  0.000000  0.750770  1
  Dy  Dy2  1  0.000000  0.000000  0.500000  1
  Tm  Tm3  1  0.000000  0.000000  0.000000  1
  Ni  Ni4  1  0.333333  0.666667  0.385295  1
  Ni  Ni5  1  0.666667  0.333333  0.614705  1
  Ni  Ni6  1  0.666667  0.333333  0.887541  1
  Ni  Ni7  1  0.333333  0.666667  0.112459  1
  P  P8  1  0.333333  0.666667  0.886976  1
  P  P9  1  0.666667  0.333333  0.113024  1
  P  P10  1  0.666667  0.333333  0.384798  1
  P  P11  1  0.333333  0.666667  0.615202  1
