# generated using pymatgen
data_NiOs3Pb4O13
_symmetry_space_group_name_H-M   'P 1'
_cell_length_a   7.36849379
_cell_length_b   7.36849463
_cell_length_c   7.36849352
_cell_angle_alpha   60.33205630
_cell_angle_beta   60.33206215
_cell_angle_gamma   60.33205589
_symmetry_Int_Tables_number   1
_chemical_formula_structural   NiOs3Pb4O13
_chemical_formula_sum   'Ni1 Os3 Pb4 O13'
_cell_volume   285.01762405
_cell_formula_units_Z   1
loop_
 _symmetry_equiv_pos_site_id
 _symmetry_equiv_pos_as_xyz
  1  'x, y, z'
loop_
 _atom_site_type_symbol
 _atom_site_label
 _atom_site_symmetry_multiplicity
 _atom_site_fract_x
 _atom_site_fract_y
 _atom_site_fract_z
 _atom_site_occupancy
  Ni  Ni0  1  0.499843  0.499843  0.499843  1
  Os  Os1  1  0.000547  0.499789  0.499789  1
  Os  Os2  1  0.499789  0.499789  0.000547  1
  Os  Os3  1  0.499789  0.000547  0.499789  1
  Pb  Pb4  1  0.996675  0.996675  0.996675  1
  Pb  Pb5  1  0.504275  0.999174  0.999174  1
  Pb  Pb6  1  0.999174  0.999174  0.504275  1
  Pb  Pb7  1  0.999174  0.504275  0.999174  1
  O  O8  1  0.840456  0.422424  0.422424  1
  O  O9  1  0.417663  0.819936  0.819936  1
  O  O10  1  0.422424  0.422424  0.840456  1
  O  O11  1  0.819936  0.819936  0.417663  1
  O  O12  1  0.819936  0.417663  0.819936  1
  O  O13  1  0.422424  0.840456  0.422424  1
  O  O14  1  0.161885  0.575532  0.575532  1
  O  O15  1  0.576825  0.184932  0.184932  1
  O  O16  1  0.575532  0.575532  0.161885  1
  O  O17  1  0.184932  0.184932  0.576825  1
  O  O18  1  0.184932  0.576825  0.184932  1
  O  O19  1  0.575532  0.161885  0.575532  1
  O  O20  1  0.123253  0.123253  0.123253  1
