# generated using pymatgen
data_YHoPd2O7
_symmetry_space_group_name_H-M   'P 1'
_cell_length_a   7.24957711
_cell_length_b   7.24628967
_cell_length_c   7.24957730
_cell_angle_alpha   60.01500404
_cell_angle_beta   60.02694674
_cell_angle_gamma   60.01499865
_symmetry_Int_Tables_number   1
_chemical_formula_structural   YHoPd2O7
_chemical_formula_sum   'Y2 Ho2 Pd4 O14'
_cell_volume   269.40949321
_cell_formula_units_Z   2
loop_
 _symmetry_equiv_pos_site_id
 _symmetry_equiv_pos_as_xyz
  1  'x, y, z'
loop_
 _atom_site_type_symbol
 _atom_site_label
 _atom_site_symmetry_multiplicity
 _atom_site_fract_x
 _atom_site_fract_y
 _atom_site_fract_z
 _atom_site_occupancy
  Y  Y0  1  0.125000  0.625000  0.125000  1
  Y  Y1  1  0.125000  0.125000  0.125000  1
  Ho  Ho2  1  0.625000  0.125000  0.125000  1
  Ho  Ho3  1  0.125000  0.125000  0.625000  1
  Pd  Pd4  1  0.125000  0.625000  0.625000  1
  Pd  Pd5  1  0.625000  0.125000  0.625000  1
  Pd  Pd6  1  0.625000  0.625000  0.125000  1
  Pd  Pd7  1  0.625000  0.625000  0.625000  1
  O  O8  1  0.714411  0.716871  0.284529  1
  O  O9  1  0.284529  0.284189  0.714411  1
  O  O10  1  0.715877  0.284123  0.715877  1
  O  O11  1  0.284616  0.715384  0.284616  1
  O  O12  1  0.284529  0.716871  0.714411  1
  O  O13  1  0.714411  0.284189  0.284529  1
  O  O14  1  0.535589  0.533129  0.965471  1
  O  O15  1  0.965471  0.965811  0.535589  1
  O  O16  1  0.534123  0.965877  0.534123  1
  O  O17  1  0.965384  0.534616  0.965384  1
  O  O18  1  0.965471  0.533129  0.535589  1
  O  O19  1  0.535589  0.965811  0.965471  1
  O  O20  1  0.251293  0.248707  0.251293  1
  O  O21  1  0.998707  0.001293  0.998707  1
