# generated using pymatgen
data_Hf6Ta4Ge6C
_symmetry_space_group_name_H-M   'P 1'
_cell_length_a   7.86892200
_cell_length_b   7.86892256
_cell_length_c   5.43729300
_cell_angle_alpha   90.00000000
_cell_angle_beta   90.00000000
_cell_angle_gamma   119.99999764
_symmetry_Int_Tables_number   1
_chemical_formula_structural   Hf6Ta4Ge6C
_chemical_formula_sum   'Hf6 Ta4 Ge6 C1'
_cell_volume   291.57070727
_cell_formula_units_Z   1
loop_
 _symmetry_equiv_pos_site_id
 _symmetry_equiv_pos_as_xyz
  1  'x, y, z'
loop_
 _atom_site_type_symbol
 _atom_site_label
 _atom_site_symmetry_multiplicity
 _atom_site_fract_x
 _atom_site_fract_y
 _atom_site_fract_z
 _atom_site_occupancy
  Hf  Hf0  1  0.000000  0.758519  0.255608  1
  Hf  Hf1  1  0.241481  0.241481  0.255608  1
  Hf  Hf2  1  0.758519  0.000000  0.255608  1
  Hf  Hf3  1  0.000000  0.241481  0.744392  1
  Hf  Hf4  1  0.758519  0.758519  0.744392  1
  Hf  Hf5  1  0.241481  0.000000  0.744392  1
  Ta  Ta6  1  0.333333  0.666667  0.000000  1
  Ta  Ta7  1  0.666667  0.333333  0.000000  1
  Ta  Ta8  1  0.666667  0.333333  0.500000  1
  Ta  Ta9  1  0.333333  0.666667  0.500000  1
  Ge  Ge10  1  0.000000  0.398982  0.244649  1
  Ge  Ge11  1  0.601018  0.601018  0.244649  1
  Ge  Ge12  1  0.398982  0.000000  0.244649  1
  Ge  Ge13  1  0.000000  0.601018  0.755351  1
  Ge  Ge14  1  0.398982  0.398982  0.755351  1
  Ge  Ge15  1  0.601018  0.000000  0.755351  1
  C  C16  1  0.000000  0.000000  0.500000  1
