# generated using pymatgen
data_Pr4PBr6
_symmetry_space_group_name_H-M   'P 1'
_cell_length_a   4.25403500
_cell_length_b   13.55726400
_cell_length_c   14.50038700
_cell_angle_alpha   90.00000000
_cell_angle_beta   90.00000000
_cell_angle_gamma   90.00000000
_symmetry_Int_Tables_number   1
_chemical_formula_structural   Pr4PBr6
_chemical_formula_sum   'Pr8 P2 Br12'
_cell_volume   836.28191510
_cell_formula_units_Z   2
loop_
 _symmetry_equiv_pos_site_id
 _symmetry_equiv_pos_as_xyz
  1  'x, y, z'
loop_
 _atom_site_type_symbol
 _atom_site_label
 _atom_site_symmetry_multiplicity
 _atom_site_fract_x
 _atom_site_fract_y
 _atom_site_fract_z
 _atom_site_occupancy
  Pr  Pr0  1  0.500000  0.118337  0.341678  1
  Pr  Pr1  1  0.500000  0.881663  0.658322  1
  Pr  Pr2  1  0.500000  0.618337  0.158322  1
  Pr  Pr3  1  0.500000  0.381663  0.841678  1
  Pr  Pr4  1  0.000000  0.115526  0.576705  1
  Pr  Pr5  1  0.000000  0.884474  0.423295  1
  Pr  Pr6  1  0.000000  0.615526  0.923295  1
  Pr  Pr7  1  0.000000  0.384474  0.076705  1
  P  P8  1  0.500000  0.000000  0.500000  1
  P  P9  1  0.500000  0.500000  0.000000  1
  Br  Br10  1  0.500000  0.244296  0.161428  1
  Br  Br11  1  0.500000  0.755704  0.838572  1
  Br  Br12  1  0.500000  0.744296  0.338572  1
  Br  Br13  1  0.500000  0.255704  0.661428  1
  Br  Br14  1  0.000000  0.256495  0.411816  1
  Br  Br15  1  0.000000  0.743505  0.588184  1
  Br  Br16  1  0.000000  0.756495  0.088184  1
  Br  Br17  1  0.000000  0.243505  0.911816  1
  Br  Br18  1  0.000000  0.001285  0.242508  1
  Br  Br19  1  0.000000  0.998715  0.757492  1
  Br  Br20  1  0.000000  0.501285  0.257492  1
  Br  Br21  1  0.000000  0.498715  0.742508  1
