# generated using pymatgen
data_Y6Pd2RhAu5
_symmetry_space_group_name_H-M   'P 1'
_cell_length_a   8.00706170
_cell_length_b   8.05563663
_cell_length_c   8.03859755
_cell_angle_alpha   114.50691758
_cell_angle_beta   114.34089348
_cell_angle_gamma   114.00326285
_symmetry_Int_Tables_number   1
_chemical_formula_structural   Y6Pd2RhAu5
_chemical_formula_sum   'Y6 Pd2 Rh1 Au5'
_cell_volume   308.27603782
_cell_formula_units_Z   1
loop_
 _symmetry_equiv_pos_site_id
 _symmetry_equiv_pos_as_xyz
  1  'x, y, z'
loop_
 _atom_site_type_symbol
 _atom_site_label
 _atom_site_symmetry_multiplicity
 _atom_site_fract_x
 _atom_site_fract_y
 _atom_site_fract_z
 _atom_site_occupancy
  Y  Y0  1  0.392311  0.019729  0.268639  1
  Y  Y1  1  0.028143  0.278572  0.397709  1
  Y  Y2  1  0.268652  0.386502  0.021667  1
  Y  Y3  1  0.607797  0.968415  0.730002  1
  Y  Y4  1  0.978352  0.733740  0.614075  1
  Y  Y5  1  0.725709  0.615946  0.974274  1
  Pd  Pd6  1  0.498492  0.496975  0.498381  1
  Pd  Pd7  1  0.439551  0.769297  0.932550  1
  Rh  Rh8  1  0.004671  0.004264  0.005919  1
  Au  Au9  1  0.231204  0.067325  0.559687  1
  Au  Au10  1  0.061802  0.559283  0.226474  1
  Au  Au11  1  0.561806  0.227274  0.069064  1
  Au  Au12  1  0.762536  0.929128  0.432020  1
  Au  Au13  1  0.938973  0.443549  0.769541  1
