# generated using pymatgen
data_KSi2Au5
_symmetry_space_group_name_H-M   'P 1'
_cell_length_a   7.07128500
_cell_length_b   9.10318500
_cell_length_c   10.14524100
_cell_angle_alpha   90.00000000
_cell_angle_beta   90.00000000
_cell_angle_gamma   90.00000000
_symmetry_Int_Tables_number   1
_chemical_formula_structural   KSi2Au5
_chemical_formula_sum   'K4 Si8 Au20'
_cell_volume   653.06149514
_cell_formula_units_Z   4
loop_
 _symmetry_equiv_pos_site_id
 _symmetry_equiv_pos_as_xyz
  1  'x, y, z'
loop_
 _atom_site_type_symbol
 _atom_site_label
 _atom_site_symmetry_multiplicity
 _atom_site_fract_x
 _atom_site_fract_y
 _atom_site_fract_z
 _atom_site_occupancy
  K  K0  1  0.250000  0.246681  0.120298  1
  K  K1  1  0.250000  0.746681  0.379702  1
  K  K2  1  0.750000  0.753319  0.879702  1
  K  K3  1  0.750000  0.253319  0.620298  1
  Si  Si4  1  0.250000  0.042920  0.633126  1
  Si  Si5  1  0.250000  0.542920  0.866874  1
  Si  Si6  1  0.750000  0.957080  0.366874  1
  Si  Si7  1  0.750000  0.457080  0.133126  1
  Si  Si8  1  0.250000  0.326282  0.458220  1
  Si  Si9  1  0.250000  0.826282  0.041780  1
  Si  Si10  1  0.750000  0.673718  0.541780  1
  Si  Si11  1  0.750000  0.173718  0.958220  1
  Au  Au12  1  0.046391  0.101049  0.396497  1
  Au  Au13  1  0.453609  0.601049  0.103503  1
  Au  Au14  1  0.546391  0.898951  0.603503  1
  Au  Au15  1  0.953609  0.398951  0.896497  1
  Au  Au16  1  0.953609  0.898951  0.603503  1
  Au  Au17  1  0.546391  0.398951  0.896497  1
  Au  Au18  1  0.453609  0.101049  0.396497  1
  Au  Au19  1  0.046391  0.601049  0.103503  1
  Au  Au20  1  0.033413  0.069321  0.860362  1
  Au  Au21  1  0.466587  0.569321  0.639638  1
  Au  Au22  1  0.533413  0.930679  0.139638  1
  Au  Au23  1  0.966587  0.430679  0.360362  1
  Au  Au24  1  0.966587  0.930679  0.139638  1
  Au  Au25  1  0.533413  0.430679  0.360362  1
  Au  Au26  1  0.466587  0.069321  0.860362  1
  Au  Au27  1  0.033413  0.569321  0.639638  1
  Au  Au28  1  0.250000  0.303988  0.698981  1
  Au  Au29  1  0.250000  0.803988  0.801019  1
  Au  Au30  1  0.750000  0.696012  0.301019  1
  Au  Au31  1  0.750000  0.196012  0.198981  1
