# generated using pymatgen
data_Lu4Co3Ru5
_symmetry_space_group_name_H-M   'P 1'
_cell_length_a   5.09736443
_cell_length_b   5.09075325
_cell_length_c   8.74685000
_cell_angle_alpha   90.00000000
_cell_angle_beta   90.00000000
_cell_angle_gamma   119.95708774
_symmetry_Int_Tables_number   1
_chemical_formula_structural   Lu4Co3Ru5
_chemical_formula_sum   'Lu4 Co3 Ru5'
_cell_volume   196.65168578
_cell_formula_units_Z   1
loop_
 _symmetry_equiv_pos_site_id
 _symmetry_equiv_pos_as_xyz
  1  'x, y, z'
loop_
 _atom_site_type_symbol
 _atom_site_label
 _atom_site_symmetry_multiplicity
 _atom_site_fract_x
 _atom_site_fract_y
 _atom_site_fract_z
 _atom_site_occupancy
  Lu  Lu0  1  0.330580  0.665291  0.434690  1
  Lu  Lu1  1  0.663145  0.331572  0.568434  1
  Lu  Lu2  1  0.663145  0.331572  0.931566  1
  Lu  Lu3  1  0.330580  0.665291  0.065310  1
  Co  Co4  1  0.175266  0.344667  0.750000  1
  Co  Co5  1  0.175266  0.830600  0.750000  1
  Co  Co6  1  0.340279  0.170139  0.250000  1
  Ru  Ru7  1  0.831718  0.659227  0.250000  1
  Ru  Ru8  1  0.662367  0.831184  0.750000  1
  Ru  Ru9  1  0.997968  0.998984  0.996281  1
  Ru  Ru10  1  0.831718  0.172490  0.250000  1
  Ru  Ru11  1  0.997968  0.998984  0.503719  1
