# generated using pymatgen
data_YHo3(B4Ir)4
_symmetry_space_group_name_H-M   'P 1'
_cell_length_a   5.97187506
_cell_length_b   11.57919312
_cell_length_c   3.57237900
_cell_angle_alpha   90.00000000
_cell_angle_beta   90.00000000
_cell_angle_gamma   89.98343691
_symmetry_Int_Tables_number   1
_chemical_formula_structural   YHo3(B4Ir)4
_chemical_formula_sum   'Y1 Ho3 B16 Ir4'
_cell_volume   247.02819220
_cell_formula_units_Z   1
loop_
 _symmetry_equiv_pos_site_id
 _symmetry_equiv_pos_as_xyz
  1  'x, y, z'
loop_
 _atom_site_type_symbol
 _atom_site_label
 _atom_site_symmetry_multiplicity
 _atom_site_fract_x
 _atom_site_fract_y
 _atom_site_fract_z
 _atom_site_occupancy
  Y  Y0  1  0.631626  0.851594  0.000000  1
  Ho  Ho1  1  0.368498  0.148575  0.000000  1
  Ho  Ho2  1  0.868518  0.351545  0.000000  1
  Ho  Ho3  1  0.131482  0.648373  0.000000  1
  B  B4  1  0.635888  0.030808  0.499999  1
  B  B5  1  0.112836  0.046667  0.499999  1
  B  B6  1  0.708122  0.187919  0.499999  1
  B  B7  1  0.024563  0.192644  0.499999  1
  B  B8  1  0.524535  0.307485  0.499999  1
  B  B9  1  0.208226  0.312135  0.499999  1
  B  B10  1  0.612700  0.453466  0.499999  1
  B  B11  1  0.135837  0.469570  0.499999  1
  B  B12  1  0.864315  0.530298  0.499999  1
  B  B13  1  0.387201  0.546328  0.499999  1
  B  B14  1  0.792103  0.687427  0.499999  1
  B  B15  1  0.475087  0.692144  0.499999  1
  B  B16  1  0.976189  0.807297  0.499999  1
  B  B17  1  0.290866  0.811948  0.499999  1
  B  B18  1  0.887869  0.953864  0.499999  1
  B  B19  1  0.363749  0.969936  0.499999  1
  Ir  Ir20  1  0.856296  0.097328  0.000000  1
  Ir  Ir21  1  0.355835  0.402986  0.000000  1
  Ir  Ir22  1  0.644052  0.596414  0.000000  1
  Ir  Ir23  1  0.143609  0.903252  0.000000  1
