# generated using pymatgen
data_Tb8Tm9Lu3Si16
_symmetry_space_group_name_H-M   'P 1'
_cell_length_a   7.34846205
_cell_length_b   7.62416905
_cell_length_c   14.46567700
_cell_angle_alpha   90.00000000
_cell_angle_beta   90.00000000
_cell_angle_gamma   89.98702745
_symmetry_Int_Tables_number   1
_chemical_formula_structural   Tb8Tm9Lu3Si16
_chemical_formula_sum   'Tb8 Tm9 Lu3 Si16'
_cell_volume   810.45279667
_cell_formula_units_Z   1
loop_
 _symmetry_equiv_pos_site_id
 _symmetry_equiv_pos_as_xyz
  1  'x, y, z'
loop_
 _atom_site_type_symbol
 _atom_site_label
 _atom_site_symmetry_multiplicity
 _atom_site_fract_x
 _atom_site_fract_y
 _atom_site_fract_z
 _atom_site_occupancy
  Tb  Tb0  1  0.524354  0.680287  0.597887  1
  Tb  Tb1  1  0.024535  0.819722  0.902090  1
  Tb  Tb2  1  0.475582  0.319830  0.097924  1
  Tb  Tb3  1  0.975559  0.180161  0.402061  1
  Tb  Tb4  1  0.475582  0.319830  0.402076  1
  Tb  Tb5  1  0.975559  0.180161  0.097939  1
  Tb  Tb6  1  0.524354  0.680287  0.902113  1
  Tb  Tb7  1  0.024535  0.819722  0.597910  1
  Tm  Tm8  1  0.679247  0.178952  0.623356  1
  Tm  Tm9  1  0.179471  0.320997  0.876662  1
  Tm  Tm10  1  0.320615  0.821049  0.123342  1
  Tm  Tm11  1  0.820540  0.678934  0.376637  1
  Tm  Tm12  1  0.320615  0.821049  0.376658  1
  Tm  Tm13  1  0.820540  0.678934  0.123363  1
  Tm  Tm14  1  0.679247  0.178952  0.876644  1
  Tm  Tm15  1  0.179471  0.320997  0.623338  1
  Tm  Tm16  1  0.849586  0.510475  0.750000  1
  Lu  Lu17  1  0.349531  0.989527  0.750000  1
  Lu  Lu18  1  0.150507  0.489515  0.250000  1
  Lu  Lu19  1  0.650473  0.010453  0.250000  1
  Si  Si20  1  0.648720  0.970419  0.459590  1
  Si  Si21  1  0.148735  0.529558  0.040418  1
  Si  Si22  1  0.351302  0.029588  0.959558  1
  Si  Si23  1  0.851319  0.470291  0.540286  1
  Si  Si24  1  0.351302  0.029588  0.540442  1
  Si  Si25  1  0.851319  0.470291  0.959714  1
  Si  Si26  1  0.648720  0.970419  0.040410  1
  Si  Si27  1  0.148735  0.529558  0.459582  1
  Si  Si28  1  0.476737  0.392036  0.750000  1
  Si  Si29  1  0.977184  0.107866  0.750000  1
  Si  Si30  1  0.522926  0.607691  0.250000  1
  Si  Si31  1  0.022910  0.892205  0.250000  1
  Si  Si32  1  0.729208  0.873406  0.750000  1
  Si  Si33  1  0.229753  0.627264  0.750000  1
  Si  Si34  1  0.270624  0.127041  0.250000  1
  Si  Si35  1  0.770603  0.372944  0.250000  1
