# generated using pymatgen
data_Er5Re3(P3Rh4)4
_symmetry_space_group_name_H-M   'P 1'
_cell_length_a   12.63283100
_cell_length_b   12.63283026
_cell_length_c   3.97341700
_cell_angle_alpha   90.00000000
_cell_angle_beta   90.00000000
_cell_angle_gamma   119.99999932
_symmetry_Int_Tables_number   1
_chemical_formula_structural   Er5Re3(P3Rh4)4
_chemical_formula_sum   'Er5 Re3 P12 Rh16'
_cell_volume   549.15649848
_cell_formula_units_Z   1
loop_
 _symmetry_equiv_pos_site_id
 _symmetry_equiv_pos_as_xyz
  1  'x, y, z'
loop_
 _atom_site_type_symbol
 _atom_site_label
 _atom_site_symmetry_multiplicity
 _atom_site_fract_x
 _atom_site_fract_y
 _atom_site_fract_z
 _atom_site_occupancy
  Er  Er0  1  0.666667  0.333333  0.000000  1
  Er  Er1  1  0.333333  0.666667  0.000000  1
  Er  Er2  1  0.817619  0.817619  0.500000  1
  Er  Er3  1  0.182381  0.000000  0.500000  1
  Er  Er4  1  0.000000  0.182381  0.500000  1
  Re  Re5  1  0.286783  0.286783  0.500000  1
  Re  Re6  1  0.713217  0.000000  0.500000  1
  Re  Re7  1  0.000000  0.713217  0.500000  1
  P  P8  1  0.688417  0.170192  0.500000  1
  P  P9  1  0.829808  0.518226  0.500000  1
  P  P10  1  0.481774  0.311583  0.500000  1
  P  P11  1  0.170192  0.688417  0.500000  1
  P  P12  1  0.518226  0.829808  0.500000  1
  P  P13  1  0.311583  0.481774  0.500000  1
  P  P14  1  0.635403  0.635403  0.000000  1
  P  P15  1  0.364597  0.000000  0.000000  1
  P  P16  1  0.000000  0.364597  0.000000  1
  P  P17  1  0.180387  0.180387  0.000000  1
  P  P18  1  0.819613  0.000000  0.000000  1
  P  P19  1  0.000000  0.819613  0.000000  1
  Rh  Rh20  1  0.806820  0.183827  0.000000  1
  Rh  Rh21  1  0.816173  0.622994  0.000000  1
  Rh  Rh22  1  0.377006  0.193180  0.000000  1
  Rh  Rh23  1  0.183827  0.806820  0.000000  1
  Rh  Rh24  1  0.622994  0.816173  0.000000  1
  Rh  Rh25  1  0.193180  0.377006  0.000000  1
  Rh  Rh26  1  0.452035  0.452035  0.000000  1
  Rh  Rh27  1  0.547965  0.000000  0.000000  1
  Rh  Rh28  1  0.000000  0.547965  0.000000  1
  Rh  Rh29  1  0.869505  0.360296  0.500000  1
  Rh  Rh30  1  0.639704  0.509210  0.500000  1
  Rh  Rh31  1  0.490790  0.130495  0.500000  1
  Rh  Rh32  1  0.360296  0.869505  0.500000  1
  Rh  Rh33  1  0.509210  0.639704  0.500000  1
  Rh  Rh34  1  0.130495  0.490790  0.500000  1
  Rh  Rh35  1  0.000000  0.000000  0.000000  1
