# generated using pymatgen
data_Hf18V3Re5S2
_symmetry_space_group_name_H-M   'P 1'
_cell_length_a   8.63934700
_cell_length_b   8.63935088
_cell_length_c   8.34642500
_cell_angle_alpha   90.00000000
_cell_angle_beta   90.00000000
_cell_angle_gamma   120.11490909
_symmetry_Int_Tables_number   1
_chemical_formula_structural   Hf18V3Re5S2
_chemical_formula_sum   'Hf18 V3 Re5 S2'
_cell_volume   538.87634809
_cell_formula_units_Z   1
loop_
 _symmetry_equiv_pos_site_id
 _symmetry_equiv_pos_as_xyz
  1  'x, y, z'
loop_
 _atom_site_type_symbol
 _atom_site_label
 _atom_site_symmetry_multiplicity
 _atom_site_fract_x
 _atom_site_fract_y
 _atom_site_fract_z
 _atom_site_occupancy
  Hf  Hf0  1  0.193265  0.806736  0.447045  1
  Hf  Hf1  1  0.193640  0.387432  0.446620  1
  Hf  Hf2  1  0.612564  0.806359  0.446618  1
  Hf  Hf3  1  0.805606  0.194393  0.553238  1
  Hf  Hf4  1  0.805078  0.610874  0.554165  1
  Hf  Hf5  1  0.389126  0.194923  0.554166  1
  Hf  Hf6  1  0.805606  0.194393  0.946762  1
  Hf  Hf7  1  0.805078  0.610874  0.945835  1
  Hf  Hf8  1  0.389126  0.194923  0.945834  1
  Hf  Hf9  1  0.193265  0.806736  0.052955  1
  Hf  Hf10  1  0.193640  0.387432  0.053380  1
  Hf  Hf11  1  0.612564  0.806359  0.053382  1
  Hf  Hf12  1  0.545364  0.454638  0.250000  1
  Hf  Hf13  1  0.546278  0.087168  0.250000  1
  Hf  Hf14  1  0.912831  0.453721  0.250000  1
  Hf  Hf15  1  0.453703  0.546298  0.750000  1
  Hf  Hf16  1  0.455433  0.911095  0.750000  1
  Hf  Hf17  1  0.088904  0.544568  0.750000  1
  V  V18  1  0.891712  0.108286  0.250000  1
  V  V19  1  0.999921  0.000081  0.497185  1
  V  V20  1  0.999921  0.000081  0.002815  1
  Re  Re21  1  0.889496  0.782945  0.250000  1
  Re  Re22  1  0.217056  0.110505  0.250000  1
  Re  Re23  1  0.109283  0.890717  0.750000  1
  Re  Re24  1  0.109918  0.218032  0.750000  1
  Re  Re25  1  0.781968  0.890082  0.750000  1
  S  S26  1  0.331267  0.668734  0.250000  1
  S  S27  1  0.668390  0.331610  0.750000  1
