# generated using pymatgen
data_Hf2Zr(TiTc)2
_symmetry_space_group_name_H-M   'P 1'
_cell_length_a   7.32957850
_cell_length_b   7.32957841
_cell_length_c   7.32957782
_cell_angle_alpha   37.08726779
_cell_angle_beta   37.08726888
_cell_angle_gamma   37.08726339
_symmetry_Int_Tables_number   1
_chemical_formula_structural   Hf2Zr(TiTc)2
_chemical_formula_sum   'Hf2 Zr1 Ti2 Tc2'
_cell_volume   128.32149973
_cell_formula_units_Z   1
loop_
 _symmetry_equiv_pos_site_id
 _symmetry_equiv_pos_as_xyz
  1  'x, y, z'
loop_
 _atom_site_type_symbol
 _atom_site_label
 _atom_site_symmetry_multiplicity
 _atom_site_fract_x
 _atom_site_fract_y
 _atom_site_fract_z
 _atom_site_occupancy
  Hf  Hf0  1  0.191221  0.191221  0.191221  1
  Hf  Hf1  1  0.768430  0.768430  0.768430  1
  Zr  Zr2  1  0.343749  0.343749  0.343749  1
  Ti  Ti3  1  0.607763  0.607763  0.607763  1
  Ti  Ti4  1  0.927393  0.927393  0.927393  1
  Tc  Tc5  1  0.052141  0.052141  0.052141  1
  Tc  Tc6  1  0.484301  0.484301  0.484301  1
