# generated using pymatgen
data_MgZr6Al15Pt6Rh
_symmetry_space_group_name_H-M   'P 1'
_cell_length_a   8.80136999
_cell_length_b   8.80137049
_cell_length_c   8.79933112
_cell_angle_alpha   59.99233973
_cell_angle_beta   59.99233623
_cell_angle_gamma   59.99999969
_symmetry_Int_Tables_number   1
_chemical_formula_structural   MgZr6Al15Pt6Rh
_chemical_formula_sum   'Mg1 Zr6 Al15 Pt6 Rh1'
_cell_volume   481.93108209
_cell_formula_units_Z   1
loop_
 _symmetry_equiv_pos_site_id
 _symmetry_equiv_pos_as_xyz
  1  'x, y, z'
loop_
 _atom_site_type_symbol
 _atom_site_label
 _atom_site_symmetry_multiplicity
 _atom_site_fract_x
 _atom_site_fract_y
 _atom_site_fract_z
 _atom_site_occupancy
  Mg  Mg0  1  0.882508  0.882508  0.352473  1
  Zr  Zr1  1  0.684760  0.684760  0.314614  1
  Zr  Zr2  1  0.315867  0.684760  0.314614  1
  Zr  Zr3  1  0.684760  0.315867  0.314614  1
  Zr  Zr4  1  0.313193  0.313193  0.686646  1
  Zr  Zr5  1  0.686967  0.313193  0.686646  1
  Zr  Zr6  1  0.313193  0.686967  0.686646  1
  Al  Al7  1  0.881201  0.355565  0.882031  1
  Al  Al8  1  0.355565  0.881201  0.882031  1
  Al  Al9  1  0.881201  0.881201  0.882031  1
  Al  Al10  1  0.119196  0.119196  0.642413  1
  Al  Al11  1  0.118292  0.644887  0.118531  1
  Al  Al12  1  0.644887  0.118292  0.118531  1
  Al  Al13  1  0.118292  0.118292  0.118531  1
  Al  Al14  1  0.664595  0.664595  0.006215  1
  Al  Al15  1  0.664983  0.005840  0.664193  1
  Al  Al16  1  0.005840  0.664983  0.664193  1
  Al  Al17  1  0.664983  0.664983  0.664193  1
  Al  Al18  1  0.335276  0.335276  0.994173  1
  Al  Al19  1  0.335808  0.993412  0.334972  1
  Al  Al20  1  0.993412  0.335808  0.334972  1
  Al  Al21  1  0.335808  0.335808  0.334972  1
  Pt  Pt22  1  0.001066  0.001066  0.504666  1
  Pt  Pt23  1  0.493202  0.001066  0.504666  1
  Pt  Pt24  1  0.001066  0.493202  0.504666  1
  Pt  Pt25  1  0.500249  0.500249  0.999599  1
  Pt  Pt26  1  0.999903  0.500249  0.999599  1
  Pt  Pt27  1  0.500249  0.999903  0.999599  1
  Rh  Rh28  1  0.003677  0.003677  0.988969  1
