# generated using pymatgen
data_Hf4TiB4AsRu10
_symmetry_space_group_name_H-M   'P 1'
_cell_length_a   9.38485900
_cell_length_b   9.38485900
_cell_length_c   3.06888300
_cell_angle_alpha   90.00000000
_cell_angle_beta   90.00000000
_cell_angle_gamma   90.00000000
_symmetry_Int_Tables_number   1
_chemical_formula_structural   Hf4TiB4AsRu10
_chemical_formula_sum   'Hf4 Ti1 B4 As1 Ru10'
_cell_volume   270.29364542
_cell_formula_units_Z   1
loop_
 _symmetry_equiv_pos_site_id
 _symmetry_equiv_pos_as_xyz
  1  'x, y, z'
loop_
 _atom_site_type_symbol
 _atom_site_label
 _atom_site_symmetry_multiplicity
 _atom_site_fract_x
 _atom_site_fract_y
 _atom_site_fract_z
 _atom_site_occupancy
  Hf  Hf0  1  0.821763  0.672540  0.000000  1
  Hf  Hf1  1  0.178237  0.327460  0.000000  1
  Hf  Hf2  1  0.327460  0.821763  0.000000  1
  Hf  Hf3  1  0.672540  0.178237  0.000000  1
  Ti  Ti4  1  0.500000  0.500000  0.000000  1
  B  B5  1  0.622855  0.876677  0.000000  1
  B  B6  1  0.377145  0.123323  0.000000  1
  B  B7  1  0.123323  0.622855  0.000000  1
  B  B8  1  0.876677  0.377145  0.000000  1
  As  As9  1  0.000000  0.000000  0.000000  1
  Ru  Ru10  1  0.572465  0.716734  0.500000  1
  Ru  Ru11  1  0.427535  0.283266  0.500000  1
  Ru  Ru12  1  0.067806  0.788161  0.500000  1
  Ru  Ru13  1  0.932194  0.211839  0.500000  1
  Ru  Ru14  1  0.283266  0.572465  0.500000  1
  Ru  Ru15  1  0.716734  0.427535  0.500000  1
  Ru  Ru16  1  0.211839  0.067806  0.500000  1
  Ru  Ru17  1  0.788161  0.932194  0.500000  1
  Ru  Ru18  1  0.500000  0.000000  0.500000  1
  Ru  Ru19  1  0.000000  0.500000  0.500000  1
