# generated using pymatgen
data_MoPCl10
_symmetry_space_group_name_H-M   'P 1'
_cell_length_a   7.29583329
_cell_length_b   7.59335921
_cell_length_c   14.00612462
_cell_angle_alpha   90.61458232
_cell_angle_beta   90.62302627
_cell_angle_gamma   106.59408984
_symmetry_Int_Tables_number   1
_chemical_formula_structural   MoPCl10
_chemical_formula_sum   'Mo2 P2 Cl20'
_cell_volume   743.50002097
_cell_formula_units_Z   2
loop_
 _symmetry_equiv_pos_site_id
 _symmetry_equiv_pos_as_xyz
  1  'x, y, z'
loop_
 _atom_site_type_symbol
 _atom_site_label
 _atom_site_symmetry_multiplicity
 _atom_site_fract_x
 _atom_site_fract_y
 _atom_site_fract_z
 _atom_site_occupancy
  Mo  Mo0  1  0.000000  0.000000  0.500000  1
  Mo  Mo1  1  0.000000  0.000000  0.000000  1
  P  P2  1  0.381227  0.592844  0.760694  1
  P  P3  1  0.618773  0.407156  0.239306  1
  Cl  Cl4  1  0.293814  0.077325  0.921377  1
  Cl  Cl5  1  0.706186  0.922675  0.078623  1
  Cl  Cl6  1  0.110537  0.266153  0.097640  1
  Cl  Cl7  1  0.889463  0.733847  0.902360  1
  Cl  Cl8  1  0.122034  0.830571  0.110743  1
  Cl  Cl9  1  0.877966  0.169429  0.889257  1
  Cl  Cl10  1  0.223059  0.288329  0.478358  1
  Cl  Cl11  1  0.776941  0.711671  0.521642  1
  Cl  Cl12  1  0.230639  0.851655  0.454355  1
  Cl  Cl13  1  0.769361  0.148345  0.545645  1
  Cl  Cl14  1  0.097590  0.003786  0.660003  1
  Cl  Cl15  1  0.902410  0.996214  0.339997  1
  Cl  Cl16  1  0.662527  0.410292  0.101921  1
  Cl  Cl17  1  0.337473  0.589708  0.898079  1
  Cl  Cl18  1  0.864337  0.477523  0.307727  1
  Cl  Cl19  1  0.135663  0.522477  0.692273  1
  Cl  Cl20  1  0.470122  0.163008  0.278761  1
  Cl  Cl21  1  0.529878  0.836992  0.721239  1
  Cl  Cl22  1  0.478116  0.583854  0.272193  1
  Cl  Cl23  1  0.521884  0.416146  0.727807  1
