# generated using pymatgen
data_Li2NdYSi3
_symmetry_space_group_name_H-M   'P 1'
_cell_length_a   9.35771612
_cell_length_b   9.35771572
_cell_length_c   6.79653800
_cell_angle_alpha   90.00000000
_cell_angle_beta   90.00000000
_cell_angle_gamma   153.20427599
_symmetry_Int_Tables_number   1
_chemical_formula_structural   Li2NdYSi3
_chemical_formula_sum   'Li4 Nd2 Y2 Si6'
_cell_volume   268.30075564
_cell_formula_units_Z   2
loop_
 _symmetry_equiv_pos_site_id
 _symmetry_equiv_pos_as_xyz
  1  'x, y, z'
loop_
 _atom_site_type_symbol
 _atom_site_label
 _atom_site_symmetry_multiplicity
 _atom_site_fract_x
 _atom_site_fract_y
 _atom_site_fract_z
 _atom_site_occupancy
  Li  Li0  1  0.190611  0.809389  0.059644  1
  Li  Li1  1  0.190611  0.809389  0.440356  1
  Li  Li2  1  0.809389  0.190611  0.940356  1
  Li  Li3  1  0.809389  0.190611  0.559644  1
  Nd  Nd4  1  0.553834  0.446166  0.250000  1
  Nd  Nd5  1  0.446166  0.553834  0.750000  1
  Y  Y6  1  0.344339  0.655661  0.250000  1
  Y  Y7  1  0.655661  0.344339  0.750000  1
  Si  Si8  1  0.723202  0.276798  0.250000  1
  Si  Si9  1  0.276798  0.723202  0.750000  1
  Si  Si10  1  0.059318  0.940682  0.925211  1
  Si  Si11  1  0.940682  0.059318  0.074789  1
  Si  Si12  1  0.940682  0.059318  0.425211  1
  Si  Si13  1  0.059318  0.940682  0.574789  1
