# generated using pymatgen
data_Sc3Nb(AsRh)4
_symmetry_space_group_name_H-M   'P 1'
_cell_length_a   6.55634858
_cell_length_b   3.96795200
_cell_length_c   7.58385812
_cell_angle_alpha   90.00000000
_cell_angle_beta   89.61539628
_cell_angle_gamma   90.00000000
_symmetry_Int_Tables_number   1
_chemical_formula_structural   Sc3Nb(AsRh)4
_chemical_formula_sum   'Sc3 Nb1 As4 Rh4'
_cell_volume   197.29172064
_cell_formula_units_Z   1
loop_
 _symmetry_equiv_pos_site_id
 _symmetry_equiv_pos_as_xyz
  1  'x, y, z'
loop_
 _atom_site_type_symbol
 _atom_site_label
 _atom_site_symmetry_multiplicity
 _atom_site_fract_x
 _atom_site_fract_y
 _atom_site_fract_z
 _atom_site_occupancy
  Sc  Sc0  1  0.970437  0.749998  0.184254  1
  Sc  Sc1  1  0.469218  0.749998  0.314769  1
  Sc  Sc2  1  0.529564  0.249999  0.686481  1
  Nb  Nb3  1  0.028695  0.249999  0.818055  1
  As  As4  1  0.257651  0.249999  0.115229  1
  As  As5  1  0.758860  0.249999  0.378040  1
  As  As6  1  0.233121  0.749998  0.627361  1
  As  As7  1  0.746710  0.749998  0.877681  1
  Rh  Rh8  1  0.650159  0.249999  0.060529  1
  Rh  Rh9  1  0.150766  0.249999  0.437856  1
  Rh  Rh10  1  0.849716  0.749998  0.561723  1
  Rh  Rh11  1  0.355103  0.749998  0.938024  1
