# generated using pymatgen
data_Nd3MgCdMo3O14
_symmetry_space_group_name_H-M   'P 1'
_cell_length_a   7.27867335
_cell_length_b   7.60968590
_cell_length_c   7.60982604
_cell_angle_alpha   119.98731832
_cell_angle_beta   121.52661935
_cell_angle_gamma   90.00455772
_symmetry_Int_Tables_number   1
_chemical_formula_structural   Nd3MgCdMo3O14
_chemical_formula_sum   'Nd3 Mg1 Cd1 Mo3 O14'
_cell_volume   291.02514086
_cell_formula_units_Z   1
loop_
 _symmetry_equiv_pos_site_id
 _symmetry_equiv_pos_as_xyz
  1  'x, y, z'
loop_
 _atom_site_type_symbol
 _atom_site_label
 _atom_site_symmetry_multiplicity
 _atom_site_fract_x
 _atom_site_fract_y
 _atom_site_fract_z
 _atom_site_occupancy
  Nd  Nd0  1  0.375000  0.625000  0.750000  1
  Nd  Nd1  1  0.375000  0.625000  0.250000  1
  Nd  Nd2  1  0.375000  0.125000  0.750000  1
  Mg  Mg3  1  0.375000  0.125000  0.250000  1
  Cd  Cd4  1  0.875000  0.625000  0.250000  1
  Mo  Mo5  1  0.875000  0.625000  0.750000  1
  Mo  Mo6  1  0.875000  0.125000  0.250000  1
  Mo  Mo7  1  0.875000  0.125000  0.750000  1
  O  O8  1  0.806186  0.200007  0.003186  1
  O  O9  1  0.547676  0.467155  0.507504  1
  O  O10  1  0.202240  0.209734  0.992813  1
  O  O11  1  0.943180  0.446569  0.496433  1
  O  O12  1  0.806493  0.803051  0.606189  1
  O  O13  1  0.547582  0.040430  0.080893  1
  O  O14  1  0.246548  0.748870  0.497940  1
  O  O15  1  0.943507  0.446949  0.893811  1
  O  O16  1  0.943814  0.049993  0.496814  1
  O  O17  1  0.547760  0.040266  0.507187  1
  O  O18  1  0.202418  0.209570  0.419107  1
  O  O19  1  0.503452  0.501130  0.002060  1
  O  O20  1  0.806820  0.803431  0.003567  1
  O  O21  1  0.202324  0.782845  0.992496  1
