# generated using pymatgen
data_Dy3Ho7(Pb3O)2
_symmetry_space_group_name_H-M   'P 1'
_cell_length_a   9.08756287
_cell_length_b   9.08305052
_cell_length_c   9.08340203
_cell_angle_alpha   125.72339566
_cell_angle_beta   125.73797934
_cell_angle_gamma   80.34545308
_symmetry_Int_Tables_number   1
_chemical_formula_structural   Dy3Ho7(Pb3O)2
_chemical_formula_sum   'Dy3 Ho7 Pb6 O2'
_cell_volume   476.68113528
_cell_formula_units_Z   1
loop_
 _symmetry_equiv_pos_site_id
 _symmetry_equiv_pos_as_xyz
  1  'x, y, z'
loop_
 _atom_site_type_symbol
 _atom_site_label
 _atom_site_symmetry_multiplicity
 _atom_site_fract_x
 _atom_site_fract_y
 _atom_site_fract_z
 _atom_site_occupancy
  Dy  Dy0  1  0.998644  0.198957  0.500000  1
  Dy  Dy1  1  0.500092  0.500056  0.000074  1
  Dy  Dy2  1  0.000018  0.999982  0.999926  1
  Ho  Ho3  1  0.800660  0.300724  0.798814  1
  Ho  Ho4  1  0.498126  0.998117  0.798821  1
  Ho  Ho5  1  0.501846  0.001910  0.201186  1
  Ho  Ho6  1  0.001911  0.800588  0.500000  1
  Ho  Ho7  1  0.199305  0.699296  0.201179  1
  Ho  Ho8  1  0.699259  0.498127  0.500000  1
  Ho  Ho9  1  0.300704  0.501879  0.500000  1
  Pb  Pb10  1  0.851896  0.352026  0.203809  1
  Pb  Pb11  1  0.148087  0.648218  0.796191  1
  Pb  Pb12  1  0.352224  0.148000  0.500000  1
  Pb  Pb13  1  0.749923  0.749887  0.999840  1
  Pb  Pb14  1  0.648009  0.851984  0.500000  1
  Pb  Pb15  1  0.250082  0.250046  0.000160  1
  O  O16  1  0.749208  0.250199  0.500000  1
  O  O17  1  0.250003  0.750003  0.500000  1
