# generated using pymatgen
data_Sm8Ga(Pd5Pt7)2
_symmetry_space_group_name_H-M   'P 1'
_cell_length_a   8.44074900
_cell_length_b   8.44476500
_cell_length_c   8.44476500
_cell_angle_alpha   90.00000000
_cell_angle_beta   90.00000000
_cell_angle_gamma   90.00000000
_symmetry_Int_Tables_number   1
_chemical_formula_structural   Sm8Ga(Pd5Pt7)2
_chemical_formula_sum   'Sm8 Ga1 Pd10 Pt14'
_cell_volume   601.94404607
_cell_formula_units_Z   1
loop_
 _symmetry_equiv_pos_site_id
 _symmetry_equiv_pos_as_xyz
  1  'x, y, z'
loop_
 _atom_site_type_symbol
 _atom_site_label
 _atom_site_symmetry_multiplicity
 _atom_site_fract_x
 _atom_site_fract_y
 _atom_site_fract_z
 _atom_site_occupancy
  Sm  Sm0  1  0.252207  0.252202  0.252202  1
  Sm  Sm1  1  0.747793  0.747798  0.747798  1
  Sm  Sm2  1  0.747793  0.747798  0.252202  1
  Sm  Sm3  1  0.747793  0.252202  0.747798  1
  Sm  Sm4  1  0.252207  0.252202  0.747798  1
  Sm  Sm5  1  0.252207  0.747798  0.252202  1
  Sm  Sm6  1  0.252207  0.747798  0.747798  1
  Sm  Sm7  1  0.747793  0.252202  0.252202  1
  Ga  Ga8  1  0.000000  0.000000  0.000000  1
  Pd  Pd9  1  0.500000  0.253106  0.500000  1
  Pd  Pd10  1  0.500000  0.746894  0.500000  1
  Pd  Pd11  1  0.500000  0.500000  0.253106  1
  Pd  Pd12  1  0.500000  0.500000  0.746894  1
  Pd  Pd13  1  0.293621  0.000000  0.000000  1
  Pd  Pd14  1  0.706379  0.000000  0.000000  1
  Pd  Pd15  1  0.000000  0.293460  0.000000  1
  Pd  Pd16  1  0.000000  0.706540  0.000000  1
  Pd  Pd17  1  0.000000  0.000000  0.293460  1
  Pd  Pd18  1  0.000000  0.000000  0.706540  1
  Pt  Pt19  1  0.260704  0.500000  0.000000  1
  Pt  Pt20  1  0.739296  0.500000  0.000000  1
  Pt  Pt21  1  0.000000  0.260378  0.500000  1
  Pt  Pt22  1  0.500000  0.260594  0.000000  1
  Pt  Pt23  1  0.000000  0.739622  0.500000  1
  Pt  Pt24  1  0.500000  0.739406  0.000000  1
  Pt  Pt25  1  0.500000  0.000000  0.260594  1
  Pt  Pt26  1  0.260704  0.000000  0.500000  1
  Pt  Pt27  1  0.500000  0.000000  0.739406  1
  Pt  Pt28  1  0.739296  0.000000  0.500000  1
  Pt  Pt29  1  0.000000  0.500000  0.260378  1
  Pt  Pt30  1  0.000000  0.500000  0.739622  1
  Pt  Pt31  1  0.253049  0.500000  0.500000  1
  Pt  Pt32  1  0.746951  0.500000  0.500000  1
