# generated using pymatgen
data_CaSm6CoBr12
_symmetry_space_group_name_H-M   'P 1'
_cell_length_a   9.39968777
_cell_length_b   9.39968789
_cell_length_c   9.39968731
_cell_angle_alpha   107.01596467
_cell_angle_beta   107.01595852
_cell_angle_gamma   107.01595418
_symmetry_Int_Tables_number   1
_chemical_formula_structural   CaSm6CoBr12
_chemical_formula_sum   'Ca1 Sm6 Co1 Br12'
_cell_volume   691.34802561
_cell_formula_units_Z   1
loop_
 _symmetry_equiv_pos_site_id
 _symmetry_equiv_pos_as_xyz
  1  'x, y, z'
loop_
 _atom_site_type_symbol
 _atom_site_label
 _atom_site_symmetry_multiplicity
 _atom_site_fract_x
 _atom_site_fract_y
 _atom_site_fract_z
 _atom_site_occupancy
  Ca  Ca0  1  0.500000  0.500000  0.500000  1
  Sm  Sm1  1  0.977189  0.899708  0.692419  1
  Sm  Sm2  1  0.022811  0.100292  0.307581  1
  Sm  Sm3  1  0.100292  0.307581  0.022811  1
  Sm  Sm4  1  0.307581  0.022811  0.100292  1
  Sm  Sm5  1  0.899708  0.692419  0.977189  1
  Sm  Sm6  1  0.692419  0.977189  0.899708  1
  Co  Co7  1  0.000000  0.000000  0.000000  1
  Br  Br8  1  0.546716  0.623881  0.839780  1
  Br  Br9  1  0.453284  0.376119  0.160220  1
  Br  Br10  1  0.318243  0.927735  0.777606  1
  Br  Br11  1  0.376119  0.160220  0.453284  1
  Br  Br12  1  0.927735  0.777606  0.318243  1
  Br  Br13  1  0.681757  0.072265  0.222394  1
  Br  Br14  1  0.072265  0.222394  0.681757  1
  Br  Br15  1  0.777606  0.318243  0.927735  1
  Br  Br16  1  0.222394  0.681757  0.072265  1
  Br  Br17  1  0.839780  0.546716  0.623881  1
  Br  Br18  1  0.160220  0.453284  0.376119  1
  Br  Br19  1  0.623881  0.839780  0.546716  1
