# generated using pymatgen
data_Zr3CoP2IrRu2
_symmetry_space_group_name_H-M   'P 1'
_cell_length_a   6.42692554
_cell_length_b   6.42692396
_cell_length_c   3.91494800
_cell_angle_alpha   90.00000000
_cell_angle_beta   90.00000000
_cell_angle_gamma   120.04691853
_symmetry_Int_Tables_number   1
_chemical_formula_structural   Zr3CoP2IrRu2
_chemical_formula_sum   'Zr3 Co1 P2 Ir1 Ru2'
_cell_volume   139.97727622
_cell_formula_units_Z   1
loop_
 _symmetry_equiv_pos_site_id
 _symmetry_equiv_pos_as_xyz
  1  'x, y, z'
loop_
 _atom_site_type_symbol
 _atom_site_label
 _atom_site_symmetry_multiplicity
 _atom_site_fract_x
 _atom_site_fract_y
 _atom_site_fract_z
 _atom_site_occupancy
  Zr  Zr0  1  0.396916  0.396916  0.500000  1
  Zr  Zr1  1  0.604069  0.001619  0.500000  1
  Zr  Zr2  1  0.001619  0.604069  0.500000  1
  Co  Co3  1  0.000966  0.000966  0.500000  1
  P  P4  1  0.665790  0.330965  0.000000  1
  P  P5  1  0.330965  0.665790  0.000000  1
  Ir  Ir6  1  0.756193  0.756193  0.000000  1
  Ru  Ru7  1  0.243038  0.000444  0.000000  1
  Ru  Ru8  1  0.000444  0.243038  0.000000  1
