# generated using pymatgen
data_YbTh3(SnRu)4
_symmetry_space_group_name_H-M   'P 1'
_cell_length_a   6.27472689
_cell_length_b   6.27472685
_cell_length_c   10.40415820
_cell_angle_alpha   78.84406389
_cell_angle_beta   78.84406363
_cell_angle_gamma   44.94278032
_symmetry_Int_Tables_number   1
_chemical_formula_structural   YbTh3(SnRu)4
_chemical_formula_sum   'Yb1 Th3 Sn4 Ru4'
_cell_volume   282.95211583
_cell_formula_units_Z   1
loop_
 _symmetry_equiv_pos_site_id
 _symmetry_equiv_pos_as_xyz
  1  'x, y, z'
loop_
 _atom_site_type_symbol
 _atom_site_label
 _atom_site_symmetry_multiplicity
 _atom_site_fract_x
 _atom_site_fract_y
 _atom_site_fract_z
 _atom_site_occupancy
  Yb  Yb0  1  0.120099  0.120099  0.596010  1
  Th  Th1  1  0.861395  0.861395  0.412653  1
  Th  Th2  1  0.868620  0.868620  0.905580  1
  Th  Th3  1  0.140675  0.140675  0.091228  1
  Sn  Sn4  1  0.423103  0.423103  0.154139  1
  Sn  Sn5  1  0.405065  0.405065  0.651987  1
  Sn  Sn6  1  0.584822  0.584822  0.837456  1
  Sn  Sn7  1  0.587662  0.587662  0.357489  1
  Ru  Ru8  1  0.816251  0.816251  0.164504  1
  Ru  Ru9  1  0.196907  0.196907  0.314338  1
  Ru  Ru10  1  0.189056  0.189056  0.841626  1
  Ru  Ru11  1  0.806344  0.806344  0.672990  1
