# generated using pymatgen
data_La2InCuAu
_symmetry_space_group_name_H-M   'P 1'
_cell_length_a   8.14663800
_cell_length_b   8.15341000
_cell_length_c   3.91568700
_cell_angle_alpha   90.00000000
_cell_angle_beta   90.00000000
_cell_angle_gamma   90.00000000
_symmetry_Int_Tables_number   1
_chemical_formula_structural   La2InCuAu
_chemical_formula_sum   'La4 In2 Cu2 Au2'
_cell_volume   260.09120668
_cell_formula_units_Z   2
loop_
 _symmetry_equiv_pos_site_id
 _symmetry_equiv_pos_as_xyz
  1  'x, y, z'
loop_
 _atom_site_type_symbol
 _atom_site_label
 _atom_site_symmetry_multiplicity
 _atom_site_fract_x
 _atom_site_fract_y
 _atom_site_fract_z
 _atom_site_occupancy
  La  La0  1  0.678231  0.172305  0.500000  1
  La  La1  1  0.178231  0.327695  0.500000  1
  La  La2  1  0.822110  0.683205  0.500000  1
  La  La3  1  0.322110  0.816795  0.500000  1
  In  In4  1  0.998620  0.994493  0.000000  1
  In  In5  1  0.498620  0.505507  0.000000  1
  Cu  Cu6  1  0.120202  0.623159  0.000000  1
  Cu  Cu7  1  0.620202  0.876841  0.000000  1
  Au  Au8  1  0.380838  0.116099  0.000000  1
  Au  Au9  1  0.880838  0.383901  0.000000  1
