# generated using pymatgen
data_Li2TcSn8Ir
_symmetry_space_group_name_H-M   'P 1'
_cell_length_a   7.43424097
_cell_length_b   7.43424088
_cell_length_c   7.43424238
_cell_angle_alpha   126.43491601
_cell_angle_beta   126.43492315
_cell_angle_gamma   79.17448299
_symmetry_Int_Tables_number   1
_chemical_formula_structural   Li2TcSn8Ir
_chemical_formula_sum   'Li2 Tc1 Sn8 Ir1'
_cell_volume   257.17164402
_cell_formula_units_Z   1
loop_
 _symmetry_equiv_pos_site_id
 _symmetry_equiv_pos_as_xyz
  1  'x, y, z'
loop_
 _atom_site_type_symbol
 _atom_site_label
 _atom_site_symmetry_multiplicity
 _atom_site_fract_x
 _atom_site_fract_y
 _atom_site_fract_z
 _atom_site_occupancy
  Li  Li0  1  0.498075  0.498075  0.000000  1
  Li  Li1  1  0.001925  0.001925  0.000000  1
  Tc  Tc2  1  0.750000  0.750000  0.000000  1
  Sn  Sn3  1  0.707463  0.526475  0.505827  1
  Sn  Sn4  1  0.526475  0.020648  0.819011  1
  Sn  Sn5  1  0.201636  0.707463  0.180989  1
  Sn  Sn6  1  0.792537  0.298364  0.819011  1
  Sn  Sn7  1  0.479352  0.973525  0.180989  1
  Sn  Sn8  1  0.298364  0.479352  0.505827  1
  Sn  Sn9  1  0.973525  0.792537  0.494173  1
  Sn  Sn10  1  0.020648  0.201636  0.494173  1
  Ir  Ir11  1  0.250000  0.250000  0.000000  1
