# generated using pymatgen
data_DyHo19IrRu11
_symmetry_space_group_name_H-M   'P 1'
_cell_length_a   10.78581931
_cell_length_b   10.78581756
_cell_length_c   6.35358001
_cell_angle_alpha   89.97035925
_cell_angle_beta   89.97571515
_cell_angle_gamma   89.99890133
_symmetry_Int_Tables_number   1
_chemical_formula_structural   DyHo19IrRu11
_chemical_formula_sum   'Dy1 Ho19 Ir1 Ru11'
_cell_volume   739.13644545
_cell_formula_units_Z   1
loop_
 _symmetry_equiv_pos_site_id
 _symmetry_equiv_pos_as_xyz
  1  'x, y, z'
loop_
 _atom_site_type_symbol
 _atom_site_label
 _atom_site_symmetry_multiplicity
 _atom_site_fract_x
 _atom_site_fract_y
 _atom_site_fract_z
 _atom_site_occupancy
  Dy  Dy0  1  0.292007  0.086350  0.376427  1
  Ho  Ho1  1  0.292042  0.914578  0.876683  1
  Ho  Ho2  1  0.708079  0.086517  0.876559  1
  Ho  Ho3  1  0.708176  0.913524  0.376469  1
  Ho  Ho4  1  0.586528  0.792512  0.876680  1
  Ho  Ho5  1  0.586402  0.207426  0.376412  1
  Ho  Ho6  1  0.414067  0.792700  0.376500  1
  Ho  Ho7  1  0.413629  0.208308  0.876604  1
  Ho  Ho8  1  0.207486  0.413492  0.623342  1
  Ho  Ho9  1  0.207237  0.585952  0.123513  1
  Ho  Ho10  1  0.792612  0.413654  0.123583  1
  Ho  Ho11  1  0.791716  0.586389  0.623400  1
  Ho  Ho12  1  0.913695  0.707900  0.123514  1
  Ho  Ho13  1  0.913492  0.291920  0.623452  1
  Ho  Ho14  1  0.085382  0.707950  0.623324  1
  Ho  Ho15  1  0.086440  0.291881  0.123472  1
  Ho  Ho16  1  0.000111  0.000162  0.500030  1
  Ho  Ho17  1  0.999809  0.999842  0.999969  1
  Ho  Ho18  1  0.501229  0.499532  0.000832  1
  Ho  Ho19  1  0.500451  0.498771  0.499176  1
  Ir  Ir20  1  0.346131  0.653874  0.750003  1
  Ru  Ru21  1  0.846982  0.153018  0.250006  1
  Ru  Ru22  1  0.846883  0.846650  0.749705  1
  Ru  Ru23  1  0.153309  0.153133  0.750448  1
  Ru  Ru24  1  0.154087  0.845793  0.249959  1
  Ru  Ru25  1  0.652802  0.347200  0.749995  1
  Ru  Ru26  1  0.652122  0.653383  0.250326  1
  Ru  Ru27  1  0.346639  0.347962  0.249639  1
  Ru  Ru28  1  0.500100  0.999551  0.124261  1
  Ru  Ru29  1  0.500094  0.000134  0.624981  1
  Ru  Ru30  1  0.999833  0.499976  0.875095  1
  Ru  Ru31  1  0.000425  0.499966  0.375641  1
