# generated using pymatgen
data_SrNb6SbS12
_symmetry_space_group_name_H-M   'P 1'
_cell_length_a   5.79156200
_cell_length_b   5.79156216
_cell_length_c   14.59880800
_cell_angle_alpha   90.00000000
_cell_angle_beta   90.00000000
_cell_angle_gamma   119.99999911
_symmetry_Int_Tables_number   1
_chemical_formula_structural   SrNb6SbS12
_chemical_formula_sum   'Sr1 Nb6 Sb1 S12'
_cell_volume   424.07186875
_cell_formula_units_Z   1
loop_
 _symmetry_equiv_pos_site_id
 _symmetry_equiv_pos_as_xyz
  1  'x, y, z'
loop_
 _atom_site_type_symbol
 _atom_site_label
 _atom_site_symmetry_multiplicity
 _atom_site_fract_x
 _atom_site_fract_y
 _atom_site_fract_z
 _atom_site_occupancy
  Sr  Sr0  1  0.333333  0.666667  0.250000  1
  Nb  Nb1  1  0.333333  0.666667  0.991616  1
  Nb  Nb2  1  0.000000  0.000000  0.990913  1
  Nb  Nb3  1  0.666667  0.333333  0.991317  1
  Nb  Nb4  1  0.333333  0.666667  0.508384  1
  Nb  Nb5  1  0.000000  0.000000  0.509087  1
  Nb  Nb6  1  0.666667  0.333333  0.508683  1
  Sb  Sb7  1  0.666667  0.333333  0.750000  1
  S  S8  1  0.671311  0.667221  0.400761  1
  S  S9  1  0.666202  0.670596  0.616940  1
  S  S10  1  0.004394  0.670596  0.883060  1
  S  S11  1  0.666202  0.995606  0.883060  1
  S  S12  1  0.671311  0.004089  0.099239  1
  S  S13  1  0.332779  0.004089  0.400761  1
  S  S14  1  0.004394  0.333798  0.616940  1
  S  S15  1  0.329404  0.995606  0.616940  1
  S  S16  1  0.995911  0.667221  0.099239  1
  S  S17  1  0.329404  0.333798  0.883060  1
  S  S18  1  0.995911  0.328689  0.400761  1
  S  S19  1  0.332779  0.328689  0.099239  1
