# generated using pymatgen
data_Ba6MnIn(NiO5)3
_symmetry_space_group_name_H-M   'P 1'
_cell_length_a   7.28287842
_cell_length_b   7.33691468
_cell_length_c   7.28478248
_cell_angle_alpha   88.20443574
_cell_angle_beta   88.22375718
_cell_angle_gamma   87.68176082
_symmetry_Int_Tables_number   1
_chemical_formula_structural   Ba6MnIn(NiO5)3
_chemical_formula_sum   'Ba6 Mn1 In1 Ni3 O15'
_cell_volume   388.57220429
_cell_formula_units_Z   1
loop_
 _symmetry_equiv_pos_site_id
 _symmetry_equiv_pos_as_xyz
  1  'x, y, z'
loop_
 _atom_site_type_symbol
 _atom_site_label
 _atom_site_symmetry_multiplicity
 _atom_site_fract_x
 _atom_site_fract_y
 _atom_site_fract_z
 _atom_site_occupancy
  Ba  Ba0  1  0.337162  0.664482  0.992051  1
  Ba  Ba1  1  0.987306  0.330477  0.671134  1
  Ba  Ba2  1  0.670910  0.996893  0.337845  1
  Ba  Ba3  1  0.141951  0.857575  0.499604  1
  Ba  Ba4  1  0.498513  0.135478  0.854429  1
  Ba  Ba5  1  0.854673  0.502349  0.139162  1
  Mn  Mn6  1  0.287459  0.287383  0.289591  1
  In  In7  1  0.502294  0.498016  0.508927  1
  Ni  Ni8  1  0.714261  0.714731  0.711465  1
  Ni  Ni9  1  0.094289  0.093365  0.094618  1
  Ni  Ni10  1  0.907095  0.909996  0.902686  1
  O  O11  1  0.143753  0.999986  0.860010  1
  O  O12  1  0.859126  0.142263  0.003350  1
  O  O13  1  0.002021  0.858718  0.141530  1
  O  O14  1  0.034586  0.193661  0.327015  1
  O  O15  1  0.329158  0.035439  0.193708  1
  O  O16  1  0.190781  0.327423  0.035490  1
  O  O17  1  0.819019  0.988694  0.670276  1
  O  O18  1  0.675080  0.810845  0.961480  1
  O  O19  1  0.967295  0.678208  0.804212  1
  O  O20  1  0.361400  0.222836  0.530123  1
  O  O21  1  0.531930  0.364252  0.233184  1
  O  O22  1  0.228553  0.529370  0.367777  1
  O  O23  1  0.770474  0.632699  0.465424  1
  O  O24  1  0.467729  0.773285  0.630997  1
  O  O25  1  0.623177  0.451579  0.773913  1
