# generated using pymatgen
data_Hf12Mn3Si12Os
_symmetry_space_group_name_H-M   'P 1'
_cell_length_a   3.79598400
_cell_length_b   10.36674178
_cell_length_c   11.67374100
_cell_angle_alpha   89.92541468
_cell_angle_beta   90.00000000
_cell_angle_gamma   90.00000000
_symmetry_Int_Tables_number   1
_chemical_formula_structural   Hf12Mn3Si12Os
_chemical_formula_sum   'Hf12 Mn3 Si12 Os1'
_cell_volume   459.38450250
_cell_formula_units_Z   1
loop_
 _symmetry_equiv_pos_site_id
 _symmetry_equiv_pos_as_xyz
  1  'x, y, z'
loop_
 _atom_site_type_symbol
 _atom_site_label
 _atom_site_symmetry_multiplicity
 _atom_site_fract_x
 _atom_site_fract_y
 _atom_site_fract_z
 _atom_site_occupancy
  Hf  Hf0  1  0.250000  0.877726  0.020054  1
  Hf  Hf1  1  0.250000  0.622673  0.519314  1
  Hf  Hf2  1  0.750000  0.124248  0.981140  1
  Hf  Hf3  1  0.750000  0.376805  0.479797  1
  Hf  Hf4  1  0.250000  0.928922  0.599618  1
  Hf  Hf5  1  0.250000  0.571668  0.100103  1
  Hf  Hf6  1  0.750000  0.070710  0.400280  1
  Hf  Hf7  1  0.750000  0.429615  0.899921  1
  Hf  Hf8  1  0.250000  0.656225  0.801271  1
  Hf  Hf9  1  0.250000  0.840254  0.301238  1
  Hf  Hf10  1  0.750000  0.339624  0.199326  1
  Hf  Hf11  1  0.750000  0.159905  0.698761  1
  Mn  Mn12  1  0.250000  0.382029  0.677541  1
  Mn  Mn13  1  0.250000  0.118784  0.177993  1
  Mn  Mn14  1  0.750000  0.617586  0.322138  1
  Si  Si15  1  0.250000  0.020288  0.826191  1
  Si  Si16  1  0.250000  0.482707  0.325241  1
  Si  Si17  1  0.750000  0.983255  0.174916  1
  Si  Si18  1  0.750000  0.515675  0.674000  1
  Si  Si19  1  0.250000  0.253238  0.841369  1
  Si  Si20  1  0.250000  0.247516  0.341970  1
  Si  Si21  1  0.750000  0.748024  0.159154  1
  Si  Si22  1  0.750000  0.748889  0.656252  1
  Si  Si23  1  0.250000  0.193418  0.541906  1
  Si  Si24  1  0.250000  0.307345  0.041744  1
  Si  Si25  1  0.750000  0.806410  0.457834  1
  Si  Si26  1  0.750000  0.692671  0.958990  1
  Os  Os27  1  0.750000  0.883785  0.821936  1
