# generated using pymatgen
data_Pr8Y12Si15Ru
_symmetry_space_group_name_H-M   'P 1'
_cell_length_a   7.51310985
_cell_length_b   7.83311516
_cell_length_c   14.93753600
_cell_angle_alpha   90.00000000
_cell_angle_beta   90.00000000
_cell_angle_gamma   90.46817566
_symmetry_Int_Tables_number   1
_chemical_formula_structural   Pr8Y12Si15Ru
_chemical_formula_sum   'Pr8 Y12 Si15 Ru1'
_cell_volume   879.06040006
_cell_formula_units_Z   1
loop_
 _symmetry_equiv_pos_site_id
 _symmetry_equiv_pos_as_xyz
  1  'x, y, z'
loop_
 _atom_site_type_symbol
 _atom_site_label
 _atom_site_symmetry_multiplicity
 _atom_site_fract_x
 _atom_site_fract_y
 _atom_site_fract_z
 _atom_site_occupancy
  Pr  Pr0  1  0.020952  0.178987  0.401811  1
  Pr  Pr1  1  0.519828  0.323728  0.402683  1
  Pr  Pr2  1  0.475765  0.681142  0.903125  1
  Pr  Pr3  1  0.475765  0.681142  0.596875  1
  Pr  Pr4  1  0.982785  0.821654  0.598449  1
  Pr  Pr5  1  0.982785  0.821654  0.901551  1
  Pr  Pr6  1  0.519828  0.323728  0.097317  1
  Pr  Pr7  1  0.020952  0.178987  0.098189  1
  Y  Y8  1  0.319662  0.173903  0.624551  1
  Y  Y9  1  0.677499  0.819376  0.377823  1
  Y  Y10  1  0.642376  0.981010  0.750000  1
  Y  Y11  1  0.176585  0.680030  0.376898  1
  Y  Y12  1  0.824382  0.321698  0.876832  1
  Y  Y13  1  0.824382  0.321698  0.623168  1
  Y  Y14  1  0.844372  0.489274  0.250000  1
  Y  Y15  1  0.345619  0.013958  0.250000  1
  Y  Y16  1  0.319662  0.173903  0.875449  1
  Y  Y17  1  0.176585  0.680030  0.123102  1
  Y  Y18  1  0.677499  0.819376  0.122177  1
  Y  Y19  1  0.162325  0.519920  0.750000  1
  Si  Si20  1  0.468223  0.613601  0.250000  1
  Si  Si21  1  0.026704  0.107104  0.750000  1
  Si  Si22  1  0.534253  0.387503  0.750000  1
  Si  Si23  1  0.147877  0.467309  0.537941  1
  Si  Si24  1  0.968968  0.888684  0.250000  1
  Si  Si25  1  0.727048  0.119713  0.250000  1
  Si  Si26  1  0.855084  0.528301  0.040134  1
  Si  Si27  1  0.355348  0.971056  0.040032  1
  Si  Si28  1  0.147877  0.467309  0.962059  1
  Si  Si29  1  0.648768  0.034859  0.537543  1
  Si  Si30  1  0.355348  0.971056  0.459968  1
  Si  Si31  1  0.855084  0.528301  0.459866  1
  Si  Si32  1  0.770964  0.614551  0.750000  1
  Si  Si33  1  0.227802  0.381192  0.250000  1
  Si  Si34  1  0.648768  0.034859  0.962457  1
  Ru  Ru35  1  0.272271  0.879402  0.750000  1
