# generated using pymatgen
data_Na6VCrO8
_symmetry_space_group_name_H-M   'P 1'
_cell_length_a   5.62504437
_cell_length_b   6.12215976
_cell_length_c   7.15369100
_cell_angle_alpha   90.00000000
_cell_angle_beta   90.00000000
_cell_angle_gamma   90.24164075
_symmetry_Int_Tables_number   1
_chemical_formula_structural   Na6VCrO8
_chemical_formula_sum   'Na6 V1 Cr1 O8'
_cell_volume   246.35247271
_cell_formula_units_Z   1
loop_
 _symmetry_equiv_pos_site_id
 _symmetry_equiv_pos_as_xyz
  1  'x, y, z'
loop_
 _atom_site_type_symbol
 _atom_site_label
 _atom_site_symmetry_multiplicity
 _atom_site_fract_x
 _atom_site_fract_y
 _atom_site_fract_z
 _atom_site_occupancy
  Na  Na0  1  0.485431  0.652705  0.000000  1
  Na  Na1  1  0.991035  0.825285  0.243998  1
  Na  Na2  1  0.491169  0.174690  0.253279  1
  Na  Na3  1  0.991356  0.348099  0.500000  1
  Na  Na4  1  0.491169  0.174690  0.746721  1
  Na  Na5  1  0.991035  0.825285  0.756002  1
  V  V6  1  0.501251  0.676254  0.500000  1
  Cr  Cr7  1  0.999094  0.323580  0.000000  1
  O  O8  1  0.898150  0.591255  0.000000  1
  O  O9  1  0.305752  0.314106  0.000000  1
  O  O10  1  0.903256  0.194288  0.202906  1
  O  O11  1  0.400495  0.809184  0.297727  1
  O  O12  1  0.810712  0.683564  0.500000  1
  O  O13  1  0.405809  0.403544  0.500000  1
  O  O14  1  0.400495  0.809184  0.702273  1
  O  O15  1  0.903256  0.194288  0.797094  1
