# generated using pymatgen
data_Ti4Pd11Pt
_symmetry_space_group_name_H-M   'P 1'
_cell_length_a   5.55440800
_cell_length_b   5.56220021
_cell_length_c   9.07580700
_cell_angle_alpha   90.00000000
_cell_angle_beta   90.00000000
_cell_angle_gamma   119.95366868
_symmetry_Int_Tables_number   1
_chemical_formula_structural   Ti4Pd11Pt
_chemical_formula_sum   'Ti4 Pd11 Pt1'
_cell_volume   242.94213633
_cell_formula_units_Z   1
loop_
 _symmetry_equiv_pos_site_id
 _symmetry_equiv_pos_as_xyz
  1  'x, y, z'
loop_
 _atom_site_type_symbol
 _atom_site_label
 _atom_site_symmetry_multiplicity
 _atom_site_fract_x
 _atom_site_fract_y
 _atom_site_fract_z
 _atom_site_occupancy
  Ti  Ti0  1  0.999205  0.998411  0.498909  1
  Ti  Ti1  1  0.999205  0.998411  0.001091  1
  Ti  Ti2  1  0.333838  0.667677  0.250000  1
  Ti  Ti3  1  0.666566  0.333131  0.750000  1
  Pd  Pd4  1  0.499632  0.499532  0.500277  1
  Pd  Pd5  1  0.499945  0.999890  0.500726  1
  Pd  Pd6  1  0.999899  0.499532  0.500277  1
  Pd  Pd7  1  0.499632  0.499532  0.999723  1
  Pd  Pd8  1  0.499945  0.999890  0.999274  1
  Pd  Pd9  1  0.999899  0.499532  0.999723  1
  Pd  Pd10  1  0.333101  0.167117  0.250000  1
  Pd  Pd11  1  0.834014  0.167117  0.250000  1
  Pd  Pd12  1  0.166521  0.333042  0.750000  1
  Pd  Pd13  1  0.667854  0.833926  0.750000  1
  Pd  Pd14  1  0.166073  0.833926  0.750000  1
  Pt  Pt15  1  0.834668  0.669336  0.250000  1
