# generated using pymatgen
data_TbHo15Cd3InPd4
_symmetry_space_group_name_H-M   'P 1'
_cell_length_a   9.66720745
_cell_length_b   9.66720703
_cell_length_c   9.66720803
_cell_angle_alpha   59.99622810
_cell_angle_beta   59.99623164
_cell_angle_gamma   59.99622377
_symmetry_Int_Tables_number   1
_chemical_formula_structural   TbHo15Cd3InPd4
_chemical_formula_sum   'Tb1 Ho15 Cd3 In1 Pd4'
_cell_volume   638.77951315
_cell_formula_units_Z   1
loop_
 _symmetry_equiv_pos_site_id
 _symmetry_equiv_pos_as_xyz
  1  'x, y, z'
loop_
 _atom_site_type_symbol
 _atom_site_label
 _atom_site_symmetry_multiplicity
 _atom_site_fract_x
 _atom_site_fract_y
 _atom_site_fract_z
 _atom_site_occupancy
  Tb  Tb0  1  0.352195  0.352195  0.352195  1
  Ho  Ho1  1  0.355369  0.355369  0.937543  1
  Ho  Ho2  1  0.355369  0.937543  0.355369  1
  Ho  Ho3  1  0.937543  0.355369  0.355369  1
  Ho  Ho4  1  0.810945  0.189285  0.189285  1
  Ho  Ho5  1  0.190081  0.809760  0.809760  1
  Ho  Ho6  1  0.189285  0.810945  0.189285  1
  Ho  Ho7  1  0.809760  0.190081  0.809760  1
  Ho  Ho8  1  0.189285  0.189285  0.810945  1
  Ho  Ho9  1  0.809760  0.809760  0.190081  1
  Ho  Ho10  1  0.935322  0.566787  0.566787  1
  Ho  Ho11  1  0.565083  0.934961  0.934961  1
  Ho  Ho12  1  0.566787  0.935322  0.566787  1
  Ho  Ho13  1  0.934961  0.565083  0.934961  1
  Ho  Ho14  1  0.566787  0.566787  0.935322  1
  Ho  Ho15  1  0.934961  0.934961  0.565083  1
  Cd  Cd16  1  0.581606  0.581606  0.251675  1
  Cd  Cd17  1  0.581606  0.251675  0.581606  1
  Cd  Cd18  1  0.251675  0.581606  0.581606  1
  In  In19  1  0.582515  0.582515  0.582515  1
  Pd  Pd20  1  0.145031  0.145031  0.145031  1
  Pd  Pd21  1  0.142970  0.142970  0.568131  1
  Pd  Pd22  1  0.142970  0.568131  0.142970  1
  Pd  Pd23  1  0.568131  0.142970  0.142970  1
