# generated using pymatgen
data_DyY7(OsI4)2
_symmetry_space_group_name_H-M   'P 1'
_cell_length_a   11.67786731
_cell_length_b   11.68792993
_cell_length_c   6.19583709
_cell_angle_alpha   90.04827873
_cell_angle_beta   90.04550542
_cell_angle_gamma   89.98450019
_symmetry_Int_Tables_number   1
_chemical_formula_structural   DyY7(OsI4)2
_chemical_formula_sum   'Dy1 Y7 Os2 I8'
_cell_volume   845.66979387
_cell_formula_units_Z   1
loop_
 _symmetry_equiv_pos_site_id
 _symmetry_equiv_pos_as_xyz
  1  'x, y, z'
loop_
 _atom_site_type_symbol
 _atom_site_label
 _atom_site_symmetry_multiplicity
 _atom_site_fract_x
 _atom_site_fract_y
 _atom_site_fract_z
 _atom_site_occupancy
  Dy  Dy0  1  0.808916  0.921627  0.498833  1
  Y  Y1  1  0.807506  0.079232  0.001166  1
  Y  Y2  1  0.079334  0.807764  0.501178  1
  Y  Y3  1  0.078777  0.192214  0.001183  1
  Y  Y4  1  0.192238  0.078832  0.501183  1
  Y  Y5  1  0.920883  0.807707  0.998815  1
  Y  Y6  1  0.920566  0.192200  0.498832  1
  Y  Y7  1  0.192207  0.920567  0.998833  1
  Os  Os8  1  0.999922  0.999628  0.250262  1
  Os  Os9  1  0.999447  0.000125  0.749749  1
  I  I10  1  0.653901  0.143525  0.487500  1
  I  I11  1  0.855270  0.655747  0.507316  1
  I  I12  1  0.344303  0.144794  0.992689  1
  I  I13  1  0.144839  0.344279  0.492667  1
  I  I14  1  0.655681  0.855205  0.007284  1
  I  I15  1  0.346149  0.856539  0.512506  1
  I  I16  1  0.143532  0.653855  0.987504  1
  I  I17  1  0.856527  0.346159  0.012500  1
