# generated using pymatgen
data_Ta3TiV4Si3P
_symmetry_space_group_name_H-M   'P 1'
_cell_length_a   3.38147700
_cell_length_b   6.53796548
_cell_length_c   7.84705158
_cell_angle_alpha   89.94504143
_cell_angle_beta   90.00000000
_cell_angle_gamma   90.00000000
_symmetry_Int_Tables_number   1
_chemical_formula_structural   Ta3TiV4Si3P
_chemical_formula_sum   'Ta3 Ti1 V4 Si3 P1'
_cell_volume   173.48237865
_cell_formula_units_Z   1
loop_
 _symmetry_equiv_pos_site_id
 _symmetry_equiv_pos_as_xyz
  1  'x, y, z'
loop_
 _atom_site_type_symbol
 _atom_site_label
 _atom_site_symmetry_multiplicity
 _atom_site_fract_x
 _atom_site_fract_y
 _atom_site_fract_z
 _atom_site_occupancy
  Ta  Ta0  1  0.250000  0.546763  0.165989  1
  Ta  Ta1  1  0.750000  0.454041  0.830211  1
  Ta  Ta2  1  0.250000  0.044301  0.333589  1
  Ti  Ti3  1  0.750000  0.963032  0.666245  1
  V  V4  1  0.250000  0.624322  0.562346  1
  V  V5  1  0.750000  0.366442  0.444104  1
  V  V6  1  0.750000  0.869435  0.060787  1
  V  V7  1  0.250000  0.131856  0.936578  1
  Si  Si8  1  0.250000  0.758394  0.857533  1
  Si  Si9  1  0.750000  0.246451  0.138386  1
  Si  Si10  1  0.750000  0.745151  0.365329  1
  P  P11  1  0.250000  0.249811  0.638903  1
