# generated using pymatgen
data_Nb3Zn2CuRh6
_symmetry_space_group_name_H-M   'P 1'
_cell_length_a   4.09896400
_cell_length_b   7.07724800
_cell_length_c   12.31078800
_cell_angle_alpha   90.00000000
_cell_angle_beta   90.00000000
_cell_angle_gamma   90.00000000
_symmetry_Int_Tables_number   1
_chemical_formula_structural   Nb3Zn2CuRh6
_chemical_formula_sum   'Nb6 Zn4 Cu2 Rh12'
_cell_volume   357.12838593
_cell_formula_units_Z   2
loop_
 _symmetry_equiv_pos_site_id
 _symmetry_equiv_pos_as_xyz
  1  'x, y, z'
loop_
 _atom_site_type_symbol
 _atom_site_label
 _atom_site_symmetry_multiplicity
 _atom_site_fract_x
 _atom_site_fract_y
 _atom_site_fract_z
 _atom_site_occupancy
  Nb  Nb0  1  0.000000  0.499999  0.006002  1
  Nb  Nb1  1  0.500007  0.000000  0.160662  1
  Nb  Nb2  1  0.000000  0.499999  0.326791  1
  Nb  Nb3  1  0.499999  0.000000  0.499469  1
  Nb  Nb4  1  0.000000  0.499999  0.667238  1
  Nb  Nb5  1  0.499992  0.000000  0.839844  1
  Zn  Zn6  1  0.000000  0.000000  0.332435  1
  Zn  Zn7  1  0.499999  0.499999  0.498881  1
  Zn  Zn8  1  0.000000  0.000000  0.667788  1
  Zn  Zn9  1  0.499994  0.499999  0.834259  1
  Cu  Cu10  1  0.000000  0.000000  0.999600  1
  Cu  Cu11  1  0.500004  0.499999  0.167009  1
  Rh  Rh12  1  0.499999  0.252980  0.000178  1
  Rh  Rh13  1  0.499999  0.747020  0.000178  1
  Rh  Rh14  1  0.000000  0.247026  0.166470  1
  Rh  Rh15  1  0.000000  0.752975  0.166470  1
  Rh  Rh16  1  0.500009  0.248445  0.332474  1
  Rh  Rh17  1  0.500009  0.751555  0.332474  1
  Rh  Rh18  1  0.000000  0.250748  0.499559  1
  Rh  Rh19  1  0.000000  0.749252  0.499559  1
  Rh  Rh20  1  0.499992  0.249292  0.667141  1
  Rh  Rh21  1  0.499992  0.750708  0.667141  1
  Rh  Rh22  1  0.000000  0.251534  0.834189  1
  Rh  Rh23  1  0.000000  0.748467  0.834189  1
