# generated using pymatgen
data_Ca2Mn2Co10As7
_symmetry_space_group_name_H-M   'P 1'
_cell_length_a   3.72331400
_cell_length_b   9.42960226
_cell_length_c   9.46587605
_cell_angle_alpha   119.83843020
_cell_angle_beta   90.00000000
_cell_angle_gamma   90.00000000
_symmetry_Int_Tables_number   1
_chemical_formula_structural   Ca2Mn2Co10As7
_chemical_formula_sum   'Ca2 Mn2 Co10 As7'
_cell_volume   288.28314474
_cell_formula_units_Z   1
loop_
 _symmetry_equiv_pos_site_id
 _symmetry_equiv_pos_as_xyz
  1  'x, y, z'
loop_
 _atom_site_type_symbol
 _atom_site_label
 _atom_site_symmetry_multiplicity
 _atom_site_fract_x
 _atom_site_fract_y
 _atom_site_fract_z
 _atom_site_occupancy
  Ca  Ca0  1  0.000000  0.669412  0.334740  1
  Ca  Ca1  1  0.500000  0.331889  0.667698  1
  Mn  Mn2  1  0.500000  0.779629  0.895527  1
  Mn  Mn3  1  0.500000  0.120268  0.220346  1
  Co  Co4  1  0.000000  0.570803  0.944309  1
  Co  Co5  1  0.000000  0.371420  0.427788  1
  Co  Co6  1  0.000000  0.054665  0.628296  1
  Co  Co7  1  0.500000  0.095116  0.879077  1
  Co  Co8  1  0.000000  0.884296  0.155727  1
  Co  Co9  1  0.000000  0.278558  0.119850  1
  Co  Co10  1  0.000000  0.842345  0.724588  1
  Co  Co11  1  0.500000  0.949522  0.382684  1
  Co  Co12  1  0.500000  0.431448  0.049041  1
  Co  Co13  1  0.500000  0.617472  0.567467  1
  As  As14  1  0.000000  0.003557  0.997513  1
  As  As15  1  0.500000  0.708129  0.116920  1
  As  As16  1  0.500000  0.412019  0.292520  1
  As  As17  1  0.500000  0.886292  0.596061  1
  As  As18  1  0.000000  0.583625  0.700298  1
  As  As19  1  0.000000  0.115095  0.415241  1
  As  As20  1  0.000000  0.294437  0.884305  1
