# generated using pymatgen
data_Yb2PClO4
_symmetry_space_group_name_H-M   'P 1'
_cell_length_a   6.13425400
_cell_length_b   6.94417100
_cell_length_c   10.71103400
_cell_angle_alpha   90.00000000
_cell_angle_beta   90.00000000
_cell_angle_gamma   90.00000000
_symmetry_Int_Tables_number   1
_chemical_formula_structural   Yb2PClO4
_chemical_formula_sum   'Yb8 P4 Cl4 O16'
_cell_volume   456.26122215
_cell_formula_units_Z   4
loop_
 _symmetry_equiv_pos_site_id
 _symmetry_equiv_pos_as_xyz
  1  'x, y, z'
loop_
 _atom_site_type_symbol
 _atom_site_label
 _atom_site_symmetry_multiplicity
 _atom_site_fract_x
 _atom_site_fract_y
 _atom_site_fract_z
 _atom_site_occupancy
  Yb  Yb0  1  0.367037  0.750000  0.500000  1
  Yb  Yb1  1  0.133958  0.028892  0.750000  1
  Yb  Yb2  1  0.632963  0.250000  0.500000  1
  Yb  Yb3  1  0.133958  0.471108  0.250000  1
  Yb  Yb4  1  0.632963  0.250000  0.000000  1
  Yb  Yb5  1  0.866042  0.528892  0.750000  1
  Yb  Yb6  1  0.367037  0.750000  0.000000  1
  Yb  Yb7  1  0.866042  0.971108  0.250000  1
  P  P8  1  0.863612  0.750000  0.000000  1
  P  P9  1  0.136388  0.250000  0.500000  1
  P  P10  1  0.136388  0.250000  0.000000  1
  P  P11  1  0.863612  0.750000  0.500000  1
  Cl  Cl12  1  0.515878  0.218007  0.250000  1
  Cl  Cl13  1  0.515878  0.281993  0.750000  1
  Cl  Cl14  1  0.484122  0.718007  0.250000  1
  Cl  Cl15  1  0.484122  0.781993  0.750000  1
  O  O16  1  0.986028  0.227716  0.116789  1
  O  O17  1  0.285974  0.425522  0.475138  1
  O  O18  1  0.013972  0.727716  0.383211  1
  O  O19  1  0.714026  0.925522  0.475138  1
  O  O20  1  0.013972  0.772284  0.616789  1
  O  O21  1  0.714026  0.574478  0.524862  1
  O  O22  1  0.986028  0.227716  0.383211  1
  O  O23  1  0.986028  0.272284  0.883211  1
  O  O24  1  0.714026  0.925522  0.024862  1
  O  O25  1  0.986028  0.272284  0.616789  1
  O  O26  1  0.714026  0.574478  0.975138  1
  O  O27  1  0.285974  0.425522  0.024862  1
  O  O28  1  0.013972  0.727716  0.116789  1
  O  O29  1  0.013972  0.772284  0.883211  1
  O  O30  1  0.285974  0.074478  0.524862  1
  O  O31  1  0.285974  0.074478  0.975138  1
