# generated using pymatgen
data_DyYEr4(B7W)2
_symmetry_space_group_name_H-M   'P 1'
_cell_length_a   8.11160094
_cell_length_b   8.11160089
_cell_length_c   9.47616900
_cell_angle_alpha   90.00000000
_cell_angle_beta   90.00000000
_cell_angle_gamma   155.49519901
_symmetry_Int_Tables_number   1
_chemical_formula_structural   DyYEr4(B7W)2
_chemical_formula_sum   'Dy1 Y1 Er4 B14 W2'
_cell_volume   258.61442840
_cell_formula_units_Z   1
loop_
 _symmetry_equiv_pos_site_id
 _symmetry_equiv_pos_as_xyz
  1  'x, y, z'
loop_
 _atom_site_type_symbol
 _atom_site_label
 _atom_site_symmetry_multiplicity
 _atom_site_fract_x
 _atom_site_fract_y
 _atom_site_fract_z
 _atom_site_occupancy
  Dy  Dy0  1  0.753981  0.246019  0.750000  1
  Y  Y1  1  0.246295  0.753705  0.250000  1
  Er  Er2  1  0.892979  0.107021  0.440615  1
  Er  Er3  1  0.107130  0.892870  0.559312  1
  Er  Er4  1  0.892979  0.107021  0.059385  1
  Er  Er5  1  0.107130  0.892870  0.940688  1
  B  B6  1  0.727538  0.272462  0.467579  1
  B  B7  1  0.272444  0.727556  0.532627  1
  B  B8  1  0.727538  0.272462  0.032421  1
  B  B9  1  0.272444  0.727556  0.967373  1
  B  B10  1  0.634952  0.365048  0.146755  1
  B  B11  1  0.364809  0.635191  0.852995  1
  B  B12  1  0.634952  0.365048  0.353245  1
  B  B13  1  0.364809  0.635191  0.647005  1
  B  B14  1  0.519204  0.480796  0.091379  1
  B  B15  1  0.480801  0.519199  0.908490  1
  B  B16  1  0.519204  0.480796  0.408621  1
  B  B17  1  0.480801  0.519199  0.591510  1
  B  B18  1  0.453630  0.546370  0.250000  1
  B  B19  1  0.546331  0.453669  0.750000  1
  W  W20  1  0.052859  0.947141  0.250000  1
  W  W21  1  0.947192  0.052808  0.750000  1
