# generated using pymatgen
data_Y3Pa(Ga3Rh)6
_symmetry_space_group_name_H-M   'P 1'
_cell_length_a   7.59127021
_cell_length_b   7.58505451
_cell_length_c   9.46166900
_cell_angle_alpha   90.00000000
_cell_angle_beta   90.00000000
_cell_angle_gamma   119.79233724
_symmetry_Int_Tables_number   1
_chemical_formula_structural   Y3Pa(Ga3Rh)6
_chemical_formula_sum   'Y3 Pa1 Ga18 Rh6'
_cell_volume   472.79897140
_cell_formula_units_Z   1
loop_
 _symmetry_equiv_pos_site_id
 _symmetry_equiv_pos_as_xyz
  1  'x, y, z'
loop_
 _atom_site_type_symbol
 _atom_site_label
 _atom_site_symmetry_multiplicity
 _atom_site_fract_x
 _atom_site_fract_y
 _atom_site_fract_z
 _atom_site_occupancy
  Y  Y0  1  0.003036  0.332340  0.750000  1
  Y  Y1  1  0.668975  0.997782  0.250000  1
  Y  Y2  1  0.331624  0.002054  0.750000  1
  Pa  Pa3  1  0.998224  0.667873  0.250000  1
  Ga  Ga4  1  0.332037  0.332026  0.565694  1
  Ga  Ga5  1  0.665369  0.667854  0.436034  1
  Ga  Ga6  1  0.665369  0.667854  0.063966  1
  Ga  Ga7  1  0.332037  0.332026  0.934306  1
  Ga  Ga8  1  0.339148  0.544313  0.250000  1
  Ga  Ga9  1  0.660041  0.452919  0.750000  1
  Ga  Ga10  1  0.544598  0.340586  0.250000  1
  Ga  Ga11  1  0.453531  0.660259  0.750000  1
  Ga  Ga12  1  0.999648  0.331654  0.079168  1
  Ga  Ga13  1  0.999760  0.665572  0.918384  1
  Ga  Ga14  1  0.999760  0.665572  0.581616  1
  Ga  Ga15  1  0.337013  0.002499  0.420646  1
  Ga  Ga16  1  0.999648  0.331654  0.420832  1
  Ga  Ga17  1  0.665632  0.000256  0.580279  1
  Ga  Ga18  1  0.665632  0.000256  0.919721  1
  Ga  Ga19  1  0.337013  0.002499  0.079354  1
  Ga  Ga20  1  0.125755  0.125166  0.250000  1
  Ga  Ga21  1  0.877282  0.877709  0.750000  1
  Rh  Rh22  1  0.999682  0.997925  0.001800  1
  Rh  Rh23  1  0.999682  0.997925  0.498200  1
  Rh  Rh24  1  0.672672  0.330492  0.001746  1
  Rh  Rh25  1  0.327077  0.671223  0.001997  1
  Rh  Rh26  1  0.327077  0.671223  0.498003  1
  Rh  Rh27  1  0.672672  0.330492  0.498254  1
