# generated using pymatgen
data_K3RbCe2Br12
_symmetry_space_group_name_H-M   'P 1'
_cell_length_a   8.03851408
_cell_length_b   7.79052075
_cell_length_c   13.60180800
_cell_angle_alpha   54.99635591
_cell_angle_beta   90.02976510
_cell_angle_gamma   89.66185475
_symmetry_Int_Tables_number   1
_chemical_formula_structural   K3RbCe2Br12
_chemical_formula_sum   'K3 Rb1 Ce2 Br12'
_cell_volume   697.70459696
_cell_formula_units_Z   1
loop_
 _symmetry_equiv_pos_site_id
 _symmetry_equiv_pos_as_xyz
  1  'x, y, z'
loop_
 _atom_site_type_symbol
 _atom_site_label
 _atom_site_symmetry_multiplicity
 _atom_site_fract_x
 _atom_site_fract_y
 _atom_site_fract_z
 _atom_site_occupancy
  K  K0  1  0.427458  0.736974  0.251347  1
  K  K1  1  0.927929  0.263783  0.248273  1
  K  K2  1  0.072261  0.733896  0.751281  1
  Rb  Rb3  1  0.561664  0.266899  0.748656  1
  Ce  Ce4  1  0.001912  0.997750  0.002151  1
  Ce  Ce5  1  0.498473  0.002123  0.497473  1
  Br  Br6  1  0.818875  0.347566  0.951434  1
  Br  Br7  1  0.522997  0.156225  0.255122  1
  Br  Br8  1  0.478692  0.822295  0.744111  1
  Br  Br9  1  0.292350  0.221528  0.966497  1
  Br  Br10  1  0.304731  0.673482  0.534013  1
  Br  Br11  1  0.204318  0.228781  0.455705  1
  Br  Br12  1  0.186690  0.651367  0.050675  1
  Br  Br13  1  0.796486  0.780496  0.542188  1
  Br  Br14  1  0.706534  0.774998  0.046792  1
  Br  Br15  1  0.022095  0.842401  0.244932  1
  Br  Br16  1  0.995356  0.152519  0.758593  1
  Br  Br17  1  0.681177  0.346913  0.450757  1
