# generated using pymatgen
data_Ba6Gd2Er(WO6)3
_symmetry_space_group_name_H-M   'P 1'
_cell_length_a   10.41529803
_cell_length_b   10.41529937
_cell_length_c   6.03565500
_cell_angle_alpha   73.92359490
_cell_angle_beta   73.92359851
_cell_angle_gamma   49.14101189
_symmetry_Int_Tables_number   1
_chemical_formula_structural   Ba6Gd2Er(WO6)3
_chemical_formula_sum   'Ba6 Gd2 Er1 W3 O18'
_cell_volume   471.67902054
_cell_formula_units_Z   1
loop_
 _symmetry_equiv_pos_site_id
 _symmetry_equiv_pos_as_xyz
  1  'x, y, z'
loop_
 _atom_site_type_symbol
 _atom_site_label
 _atom_site_symmetry_multiplicity
 _atom_site_fract_x
 _atom_site_fract_y
 _atom_site_fract_z
 _atom_site_occupancy
  Ba  Ba0  1  0.916422  0.415554  0.335395  1
  Ba  Ba1  1  0.253222  0.746778  0.000000  1
  Ba  Ba2  1  0.584446  0.083578  0.664605  1
  Ba  Ba3  1  0.746778  0.253222  0.000000  1
  Ba  Ba4  1  0.083578  0.584446  0.664605  1
  Ba  Ba5  1  0.415554  0.916422  0.335395  1
  Gd  Gd6  1  0.166851  0.166851  0.834183  1
  Gd  Gd7  1  0.833149  0.833149  0.165817  1
  Er  Er8  1  0.500000  0.500000  0.500000  1
  W  W9  1  0.000000  0.000000  0.500000  1
  W  W10  1  0.334537  0.334537  0.165206  1
  W  W11  1  0.665463  0.665463  0.834794  1
  O  O12  1  0.902703  0.428776  0.833684  1
  O  O13  1  0.239677  0.760323  0.500000  1
  O  O14  1  0.571224  0.097297  0.166316  1
  O  O15  1  0.760323  0.239677  0.500000  1
  O  O16  1  0.097297  0.571224  0.166316  1
  O  O17  1  0.428776  0.902703  0.833684  1
  O  O18  1  0.754507  0.754507  0.538720  1
  O  O19  1  0.423629  0.423629  0.865543  1
  O  O20  1  0.090321  0.090321  0.207087  1
  O  O21  1  0.909679  0.909679  0.792913  1
  O  O22  1  0.576371  0.576371  0.134457  1
  O  O23  1  0.245493  0.245493  0.461280  1
  O  O24  1  0.065948  0.065948  0.695370  1
  O  O25  1  0.731632  0.731632  0.030110  1
  O  O26  1  0.401885  0.401885  0.359613  1
  O  O27  1  0.934052  0.934052  0.304630  1
  O  O28  1  0.598115  0.598115  0.640387  1
  O  O29  1  0.268368  0.268368  0.969890  1
