# generated using pymatgen
data_LaPrPd2O7
_symmetry_space_group_name_H-M   'P 1'
_cell_length_a   7.48202686
_cell_length_b   7.48777143
_cell_length_c   7.48202607
_cell_angle_alpha   59.97460353
_cell_angle_beta   59.95075853
_cell_angle_gamma   59.97459647
_symmetry_Int_Tables_number   1
_chemical_formula_structural   LaPrPd2O7
_chemical_formula_sum   'La2 Pr2 Pd4 O14'
_cell_volume   296.17436311
_cell_formula_units_Z   2
loop_
 _symmetry_equiv_pos_site_id
 _symmetry_equiv_pos_as_xyz
  1  'x, y, z'
loop_
 _atom_site_type_symbol
 _atom_site_label
 _atom_site_symmetry_multiplicity
 _atom_site_fract_x
 _atom_site_fract_y
 _atom_site_fract_z
 _atom_site_occupancy
  La  La0  1  0.625000  0.125000  0.125000  1
  La  La1  1  0.125000  0.125000  0.625000  1
  Pr  Pr2  1  0.125000  0.125000  0.125000  1
  Pr  Pr3  1  0.125000  0.625000  0.125000  1
  Pd  Pd4  1  0.625000  0.625000  0.625000  1
  Pd  Pd5  1  0.125000  0.625000  0.625000  1
  Pd  Pd6  1  0.625000  0.625000  0.125000  1
  Pd  Pd7  1  0.625000  0.125000  0.625000  1
  O  O8  1  0.000232  0.999768  0.000232  1
  O  O9  1  0.249768  0.250232  0.249768  1
  O  O10  1  0.291876  0.292021  0.709079  1
  O  O11  1  0.540921  0.542976  0.958124  1
  O  O12  1  0.707507  0.292493  0.707507  1
  O  O13  1  0.709079  0.292021  0.291876  1
  O  O14  1  0.291876  0.707024  0.709079  1
  O  O15  1  0.291414  0.708586  0.291414  1
  O  O16  1  0.709079  0.707024  0.291876  1
  O  O17  1  0.958124  0.542976  0.540921  1
  O  O18  1  0.540921  0.957979  0.958124  1
  O  O19  1  0.958124  0.957979  0.540921  1
  O  O20  1  0.958586  0.541414  0.958586  1
  O  O21  1  0.542493  0.957507  0.542493  1
