# generated using pymatgen
data_Co6ReMo5As
_symmetry_space_group_name_H-M   'P 1'
_cell_length_a   8.90204607
_cell_length_b   8.90204609
_cell_length_c   8.90204810
_cell_angle_alpha   31.12749976
_cell_angle_beta   31.12750125
_cell_angle_gamma   31.12749734
_symmetry_Int_Tables_number   1
_chemical_formula_structural   Co6ReMo5As
_chemical_formula_sum   'Co6 Re1 Mo5 As1'
_cell_volume   167.27170177
_cell_formula_units_Z   1
loop_
 _symmetry_equiv_pos_site_id
 _symmetry_equiv_pos_as_xyz
  1  'x, y, z'
loop_
 _atom_site_type_symbol
 _atom_site_label
 _atom_site_symmetry_multiplicity
 _atom_site_fract_x
 _atom_site_fract_y
 _atom_site_fract_z
 _atom_site_occupancy
  Co  Co0  1  0.090047  0.090047  0.585688  1
  Co  Co1  1  0.416429  0.908830  0.908830  1
  Co  Co2  1  0.585688  0.090047  0.090047  1
  Co  Co3  1  0.908830  0.908830  0.416429  1
  Co  Co4  1  0.908830  0.416429  0.908830  1
  Co  Co5  1  0.090047  0.585688  0.090047  1
  Re  Re6  1  0.832051  0.832051  0.832051  1
  Mo  Mo7  1  0.652157  0.652157  0.652157  1
  Mo  Mo8  1  0.451709  0.451709  0.451709  1
  Mo  Mo9  1  0.548437  0.548437  0.548437  1
  Mo  Mo10  1  0.167972  0.167972  0.167972  1
  Mo  Mo11  1  0.347595  0.347595  0.347595  1
  As  As12  1  0.000209  0.000209  0.000209  1
