# generated using pymatgen
data_Zr3Sc(Ta3Si4)2
_symmetry_space_group_name_H-M   'P 1'
_cell_length_a   6.87790507
_cell_length_b   6.87720306
_cell_length_c   12.74994400
_cell_angle_alpha   90.00000000
_cell_angle_beta   90.00000000
_cell_angle_gamma   89.98424639
_symmetry_Int_Tables_number   1
_chemical_formula_structural   Zr3Sc(Ta3Si4)2
_chemical_formula_sum   'Zr6 Sc2 Ta12 Si16'
_cell_volume   603.08188823
_cell_formula_units_Z   2
loop_
 _symmetry_equiv_pos_site_id
 _symmetry_equiv_pos_as_xyz
  1  'x, y, z'
loop_
 _atom_site_type_symbol
 _atom_site_label
 _atom_site_symmetry_multiplicity
 _atom_site_fract_x
 _atom_site_fract_y
 _atom_site_fract_z
 _atom_site_occupancy
  Zr  Zr0  1  0.658714  0.003004  0.968752  1
  Zr  Zr1  1  0.160362  0.498271  0.781817  1
  Zr  Zr2  1  0.839638  0.501729  0.281817  1
  Zr  Zr3  1  0.498183  0.160430  0.219038  1
  Zr  Zr4  1  0.501817  0.839570  0.719038  1
  Zr  Zr5  1  0.341286  0.996996  0.468752  1
  Sc  Sc6  1  0.001069  0.660600  0.030549  1
  Sc  Sc7  1  0.998931  0.339400  0.530549  1
  Ta  Ta8  1  0.347017  0.504855  0.375734  1
  Ta  Ta9  1  0.846637  0.995307  0.373477  1
  Ta  Ta10  1  0.005295  0.152380  0.126430  1
  Ta  Ta11  1  0.994705  0.847620  0.626430  1
  Ta  Ta12  1  0.652983  0.495145  0.875734  1
  Ta  Ta13  1  0.504320  0.347423  0.624028  1
  Ta  Ta14  1  0.495680  0.652577  0.124028  1
  Ta  Ta15  1  0.153363  0.004693  0.873477  1
  Ta  Ta16  1  0.668410  0.671091  0.500380  1
  Ta  Ta17  1  0.829725  0.170599  0.750331  1
  Ta  Ta18  1  0.170275  0.829401  0.250331  1
  Ta  Ta19  1  0.331590  0.328909  0.000380  1
  Si  Si20  1  0.043376  0.699807  0.437387  1
  Si  Si21  1  0.956624  0.300193  0.937387  1
  Si  Si22  1  0.702115  0.045577  0.563252  1
  Si  Si23  1  0.199751  0.456991  0.185913  1
  Si  Si24  1  0.800249  0.543009  0.685913  1
  Si  Si25  1  0.455360  0.201246  0.813006  1
  Si  Si26  1  0.544640  0.798754  0.313006  1
  Si  Si27  1  0.297885  0.954423  0.063252  1
  Si  Si28  1  0.864740  0.793018  0.822060  1
  Si  Si29  1  0.135260  0.206982  0.322060  1
  Si  Si30  1  0.794072  0.863232  0.177315  1
  Si  Si31  1  0.291627  0.635072  0.572675  1
  Si  Si32  1  0.708373  0.364928  0.072675  1
  Si  Si33  1  0.636273  0.293320  0.427856  1
  Si  Si34  1  0.363727  0.706680  0.927856  1
  Si  Si35  1  0.205928  0.136768  0.677315  1
