# generated using pymatgen
data_K3DyRhO6
_symmetry_space_group_name_H-M   'P 1'
_cell_length_a   7.21239442
_cell_length_b   7.21220037
_cell_length_c   7.21241692
_cell_angle_alpha   94.56342784
_cell_angle_beta   94.56651865
_cell_angle_gamma   94.56401554
_symmetry_Int_Tables_number   1
_chemical_formula_structural   K3DyRhO6
_chemical_formula_sum   'K6 Dy2 Rh2 O12'
_cell_volume   371.39763344
_cell_formula_units_Z   2
loop_
 _symmetry_equiv_pos_site_id
 _symmetry_equiv_pos_as_xyz
  1  'x, y, z'
loop_
 _atom_site_type_symbol
 _atom_site_label
 _atom_site_symmetry_multiplicity
 _atom_site_fract_x
 _atom_site_fract_y
 _atom_site_fract_z
 _atom_site_occupancy
  K  K0  1  0.750003  0.381863  0.118150  1
  K  K1  1  0.618171  0.881842  0.249997  1
  K  K2  1  0.118138  0.749991  0.381851  1
  K  K3  1  0.881862  0.250010  0.618149  1
  K  K4  1  0.381829  0.118159  0.750003  1
  K  K5  1  0.249997  0.618137  0.881851  1
  Dy  Dy6  1  0.250001  0.250003  0.249998  1
  Dy  Dy7  1  0.749999  0.749998  0.750002  1
  Rh  Rh8  1  0.000000  0.000000  0.000000  1
  Rh  Rh9  1  0.500000  0.500000  0.500000  1
  O  O10  1  0.911726  0.736817  0.030747  1
  O  O11  1  0.263177  0.969254  0.088277  1
  O  O12  1  0.411718  0.530753  0.236821  1
  O  O13  1  0.969252  0.088272  0.263173  1
  O  O14  1  0.530753  0.236825  0.411726  1
  O  O15  1  0.763174  0.588279  0.469251  1
  O  O16  1  0.236826  0.411721  0.530749  1
  O  O17  1  0.469247  0.763175  0.588275  1
  O  O18  1  0.030749  0.911728  0.736827  1
  O  O19  1  0.588282  0.469248  0.763179  1
  O  O20  1  0.736823  0.030747  0.911724  1
  O  O21  1  0.088274  0.263183  0.969253  1
