# generated using pymatgen
data_NaZn2H5
_symmetry_space_group_name_H-M   'P 1'
_cell_length_a   4.70228870
_cell_length_b   8.01422795
_cell_length_c   6.78404400
_cell_angle_alpha   61.61800118
_cell_angle_beta   69.57600005
_cell_angle_gamma   29.43723469
_symmetry_Int_Tables_number   1
_chemical_formula_structural   NaZn2H5
_chemical_formula_sum   'Na1 Zn2 H5'
_cell_volume   109.28839462
_cell_formula_units_Z   1
loop_
 _symmetry_equiv_pos_site_id
 _symmetry_equiv_pos_as_xyz
  1  'x, y, z'
loop_
 _atom_site_type_symbol
 _atom_site_label
 _atom_site_symmetry_multiplicity
 _atom_site_fract_x
 _atom_site_fract_y
 _atom_site_fract_z
 _atom_site_occupancy
  Na  Na0  1  0.338603  0.666239  0.628261  1
  Zn  Zn1  1  0.551493  0.926978  0.015977  1
  Zn  Zn2  1  0.674161  0.444123  0.222897  1
  H  H3  1  0.707586  0.269484  0.483445  1
  H  H4  1  0.296680  0.199092  0.110334  1
  H  H5  1  0.430175  0.770762  0.218707  1
  H  H6  1  0.270772  0.603799  0.030269  1
  H  H7  1  0.354670  0.077749  0.756695  1
