# generated using pymatgen
data_Ta7Nb9Cu3Ni5N4
_symmetry_space_group_name_H-M   'P 1'
_cell_length_a   8.25722027
_cell_length_b   8.24652025
_cell_length_c   8.25850255
_cell_angle_alpha   60.14742017
_cell_angle_beta   60.20458329
_cell_angle_gamma   60.16863499
_symmetry_Int_Tables_number   1
_chemical_formula_structural   Ta7Nb9Cu3Ni5N4
_chemical_formula_sum   'Ta7 Nb9 Cu3 Ni5 N4'
_cell_volume   399.20345708
_cell_formula_units_Z   1
loop_
 _symmetry_equiv_pos_site_id
 _symmetry_equiv_pos_as_xyz
  1  'x, y, z'
loop_
 _atom_site_type_symbol
 _atom_site_label
 _atom_site_symmetry_multiplicity
 _atom_site_fract_x
 _atom_site_fract_y
 _atom_site_fract_z
 _atom_site_occupancy
  Ta  Ta0  1  0.120949  0.624963  0.625134  1
  Ta  Ta1  1  0.624549  0.120916  0.624142  1
  Ta  Ta2  1  0.624899  0.623820  0.120902  1
  Ta  Ta3  1  0.627128  0.626717  0.627700  1
  Ta  Ta4  1  0.065168  0.434961  0.065061  1
  Ta  Ta5  1  0.067992  0.434014  0.434593  1
  Ta  Ta6  1  0.435555  0.064750  0.064892  1
  Nb  Nb7  1  0.814499  0.815086  0.184798  1
  Nb  Nb8  1  0.183991  0.183960  0.816098  1
  Nb  Nb9  1  0.815771  0.183870  0.815825  1
  Nb  Nb10  1  0.182513  0.817733  0.182669  1
  Nb  Nb11  1  0.181762  0.818092  0.817461  1
  Nb  Nb12  1  0.818894  0.180934  0.181207  1
  Nb  Nb13  1  0.434110  0.433474  0.068240  1
  Nb  Nb14  1  0.065664  0.065473  0.434755  1
  Nb  Nb15  1  0.434025  0.067994  0.434039  1
  Cu  Cu16  1  0.749208  0.417742  0.416639  1
  Cu  Cu17  1  0.418174  0.747595  0.416607  1
  Cu  Cu18  1  0.416711  0.416577  0.749247  1
  Ni  Ni19  1  0.419604  0.421537  0.421392  1
  Ni  Ni20  1  0.511530  0.829643  0.829610  1
  Ni  Ni21  1  0.830417  0.511546  0.828471  1
  Ni  Ni22  1  0.829679  0.827975  0.511913  1
  Ni  Ni23  1  0.828186  0.829546  0.829589  1
  N  N24  1  0.621703  0.124616  0.124903  1
  N  N25  1  0.124165  0.620216  0.127850  1
  N  N26  1  0.124883  0.128435  0.621709  1
  N  N27  1  0.128271  0.127817  0.124554  1
