# generated using pymatgen
data_DyHo7Ti11Si16Ag
_symmetry_space_group_name_H-M   'P 1'
_cell_length_a   7.05997644
_cell_length_b   7.05977373
_cell_length_c   12.89748500
_cell_angle_alpha   90.08092921
_cell_angle_beta   89.92073808
_cell_angle_gamma   89.65444062
_symmetry_Int_Tables_number   1
_chemical_formula_structural   DyHo7Ti11Si16Ag
_chemical_formula_sum   'Dy1 Ho7 Ti11 Si16 Ag1'
_cell_volume   642.82137968
_cell_formula_units_Z   1
loop_
 _symmetry_equiv_pos_site_id
 _symmetry_equiv_pos_as_xyz
  1  'x, y, z'
loop_
 _atom_site_type_symbol
 _atom_site_label
 _atom_site_symmetry_multiplicity
 _atom_site_fract_x
 _atom_site_fract_y
 _atom_site_fract_z
 _atom_site_occupancy
  Dy  Dy0  1  0.340831  0.002625  0.466661  1
  Ho  Ho1  1  0.497723  0.840264  0.716771  1
  Ho  Ho2  1  0.501083  0.158263  0.214513  1
  Ho  Ho3  1  0.840148  0.497639  0.283308  1
  Ho  Ho4  1  0.158184  0.500934  0.785451  1
  Ho  Ho5  1  0.656357  0.000547  0.968244  1
  Ho  Ho6  1  0.002389  0.340941  0.533398  1
  Ho  Ho7  1  0.000568  0.656382  0.031632  1
  Ti  Ti8  1  0.173872  0.826603  0.250032  1
  Ti  Ti9  1  0.826633  0.173913  0.749949  1
  Ti  Ti10  1  0.673028  0.672901  0.499984  1
  Ti  Ti11  1  0.148099  0.007804  0.876927  1
  Ti  Ti12  1  0.495101  0.650641  0.123549  1
  Ti  Ti13  1  0.507842  0.350333  0.625268  1
  Ti  Ti14  1  0.650656  0.495120  0.876445  1
  Ti  Ti15  1  0.350333  0.507744  0.374748  1
  Ti  Ti16  1  0.849543  0.992223  0.374613  1
  Ti  Ti17  1  0.007738  0.148166  0.123079  1
  Ti  Ti18  1  0.992192  0.849621  0.625419  1
  Si  Si19  1  0.202167  0.132279  0.684344  1
  Si  Si20  1  0.373696  0.718755  0.929272  1
  Si  Si21  1  0.631440  0.294638  0.432652  1
  Si  Si22  1  0.718667  0.373758  0.070809  1
  Si  Si23  1  0.294538  0.631001  0.567413  1
  Si  Si24  1  0.797313  0.867905  0.182819  1
  Si  Si25  1  0.131999  0.202373  0.315664  1
  Si  Si26  1  0.867946  0.797468  0.817243  1
  Si  Si27  1  0.286152  0.938138  0.066247  1
  Si  Si28  1  0.546819  0.791379  0.314425  1
  Si  Si29  1  0.455647  0.207379  0.808804  1
  Si  Si30  1  0.791508  0.546477  0.685434  1
  Si  Si31  1  0.207446  0.455639  0.191160  1
  Si  Si32  1  0.709058  0.047661  0.564462  1
  Si  Si33  1  0.938209  0.286052  0.933690  1
  Si  Si34  1  0.047347  0.708706  0.435570  1
  Ag  Ag35  1  0.327724  0.327726  0.000000  1
