# generated using pymatgen
data_Li2Pr3Th(AgAs4)2
_symmetry_space_group_name_H-M   'P 1'
_cell_length_a   4.05039700
_cell_length_b   4.06644212
_cell_length_c   21.30024100
_cell_angle_alpha   90.37366685
_cell_angle_beta   90.00000000
_cell_angle_gamma   90.00000000
_symmetry_Int_Tables_number   1
_chemical_formula_structural   Li2Pr3Th(AgAs4)2
_chemical_formula_sum   'Li2 Pr3 Th1 Ag2 As8'
_cell_volume   350.82252472
_cell_formula_units_Z   1
loop_
 _symmetry_equiv_pos_site_id
 _symmetry_equiv_pos_as_xyz
  1  'x, y, z'
loop_
 _atom_site_type_symbol
 _atom_site_label
 _atom_site_symmetry_multiplicity
 _atom_site_fract_x
 _atom_site_fract_y
 _atom_site_fract_z
 _atom_site_occupancy
  Li  Li0  1  0.750000  0.726434  0.251231  1
  Li  Li1  1  0.750000  0.773834  0.750157  1
  Pr  Pr2  1  0.750000  0.234895  0.387074  1
  Pr  Pr3  1  0.750000  0.272193  0.885420  1
  Pr  Pr4  1  0.250000  0.728049  0.115979  1
  Th  Th5  1  0.250000  0.764000  0.611017  1
  Ag  Ag6  1  0.250000  0.225948  0.251300  1
  Ag  Ag7  1  0.250000  0.273428  0.748781  1
  As  As8  1  0.250000  0.774256  0.831628  1
  As  As9  1  0.750000  0.226540  0.166886  1
  As  As10  1  0.750000  0.266969  0.661492  1
  As  As11  1  0.250000  0.730539  0.335429  1
  As  As12  1  0.250000  0.256352  0.501886  1
  As  As13  1  0.250000  0.219416  0.000620  1
  As  As14  1  0.750000  0.779994  0.999322  1
  As  As15  1  0.750000  0.747152  0.501779  1
