# generated using pymatgen
data_Ho3Er(HfGa5)2
_symmetry_space_group_name_H-M   'P 1'
_cell_length_a   5.93243902
_cell_length_b   9.37912004
_cell_length_c   11.33903300
_cell_angle_alpha   90.00000000
_cell_angle_beta   90.00000000
_cell_angle_gamma   89.98976555
_symmetry_Int_Tables_number   1
_chemical_formula_structural   Ho3Er(HfGa5)2
_chemical_formula_sum   'Ho6 Er2 Hf4 Ga20'
_cell_volume   630.91577955
_cell_formula_units_Z   2
loop_
 _symmetry_equiv_pos_site_id
 _symmetry_equiv_pos_as_xyz
  1  'x, y, z'
loop_
 _atom_site_type_symbol
 _atom_site_label
 _atom_site_symmetry_multiplicity
 _atom_site_fract_x
 _atom_site_fract_y
 _atom_site_fract_z
 _atom_site_occupancy
  Ho  Ho0  1  0.885338  0.505134  0.352506  1
  Ho  Ho1  1  0.614662  0.994866  0.852506  1
  Ho  Ho2  1  0.114624  0.005113  0.647399  1
  Ho  Ho3  1  0.385376  0.494887  0.147399  1
  Ho  Ho4  1  0.114604  0.494870  0.647553  1
  Ho  Ho5  1  0.385396  0.005130  0.147553  1
  Er  Er6  1  0.885421  0.994856  0.352543  1
  Er  Er7  1  0.614579  0.505144  0.852543  1
  Hf  Hf8  1  0.857267  0.749973  0.073492  1
  Hf  Hf9  1  0.642733  0.750027  0.573492  1
  Hf  Hf10  1  0.142804  0.250020  0.926474  1
  Hf  Hf11  1  0.357196  0.249980  0.426474  1
  Ga  Ga12  1  0.874637  0.052388  0.089194  1
  Ga  Ga13  1  0.625363  0.447612  0.589194  1
  Ga  Ga14  1  0.125457  0.552362  0.910884  1
  Ga  Ga15  1  0.374543  0.947638  0.410884  1
  Ga  Ga16  1  0.125386  0.947558  0.910940  1
  Ga  Ga17  1  0.374614  0.552442  0.410940  1
  Ga  Ga18  1  0.874595  0.447603  0.088985  1
  Ga  Ga19  1  0.625405  0.052397  0.588985  1
  Ga  Ga20  1  0.156857  0.750126  0.254948  1
  Ga  Ga21  1  0.343143  0.749874  0.754948  1
  Ga  Ga22  1  0.842923  0.250138  0.745171  1
  Ga  Ga23  1  0.657077  0.249862  0.245171  1
  Ga  Ga24  1  0.394114  0.749930  0.000041  1
  Ga  Ga25  1  0.105886  0.750070  0.500041  1
  Ga  Ga26  1  0.606014  0.250161  0.999788  1
  Ga  Ga27  1  0.893986  0.249839  0.499788  1
  Ga  Ga28  1  0.606342  0.750169  0.292642  1
  Ga  Ga29  1  0.893658  0.749831  0.792642  1
  Ga  Ga30  1  0.393889  0.250054  0.707442  1
  Ga  Ga31  1  0.106111  0.249946  0.207442  1
