# generated using pymatgen
data_PrTh7VS17
_symmetry_space_group_name_H-M   'P 1'
_cell_length_a   8.09229337
_cell_length_b   8.07403963
_cell_length_c   10.70451194
_cell_angle_alpha   80.78830041
_cell_angle_beta   80.68426628
_cell_angle_gamma   65.08018875
_symmetry_Int_Tables_number   1
_chemical_formula_structural   PrTh7VS17
_chemical_formula_sum   'Pr1 Th7 V1 S17'
_cell_volume   622.61746561
_cell_formula_units_Z   1
loop_
 _symmetry_equiv_pos_site_id
 _symmetry_equiv_pos_as_xyz
  1  'x, y, z'
loop_
 _atom_site_type_symbol
 _atom_site_label
 _atom_site_symmetry_multiplicity
 _atom_site_fract_x
 _atom_site_fract_y
 _atom_site_fract_z
 _atom_site_occupancy
  Pr  Pr0  1  0.811226  0.302598  0.296005  1
  Th  Th1  1  0.300979  0.813116  0.293171  1
  Th  Th2  1  0.186875  0.699096  0.704927  1
  Th  Th3  1  0.699028  0.187831  0.704540  1
  Th  Th4  1  0.204785  0.205390  0.543872  1
  Th  Th5  1  0.794015  0.794939  0.454149  1
  Th  Th6  1  0.683743  0.681090  0.978434  1
  Th  Th7  1  0.316468  0.316845  0.024318  1
  V  V8  1  0.000879  0.001672  0.001628  1
  S  S9  1  0.825452  0.431022  0.534914  1
  S  S10  1  0.429986  0.822509  0.530640  1
  S  S11  1  0.176084  0.569675  0.469972  1
  S  S12  1  0.569241  0.172121  0.473937  1
  S  S13  1  0.945785  0.319798  0.024022  1
  S  S14  1  0.321125  0.944301  0.027430  1
  S  S15  1  0.056167  0.680429  0.970416  1
  S  S16  1  0.679255  0.057434  0.970536  1
  S  S17  1  0.213911  0.202569  0.279004  1
  S  S18  1  0.793185  0.792717  0.721861  1
  S  S19  1  0.059688  0.058497  0.776723  1
  S  S20  1  0.943181  0.935077  0.222527  1
  S  S21  1  0.303815  0.304883  0.756072  1
  S  S22  1  0.691130  0.703525  0.242219  1
  S  S23  1  0.519650  0.521119  0.832221  1
  S  S24  1  0.472869  0.485595  0.163587  1
  S  S25  1  0.001481  0.996154  0.502876  1
