# generated using pymatgen
data_ErMg2Ni7B2
_symmetry_space_group_name_H-M   'P 1'
_cell_length_a   7.50092105
_cell_length_b   7.50092188
_cell_length_c   7.50092077
_cell_angle_alpha   38.53117679
_cell_angle_beta   38.53118323
_cell_angle_gamma   38.53117326
_symmetry_Int_Tables_number   1
_chemical_formula_structural   ErMg2Ni7B2
_chemical_formula_sum   'Er1 Mg2 Ni7 B2'
_cell_volume   147.15265746
_cell_formula_units_Z   1
loop_
 _symmetry_equiv_pos_site_id
 _symmetry_equiv_pos_as_xyz
  1  'x, y, z'
loop_
 _atom_site_type_symbol
 _atom_site_label
 _atom_site_symmetry_multiplicity
 _atom_site_fract_x
 _atom_site_fract_y
 _atom_site_fract_z
 _atom_site_occupancy
  Er  Er0  1  0.500000  0.500000  0.500000  1
  Mg  Mg1  1  0.648556  0.648556  0.648556  1
  Mg  Mg2  1  0.351444  0.351444  0.351444  1
  Ni  Ni3  1  0.570680  0.068810  0.068810  1
  Ni  Ni4  1  0.068810  0.068810  0.570680  1
  Ni  Ni5  1  0.068810  0.570680  0.068810  1
  Ni  Ni6  1  0.931190  0.429320  0.931190  1
  Ni  Ni7  1  0.931190  0.931190  0.429320  1
  Ni  Ni8  1  0.429320  0.931190  0.931190  1
  Ni  Ni9  1  0.000000  0.000000  0.000000  1
  B  B10  1  0.832870  0.832870  0.832870  1
  B  B11  1  0.167130  0.167130  0.167130  1
