# generated using pymatgen
data_Y7HoSc12GaSi15
_symmetry_space_group_name_H-M   'P 1'
_cell_length_a   7.10356782
_cell_length_b   7.39703437
_cell_length_c   14.02617043
_cell_angle_alpha   89.94144131
_cell_angle_beta   89.97037518
_cell_angle_gamma   90.01503204
_symmetry_Int_Tables_number   1
_chemical_formula_structural   Y7HoSc12GaSi15
_chemical_formula_sum   'Y7 Ho1 Sc12 Ga1 Si15'
_cell_volume   737.00931908
_cell_formula_units_Z   1
loop_
 _symmetry_equiv_pos_site_id
 _symmetry_equiv_pos_as_xyz
  1  'x, y, z'
loop_
 _atom_site_type_symbol
 _atom_site_label
 _atom_site_symmetry_multiplicity
 _atom_site_fract_x
 _atom_site_fract_y
 _atom_site_fract_z
 _atom_site_occupancy
  Y  Y0  1  0.011744  0.175340  0.097033  1
  Y  Y1  1  0.988145  0.824819  0.903467  1
  Y  Y2  1  0.487898  0.676199  0.903427  1
  Y  Y3  1  0.987595  0.826675  0.597564  1
  Y  Y4  1  0.511959  0.323986  0.096847  1
  Y  Y5  1  0.010869  0.173878  0.401616  1
  Y  Y6  1  0.512747  0.323561  0.401611  1
  Ho  Ho7  1  0.489816  0.678492  0.597813  1
  Sc  Sc8  1  0.161103  0.502149  0.751454  1
  Sc  Sc9  1  0.839198  0.498189  0.249866  1
  Sc  Sc10  1  0.339087  0.001959  0.249679  1
  Sc  Sc11  1  0.661206  0.997160  0.750077  1
  Sc  Sc12  1  0.332646  0.174036  0.626259  1
  Sc  Sc13  1  0.668271  0.823807  0.374269  1
  Sc  Sc14  1  0.169832  0.677529  0.373269  1
  Sc  Sc15  1  0.669586  0.823519  0.125420  1
  Sc  Sc16  1  0.828415  0.323275  0.625729  1
  Sc  Sc17  1  0.330291  0.175992  0.874797  1
  Sc  Sc18  1  0.830440  0.322978  0.874803  1
  Sc  Sc19  1  0.169112  0.676884  0.125528  1
  Ga  Ga20  1  0.160439  0.462676  0.539399  1
  Si  Si21  1  0.033751  0.118096  0.750715  1
  Si  Si22  1  0.966357  0.882937  0.249617  1
  Si  Si23  1  0.467500  0.616349  0.249912  1
  Si  Si24  1  0.532181  0.384724  0.749633  1
  Si  Si25  1  0.284940  0.873057  0.750151  1
  Si  Si26  1  0.714510  0.126689  0.249490  1
  Si  Si27  1  0.214355  0.373000  0.249413  1
  Si  Si28  1  0.785411  0.626743  0.750631  1
  Si  Si29  1  0.841617  0.536251  0.460416  1
  Si  Si30  1  0.341983  0.963693  0.460322  1
  Si  Si31  1  0.842414  0.535714  0.038760  1
  Si  Si32  1  0.657186  0.035592  0.539184  1
  Si  Si33  1  0.157528  0.463977  0.961598  1
  Si  Si34  1  0.657081  0.035560  0.960597  1
  Si  Si35  1  0.342789  0.964517  0.039634  1
