# generated using pymatgen
data_Er7Ti(ReB6)4
_symmetry_space_group_name_H-M   'P 1'
_cell_length_a   3.62450000
_cell_length_b   9.06317201
_cell_length_c   11.43554900
_cell_angle_alpha   90.00161275
_cell_angle_beta   90.00000000
_cell_angle_gamma   90.00000000
_symmetry_Int_Tables_number   1
_chemical_formula_structural   Er7Ti(ReB6)4
_chemical_formula_sum   'Er7 Ti1 Re4 B24'
_cell_volume   375.65168894
_cell_formula_units_Z   1
loop_
 _symmetry_equiv_pos_site_id
 _symmetry_equiv_pos_as_xyz
  1  'x, y, z'
loop_
 _atom_site_type_symbol
 _atom_site_label
 _atom_site_symmetry_multiplicity
 _atom_site_fract_x
 _atom_site_fract_y
 _atom_site_fract_z
 _atom_site_occupancy
  Er  Er0  1  0.000000  0.323091  0.413451  1
  Er  Er1  1  0.000000  0.677392  0.587220  1
  Er  Er2  1  0.000000  0.821418  0.085748  1
  Er  Er3  1  0.000000  0.178319  0.914154  1
  Er  Er4  1  0.000000  0.943724  0.370833  1
  Er  Er5  1  0.000000  0.057095  0.631369  1
  Er  Er6  1  0.000000  0.444909  0.124830  1
  Ti  Ti7  1  0.000000  0.557667  0.867506  1
  Re  Re8  1  0.000000  0.638238  0.318784  1
  Re  Re9  1  0.000000  0.366804  0.685657  1
  Re  Re10  1  0.000000  0.139306  0.177283  1
  Re  Re11  1  0.000000  0.852876  0.822169  1
  B  B12  1  0.500000  0.552919  0.433428  1
  B  B13  1  0.500000  0.448380  0.568066  1
  B  B14  1  0.500000  0.051886  0.065846  1
  B  B15  1  0.500000  0.943497  0.933849  1
  B  B16  1  0.500000  0.749360  0.418864  1
  B  B17  1  0.500000  0.252214  0.582993  1
  B  B18  1  0.500000  0.249994  0.079929  1
  B  B19  1  0.500000  0.743339  0.918642  1
  B  B20  1  0.500000  0.792634  0.264644  1
  B  B21  1  0.500000  0.209099  0.737386  1
  B  B22  1  0.500000  0.293163  0.234095  1
  B  B23  1  0.500000  0.703229  0.766169  1
  B  B24  1  0.500000  0.630473  0.183893  1
  B  B25  1  0.500000  0.374443  0.817955  1
  B  B26  1  0.500000  0.131716  0.314690  1
  B  B27  1  0.500000  0.866842  0.685630  1
  B  B28  1  0.500000  0.981937  0.211911  1
  B  B29  1  0.500000  0.016042  0.789248  1
  B  B30  1  0.500000  0.480879  0.287290  1
  B  B31  1  0.500000  0.521132  0.714883  1
  B  B32  1  0.500000  0.598432  0.021586  1
  B  B33  1  0.500000  0.406576  0.968182  1
  B  B34  1  0.500000  0.102452  0.473008  1
  B  B35  1  0.500000  0.898519  0.528810  1
