# generated using pymatgen
data_Tb3Dy3TcOs
_symmetry_space_group_name_H-M   'P 1'
_cell_length_a   6.30822606
_cell_length_b   7.45181200
_cell_length_c   9.12878109
_cell_angle_alpha   90.00000000
_cell_angle_beta   90.01569295
_cell_angle_gamma   90.00000000
_symmetry_Int_Tables_number   1
_chemical_formula_structural   Tb3Dy3TcOs
_chemical_formula_sum   'Tb6 Dy6 Tc2 Os2'
_cell_volume   429.12312024
_cell_formula_units_Z   2
loop_
 _symmetry_equiv_pos_site_id
 _symmetry_equiv_pos_as_xyz
  1  'x, y, z'
loop_
 _atom_site_type_symbol
 _atom_site_label
 _atom_site_symmetry_multiplicity
 _atom_site_fract_x
 _atom_site_fract_y
 _atom_site_fract_z
 _atom_site_occupancy
  Tb  Tb0  1  0.337703  0.675024  0.062774  1
  Tb  Tb1  1  0.162297  0.175024  0.437226  1
  Tb  Tb2  1  0.876406  0.540569  0.250012  1
  Tb  Tb3  1  0.623594  0.040569  0.249988  1
  Tb  Tb4  1  0.131179  0.458479  0.749993  1
  Tb  Tb5  1  0.368821  0.958479  0.750007  1
  Dy  Dy6  1  0.665259  0.324614  0.563254  1
  Dy  Dy7  1  0.834741  0.824614  0.936746  1
  Dy  Dy8  1  0.665308  0.324546  0.936750  1
  Dy  Dy9  1  0.834692  0.824546  0.563250  1
  Dy  Dy10  1  0.337748  0.674993  0.437272  1
  Dy  Dy11  1  0.162252  0.174993  0.062728  1
  Tc  Tc12  1  0.038103  0.884752  0.250020  1
  Tc  Tc13  1  0.461897  0.384752  0.249980  1
  Os  Os14  1  0.958906  0.117023  0.750080  1
  Os  Os15  1  0.541094  0.617023  0.749920  1
