# generated using pymatgen
data_Pr6Mn(CrC4)3
_symmetry_space_group_name_H-M   'P 1'
_cell_length_a   8.30413300
_cell_length_b   8.30413350
_cell_length_c   5.23489000
_cell_angle_alpha   90.00000000
_cell_angle_beta   90.00000000
_cell_angle_gamma   119.99999403
_symmetry_Int_Tables_number   1
_chemical_formula_structural   Pr6Mn(CrC4)3
_chemical_formula_sum   'Pr6 Mn1 Cr3 C12'
_cell_volume   312.62725465
_cell_formula_units_Z   1
loop_
 _symmetry_equiv_pos_site_id
 _symmetry_equiv_pos_as_xyz
  1  'x, y, z'
loop_
 _atom_site_type_symbol
 _atom_site_label
 _atom_site_symmetry_multiplicity
 _atom_site_fract_x
 _atom_site_fract_y
 _atom_site_fract_z
 _atom_site_occupancy
  Pr  Pr0  1  0.613224  0.687196  0.750000  1
  Pr  Pr1  1  0.926003  0.612108  0.250000  1
  Pr  Pr2  1  0.686104  0.073997  0.250000  1
  Pr  Pr3  1  0.312804  0.926028  0.750000  1
  Pr  Pr4  1  0.073972  0.386776  0.750000  1
  Pr  Pr5  1  0.387892  0.313896  0.250000  1
  Mn  Mn6  1  0.333333  0.666667  0.250000  1
  Cr  Cr7  1  0.000000  0.000000  0.504349  1
  Cr  Cr8  1  0.000000  0.000000  0.995651  1
  Cr  Cr9  1  0.666667  0.333333  0.750000  1
  C  C10  1  0.953998  0.773555  0.750000  1
  C  C11  1  0.185595  0.953649  0.250000  1
  C  C12  1  0.768055  0.814405  0.250000  1
  C  C13  1  0.226445  0.180444  0.750000  1
  C  C14  1  0.819556  0.046002  0.750000  1
  C  C15  1  0.046351  0.231945  0.250000  1
  C  C16  1  0.858079  0.581022  0.750000  1
  C  C17  1  0.279056  0.856329  0.250000  1
  C  C18  1  0.577272  0.720944  0.250000  1
  C  C19  1  0.418978  0.277057  0.750000  1
  C  C20  1  0.143671  0.422728  0.250000  1
  C  C21  1  0.722943  0.141921  0.750000  1
