# generated using pymatgen
data_Ho5Er3SnPd24
_symmetry_space_group_name_H-M   'P 1'
_cell_length_a   8.37548001
_cell_length_b   8.37554901
_cell_length_c   8.37549100
_cell_angle_alpha   89.99798874
_cell_angle_beta   90.00212072
_cell_angle_gamma   90.00530853
_symmetry_Int_Tables_number   1
_chemical_formula_structural   Ho5Er3SnPd24
_chemical_formula_sum   'Ho5 Er3 Sn1 Pd24'
_cell_volume   587.53435292
_cell_formula_units_Z   1
loop_
 _symmetry_equiv_pos_site_id
 _symmetry_equiv_pos_as_xyz
  1  'x, y, z'
loop_
 _atom_site_type_symbol
 _atom_site_label
 _atom_site_symmetry_multiplicity
 _atom_site_fract_x
 _atom_site_fract_y
 _atom_site_fract_z
 _atom_site_occupancy
  Ho  Ho0  1  0.252687  0.252679  0.252677  1
  Ho  Ho1  1  0.747332  0.747327  0.747338  1
  Ho  Ho2  1  0.747324  0.747318  0.252677  1
  Ho  Ho3  1  0.747328  0.252670  0.747322  1
  Ho  Ho4  1  0.252670  0.252672  0.747336  1
  Er  Er5  1  0.252659  0.747318  0.252673  1
  Er  Er6  1  0.252691  0.747319  0.747316  1
  Er  Er7  1  0.747320  0.252693  0.252696  1
  Sn  Sn8  1  0.999998  0.000002  0.999996  1
  Pd  Pd9  1  0.265172  0.500190  0.000007  1
  Pd  Pd10  1  0.734824  0.499908  0.000109  1
  Pd  Pd11  1  0.999903  0.265171  0.499904  1
  Pd  Pd12  1  0.500089  0.265171  0.000115  1
  Pd  Pd13  1  0.000218  0.734826  0.499999  1
  Pd  Pd14  1  0.499810  0.734825  0.000005  1
  Pd  Pd15  1  0.500000  0.999991  0.265175  1
  Pd  Pd16  1  0.265173  0.999782  0.499997  1
  Pd  Pd17  1  0.499904  0.999886  0.734827  1
  Pd  Pd18  1  0.734826  0.000099  0.499898  1
  Pd  Pd19  1  0.000007  0.499999  0.265175  1
  Pd  Pd20  1  0.000112  0.500096  0.734827  1
  Pd  Pd21  1  0.254988  0.500230  0.499991  1
  Pd  Pd22  1  0.745014  0.499893  0.499887  1
  Pd  Pd23  1  0.500104  0.254989  0.499881  1
  Pd  Pd24  1  0.499777  0.745013  0.499995  1
  Pd  Pd25  1  0.499998  0.500005  0.254985  1
  Pd  Pd26  1  0.499883  0.500114  0.745006  1
  Pd  Pd27  1  0.307810  0.999799  0.000001  1
  Pd  Pd28  1  0.692174  0.000095  0.000104  1
  Pd  Pd29  1  0.999907  0.307827  0.000103  1
  Pd  Pd30  1  0.000198  0.692198  0.000000  1
  Pd  Pd31  1  0.999998  0.000001  0.307805  1
  Pd  Pd32  1  0.000101  0.999892  0.692173  1
