# generated using pymatgen
data_Zn10Pt2Au
_symmetry_space_group_name_H-M   'P 1'
_cell_length_a   7.99638549
_cell_length_b   7.99638594
_cell_length_c   7.95066001
_cell_angle_alpha   70.75645731
_cell_angle_beta   70.75645690
_cell_angle_gamma   109.45447574
_symmetry_Int_Tables_number   1
_chemical_formula_structural   Zn10Pt2Au
_chemical_formula_sum   'Zn20 Pt4 Au2'
_cell_volume   393.61539603
_cell_formula_units_Z   2
loop_
 _symmetry_equiv_pos_site_id
 _symmetry_equiv_pos_as_xyz
  1  'x, y, z'
loop_
 _atom_site_type_symbol
 _atom_site_label
 _atom_site_symmetry_multiplicity
 _atom_site_fract_x
 _atom_site_fract_y
 _atom_site_fract_z
 _atom_site_occupancy
  Zn  Zn0  1  0.002267  0.002267  0.790644  1
  Zn  Zn1  1  0.775640  0.775640  0.224304  1
  Zn  Zn2  1  0.216466  0.000498  0.996929  1
  Zn  Zn3  1  0.000498  0.216466  0.996929  1
  Zn  Zn4  1  0.267570  0.267570  0.387111  1
  Zn  Zn5  1  0.003311  0.733597  0.650146  1
  Zn  Zn6  1  0.733597  0.003311  0.650146  1
  Zn  Zn7  1  0.652020  0.652020  0.629959  1
  Zn  Zn8  1  0.378723  0.643549  0.349774  1
  Zn  Zn9  1  0.643549  0.378723  0.349774  1
  Zn  Zn10  1  0.352099  0.731814  0.990039  1
  Zn  Zn11  1  0.612227  0.258725  0.735877  1
  Zn  Zn12  1  0.352657  0.006445  0.269813  1
  Zn  Zn13  1  0.731814  0.352099  0.990039  1
  Zn  Zn14  1  0.006445  0.352657  0.269813  1
  Zn  Zn15  1  0.258725  0.612227  0.735877  1
  Zn  Zn16  1  0.644604  0.644604  0.992341  1
  Zn  Zn17  1  0.005035  0.655958  0.347441  1
  Zn  Zn18  1  0.655958  0.005035  0.347441  1
  Zn  Zn19  1  0.357209  0.357209  0.006560  1
  Pt  Pt20  1  0.999048  0.999048  0.345671  1
  Pt  Pt21  1  0.357405  0.357405  0.658534  1
  Pt  Pt22  1  0.642297  0.985976  0.015402  1
  Pt  Pt23  1  0.985976  0.642297  0.015402  1
  Au  Au24  1  0.996100  0.368758  0.627017  1
  Au  Au25  1  0.368758  0.996100  0.627017  1
