# generated using pymatgen
data_CaDy11(Si3Ir)4
_symmetry_space_group_name_H-M   'P 1'
_cell_length_a   4.24552100
_cell_length_b   10.65421792
_cell_length_c   12.31377329
_cell_angle_alpha   90.08434829
_cell_angle_beta   90.00000000
_cell_angle_gamma   90.00000000
_symmetry_Int_Tables_number   1
_chemical_formula_structural   CaDy11(Si3Ir)4
_chemical_formula_sum   'Ca1 Dy11 Si12 Ir4'
_cell_volume   556.98468238
_cell_formula_units_Z   1
loop_
 _symmetry_equiv_pos_site_id
 _symmetry_equiv_pos_as_xyz
  1  'x, y, z'
loop_
 _atom_site_type_symbol
 _atom_site_label
 _atom_site_symmetry_multiplicity
 _atom_site_fract_x
 _atom_site_fract_y
 _atom_site_fract_z
 _atom_site_occupancy
  Ca  Ca0  1  0.750000  0.159965  0.698051  1
  Dy  Dy1  1  0.250000  0.880732  0.021241  1
  Dy  Dy2  1  0.250000  0.619056  0.520145  1
  Dy  Dy3  1  0.750000  0.118848  0.977027  1
  Dy  Dy4  1  0.750000  0.379008  0.480311  1
  Dy  Dy5  1  0.250000  0.918300  0.604438  1
  Dy  Dy6  1  0.250000  0.581480  0.103963  1
  Dy  Dy7  1  0.750000  0.081436  0.395546  1
  Dy  Dy8  1  0.750000  0.418515  0.895536  1
  Dy  Dy9  1  0.250000  0.659384  0.801215  1
  Dy  Dy10  1  0.250000  0.841596  0.301482  1
  Dy  Dy11  1  0.750000  0.339694  0.198682  1
  Si  Si12  1  0.250000  0.008543  0.821335  1
  Si  Si13  1  0.250000  0.489580  0.320427  1
  Si  Si14  1  0.750000  0.991312  0.178745  1
  Si  Si15  1  0.750000  0.510431  0.679407  1
  Si  Si16  1  0.250000  0.246942  0.841157  1
  Si  Si17  1  0.250000  0.253954  0.341030  1
  Si  Si18  1  0.750000  0.754348  0.159566  1
  Si  Si19  1  0.750000  0.747242  0.659175  1
  Si  Si20  1  0.250000  0.201061  0.541296  1
  Si  Si21  1  0.250000  0.298448  0.043407  1
  Si  Si22  1  0.750000  0.798080  0.457215  1
  Si  Si23  1  0.750000  0.701678  0.957053  1
  Ir  Ir24  1  0.250000  0.392398  0.681535  1
  Ir  Ir25  1  0.250000  0.110935  0.181307  1
  Ir  Ir26  1  0.750000  0.610787  0.318863  1
  Ir  Ir27  1  0.750000  0.886248  0.820846  1
