# generated using pymatgen
data_Sc10Cd3Re
_symmetry_space_group_name_H-M   'P 1'
_cell_length_a   8.89335900
_cell_length_b   8.89331627
_cell_length_c   9.38453300
_cell_angle_alpha   90.00000000
_cell_angle_beta   90.00000000
_cell_angle_gamma   120.00386306
_symmetry_Int_Tables_number   1
_chemical_formula_structural   Sc10Cd3Re
_chemical_formula_sum   'Sc20 Cd6 Re2'
_cell_volume   642.77052267
_cell_formula_units_Z   2
loop_
 _symmetry_equiv_pos_site_id
 _symmetry_equiv_pos_as_xyz
  1  'x, y, z'
loop_
 _atom_site_type_symbol
 _atom_site_label
 _atom_site_symmetry_multiplicity
 _atom_site_fract_x
 _atom_site_fract_y
 _atom_site_fract_z
 _atom_site_occupancy
  Sc  Sc0  1  0.000000  0.000000  0.500000  1
  Sc  Sc1  1  0.000000  0.000000  0.000000  1
  Sc  Sc2  1  0.210492  0.789502  0.445797  1
  Sc  Sc3  1  0.210490  0.420987  0.445796  1
  Sc  Sc4  1  0.579016  0.789508  0.445794  1
  Sc  Sc5  1  0.789508  0.210498  0.554203  1
  Sc  Sc6  1  0.789510  0.579013  0.554204  1
  Sc  Sc7  1  0.420984  0.210492  0.554206  1
  Sc  Sc8  1  0.789508  0.210498  0.945797  1
  Sc  Sc9  1  0.789510  0.579013  0.945796  1
  Sc  Sc10  1  0.420984  0.210492  0.945794  1
  Sc  Sc11  1  0.210492  0.789502  0.054203  1
  Sc  Sc12  1  0.210490  0.420987  0.054204  1
  Sc  Sc13  1  0.579016  0.789508  0.054206  1
  Sc  Sc14  1  0.536599  0.463399  0.250000  1
  Sc  Sc15  1  0.536576  0.073160  0.250000  1
  Sc  Sc16  1  0.926846  0.463426  0.250000  1
  Sc  Sc17  1  0.463401  0.536601  0.750000  1
  Sc  Sc18  1  0.463424  0.926840  0.750000  1
  Sc  Sc19  1  0.073154  0.536574  0.750000  1
  Cd  Cd20  1  0.885661  0.114331  0.250000  1
  Cd  Cd21  1  0.885642  0.771300  0.250000  1
  Cd  Cd22  1  0.228714  0.114359  0.250000  1
  Cd  Cd23  1  0.114339  0.885669  0.750000  1
  Cd  Cd24  1  0.114358  0.228700  0.750000  1
  Cd  Cd25  1  0.771286  0.885641  0.750000  1
  Re  Re26  1  0.333348  0.666652  0.250000  1
  Re  Re27  1  0.666652  0.333348  0.750000  1
