# generated using pymatgen
data_HoPaZnNi2
_symmetry_space_group_name_H-M   'P 1'
_cell_length_a   7.23553667
_cell_length_b   7.23553755
_cell_length_c   3.56003200
_cell_angle_alpha   90.00000000
_cell_angle_beta   90.00000000
_cell_angle_gamma   93.86493312
_symmetry_Int_Tables_number   1
_chemical_formula_structural   HoPaZnNi2
_chemical_formula_sum   'Ho2 Pa2 Zn2 Ni4'
_cell_volume   185.95446883
_cell_formula_units_Z   2
loop_
 _symmetry_equiv_pos_site_id
 _symmetry_equiv_pos_as_xyz
  1  'x, y, z'
loop_
 _atom_site_type_symbol
 _atom_site_label
 _atom_site_symmetry_multiplicity
 _atom_site_fract_x
 _atom_site_fract_y
 _atom_site_fract_z
 _atom_site_occupancy
  Ho  Ho0  1  0.176757  0.323243  0.500000  1
  Ho  Ho1  1  0.823243  0.676757  0.500000  1
  Pa  Pa2  1  0.676177  0.176177  0.500000  1
  Pa  Pa3  1  0.323823  0.823823  0.500000  1
  Zn  Zn4  1  0.500000  0.500000  0.000000  1
  Zn  Zn5  1  0.000000  0.000000  0.000000  1
  Ni  Ni6  1  0.866503  0.366503  0.000000  1
  Ni  Ni7  1  0.133497  0.633497  0.000000  1
  Ni  Ni8  1  0.381325  0.118675  0.000000  1
  Ni  Ni9  1  0.618675  0.881325  0.000000  1
