# generated using pymatgen
data_Ba6Ca(TcO6)2
_symmetry_space_group_name_H-M   'P 1'
_cell_length_a   9.20342031
_cell_length_b   9.20342058
_cell_length_c   7.36883700
_cell_angle_alpha   68.04712751
_cell_angle_beta   68.04713354
_cell_angle_gamma   36.84668008
_symmetry_Int_Tables_number   1
_chemical_formula_structural   Ba6Ca(TcO6)2
_chemical_formula_sum   'Ba6 Ca1 Tc2 O12'
_cell_volume   344.01209173
_cell_formula_units_Z   1
loop_
 _symmetry_equiv_pos_site_id
 _symmetry_equiv_pos_as_xyz
  1  'x, y, z'
loop_
 _atom_site_type_symbol
 _atom_site_label
 _atom_site_symmetry_multiplicity
 _atom_site_fract_x
 _atom_site_fract_y
 _atom_site_fract_z
 _atom_site_occupancy
  Ba  Ba0  1  0.210977  0.210977  0.704925  1
  Ba  Ba1  1  0.884667  0.884667  0.712253  1
  Ba  Ba2  1  0.548894  0.548894  0.709867  1
  Ba  Ba3  1  0.789023  0.789023  0.295075  1
  Ba  Ba4  1  0.451106  0.451106  0.290133  1
  Ba  Ba5  1  0.115333  0.115333  0.287747  1
  Ca  Ca6  1  0.000000  0.000000  0.000000  1
  Tc  Tc7  1  0.670629  0.670629  0.000010  1
  Tc  Tc8  1  0.329371  0.329371  0.999990  1
  O  O9  1  0.279610  0.279610  0.300845  1
  O  O10  1  0.939898  0.939898  0.341609  1
  O  O11  1  0.620920  0.620920  0.298834  1
  O  O12  1  0.720390  0.720390  0.699155  1
  O  O13  1  0.379080  0.379080  0.701166  1
  O  O14  1  0.060102  0.060102  0.658391  1
  O  O15  1  0.000000  0.500000  0.000000  1
  O  O16  1  0.637506  0.179063  0.002277  1
  O  O17  1  0.362494  0.820937  0.997723  1
  O  O18  1  0.500000  0.000000  0.000000  1
  O  O19  1  0.179063  0.637506  0.002277  1
  O  O20  1  0.820937  0.362494  0.997723  1
