# generated using pymatgen
data_Tb4Al18(NiRh)3
_symmetry_space_group_name_H-M   'P 1'
_cell_length_a   7.49074574
_cell_length_b   7.49074548
_cell_length_c   9.38153220
_cell_angle_alpha   89.95582611
_cell_angle_beta   89.95582413
_cell_angle_gamma   119.14763555
_symmetry_Int_Tables_number   1
_chemical_formula_structural   Tb4Al18(NiRh)3
_chemical_formula_sum   'Tb4 Al18 Ni3 Rh3'
_cell_volume   459.74862147
_cell_formula_units_Z   1
loop_
 _symmetry_equiv_pos_site_id
 _symmetry_equiv_pos_as_xyz
  1  'x, y, z'
loop_
 _atom_site_type_symbol
 _atom_site_label
 _atom_site_symmetry_multiplicity
 _atom_site_fract_x
 _atom_site_fract_y
 _atom_site_fract_z
 _atom_site_occupancy
  Tb  Tb0  1  0.994590  0.673113  0.249747  1
  Tb  Tb1  1  0.004024  0.325982  0.750408  1
  Tb  Tb2  1  0.674018  0.995976  0.249592  1
  Tb  Tb3  1  0.326887  0.005410  0.750253  1
  Al  Al4  1  0.131784  0.132015  0.249764  1
  Al  Al5  1  0.867985  0.868216  0.750236  1
  Al  Al6  1  0.998610  0.338206  0.073465  1
  Al  Al7  1  0.002434  0.663635  0.926233  1
  Al  Al8  1  0.003416  0.663110  0.573782  1
  Al  Al9  1  0.336890  0.996584  0.426218  1
  Al  Al10  1  0.003391  0.338333  0.426167  1
  Al  Al11  1  0.661667  0.996609  0.573833  1
  Al  Al12  1  0.661794  0.001390  0.926535  1
  Al  Al13  1  0.336365  0.997566  0.073767  1
  Al  Al14  1  0.333454  0.334324  0.548126  1
  Al  Al15  1  0.665676  0.666546  0.451874  1
  Al  Al16  1  0.664495  0.665473  0.048044  1
  Al  Al17  1  0.334527  0.335505  0.951956  1
  Al  Al18  1  0.341203  0.555683  0.249570  1
  Al  Al19  1  0.658312  0.447836  0.752537  1
  Al  Al20  1  0.552164  0.341688  0.247463  1
  Al  Al21  1  0.444317  0.658797  0.750430  1
  Ni  Ni22  1  0.671118  0.328882  0.000000  1
  Ni  Ni23  1  0.328476  0.671524  0.000000  1
  Ni  Ni24  1  0.329659  0.670341  0.500000  1
  Rh  Rh25  1  0.672270  0.327730  0.500000  1
  Rh  Rh26  1  0.999577  0.000423  0.000000  1
  Rh  Rh27  1  0.000898  0.999102  0.500000  1
