# generated using pymatgen
data_LuCl30
_symmetry_space_group_name_H-M   'P 1'
_cell_length_a   13.57243565
_cell_length_b   13.57243493
_cell_length_c   16.13083354
_cell_angle_alpha   82.02073752
_cell_angle_beta   82.02073683
_cell_angle_gamma   118.87481971
_symmetry_Int_Tables_number   1
_chemical_formula_structural   LuCl30
_chemical_formula_sum   'Lu1 Cl30'
_cell_volume   2503.21227347
_cell_formula_units_Z   1
loop_
 _symmetry_equiv_pos_site_id
 _symmetry_equiv_pos_as_xyz
  1  'x, y, z'
loop_
 _atom_site_type_symbol
 _atom_site_label
 _atom_site_symmetry_multiplicity
 _atom_site_fract_x
 _atom_site_fract_y
 _atom_site_fract_z
 _atom_site_occupancy
  Lu  Lu0  1  0.000000  0.000000  0.000000  1
  Cl  Cl1  1  0.939945  0.939945  0.167615  1
  Cl  Cl2  1  0.060055  0.060055  0.832385  1
  Cl  Cl3  1  0.100644  0.215527  0.005748  1
  Cl  Cl4  1  0.899356  0.784473  0.994252  1
  Cl  Cl5  1  0.215527  0.100644  0.005748  1
  Cl  Cl6  1  0.784473  0.899356  0.994252  1
  Cl  Cl7  1  0.201205  0.742391  0.064336  1
  Cl  Cl8  1  0.798795  0.257609  0.935664  1
  Cl  Cl9  1  0.695629  0.082841  0.259207  1
  Cl  Cl10  1  0.257609  0.798795  0.935664  1
  Cl  Cl11  1  0.304371  0.917159  0.740793  1
  Cl  Cl12  1  0.742391  0.201205  0.064336  1
  Cl  Cl13  1  0.981146  0.200487  0.775059  1
  Cl  Cl14  1  0.917159  0.304371  0.740793  1
  Cl  Cl15  1  0.018854  0.799513  0.224941  1
  Cl  Cl16  1  0.082841  0.695629  0.259207  1
  Cl  Cl17  1  0.799513  0.018854  0.224941  1
  Cl  Cl18  1  0.200487  0.981146  0.775059  1
  Cl  Cl19  1  0.464673  0.549793  0.260956  1
  Cl  Cl20  1  0.535327  0.450207  0.739044  1
  Cl  Cl21  1  0.507988  0.204827  0.451373  1
  Cl  Cl22  1  0.450207  0.535327  0.739044  1
  Cl  Cl23  1  0.492012  0.795173  0.548627  1
  Cl  Cl24  1  0.549793  0.464673  0.260956  1
  Cl  Cl25  1  0.240353  0.427774  0.545334  1
  Cl  Cl26  1  0.795173  0.492012  0.548627  1
  Cl  Cl27  1  0.759647  0.572226  0.454666  1
  Cl  Cl28  1  0.204827  0.507988  0.451373  1
  Cl  Cl29  1  0.572226  0.759647  0.454666  1
  Cl  Cl30  1  0.427774  0.240353  0.545334  1
