# generated using pymatgen
data_DyEr19(Bi2P)4
_symmetry_space_group_name_H-M   'P 1'
_cell_length_a   7.94659747
_cell_length_b   8.93190300
_cell_length_c   12.05516729
_cell_angle_alpha   90.00000000
_cell_angle_beta   90.02225840
_cell_angle_gamma   90.00000000
_symmetry_Int_Tables_number   1
_chemical_formula_structural   DyEr19(Bi2P)4
_chemical_formula_sum   'Dy1 Er19 Bi8 P4'
_cell_volume   855.65446561
_cell_formula_units_Z   1
loop_
 _symmetry_equiv_pos_site_id
 _symmetry_equiv_pos_as_xyz
  1  'x, y, z'
loop_
 _atom_site_type_symbol
 _atom_site_label
 _atom_site_symmetry_multiplicity
 _atom_site_fract_x
 _atom_site_fract_y
 _atom_site_fract_z
 _atom_site_occupancy
  Dy  Dy0  1  0.651678  0.750000  0.707422  1
  Er  Er1  1  0.348562  0.250000  0.292997  1
  Er  Er2  1  0.151323  0.250000  0.793380  1
  Er  Er3  1  0.848666  0.750000  0.206789  1
  Er  Er4  1  0.127688  0.750000  0.802528  1
  Er  Er5  1  0.873099  0.250000  0.197524  1
  Er  Er6  1  0.626874  0.250000  0.697405  1
  Er  Er7  1  0.372795  0.750000  0.302059  1
  Er  Er8  1  0.540051  0.750000  0.998198  1
  Er  Er9  1  0.458762  0.250000  0.002527  1
  Er  Er10  1  0.041165  0.250000  0.501688  1
  Er  Er11  1  0.959463  0.750000  0.497989  1
  Er  Er12  1  0.817336  0.449837  0.935699  1
  Er  Er13  1  0.182218  0.550094  0.064474  1
  Er  Er14  1  0.317974  0.550110  0.564407  1
  Er  Er15  1  0.182218  0.949906  0.064474  1
  Er  Er16  1  0.682452  0.450140  0.435564  1
  Er  Er17  1  0.817336  0.050163  0.935699  1
  Er  Er18  1  0.682452  0.049860  0.435564  1
  Er  Er19  1  0.317974  0.949890  0.564407  1
  Bi  Bi20  1  0.926311  0.008786  0.673861  1
  Bi  Bi21  1  0.074670  0.991577  0.325936  1
  Bi  Bi22  1  0.424754  0.992403  0.826545  1
  Bi  Bi23  1  0.074670  0.508423  0.325936  1
  Bi  Bi24  1  0.574640  0.008364  0.174063  1
  Bi  Bi25  1  0.926311  0.491214  0.673861  1
  Bi  Bi26  1  0.574640  0.491636  0.174063  1
  Bi  Bi27  1  0.424754  0.507597  0.826545  1
  P  P28  1  0.924814  0.750000  0.988218  1
  P  P29  1  0.074622  0.250000  0.011478  1
  P  P30  1  0.425307  0.250000  0.511207  1
  P  P31  1  0.574423  0.750000  0.487494  1
