# generated using pymatgen
data_Zr3Ga3OsPt2
_symmetry_space_group_name_H-M   'P 1'
_cell_length_a   7.36731400
_cell_length_b   7.36731530
_cell_length_c   6.79731100
_cell_angle_alpha   90.00000000
_cell_angle_beta   90.00000000
_cell_angle_gamma   119.99998761
_symmetry_Int_Tables_number   1
_chemical_formula_structural   Zr3Ga3OsPt2
_chemical_formula_sum   'Zr6 Ga6 Os2 Pt4'
_cell_volume   319.51133032
_cell_formula_units_Z   2
loop_
 _symmetry_equiv_pos_site_id
 _symmetry_equiv_pos_as_xyz
  1  'x, y, z'
loop_
 _atom_site_type_symbol
 _atom_site_label
 _atom_site_symmetry_multiplicity
 _atom_site_fract_x
 _atom_site_fract_y
 _atom_site_fract_z
 _atom_site_occupancy
  Zr  Zr0  1  0.398803  0.391155  0.750000  1
  Zr  Zr1  1  0.992352  0.601197  0.750000  1
  Zr  Zr2  1  0.608845  0.007648  0.750000  1
  Zr  Zr3  1  0.613574  0.012533  0.250000  1
  Zr  Zr4  1  0.987467  0.601041  0.250000  1
  Zr  Zr5  1  0.398959  0.386426  0.250000  1
  Ga  Ga6  1  0.272313  0.999404  0.999944  1
  Ga  Ga7  1  0.727090  0.727687  0.999944  1
  Ga  Ga8  1  0.000596  0.272910  0.999944  1
  Ga  Ga9  1  0.727090  0.727687  0.500056  1
  Ga  Ga10  1  0.272313  0.999404  0.500056  1
  Ga  Ga11  1  0.000596  0.272910  0.500056  1
  Os  Os12  1  0.666667  0.333333  0.998051  1
  Os  Os13  1  0.666667  0.333333  0.501949  1
  Pt  Pt14  1  0.000000  0.000000  0.750000  1
  Pt  Pt15  1  0.333333  0.666667  0.494478  1
  Pt  Pt16  1  0.333333  0.666667  0.005522  1
  Pt  Pt17  1  0.000000  0.000000  0.250000  1
