# generated using pymatgen
data_Er3Tm2Ga6P6Ir19
_symmetry_space_group_name_H-M   'P 1'
_cell_length_a   12.95569601
_cell_length_b   12.95425220
_cell_length_c   3.97281600
_cell_angle_alpha   90.00000000
_cell_angle_beta   90.00000000
_cell_angle_gamma   120.00918104
_symmetry_Int_Tables_number   1
_chemical_formula_structural   Er3Tm2Ga6P6Ir19
_chemical_formula_sum   'Er3 Tm2 Ga6 P6 Ir19'
_cell_volume   577.38034349
_cell_formula_units_Z   1
loop_
 _symmetry_equiv_pos_site_id
 _symmetry_equiv_pos_as_xyz
  1  'x, y, z'
loop_
 _atom_site_type_symbol
 _atom_site_label
 _atom_site_symmetry_multiplicity
 _atom_site_fract_x
 _atom_site_fract_y
 _atom_site_fract_z
 _atom_site_occupancy
  Er  Er0  1  0.666657  0.333399  0.000000  1
  Er  Er1  1  0.333291  0.666546  0.000000  1
  Er  Er2  1  0.995413  0.183456  0.500000  1
  Tm  Tm3  1  0.816653  0.811929  0.500000  1
  Tm  Tm4  1  0.188063  0.004712  0.500000  1
  Ga  Ga5  1  0.676983  0.158743  0.500000  1
  Ga  Ga6  1  0.841262  0.518279  0.500000  1
  Ga  Ga7  1  0.481784  0.323001  0.500000  1
  Ga  Ga8  1  0.635868  0.637616  0.000000  1
  Ga  Ga9  1  0.362390  0.998240  0.000000  1
  Ga  Ga10  1  0.001738  0.364315  0.000000  1
  P  P11  1  0.180214  0.697284  0.500000  1
  P  P12  1  0.517038  0.819774  0.500000  1
  P  P13  1  0.302722  0.482939  0.500000  1
  P  P14  1  0.175200  0.180896  0.000000  1
  P  P15  1  0.818992  0.994055  0.000000  1
  P  P16  1  0.005858  0.824894  0.000000  1
  Ir  Ir17  1  0.809209  0.169121  0.000000  1
  Ir  Ir18  1  0.830901  0.640531  0.000000  1
  Ir  Ir19  1  0.359492  0.190354  0.000000  1
  Ir  Ir20  1  0.182423  0.794062  0.000000  1
  Ir  Ir21  1  0.611654  0.817571  0.000000  1
  Ir  Ir22  1  0.206076  0.388437  0.000000  1
  Ir  Ir23  1  0.446488  0.440599  0.000000  1
  Ir  Ir24  1  0.559382  0.005885  0.000000  1
  Ir  Ir25  1  0.994100  0.553543  0.000000  1
  Ir  Ir26  1  0.267843  0.280471  0.500000  1
  Ir  Ir27  1  0.719507  0.987066  0.500000  1
  Ir  Ir28  1  0.012846  0.732506  0.500000  1
  Ir  Ir29  1  0.872843  0.348676  0.500000  1
  Ir  Ir30  1  0.651409  0.524321  0.500000  1
  Ir  Ir31  1  0.475712  0.127089  0.500000  1
  Ir  Ir32  1  0.371482  0.868798  0.500000  1
  Ir  Ir33  1  0.497321  0.628524  0.500000  1
  Ir  Ir34  1  0.131202  0.502704  0.500000  1
  Ir  Ir35  1  0.999982  0.999666  0.000000  1
