# generated using pymatgen
data_Tb5BeP11Ir19
_symmetry_space_group_name_H-M   'P 1'
_cell_length_a   12.71629944
_cell_length_b   12.67952467
_cell_length_c   3.97680300
_cell_angle_alpha   90.00000000
_cell_angle_beta   90.00000000
_cell_angle_gamma   120.16386213
_symmetry_Int_Tables_number   1
_chemical_formula_structural   Tb5BeP11Ir19
_chemical_formula_sum   'Tb5 Be1 P11 Ir19'
_cell_volume   554.38179177
_cell_formula_units_Z   1
loop_
 _symmetry_equiv_pos_site_id
 _symmetry_equiv_pos_as_xyz
  1  'x, y, z'
loop_
 _atom_site_type_symbol
 _atom_site_label
 _atom_site_symmetry_multiplicity
 _atom_site_fract_x
 _atom_site_fract_y
 _atom_site_fract_z
 _atom_site_occupancy
  Tb  Tb0  1  0.344451  0.667158  0.500000  1
  Tb  Tb1  1  0.666909  0.333708  0.500000  1
  Tb  Tb2  1  0.998874  0.816348  0.000000  1
  Tb  Tb3  1  0.183093  0.184040  0.000000  1
  Tb  Tb4  1  0.810412  0.994598  0.000000  1
  Be  Be5  1  0.520515  0.685120  0.000000  1
  P  P6  1  0.001492  0.643440  0.500000  1
  P  P7  1  0.360457  0.364430  0.500000  1
  P  P8  1  0.638343  0.994548  0.500000  1
  P  P9  1  0.315629  0.828229  0.000000  1
  P  P10  1  0.173712  0.484053  0.000000  1
  P  P11  1  0.482524  0.174723  0.000000  1
  P  P12  1  0.690051  0.517547  0.000000  1
  P  P13  1  0.828019  0.310737  0.000000  1
  P  P14  1  0.996289  0.176448  0.500000  1
  P  P15  1  0.818550  0.818041  0.500000  1
  P  P16  1  0.178768  0.999482  0.500000  1
  Ir  Ir17  1  0.510799  0.870137  0.000000  1
  Ir  Ir18  1  0.133090  0.639075  0.000000  1
  Ir  Ir19  1  0.355632  0.483933  0.000000  1
  Ir  Ir20  1  0.492577  0.365090  0.000000  1
  Ir  Ir21  1  0.869959  0.507276  0.000000  1
  Ir  Ir22  1  0.637386  0.133914  0.000000  1
  Ir  Ir23  1  0.001090  0.462843  0.500000  1
  Ir  Ir24  1  0.535771  0.552989  0.500000  1
  Ir  Ir25  1  0.461206  0.000929  0.500000  1
  Ir  Ir26  1  0.998731  0.284640  0.000000  1
  Ir  Ir27  1  0.713260  0.711745  0.000000  1
  Ir  Ir28  1  0.286291  0.999916  0.000000  1
  Ir  Ir29  1  0.625570  0.804558  0.500000  1
  Ir  Ir30  1  0.197349  0.819220  0.500000  1
  Ir  Ir31  1  0.176326  0.374778  0.500000  1
  Ir  Ir32  1  0.375534  0.182341  0.500000  1
  Ir  Ir33  1  0.805374  0.621797  0.500000  1
  Ir  Ir34  1  0.816276  0.192855  0.500000  1
  Ir  Ir35  1  0.999693  0.999313  0.500000  1
