# generated using pymatgen
data_Er3InIr8
_symmetry_space_group_name_H-M   'P 1'
_cell_length_a   5.33318200
_cell_length_b   5.33318192
_cell_length_c   8.64302600
_cell_angle_alpha   90.00000000
_cell_angle_beta   90.00000000
_cell_angle_gamma   120.00000051
_symmetry_Int_Tables_number   1
_chemical_formula_structural   Er3InIr8
_chemical_formula_sum   'Er3 In1 Ir8'
_cell_volume   212.89685775
_cell_formula_units_Z   1
loop_
 _symmetry_equiv_pos_site_id
 _symmetry_equiv_pos_as_xyz
  1  'x, y, z'
loop_
 _atom_site_type_symbol
 _atom_site_label
 _atom_site_symmetry_multiplicity
 _atom_site_fract_x
 _atom_site_fract_y
 _atom_site_fract_z
 _atom_site_occupancy
  Er  Er0  1  0.333333  0.666667  0.080273  1
  Er  Er1  1  0.666667  0.333333  0.559154  1
  Er  Er2  1  0.666667  0.333333  0.930299  1
  In  In3  1  0.333333  0.666667  0.440169  1
  Ir  Ir4  1  0.000000  0.000000  0.996745  1
  Ir  Ir5  1  0.000000  0.000000  0.498349  1
  Ir  Ir6  1  0.830184  0.660368  0.248677  1
  Ir  Ir7  1  0.170726  0.829274  0.749660  1
  Ir  Ir8  1  0.658549  0.829274  0.749660  1
  Ir  Ir9  1  0.339632  0.169816  0.248677  1
  Ir  Ir10  1  0.830184  0.169816  0.248677  1
  Ir  Ir11  1  0.170726  0.341451  0.749660  1
