# generated using pymatgen
data_Na4MgP12Ir19
_symmetry_space_group_name_H-M   'P 1'
_cell_length_a   12.64686359
_cell_length_b   12.64686328
_cell_length_c   3.94932800
_cell_angle_alpha   90.00000000
_cell_angle_beta   90.00000000
_cell_angle_gamma   120.38159412
_symmetry_Int_Tables_number   1
_chemical_formula_structural   Na4MgP12Ir19
_chemical_formula_sum   'Na4 Mg1 P12 Ir19'
_cell_volume   544.92492248
_cell_formula_units_Z   1
loop_
 _symmetry_equiv_pos_site_id
 _symmetry_equiv_pos_as_xyz
  1  'x, y, z'
loop_
 _atom_site_type_symbol
 _atom_site_label
 _atom_site_symmetry_multiplicity
 _atom_site_fract_x
 _atom_site_fract_y
 _atom_site_fract_z
 _atom_site_occupancy
  Na  Na0  1  0.333496  0.666274  0.000000  1
  Na  Na1  1  0.666274  0.333496  0.000000  1
  Na  Na2  1  0.821079  0.999653  0.500000  1
  Na  Na3  1  0.999653  0.821079  0.500000  1
  Mg  Mg4  1  0.168040  0.168040  0.500000  1
  P  P5  1  0.178792  0.996075  0.000000  1
  P  P6  1  0.996075  0.178792  0.000000  1
  P  P7  1  0.821723  0.821723  0.000000  1
  P  P8  1  0.175452  0.487441  0.500000  1
  P  P9  1  0.513843  0.689121  0.500000  1
  P  P10  1  0.313444  0.826069  0.500000  1
  P  P11  1  0.689121  0.513843  0.500000  1
  P  P12  1  0.826069  0.313444  0.500000  1
  P  P13  1  0.487441  0.175452  0.500000  1
  P  P14  1  0.640060  0.999991  0.000000  1
  P  P15  1  0.999991  0.640060  0.000000  1
  P  P16  1  0.358742  0.358742  0.000000  1
  Ir  Ir17  1  0.459319  0.001924  0.000000  1
  Ir  Ir18  1  0.001924  0.459319  0.000000  1
  Ir  Ir19  1  0.540787  0.540787  0.000000  1
  Ir  Ir20  1  0.359588  0.489595  0.500000  1
  Ir  Ir21  1  0.511950  0.872108  0.500000  1
  Ir  Ir22  1  0.131747  0.640433  0.500000  1
  Ir  Ir23  1  0.872108  0.511950  0.500000  1
  Ir  Ir24  1  0.640433  0.131747  0.500000  1
  Ir  Ir25  1  0.489595  0.359588  0.500000  1
  Ir  Ir26  1  0.181204  0.371219  0.000000  1
  Ir  Ir27  1  0.622617  0.803940  0.000000  1
  Ir  Ir28  1  0.197018  0.817808  0.000000  1
  Ir  Ir29  1  0.803940  0.622617  0.000000  1
  Ir  Ir30  1  0.817808  0.197018  0.000000  1
  Ir  Ir31  1  0.371219  0.181204  0.000000  1
  Ir  Ir32  1  0.292869  0.000943  0.500000  1
  Ir  Ir33  1  0.000943  0.292869  0.500000  1
  Ir  Ir34  1  0.709050  0.709050  0.500000  1
  Ir  Ir35  1  0.006589  0.006589  0.000000  1
