# generated using pymatgen
data_Sc2SiB2Ir4Rh
_symmetry_space_group_name_H-M   'P 1'
_cell_length_a   9.23190206
_cell_length_b   9.23107706
_cell_length_c   3.13465100
_cell_angle_alpha   90.00000000
_cell_angle_beta   90.00000000
_cell_angle_gamma   89.98721449
_symmetry_Int_Tables_number   1
_chemical_formula_structural   Sc2SiB2Ir4Rh
_chemical_formula_sum   'Sc4 Si2 B4 Ir8 Rh2'
_cell_volume   267.13620317
_cell_formula_units_Z   2
loop_
 _symmetry_equiv_pos_site_id
 _symmetry_equiv_pos_as_xyz
  1  'x, y, z'
loop_
 _atom_site_type_symbol
 _atom_site_label
 _atom_site_symmetry_multiplicity
 _atom_site_fract_x
 _atom_site_fract_y
 _atom_site_fract_z
 _atom_site_occupancy
  Sc  Sc0  1  0.675135  0.175220  0.000000  1
  Sc  Sc1  1  0.175231  0.324770  0.000000  1
  Sc  Sc2  1  0.824260  0.675447  0.000000  1
  Sc  Sc3  1  0.324158  0.824528  0.000000  1
  Si  Si4  1  0.999622  0.999039  0.000000  1
  Si  Si5  1  0.500240  0.499815  0.000000  1
  B  B6  1  0.376460  0.123761  0.000000  1
  B  B7  1  0.876358  0.376668  0.000000  1
  B  B8  1  0.124378  0.622395  0.000000  1
  B  B9  1  0.622120  0.875812  0.000000  1
  Ir  Ir10  1  0.500345  0.999629  0.500000  1
  Ir  Ir11  1  0.211928  0.070534  0.500000  1
  Ir  Ir12  1  0.929825  0.212198  0.500000  1
  Ir  Ir13  1  0.429827  0.287876  0.500000  1
  Ir  Ir14  1  0.712364  0.429735  0.500000  1
  Ir  Ir15  1  0.000227  0.501123  0.500000  1
  Ir  Ir16  1  0.287590  0.570636  0.500000  1
  Ir  Ir17  1  0.570721  0.712618  0.500000  1
  Rh  Rh18  1  0.070895  0.788579  0.500000  1
  Rh  Rh19  1  0.788310  0.929610  0.500000  1
