# generated using pymatgen
data_YbB3W
_symmetry_space_group_name_H-M   'P 1'
_cell_length_a   6.92428895
_cell_length_b   3.07729900
_cell_length_c   5.47754771
_cell_angle_alpha   90.00000000
_cell_angle_beta   102.57781339
_cell_angle_gamma   90.00000000
_symmetry_Int_Tables_number   1
_chemical_formula_structural   YbB3W
_chemical_formula_sum   'Yb2 B6 W2'
_cell_volume   113.91512254
_cell_formula_units_Z   2
loop_
 _symmetry_equiv_pos_site_id
 _symmetry_equiv_pos_as_xyz
  1  'x, y, z'
loop_
 _atom_site_type_symbol
 _atom_site_label
 _atom_site_symmetry_multiplicity
 _atom_site_fract_x
 _atom_site_fract_y
 _atom_site_fract_z
 _atom_site_occupancy
  Yb  Yb0  1  0.706581  0.750001  0.169240  1
  Yb  Yb1  1  0.293430  0.250001  0.830746  1
  B  B2  1  0.989741  0.250001  0.083656  1
  B  B3  1  0.989867  0.250001  0.410684  1
  B  B4  1  0.467617  0.250001  0.430709  1
  B  B5  1  0.532448  0.750001  0.569323  1
  B  B6  1  0.010099  0.750001  0.589354  1
  B  B7  1  0.010232  0.750001  0.916286  1
  W  W8  1  0.217557  0.750001  0.313251  1
  W  W9  1  0.782429  0.250001  0.686749  1
