# generated using pymatgen
data_Sm3Th(HgPd2)2
_symmetry_space_group_name_H-M   'P 1'
_cell_length_a   7.84438074
_cell_length_b   7.84438047
_cell_length_c   3.81810700
_cell_angle_alpha   90.00000000
_cell_angle_beta   90.00000000
_cell_angle_gamma   90.93987959
_symmetry_Int_Tables_number   1
_chemical_formula_structural   Sm3Th(HgPd2)2
_chemical_formula_sum   'Sm3 Th1 Hg2 Pd4'
_cell_volume   234.91295850
_cell_formula_units_Z   1
loop_
 _symmetry_equiv_pos_site_id
 _symmetry_equiv_pos_as_xyz
  1  'x, y, z'
loop_
 _atom_site_type_symbol
 _atom_site_label
 _atom_site_symmetry_multiplicity
 _atom_site_fract_x
 _atom_site_fract_y
 _atom_site_fract_z
 _atom_site_occupancy
  Sm  Sm0  1  0.824983  0.672886  0.500000  1
  Sm  Sm1  1  0.172886  0.324983  0.500000  1
  Sm  Sm2  1  0.676254  0.176254  0.500000  1
  Th  Th3  1  0.327105  0.827105  0.500000  1
  Hg  Hg4  1  0.994174  0.002241  0.000000  1
  Hg  Hg5  1  0.502241  0.494174  0.000000  1
  Pd  Pd6  1  0.370753  0.121581  0.000000  1
  Pd  Pd7  1  0.877720  0.377720  0.000000  1
  Pd  Pd8  1  0.132301  0.632301  0.000000  1
  Pd  Pd9  1  0.621581  0.870753  0.000000  1
