# generated using pymatgen
data_Eu6ErTmSb6
_symmetry_space_group_name_H-M   'P 1'
_cell_length_a   8.24716449
_cell_length_b   8.24082451
_cell_length_c   8.31385400
_cell_angle_alpha   70.62661959
_cell_angle_beta   70.58117624
_cell_angle_gamma   108.96911845
_symmetry_Int_Tables_number   1
_chemical_formula_structural   Eu6ErTmSb6
_chemical_formula_sum   'Eu6 Er1 Tm1 Sb6'
_cell_volume   438.42720363
_cell_formula_units_Z   1
loop_
 _symmetry_equiv_pos_site_id
 _symmetry_equiv_pos_as_xyz
  1  'x, y, z'
loop_
 _atom_site_type_symbol
 _atom_site_label
 _atom_site_symmetry_multiplicity
 _atom_site_fract_x
 _atom_site_fract_y
 _atom_site_fract_z
 _atom_site_occupancy
  Eu  Eu0  1  0.000935  0.361639  0.494465  1
  Eu  Eu1  1  0.495593  0.496150  0.147261  1
  Eu  Eu2  1  0.642732  0.146025  0.359212  1
  Eu  Eu3  1  0.361641  0.001033  0.994366  1
  Eu  Eu4  1  0.495542  0.495135  0.647370  1
  Eu  Eu5  1  0.146014  0.642502  0.859620  1
  Er  Er6  1  0.857947  0.002431  0.997254  1
  Tm  Tm7  1  0.002361  0.857855  0.497231  1
  Sb  Sb8  1  0.643216  0.875288  0.747757  1
  Sb  Sb9  1  0.875164  0.642972  0.248195  1
  Sb  Sb10  1  0.230112  0.112696  0.632903  1
  Sb  Sb11  1  0.758746  0.377510  0.870535  1
  Sb  Sb12  1  0.377131  0.758655  0.370643  1
  Sb  Sb13  1  0.112866  0.230107  0.133183  1
