# generated using pymatgen
data_Li4Al8SiRh3
_symmetry_space_group_name_H-M   'P 1'
_cell_length_a   6.07379700
_cell_length_b   4.29783400
_cell_length_c   8.56964300
_cell_angle_alpha   90.00000000
_cell_angle_beta   90.00003892
_cell_angle_gamma   90.00000000
_symmetry_Int_Tables_number   1
_chemical_formula_structural   Li4Al8SiRh3
_chemical_formula_sum   'Li4 Al8 Si1 Rh3'
_cell_volume   223.70342847
_cell_formula_units_Z   1
loop_
 _symmetry_equiv_pos_site_id
 _symmetry_equiv_pos_as_xyz
  1  'x, y, z'
loop_
 _atom_site_type_symbol
 _atom_site_label
 _atom_site_symmetry_multiplicity
 _atom_site_fract_x
 _atom_site_fract_y
 _atom_site_fract_z
 _atom_site_occupancy
  Li  Li0  1  0.250008  0.250001  0.124979  1
  Li  Li1  1  0.750005  0.750001  0.378114  1
  Li  Li2  1  0.249995  0.250001  0.624972  1
  Li  Li3  1  0.749995  0.750001  0.871930  1
  Al  Al4  1  0.010012  0.750001  0.125012  1
  Al  Al5  1  0.490006  0.750001  0.125016  1
  Al  Al6  1  0.007574  0.250001  0.383763  1
  Al  Al7  1  0.492412  0.250001  0.383767  1
  Al  Al8  1  0.495836  0.750001  0.625009  1
  Al  Al9  1  0.004178  0.750001  0.625015  1
  Al  Al10  1  0.492398  0.250001  0.866201  1
  Al  Al11  1  0.007580  0.250001  0.866210  1
  Si  Si12  1  0.750000  0.250001  0.124984  1
  Rh  Rh13  1  0.250002  0.750001  0.366952  1
  Rh  Rh14  1  0.749994  0.250001  0.624994  1
  Rh  Rh15  1  0.250004  0.750001  0.883080  1
