# generated using pymatgen
data_Y2Hf2CN3
_symmetry_space_group_name_H-M   'P 1'
_cell_length_a   11.19667618
_cell_length_b   11.19667636
_cell_length_c   11.19667632
_cell_angle_alpha   17.17958176
_cell_angle_beta   17.17957773
_cell_angle_gamma   17.17957861
_symmetry_Int_Tables_number   1
_chemical_formula_structural   Y2Hf2CN3
_chemical_formula_sum   'Y2 Hf2 C1 N3'
_cell_volume   106.84758912
_cell_formula_units_Z   1
loop_
 _symmetry_equiv_pos_site_id
 _symmetry_equiv_pos_as_xyz
  1  'x, y, z'
loop_
 _atom_site_type_symbol
 _atom_site_label
 _atom_site_symmetry_multiplicity
 _atom_site_fract_x
 _atom_site_fract_y
 _atom_site_fract_z
 _atom_site_occupancy
  Y  Y0  1  0.876489  0.876489  0.876489  1
  Y  Y1  1  0.123511  0.123511  0.123511  1
  Hf  Hf2  1  0.372765  0.372765  0.372765  1
  Hf  Hf3  1  0.627235  0.627235  0.627235  1
  C  C4  1  0.000000  0.000000  0.000000  1
  N  N5  1  0.255187  0.255187  0.255187  1
  N  N6  1  0.500000  0.500000  0.500000  1
  N  N7  1  0.744813  0.744813  0.744813  1
