# generated using pymatgen
data_Tb8Tc(B8Os)3
_symmetry_space_group_name_H-M   'P 1'
_cell_length_a   3.68321300
_cell_length_b   9.20580809
_cell_length_c   11.58818337
_cell_angle_alpha   89.94415652
_cell_angle_beta   90.00000000
_cell_angle_gamma   90.00000000
_symmetry_Int_Tables_number   1
_chemical_formula_structural   Tb8Tc(B8Os)3
_chemical_formula_sum   'Tb8 Tc1 B24 Os3'
_cell_volume   392.91979138
_cell_formula_units_Z   1
loop_
 _symmetry_equiv_pos_site_id
 _symmetry_equiv_pos_as_xyz
  1  'x, y, z'
loop_
 _atom_site_type_symbol
 _atom_site_label
 _atom_site_symmetry_multiplicity
 _atom_site_fract_x
 _atom_site_fract_y
 _atom_site_fract_z
 _atom_site_occupancy
  Tb  Tb0  1  0.000000  0.324985  0.412776  1
  Tb  Tb1  1  0.000000  0.675827  0.583865  1
  Tb  Tb2  1  0.000000  0.821646  0.088291  1
  Tb  Tb3  1  0.000000  0.176374  0.914498  1
  Tb  Tb4  1  0.000000  0.942948  0.372770  1
  Tb  Tb5  1  0.000000  0.056622  0.627355  1
  Tb  Tb6  1  0.000000  0.444804  0.127952  1
  Tb  Tb7  1  0.000000  0.556479  0.872286  1
  Tc  Tc8  1  0.000000  0.637739  0.321691  1
  B  B9  1  0.500000  0.553049  0.432815  1
  B  B10  1  0.500000  0.446400  0.567591  1
  B  B11  1  0.500000  0.053761  0.067446  1
  B  B12  1  0.500000  0.946328  0.932740  1
  B  B13  1  0.500000  0.747221  0.419518  1
  B  B14  1  0.500000  0.252842  0.580451  1
  B  B15  1  0.500000  0.247606  0.080389  1
  B  B16  1  0.500000  0.752602  0.919558  1
  B  B17  1  0.500000  0.791203  0.267060  1
  B  B18  1  0.500000  0.209121  0.732845  1
  B  B19  1  0.500000  0.290837  0.232343  1
  B  B20  1  0.500000  0.709551  0.767157  1
  B  B21  1  0.500000  0.632742  0.186428  1
  B  B22  1  0.500000  0.367171  0.813958  1
  B  B23  1  0.500000  0.132537  0.313370  1
  B  B24  1  0.500000  0.867687  0.686255  1
  B  B25  1  0.500000  0.984269  0.212866  1
  B  B26  1  0.500000  0.015709  0.787476  1
  B  B27  1  0.500000  0.483909  0.287260  1
  B  B28  1  0.500000  0.515311  0.712859  1
  B  B29  1  0.500000  0.610196  0.030245  1
  B  B30  1  0.500000  0.389682  0.969140  1
  B  B31  1  0.500000  0.110496  0.469329  1
  B  B32  1  0.500000  0.890419  0.531020  1
  Os  Os33  1  0.000000  0.361844  0.678881  1
  Os  Os34  1  0.000000  0.137565  0.177771  1
  Os  Os35  1  0.000000  0.862516  0.821744  1
