# generated using pymatgen
data_Ti6Nb2Co7Si14Pd
_symmetry_space_group_name_H-M   'P 1'
_cell_length_a   9.25369999
_cell_length_b   9.26775053
_cell_length_c   9.22151840
_cell_angle_alpha   94.26430430
_cell_angle_beta   94.18420528
_cell_angle_gamma   148.57487832
_symmetry_Int_Tables_number   1
_chemical_formula_structural   Ti6Nb2Co7Si14Pd
_chemical_formula_sum   'Ti6 Nb2 Co7 Si14 Pd1'
_cell_volume   396.78846282
_cell_formula_units_Z   1
loop_
 _symmetry_equiv_pos_site_id
 _symmetry_equiv_pos_as_xyz
  1  'x, y, z'
loop_
 _atom_site_type_symbol
 _atom_site_label
 _atom_site_symmetry_multiplicity
 _atom_site_fract_x
 _atom_site_fract_y
 _atom_site_fract_z
 _atom_site_occupancy
  Ti  Ti0  1  0.865428  0.133207  0.001805  1
  Ti  Ti1  1  0.136380  0.868602  0.001802  1
  Ti  Ti2  1  0.501192  0.690970  0.193610  1
  Ti  Ti3  1  0.496784  0.307307  0.807908  1
  Ti  Ti4  1  0.311091  0.500585  0.807918  1
  Ti  Ti5  1  0.692431  0.502668  0.193614  1
  Nb  Nb6  1  0.133541  0.133546  0.267137  1
  Nb  Nb7  1  0.867032  0.867051  0.734047  1
  Co  Co8  1  0.103787  0.603767  0.207515  1
  Co  Co9  1  0.104131  0.899608  0.502245  1
  Co  Co10  1  0.398100  0.602653  0.502249  1
  Co  Co11  1  0.597629  0.399705  0.495266  1
  Co  Co12  1  0.897648  0.095561  0.495269  1
  Co  Co13  1  0.898680  0.398663  0.797247  1
  Co  Co14  1  0.598243  0.098229  0.196456  1
  Si  Si15  1  0.292953  0.293002  0.585782  1
  Si  Si16  1  0.706419  0.706466  0.413066  1
  Si  Si17  1  0.727425  0.321456  0.006553  1
  Si  Si18  1  0.279146  0.685081  0.006530  1
  Si  Si19  1  0.997374  0.292224  0.293656  1
  Si  Si20  1  0.980007  0.692316  0.704424  1
  Si  Si21  1  0.724335  0.012009  0.704376  1
  Si  Si22  1  0.296320  0.001455  0.293614  1
  Si  Si23  1  0.502476  0.907046  0.406524  1
  Si  Si24  1  0.519930  0.118587  0.586137  1
  Si  Si25  1  0.066308  0.467599  0.586161  1
  Si  Si26  1  0.904045  0.499416  0.406531  1
  Si  Si27  1  0.748987  0.749230  0.000703  1
  Si  Si28  1  0.251687  0.251500  0.000703  1
  Pd  Pd29  1  0.400491  0.900493  0.801155  1
