# generated using pymatgen
data_Tb8Ti8Nb3Si16Ir
_symmetry_space_group_name_H-M   'P 1'
_cell_length_a   7.05374566
_cell_length_b   7.05374627
_cell_length_c   12.93814434
_cell_angle_alpha   90.22317852
_cell_angle_beta   89.77681957
_cell_angle_gamma   89.68911531
_symmetry_Int_Tables_number   1
_chemical_formula_structural   Tb8Ti8Nb3Si16Ir
_chemical_formula_sum   'Tb8 Ti8 Nb3 Si16 Ir1'
_cell_volume   643.72237258
_cell_formula_units_Z   1
loop_
 _symmetry_equiv_pos_site_id
 _symmetry_equiv_pos_as_xyz
  1  'x, y, z'
loop_
 _atom_site_type_symbol
 _atom_site_label
 _atom_site_symmetry_multiplicity
 _atom_site_fract_x
 _atom_site_fract_y
 _atom_site_fract_z
 _atom_site_occupancy
  Tb  Tb0  1  0.340228  0.003043  0.467644  1
  Tb  Tb1  1  0.497305  0.841426  0.718358  1
  Tb  Tb2  1  0.501298  0.158781  0.215380  1
  Tb  Tb3  1  0.841426  0.497305  0.281642  1
  Tb  Tb4  1  0.158781  0.501298  0.784620  1
  Tb  Tb5  1  0.658949  0.998411  0.968362  1
  Tb  Tb6  1  0.003043  0.340228  0.532356  1
  Tb  Tb7  1  0.998411  0.658949  0.031638  1
  Ti  Ti8  1  0.148706  0.003474  0.875585  1
  Ti  Ti9  1  0.491174  0.658388  0.125511  1
  Ti  Ti10  1  0.509110  0.348477  0.628426  1
  Ti  Ti11  1  0.658388  0.491174  0.874489  1
  Ti  Ti12  1  0.348477  0.509110  0.371574  1
  Ti  Ti13  1  0.847808  0.991629  0.374965  1
  Ti  Ti14  1  0.003474  0.148706  0.124415  1
  Ti  Ti15  1  0.991629  0.847808  0.625035  1
  Nb  Nb16  1  0.175469  0.826685  0.247537  1
  Nb  Nb17  1  0.826685  0.175469  0.752463  1
  Nb  Nb18  1  0.673675  0.673675  0.500000  1
  Si  Si19  1  0.202310  0.131078  0.685930  1
  Si  Si20  1  0.373274  0.699569  0.934899  1
  Si  Si21  1  0.629774  0.296412  0.435060  1
  Si  Si22  1  0.699569  0.373274  0.065101  1
  Si  Si23  1  0.296412  0.629774  0.564940  1
  Si  Si24  1  0.796791  0.869154  0.184694  1
  Si  Si25  1  0.131078  0.202310  0.314070  1
  Si  Si26  1  0.869154  0.796791  0.815306  1
  Si  Si27  1  0.287760  0.953175  0.061450  1
  Si  Si28  1  0.547732  0.792648  0.314638  1
  Si  Si29  1  0.448324  0.210140  0.818466  1
  Si  Si30  1  0.792648  0.547732  0.685362  1
  Si  Si31  1  0.210140  0.448324  0.181534  1
  Si  Si32  1  0.708251  0.048485  0.564688  1
  Si  Si33  1  0.953175  0.287760  0.938550  1
  Si  Si34  1  0.048485  0.708251  0.435312  1
  Ir  Ir35  1  0.331087  0.331087  0.000000  1
