# generated using pymatgen
data_Er12Th4Mg4RuRh3
_symmetry_space_group_name_H-M   'P 1'
_cell_length_a   9.76646486
_cell_length_b   9.76646542
_cell_length_c   9.76646534
_cell_angle_alpha   59.52193113
_cell_angle_beta   59.52193259
_cell_angle_gamma   59.52193070
_symmetry_Int_Tables_number   1
_chemical_formula_structural   Er12Th4Mg4RuRh3
_chemical_formula_sum   'Er12 Th4 Mg4 Ru1 Rh3'
_cell_volume   651.55354009
_cell_formula_units_Z   1
loop_
 _symmetry_equiv_pos_site_id
 _symmetry_equiv_pos_as_xyz
  1  'x, y, z'
loop_
 _atom_site_type_symbol
 _atom_site_label
 _atom_site_symmetry_multiplicity
 _atom_site_fract_x
 _atom_site_fract_y
 _atom_site_fract_z
 _atom_site_occupancy
  Er  Er0  1  0.814148  0.186743  0.186743  1
  Er  Er1  1  0.184454  0.814109  0.814109  1
  Er  Er2  1  0.186743  0.814148  0.186743  1
  Er  Er3  1  0.814109  0.184454  0.814109  1
  Er  Er4  1  0.186743  0.186743  0.814148  1
  Er  Er5  1  0.814109  0.814109  0.184454  1
  Er  Er6  1  0.933502  0.567482  0.567482  1
  Er  Er7  1  0.565099  0.933916  0.933916  1
  Er  Er8  1  0.567482  0.933502  0.567482  1
  Er  Er9  1  0.933916  0.565099  0.933916  1
  Er  Er10  1  0.567482  0.567482  0.933502  1
  Er  Er11  1  0.933916  0.933916  0.565099  1
  Th  Th12  1  0.348183  0.348183  0.348183  1
  Th  Th13  1  0.347678  0.347678  0.955557  1
  Th  Th14  1  0.347678  0.955557  0.347678  1
  Th  Th15  1  0.955557  0.347678  0.347678  1
  Mg  Mg16  1  0.580258  0.580258  0.580258  1
  Mg  Mg17  1  0.578430  0.578430  0.258338  1
  Mg  Mg18  1  0.578430  0.258338  0.578430  1
  Mg  Mg19  1  0.258338  0.578430  0.578430  1
  Ru  Ru20  1  0.145178  0.145178  0.145178  1
  Rh  Rh21  1  0.143933  0.143933  0.570696  1
  Rh  Rh22  1  0.143933  0.570696  0.143933  1
  Rh  Rh23  1  0.570696  0.143933  0.143933  1
