# generated using pymatgen
data_Zr6Al16Tc4Pd3
_symmetry_space_group_name_H-M   'P 1'
_cell_length_a   8.75482630
_cell_length_b   8.75482674
_cell_length_c   8.94775400
_cell_angle_alpha   59.26831554
_cell_angle_beta   59.26831380
_cell_angle_gamma   61.46337268
_symmetry_Int_Tables_number   1
_chemical_formula_structural   Zr6Al16Tc4Pd3
_chemical_formula_sum   'Zr6 Al16 Tc4 Pd3'
_cell_volume   484.46516788
_cell_formula_units_Z   1
loop_
 _symmetry_equiv_pos_site_id
 _symmetry_equiv_pos_as_xyz
  1  'x, y, z'
loop_
 _atom_site_type_symbol
 _atom_site_label
 _atom_site_symmetry_multiplicity
 _atom_site_fract_x
 _atom_site_fract_y
 _atom_site_fract_z
 _atom_site_occupancy
  Zr  Zr0  1  0.678675  0.678675  0.321325  1
  Zr  Zr1  1  0.287084  0.712916  0.287084  1
  Zr  Zr2  1  0.712916  0.287084  0.287084  1
  Zr  Zr3  1  0.321325  0.321325  0.678675  1
  Zr  Zr4  1  0.712916  0.287084  0.712916  1
  Zr  Zr5  1  0.287084  0.712916  0.712916  1
  Al  Al6  1  0.874750  0.874750  0.363489  1
  Al  Al7  1  0.887013  0.363489  0.874750  1
  Al  Al8  1  0.363489  0.887013  0.874750  1
  Al  Al9  1  0.874750  0.874750  0.887013  1
  Al  Al10  1  0.125250  0.125250  0.636511  1
  Al  Al11  1  0.112987  0.636511  0.125250  1
  Al  Al12  1  0.636511  0.112987  0.125250  1
  Al  Al13  1  0.125250  0.125250  0.112987  1
  Al  Al14  1  0.661479  0.661479  0.015365  1
  Al  Al15  1  0.661677  0.015365  0.661479  1
  Al  Al16  1  0.015365  0.661677  0.661479  1
  Al  Al17  1  0.661479  0.661479  0.661677  1
  Al  Al18  1  0.338521  0.338521  0.984635  1
  Al  Al19  1  0.338323  0.984635  0.338521  1
  Al  Al20  1  0.984635  0.338323  0.338521  1
  Al  Al21  1  0.338521  0.338521  0.338323  1
  Tc  Tc22  1  0.500000  0.000000  0.500000  1
  Tc  Tc23  1  0.000000  0.500000  0.500000  1
  Tc  Tc24  1  0.000000  0.500000  0.000000  1
  Tc  Tc25  1  0.500000  0.000000  0.000000  1
  Pd  Pd26  1  0.000000  0.000000  0.000000  1
  Pd  Pd27  1  0.000000  0.000000  0.500000  1
  Pd  Pd28  1  0.500000  0.500000  0.000000  1
