# generated using pymatgen
data_Rb4BaNp5O15
_symmetry_space_group_name_H-M   'P 1'
_cell_length_a   9.67487479
_cell_length_b   9.67487469
_cell_length_c   7.48560400
_cell_angle_alpha   75.00749707
_cell_angle_beta   75.00749722
_cell_angle_gamma   36.90395614
_symmetry_Int_Tables_number   1
_chemical_formula_structural   Rb4BaNp5O15
_chemical_formula_sum   'Rb4 Ba1 Np5 O15'
_cell_volume   404.79109363
_cell_formula_units_Z   1
loop_
 _symmetry_equiv_pos_site_id
 _symmetry_equiv_pos_as_xyz
  1  'x, y, z'
loop_
 _atom_site_type_symbol
 _atom_site_label
 _atom_site_symmetry_multiplicity
 _atom_site_fract_x
 _atom_site_fract_y
 _atom_site_fract_z
 _atom_site_occupancy
  Rb  Rb0  1  0.600555  0.600555  0.597974  1
  Rb  Rb1  1  0.200725  0.200725  0.200788  1
  Rb  Rb2  1  0.799275  0.799275  0.799212  1
  Rb  Rb3  1  0.399445  0.399445  0.402026  1
  Ba  Ba4  1  0.000000  0.000000  0.000000  1
  Np  Np5  1  0.200660  0.200660  0.698731  1
  Np  Np6  1  0.799340  0.799340  0.301269  1
  Np  Np7  1  0.399191  0.399191  0.899959  1
  Np  Np8  1  0.000000  0.000000  0.500000  1
  Np  Np9  1  0.600809  0.600809  0.100041  1
  O  O10  1  0.390918  0.901999  0.901762  1
  O  O11  1  0.000000  0.500000  0.500000  1
  O  O12  1  0.609082  0.098001  0.098238  1
  O  O13  1  0.196124  0.706211  0.707171  1
  O  O14  1  0.803876  0.293789  0.292829  1
  O  O15  1  0.299837  0.299837  0.800785  1
  O  O16  1  0.902332  0.902332  0.390828  1
  O  O17  1  0.500000  0.500000  0.000000  1
  O  O18  1  0.097668  0.097668  0.609172  1
  O  O19  1  0.700163  0.700163  0.199215  1
  O  O20  1  0.500000  0.000000  0.500000  1
  O  O21  1  0.098001  0.609082  0.098238  1
  O  O22  1  0.706211  0.196124  0.707171  1
  O  O23  1  0.293789  0.803876  0.292829  1
  O  O24  1  0.901999  0.390918  0.901762  1
