# generated using pymatgen
data_Nb6Fe15Si7Rh
_symmetry_space_group_name_H-M   'P 1'
_cell_length_a   8.02084224
_cell_length_b   7.98438295
_cell_length_c   7.98438200
_cell_angle_alpha   59.99999567
_cell_angle_beta   60.15024833
_cell_angle_gamma   60.15025069
_symmetry_Int_Tables_number   1
_chemical_formula_structural   Nb6Fe15Si7Rh
_chemical_formula_sum   'Nb6 Fe15 Si7 Rh1'
_cell_volume   362.38498571
_cell_formula_units_Z   1
loop_
 _symmetry_equiv_pos_site_id
 _symmetry_equiv_pos_as_xyz
  1  'x, y, z'
loop_
 _atom_site_type_symbol
 _atom_site_label
 _atom_site_symmetry_multiplicity
 _atom_site_fract_x
 _atom_site_fract_y
 _atom_site_fract_z
 _atom_site_occupancy
  Nb  Nb0  1  0.799066  0.198921  0.803092  1
  Nb  Nb1  1  0.799066  0.803092  0.198921  1
  Nb  Nb2  1  0.202800  0.797815  0.201570  1
  Nb  Nb3  1  0.202800  0.201570  0.797815  1
  Nb  Nb4  1  0.202800  0.797815  0.797815  1
  Nb  Nb5  1  0.799066  0.198921  0.198921  1
  Fe  Fe6  1  0.613364  0.623524  0.139589  1
  Fe  Fe7  1  0.384080  0.378800  0.858319  1
  Fe  Fe8  1  0.826482  0.520560  0.826479  1
  Fe  Fe9  1  0.826482  0.826479  0.826479  1
  Fe  Fe10  1  0.826482  0.826479  0.520560  1
  Fe  Fe11  1  0.384080  0.378800  0.378800  1
  Fe  Fe12  1  0.137516  0.620828  0.620828  1
  Fe  Fe13  1  0.613364  0.623524  0.623524  1
  Fe  Fe14  1  0.173449  0.167898  0.167898  1
  Fe  Fe15  1  0.173449  0.490753  0.167898  1
  Fe  Fe16  1  0.520896  0.826368  0.826368  1
  Fe  Fe17  1  0.613364  0.139589  0.623524  1
  Fe  Fe18  1  0.173449  0.167898  0.490753  1
  Fe  Fe19  1  0.384080  0.858319  0.378800  1
  Fe  Fe20  1  0.489835  0.170055  0.170055  1
  Si  Si21  1  0.501559  0.999984  0.999984  1
  Si  Si22  1  0.004839  0.499839  0.995482  1
  Si  Si23  1  0.501559  0.498472  0.999984  1
  Si  Si24  1  0.486480  0.504507  0.504507  1
  Si  Si25  1  0.004839  0.499839  0.499839  1
  Si  Si26  1  0.004839  0.995482  0.499839  1
  Si  Si27  1  0.501559  0.999984  0.498472  1
  Rh  Rh28  1  0.848356  0.383881  0.383881  1
