# generated using pymatgen
data_CeU(MnAl5)4
_symmetry_space_group_name_H-M   'P 1'
_cell_length_a   6.79917909
_cell_length_b   6.79917827
_cell_length_c   8.99125800
_cell_angle_alpha   90.00000000
_cell_angle_beta   90.00000000
_cell_angle_gamma   97.75645755
_symmetry_Int_Tables_number   1
_chemical_formula_structural   CeU(MnAl5)4
_chemical_formula_sum   'Ce1 U1 Mn4 Al20'
_cell_volume   411.85238558
_cell_formula_units_Z   1
loop_
 _symmetry_equiv_pos_site_id
 _symmetry_equiv_pos_as_xyz
  1  'x, y, z'
loop_
 _atom_site_type_symbol
 _atom_site_label
 _atom_site_symmetry_multiplicity
 _atom_site_fract_x
 _atom_site_fract_y
 _atom_site_fract_z
 _atom_site_occupancy
  Ce  Ce0  1  0.125930  0.874070  0.250000  1
  U  U1  1  0.870806  0.129194  0.750000  1
  Mn  Mn2  1  0.998626  0.494795  0.996349  1
  Mn  Mn3  1  0.505205  0.001374  0.503651  1
  Mn  Mn4  1  0.998626  0.494795  0.503651  1
  Mn  Mn5  1  0.505205  0.001374  0.996349  1
  Al  Al6  1  0.217441  0.476149  0.750000  1
  Al  Al7  1  0.374627  0.625373  0.045522  1
  Al  Al8  1  0.840431  0.159569  0.403239  1
  Al  Al9  1  0.132536  0.409996  0.250000  1
  Al  Al10  1  0.523851  0.782559  0.750000  1
  Al  Al11  1  0.624437  0.375563  0.950904  1
  Al  Al12  1  0.781370  0.522800  0.250000  1
  Al  Al13  1  0.624437  0.375563  0.549096  1
  Al  Al14  1  0.156741  0.843259  0.598349  1
  Al  Al15  1  0.590004  0.867464  0.250000  1
  Al  Al16  1  0.410750  0.132452  0.750000  1
  Al  Al17  1  0.477200  0.218630  0.250000  1
  Al  Al18  1  0.772985  0.771769  0.501107  1
  Al  Al19  1  0.772985  0.771769  0.998893  1
  Al  Al20  1  0.867548  0.589250  0.750000  1
  Al  Al21  1  0.840431  0.159569  0.096761  1
  Al  Al22  1  0.374627  0.625373  0.454478  1
  Al  Al23  1  0.156741  0.843259  0.901651  1
  Al  Al24  1  0.228231  0.227015  0.998893  1
  Al  Al25  1  0.228231  0.227015  0.501107  1
