# generated using pymatgen
data_Sm5Y3(Sc3Ga4)4
_symmetry_space_group_name_H-M   'P 1'
_cell_length_a   7.34387492
_cell_length_b   7.59167048
_cell_length_c   14.58162800
_cell_angle_alpha   89.98038485
_cell_angle_beta   90.02873420
_cell_angle_gamma   90.00579098
_symmetry_Int_Tables_number   1
_chemical_formula_structural   Sm5Y3(Sc3Ga4)4
_chemical_formula_sum   'Sm5 Y3 Sc12 Ga16'
_cell_volume   812.95883111
_cell_formula_units_Z   1
loop_
 _symmetry_equiv_pos_site_id
 _symmetry_equiv_pos_as_xyz
  1  'x, y, z'
loop_
 _atom_site_type_symbol
 _atom_site_label
 _atom_site_symmetry_multiplicity
 _atom_site_fract_x
 _atom_site_fract_y
 _atom_site_fract_z
 _atom_site_occupancy
  Sm  Sm0  1  0.011863  0.177013  0.095514  1
  Sm  Sm1  1  0.988274  0.822991  0.904481  1
  Sm  Sm2  1  0.488112  0.677057  0.904629  1
  Sm  Sm3  1  0.988180  0.822918  0.594961  1
  Sm  Sm4  1  0.511908  0.322961  0.095502  1
  Y  Y5  1  0.011766  0.178154  0.404242  1
  Y  Y6  1  0.511848  0.322137  0.404587  1
  Y  Y7  1  0.488080  0.677478  0.595379  1
  Sc  Sc8  1  0.162005  0.501586  0.749688  1
  Sc  Sc9  1  0.838135  0.497780  0.250612  1
  Sc  Sc10  1  0.338414  0.001986  0.250557  1
  Sc  Sc11  1  0.661425  0.998341  0.749679  1
  Sc  Sc12  1  0.330792  0.174060  0.624175  1
  Sc  Sc13  1  0.669746  0.826109  0.375778  1
  Sc  Sc14  1  0.170181  0.673892  0.375588  1
  Sc  Sc15  1  0.669703  0.826234  0.125183  1
  Sc  Sc16  1  0.829782  0.326127  0.624090  1
  Sc  Sc17  1  0.330464  0.173770  0.874993  1
  Sc  Sc18  1  0.830250  0.326173  0.875150  1
  Sc  Sc19  1  0.169616  0.674000  0.125205  1
  Ga  Ga20  1  0.031743  0.119645  0.749895  1
  Ga  Ga21  1  0.968348  0.881136  0.250445  1
  Ga  Ga22  1  0.468373  0.618936  0.250478  1
  Ga  Ga23  1  0.531560  0.380906  0.749607  1
  Ga  Ga24  1  0.285375  0.874647  0.749442  1
  Ga  Ga25  1  0.715380  0.125642  0.250919  1
  Ga  Ga26  1  0.215366  0.374336  0.251082  1
  Ga  Ga27  1  0.783935  0.625027  0.749262  1
  Ga  Ga28  1  0.160755  0.463816  0.539954  1
  Ga  Ga29  1  0.839228  0.533890  0.459230  1
  Ga  Ga30  1  0.340234  0.965313  0.459467  1
  Ga  Ga31  1  0.840839  0.536285  0.040344  1
  Ga  Ga32  1  0.658969  0.035668  0.539966  1
  Ga  Ga33  1  0.159175  0.464005  0.959807  1
  Ga  Ga34  1  0.659199  0.036311  0.959754  1
  Ga  Ga35  1  0.340980  0.963674  0.040353  1
