# generated using pymatgen
data_Ga4Hg11(SbBr4)4
_symmetry_space_group_name_H-M   'P 1'
_cell_length_a   8.23666079
_cell_length_b   8.23666179
_cell_length_c   24.48127722
_cell_angle_alpha   82.72224142
_cell_angle_beta   82.72224054
_cell_angle_gamma   60.13206094
_symmetry_Int_Tables_number   1
_chemical_formula_structural   Ga4Hg11(SbBr4)4
_chemical_formula_sum   'Ga4 Hg11 Sb4 Br16'
_cell_volume   1424.75589692
_cell_formula_units_Z   1
loop_
 _symmetry_equiv_pos_site_id
 _symmetry_equiv_pos_as_xyz
  1  'x, y, z'
loop_
 _atom_site_type_symbol
 _atom_site_label
 _atom_site_symmetry_multiplicity
 _atom_site_fract_x
 _atom_site_fract_y
 _atom_site_fract_z
 _atom_site_occupancy
  Ga  Ga0  1  0.636219  0.636219  0.116520  1
  Ga  Ga1  1  0.363781  0.363781  0.883480  1
  Ga  Ga2  1  0.755950  0.755950  0.617253  1
  Ga  Ga3  1  0.244050  0.244050  0.382747  1
  Hg  Hg4  1  0.031548  0.031548  0.889353  1
  Hg  Hg5  1  0.767100  0.767100  0.282506  1
  Hg  Hg6  1  0.478718  0.478718  0.555060  1
  Hg  Hg7  1  0.728513  0.234069  0.724389  1
  Hg  Hg8  1  0.271487  0.765931  0.275611  1
  Hg  Hg9  1  0.765931  0.271487  0.275611  1
  Hg  Hg10  1  0.234069  0.728513  0.724389  1
  Hg  Hg11  1  0.521282  0.521282  0.444940  1
  Hg  Hg12  1  0.968452  0.968452  0.110647  1
  Hg  Hg13  1  0.000000  0.000000  0.000000  1
  Hg  Hg14  1  0.232900  0.232900  0.717494  1
  Sb  Sb15  1  0.945030  0.945030  0.225807  1
  Sb  Sb16  1  0.054970  0.054970  0.774193  1
  Sb  Sb17  1  0.584070  0.584070  0.332275  1
  Sb  Sb18  1  0.415930  0.415930  0.667725  1
  Br  Br19  1  0.526669  0.063916  0.846285  1
  Br  Br20  1  0.081179  0.081179  0.417748  1
  Br  Br21  1  0.527770  0.527770  0.845923  1
  Br  Br22  1  0.444171  0.911351  0.589634  1
  Br  Br23  1  0.739832  0.739832  0.715477  1
  Br  Br24  1  0.339560  0.339560  0.979644  1
  Br  Br25  1  0.473331  0.936084  0.153715  1
  Br  Br26  1  0.936084  0.473331  0.153715  1
  Br  Br27  1  0.472230  0.472230  0.154077  1
  Br  Br28  1  0.555829  0.088649  0.410366  1
  Br  Br29  1  0.660440  0.660440  0.020356  1
  Br  Br30  1  0.911351  0.444171  0.589634  1
  Br  Br31  1  0.260168  0.260168  0.284523  1
  Br  Br32  1  0.088649  0.555829  0.410366  1
  Br  Br33  1  0.918821  0.918821  0.582252  1
  Br  Br34  1  0.063916  0.526669  0.846285  1
