# generated using pymatgen
data_Sr4GaAu17
_symmetry_space_group_name_H-M   'P 1'
_cell_length_a   9.25563890
_cell_length_b   8.89100512
_cell_length_c   8.89100737
_cell_angle_alpha   58.15980844
_cell_angle_beta   58.83502739
_cell_angle_gamma   58.83502718
_symmetry_Int_Tables_number   1
_chemical_formula_structural   Sr4GaAu17
_chemical_formula_sum   'Sr4 Ga1 Au17'
_cell_volume   500.87120084
_cell_formula_units_Z   1
loop_
 _symmetry_equiv_pos_site_id
 _symmetry_equiv_pos_as_xyz
  1  'x, y, z'
loop_
 _atom_site_type_symbol
 _atom_site_label
 _atom_site_symmetry_multiplicity
 _atom_site_fract_x
 _atom_site_fract_y
 _atom_site_fract_z
 _atom_site_occupancy
  Sr  Sr0  1  0.372377  0.389700  0.424407  1
  Sr  Sr1  1  0.880631  0.925541  0.891856  1
  Sr  Sr2  1  0.619369  0.608144  0.574459  1
  Sr  Sr3  1  0.127623  0.075593  0.110300  1
  Ga  Ga4  1  0.750000  0.567953  0.932047  1
  Au  Au5  1  0.051030  0.244336  0.450497  1
  Au  Au6  1  0.448970  0.049503  0.255664  1
  Au  Au7  1  0.250000  0.430759  0.069241  1
  Au  Au8  1  0.935879  0.755812  0.561777  1
  Au  Au9  1  0.564121  0.938223  0.744188  1
  Au  Au10  1  0.976923  0.333489  0.748754  1
  Au  Au11  1  0.737620  0.002756  0.319484  1
  Au  Au12  1  0.364258  0.703600  0.989086  1
  Au  Au13  1  0.236592  0.822832  0.497187  1
  Au  Au14  1  0.485524  0.238079  0.829572  1
  Au  Au15  1  0.869774  0.485217  0.187451  1
  Au  Au16  1  0.014476  0.670428  0.261921  1
  Au  Au17  1  0.263408  0.002813  0.677168  1
  Au  Au18  1  0.630226  0.312549  0.014783  1
  Au  Au19  1  0.762380  0.180516  0.497244  1
  Au  Au20  1  0.523077  0.751246  0.166511  1
  Au  Au21  1  0.135742  0.510914  0.796400  1
