# generated using pymatgen
data_LiY2BRh5
_symmetry_space_group_name_H-M   'P 1'
_cell_length_a   5.88893671
_cell_length_b   5.81376945
_cell_length_c   5.81377032
_cell_angle_alpha   60.85723700
_cell_angle_beta   59.57138148
_cell_angle_gamma   59.57138331
_symmetry_Int_Tables_number   1
_chemical_formula_structural   LiY2BRh5
_chemical_formula_sum   'Li1 Y2 B1 Rh5'
_cell_volume   140.69881681
_cell_formula_units_Z   1
loop_
 _symmetry_equiv_pos_site_id
 _symmetry_equiv_pos_as_xyz
  1  'x, y, z'
loop_
 _atom_site_type_symbol
 _atom_site_label
 _atom_site_symmetry_multiplicity
 _atom_site_fract_x
 _atom_site_fract_y
 _atom_site_fract_z
 _atom_site_occupancy
  Li  Li0  1  0.730292  0.269709  0.269709  1
  Y  Y1  1  0.248459  0.251541  0.251541  1
  Y  Y2  1  0.748459  0.751541  0.751541  1
  B  B3  1  0.012902  0.987098  0.987098  1
  Rh  Rh4  1  0.250821  0.749180  0.254481  1
  Rh  Rh5  1  0.745519  0.749179  0.254482  1
  Rh  Rh6  1  0.267210  0.732791  0.732791  1
  Rh  Rh7  1  0.250821  0.254481  0.749180  1
  Rh  Rh8  1  0.745519  0.254482  0.749179  1
