# generated using pymatgen
data_Sr6DyLu(BO3)6
_symmetry_space_group_name_H-M   'P 1'
_cell_length_a   7.88774273
_cell_length_b   7.88774254
_cell_length_c   7.88774154
_cell_angle_alpha   105.02846360
_cell_angle_beta   105.02845832
_cell_angle_gamma   105.02847532
_symmetry_Int_Tables_number   1
_chemical_formula_structural   Sr6DyLu(BO3)6
_chemical_formula_sum   'Sr6 Dy1 Lu1 B6 O18'
_cell_volume   428.78638981
_cell_formula_units_Z   1
loop_
 _symmetry_equiv_pos_site_id
 _symmetry_equiv_pos_as_xyz
  1  'x, y, z'
loop_
 _atom_site_type_symbol
 _atom_site_label
 _atom_site_symmetry_multiplicity
 _atom_site_fract_x
 _atom_site_fract_y
 _atom_site_fract_z
 _atom_site_occupancy
  Sr  Sr0  1  0.359932  0.734919  0.857257  1
  Sr  Sr1  1  0.857257  0.359932  0.734919  1
  Sr  Sr2  1  0.734919  0.857257  0.359932  1
  Sr  Sr3  1  0.640068  0.265081  0.142743  1
  Sr  Sr4  1  0.142743  0.640068  0.265081  1
  Sr  Sr5  1  0.265081  0.142743  0.640068  1
  Dy  Dy6  1  0.000000  0.000000  0.000000  1
  Lu  Lu7  1  0.500000  0.500000  0.500000  1
  B  B8  1  0.707695  0.612373  0.957958  1
  B  B9  1  0.957958  0.707695  0.612373  1
  B  B10  1  0.612373  0.957958  0.707695  1
  B  B11  1  0.042042  0.292305  0.387627  1
  B  B12  1  0.387627  0.042042  0.292305  1
  B  B13  1  0.292305  0.387627  0.042042  1
  O  O14  1  0.047367  0.810701  0.524273  1
  O  O15  1  0.524273  0.047367  0.810701  1
  O  O16  1  0.441362  0.492707  0.211187  1
  O  O17  1  0.492707  0.211187  0.441362  1
  O  O18  1  0.211187  0.441362  0.492707  1
  O  O19  1  0.788813  0.558638  0.507293  1
  O  O20  1  0.558638  0.507293  0.788813  1
  O  O21  1  0.507293  0.788813  0.558638  1
  O  O22  1  0.254781  0.195482  0.969497  1
  O  O23  1  0.195482  0.969497  0.254781  1
  O  O24  1  0.969497  0.254781  0.195482  1
  O  O25  1  0.745219  0.804518  0.030503  1
  O  O26  1  0.804518  0.030503  0.745219  1
  O  O27  1  0.030503  0.745219  0.804518  1
  O  O28  1  0.189299  0.475727  0.952633  1
  O  O29  1  0.475727  0.952633  0.189299  1
  O  O30  1  0.952633  0.189299  0.475727  1
  O  O31  1  0.810701  0.524273  0.047367  1
