# generated using pymatgen
data_Cs5U2Se4Br9
_symmetry_space_group_name_H-M   'P 1'
_cell_length_a   11.43318818
_cell_length_b   11.43318904
_cell_length_c   11.43318800
_cell_angle_alpha   138.89263096
_cell_angle_beta   119.73643835
_cell_angle_gamma   75.55267478
_symmetry_Int_Tables_number   1
_chemical_formula_structural   Cs5U2Se4Br9
_chemical_formula_sum   'Cs5 U2 Se4 Br9'
_cell_volume   832.76234143
_cell_formula_units_Z   1
loop_
 _symmetry_equiv_pos_site_id
 _symmetry_equiv_pos_as_xyz
  1  'x, y, z'
loop_
 _atom_site_type_symbol
 _atom_site_label
 _atom_site_symmetry_multiplicity
 _atom_site_fract_x
 _atom_site_fract_y
 _atom_site_fract_z
 _atom_site_occupancy
  Cs  Cs0  1  0.428696  0.656995  0.771701  1
  Cs  Cs1  1  0.885294  0.656995  0.228299  1
  Cs  Cs2  1  0.500000  0.000000  0.500000  1
  Cs  Cs3  1  0.571304  0.343005  0.228299  1
  Cs  Cs4  1  0.114706  0.343005  0.771701  1
  U  U5  1  0.107235  0.107235  0.000000  1
  U  U6  1  0.892765  0.892765  0.000000  1
  Se  Se7  1  0.102676  0.768058  0.870734  1
  Se  Se8  1  0.897324  0.768058  0.665382  1
  Se  Se9  1  0.897324  0.231942  0.129266  1
  Se  Se10  1  0.102676  0.231942  0.334618  1
  Br  Br11  1  0.219401  0.467598  0.248198  1
  Br  Br12  1  0.118207  0.862863  0.255344  1
  Br  Br13  1  0.392482  0.137137  0.255344  1
  Br  Br14  1  0.219401  0.971203  0.751802  1
  Br  Br15  1  0.780599  0.028797  0.248198  1
  Br  Br16  1  0.607518  0.862863  0.744656  1
  Br  Br17  1  0.780599  0.532402  0.751802  1
  Br  Br18  1  0.500000  0.500000  0.000000  1
  Br  Br19  1  0.881793  0.137137  0.744656  1
