# generated using pymatgen
data_NaPdPtSe3
_symmetry_space_group_name_H-M   'P 1'
_cell_length_a   7.50334704
_cell_length_b   7.49649571
_cell_length_c   11.61427508
_cell_angle_alpha   90.00624296
_cell_angle_beta   89.98751785
_cell_angle_gamma   120.03023300
_symmetry_Int_Tables_number   1
_chemical_formula_structural   NaPdPtSe3
_chemical_formula_sum   'Na4 Pd4 Pt4 Se12'
_cell_volume   565.59253940
_cell_formula_units_Z   4
loop_
 _symmetry_equiv_pos_site_id
 _symmetry_equiv_pos_as_xyz
  1  'x, y, z'
loop_
 _atom_site_type_symbol
 _atom_site_label
 _atom_site_symmetry_multiplicity
 _atom_site_fract_x
 _atom_site_fract_y
 _atom_site_fract_z
 _atom_site_occupancy
  Na  Na0  1  0.331364  0.667005  0.312924  1
  Na  Na1  1  0.664359  0.332995  0.812924  1
  Na  Na2  1  0.000236  0.999062  0.692294  1
  Na  Na3  1  0.001174  0.000938  0.192294  1
  Pd  Pd4  1  0.834316  0.165983  0.006000  1
  Pd  Pd5  1  0.668333  0.834017  0.506000  1
  Pd  Pd6  1  0.165774  0.331373  0.506140  1
  Pd  Pd7  1  0.834402  0.668627  0.006140  1
  Pt  Pt8  1  0.331725  0.165900  0.006246  1
  Pt  Pt9  1  0.165825  0.834100  0.506246  1
  Pt  Pt10  1  0.666809  0.333171  0.499382  1
  Pt  Pt11  1  0.333637  0.666829  0.999382  1
  Se  Se12  1  0.498713  0.500961  0.612137  1
  Se  Se13  1  0.997753  0.499039  0.112137  1
  Se  Se14  1  0.500458  0.003147  0.111602  1
  Se  Se15  1  0.497310  0.996853  0.611602  1
  Se  Se16  1  0.161882  0.840814  0.896128  1
  Se  Se17  1  0.321069  0.159186  0.396128  1
  Se  Se18  1  0.841179  0.679365  0.395906  1
  Se  Se19  1  0.161813  0.320635  0.895906  1
  Se  Se20  1  0.679111  0.839531  0.895294  1
  Se  Se21  1  0.839581  0.160469  0.395294  1
  Se  Se22  1  0.500460  0.497744  0.111746  1
  Se  Se23  1  0.002715  0.502256  0.611746  1
