# generated using pymatgen
data_Tb4Tm4Re(B8Ru)3
_symmetry_space_group_name_H-M   'P 1'
_cell_length_a   3.65309100
_cell_length_b   9.11573699
_cell_length_c   11.51339102
_cell_angle_alpha   90.11333539
_cell_angle_beta   90.00000000
_cell_angle_gamma   90.00000000
_symmetry_Int_Tables_number   1
_chemical_formula_structural   Tb4Tm4Re(B8Ru)3
_chemical_formula_sum   'Tb4 Tm4 Re1 B24 Ru3'
_cell_volume   383.40227204
_cell_formula_units_Z   1
loop_
 _symmetry_equiv_pos_site_id
 _symmetry_equiv_pos_as_xyz
  1  'x, y, z'
loop_
 _atom_site_type_symbol
 _atom_site_label
 _atom_site_symmetry_multiplicity
 _atom_site_fract_x
 _atom_site_fract_y
 _atom_site_fract_z
 _atom_site_occupancy
  Tb  Tb0  1  0.000000  0.322837  0.414983  1
  Tb  Tb1  1  0.000000  0.680051  0.587742  1
  Tb  Tb2  1  0.000000  0.822227  0.083746  1
  Tb  Tb3  1  0.000000  0.176691  0.913370  1
  Tm  Tm4  1  0.000000  0.943277  0.371168  1
  Tm  Tm5  1  0.000000  0.056292  0.627736  1
  Tm  Tm6  1  0.000000  0.442672  0.128473  1
  Tm  Tm7  1  0.000000  0.555968  0.872534  1
  Re  Re8  1  0.000000  0.861712  0.820327  1
  B  B9  1  0.500000  0.554575  0.432778  1
  B  B10  1  0.500000  0.445798  0.567613  1
  B  B11  1  0.500000  0.054197  0.067982  1
  B  B12  1  0.500000  0.946694  0.932709  1
  B  B13  1  0.500000  0.749414  0.418910  1
  B  B14  1  0.500000  0.250985  0.580786  1
  B  B15  1  0.500000  0.249128  0.081367  1
  B  B16  1  0.500000  0.750255  0.918821  1
  B  B17  1  0.500000  0.790685  0.265920  1
  B  B18  1  0.500000  0.208936  0.733091  1
  B  B19  1  0.500000  0.291181  0.234136  1
  B  B20  1  0.500000  0.707893  0.765967  1
  B  B21  1  0.500000  0.630116  0.184918  1
  B  B22  1  0.500000  0.369147  0.814749  1
  B  B23  1  0.500000  0.130928  0.315286  1
  B  B24  1  0.500000  0.869529  0.684984  1
  B  B25  1  0.500000  0.983325  0.213146  1
  B  B26  1  0.500000  0.018058  0.786662  1
  B  B27  1  0.500000  0.483216  0.287423  1
  B  B28  1  0.500000  0.516746  0.713267  1
  B  B29  1  0.500000  0.602926  0.029257  1
  B  B30  1  0.500000  0.394903  0.971650  1
  B  B31  1  0.500000  0.104741  0.470652  1
  B  B32  1  0.500000  0.896177  0.527900  1
  Ru  Ru33  1  0.000000  0.638418  0.320150  1
  Ru  Ru34  1  0.000000  0.361742  0.679440  1
  Ru  Ru35  1  0.000000  0.138556  0.180356  1
