# generated using pymatgen
data_Hf9NbRe3Se
_symmetry_space_group_name_H-M   'P 1'
_cell_length_a   8.68809651
_cell_length_b   8.73457402
_cell_length_c   8.67732900
_cell_angle_alpha   90.00000000
_cell_angle_beta   90.00000000
_cell_angle_gamma   120.17711526
_symmetry_Int_Tables_number   1
_chemical_formula_structural   Hf9NbRe3Se
_chemical_formula_sum   'Hf18 Nb2 Re6 Se2'
_cell_volume   569.25282319
_cell_formula_units_Z   2
loop_
 _symmetry_equiv_pos_site_id
 _symmetry_equiv_pos_as_xyz
  1  'x, y, z'
loop_
 _atom_site_type_symbol
 _atom_site_label
 _atom_site_symmetry_multiplicity
 _atom_site_fract_x
 _atom_site_fract_y
 _atom_site_fract_z
 _atom_site_occupancy
  Hf  Hf0  1  0.193352  0.808535  0.454430  1
  Hf  Hf1  1  0.193352  0.384817  0.454430  1
  Hf  Hf2  1  0.614307  0.807153  0.455852  1
  Hf  Hf3  1  0.807233  0.192038  0.553379  1
  Hf  Hf4  1  0.807233  0.615195  0.553379  1
  Hf  Hf5  1  0.383058  0.191529  0.550287  1
  Hf  Hf6  1  0.807233  0.192038  0.946621  1
  Hf  Hf7  1  0.807233  0.615195  0.946621  1
  Hf  Hf8  1  0.383058  0.191529  0.949713  1
  Hf  Hf9  1  0.193352  0.808535  0.045570  1
  Hf  Hf10  1  0.193352  0.384817  0.045570  1
  Hf  Hf11  1  0.614307  0.807153  0.044148  1
  Hf  Hf12  1  0.540565  0.453518  0.250000  1
  Hf  Hf13  1  0.540565  0.087046  0.250000  1
  Hf  Hf14  1  0.914227  0.457114  0.250000  1
  Hf  Hf15  1  0.454658  0.545256  0.750000  1
  Hf  Hf16  1  0.454658  0.909402  0.750000  1
  Hf  Hf17  1  0.090530  0.545265  0.750000  1
  Nb  Nb18  1  0.891308  0.110190  0.250000  1
  Nb  Nb19  1  0.891308  0.781118  0.250000  1
  Re  Re20  1  0.223639  0.111819  0.250000  1
  Re  Re21  1  0.110732  0.890267  0.750000  1
  Re  Re22  1  0.110732  0.220464  0.750000  1
  Re  Re23  1  0.779784  0.889892  0.750000  1
  Re  Re24  1  0.001461  0.000730  0.503758  1
  Re  Re25  1  0.001461  0.000730  0.996242  1
  Se  Se26  1  0.331494  0.665748  0.250000  1
  Se  Se27  1  0.665809  0.332904  0.750000  1
