# generated using pymatgen
data_Dy3Ho3Al24(Ru3Pt)2
_symmetry_space_group_name_H-M   'P 1'
_cell_length_a   8.80925150
_cell_length_b   8.78592713
_cell_length_c   9.54905243
_cell_angle_alpha   90.04155208
_cell_angle_beta   90.06582812
_cell_angle_gamma   119.62246920
_symmetry_Int_Tables_number   1
_chemical_formula_structural   Dy3Ho3Al24(Ru3Pt)2
_chemical_formula_sum   'Dy3 Ho3 Al24 Ru6 Pt2'
_cell_volume   642.47520990
_cell_formula_units_Z   1
loop_
 _symmetry_equiv_pos_site_id
 _symmetry_equiv_pos_as_xyz
  1  'x, y, z'
loop_
 _atom_site_type_symbol
 _atom_site_label
 _atom_site_symmetry_multiplicity
 _atom_site_fract_x
 _atom_site_fract_y
 _atom_site_fract_z
 _atom_site_occupancy
  Dy  Dy0  1  0.190631  0.385733  0.252523  1
  Dy  Dy1  1  0.809285  0.614214  0.747506  1
  Dy  Dy2  1  0.616304  0.808554  0.251678  1
  Ho  Ho3  1  0.384321  0.191782  0.748049  1
  Ho  Ho4  1  0.191415  0.804862  0.252410  1
  Ho  Ho5  1  0.808421  0.195106  0.747592  1
  Al  Al6  1  0.327116  0.664074  0.025509  1
  Al  Al7  1  0.672653  0.335812  0.974306  1
  Al  Al8  1  0.666703  0.333077  0.522665  1
  Al  Al9  1  0.333121  0.666835  0.477508  1
  Al  Al10  1  0.163559  0.326873  0.577145  1
  Al  Al11  1  0.836536  0.672998  0.423035  1
  Al  Al12  1  0.673717  0.837088  0.576346  1
  Al  Al13  1  0.842174  0.675177  0.078727  1
  Al  Al14  1  0.326237  0.162881  0.423879  1
  Al  Al15  1  0.157905  0.324734  0.921149  1
  Al  Al16  1  0.163675  0.837093  0.577073  1
  Al  Al17  1  0.322732  0.161356  0.079216  1
  Al  Al18  1  0.836436  0.163132  0.423100  1
  Al  Al19  1  0.677261  0.838644  0.920576  1
  Al  Al20  1  0.841744  0.167116  0.078457  1
  Al  Al21  1  0.158341  0.833046  0.921413  1
  Al  Al22  1  0.561923  0.124746  0.252618  1
  Al  Al23  1  0.437980  0.875431  0.747409  1
  Al  Al24  1  0.877549  0.439206  0.249064  1
  Al  Al25  1  0.122465  0.560786  0.750955  1
  Al  Al26  1  0.562507  0.437230  0.252851  1
  Al  Al27  1  0.437396  0.562477  0.747184  1
  Al  Al28  1  0.998389  0.999060  0.250345  1
  Al  Al29  1  0.001992  0.001133  0.749657  1
  Ru  Ru30  1  0.999922  0.499962  0.999985  1
  Ru  Ru31  1  0.499939  0.000104  0.500129  1
  Ru  Ru32  1  0.999924  0.499965  0.500067  1
  Ru  Ru33  1  0.499943  0.499834  0.500138  1
  Ru  Ru34  1  0.000013  0.000007  0.000000  1
  Ru  Ru35  1  0.999991  0.999992  0.499993  1
  Pt  Pt36  1  0.499896  0.000084  0.999871  1
  Pt  Pt37  1  0.499884  0.499797  0.999871  1
