# generated using pymatgen
data_Yb5Dy5Ru4
_symmetry_space_group_name_H-M   'P 1'
_cell_length_a   8.54519698
_cell_length_b   8.45931878
_cell_length_c   7.34872218
_cell_angle_alpha   82.90630416
_cell_angle_beta   83.21083877
_cell_angle_gamma   43.94576393
_symmetry_Int_Tables_number   1
_chemical_formula_structural   Yb5Dy5Ru4
_chemical_formula_sum   'Yb5 Dy5 Ru4'
_cell_volume   365.49706479
_cell_formula_units_Z   1
loop_
 _symmetry_equiv_pos_site_id
 _symmetry_equiv_pos_as_xyz
  1  'x, y, z'
loop_
 _atom_site_type_symbol
 _atom_site_label
 _atom_site_symmetry_multiplicity
 _atom_site_fract_x
 _atom_site_fract_y
 _atom_site_fract_z
 _atom_site_occupancy
  Yb  Yb0  1  0.199307  0.981192  0.583146  1
  Yb  Yb1  1  0.018896  0.799766  0.914986  1
  Yb  Yb2  1  0.206896  0.359092  0.314744  1
  Yb  Yb3  1  0.641017  0.792651  0.187557  1
  Yb  Yb4  1  0.807099  0.626062  0.680076  1
  Dy  Dy5  1  0.374427  0.195301  0.822963  1
  Dy  Dy6  1  0.970491  0.203622  0.079510  1
  Dy  Dy7  1  0.799470  0.029490  0.421564  1
  Dy  Dy8  1  0.559750  0.441783  0.750240  1
  Dy  Dy9  1  0.417795  0.582187  0.247458  1
  Ru  Ru10  1  0.185662  0.588476  0.577402  1
  Ru  Ru11  1  0.392854  0.840641  0.925838  1
  Ru  Ru12  1  0.813181  0.377018  0.419539  1
  Ru  Ru13  1  0.613156  0.182717  0.074976  1
