# generated using pymatgen
data_Na3CrClO4
_symmetry_space_group_name_H-M   'P 1'
_cell_length_a   7.47156300
_cell_length_b   7.47156300
_cell_length_c   5.31386200
_cell_angle_alpha   90.00000000
_cell_angle_beta   90.00000000
_cell_angle_gamma   90.00000000
_symmetry_Int_Tables_number   1
_chemical_formula_structural   Na3CrClO4
_chemical_formula_sum   'Na6 Cr2 Cl2 O8'
_cell_volume   296.64238022
_cell_formula_units_Z   2
loop_
 _symmetry_equiv_pos_site_id
 _symmetry_equiv_pos_as_xyz
  1  'x, y, z'
loop_
 _atom_site_type_symbol
 _atom_site_label
 _atom_site_symmetry_multiplicity
 _atom_site_fract_x
 _atom_site_fract_y
 _atom_site_fract_z
 _atom_site_occupancy
  Na  Na0  1  0.500000  0.000000  0.112493  1
  Na  Na1  1  0.750000  0.250000  0.500000  1
  Na  Na2  1  0.750000  0.750000  0.500000  1
  Na  Na3  1  0.000000  0.500000  0.887507  1
  Na  Na4  1  0.250000  0.750000  0.500000  1
  Na  Na5  1  0.250000  0.250000  0.500000  1
  Cr  Cr6  1  0.500000  0.500000  0.000000  1
  Cr  Cr7  1  0.000000  0.000000  0.000000  1
  Cl  Cl8  1  0.000000  0.500000  0.372066  1
  Cl  Cl9  1  0.500000  0.000000  0.627934  1
  O  O10  1  0.500000  0.319371  0.185695  1
  O  O11  1  0.180629  0.000000  0.185695  1
  O  O12  1  0.500000  0.680629  0.185695  1
  O  O13  1  0.819371  0.000000  0.185695  1
  O  O14  1  0.680629  0.500000  0.814305  1
  O  O15  1  0.000000  0.180629  0.814305  1
  O  O16  1  0.000000  0.819371  0.814305  1
  O  O17  1  0.319371  0.500000  0.814305  1
