# generated using pymatgen
data_PrNd11Ga3PBr12
_symmetry_space_group_name_H-M   'P 1'
_cell_length_a   10.52124281
_cell_length_b   10.40357124
_cell_length_c   10.40255212
_cell_angle_alpha   109.23757611
_cell_angle_beta   109.69337868
_cell_angle_gamma   109.71628663
_symmetry_Int_Tables_number   1
_chemical_formula_structural   PrNd11Ga3PBr12
_chemical_formula_sum   'Pr1 Nd11 Ga3 P1 Br12'
_cell_volume   873.98102072
_cell_formula_units_Z   1
loop_
 _symmetry_equiv_pos_site_id
 _symmetry_equiv_pos_as_xyz
  1  'x, y, z'
loop_
 _atom_site_type_symbol
 _atom_site_label
 _atom_site_symmetry_multiplicity
 _atom_site_fract_x
 _atom_site_fract_y
 _atom_site_fract_z
 _atom_site_occupancy
  Pr  Pr0  1  0.242754  0.265227  0.758678  1
  Nd  Nd1  1  0.476568  0.493090  0.234228  1
  Nd  Nd2  1  0.749898  0.241703  0.258183  1
  Nd  Nd3  1  0.749954  0.007310  0.492638  1
  Nd  Nd4  1  0.242631  0.485338  0.492589  1
  Nd  Nd5  1  0.257631  0.741244  0.234320  1
  Nd  Nd6  1  0.023406  0.265813  0.006981  1
  Nd  Nd7  1  0.008250  0.016630  0.258244  1
  Nd  Nd8  1  0.483519  0.741184  0.006963  1
  Nd  Nd9  1  0.491677  0.241689  0.483336  1
  Nd  Nd10  1  0.016391  0.493124  0.758849  1
  Nd  Nd11  1  0.257364  0.007384  0.014740  1
  Ga  Ga12  1  0.250003  0.249579  0.250402  1
  Ga  Ga13  1  0.500418  0.000847  0.250416  1
  Ga  Ga14  1  0.999061  0.249570  0.498615  1
  P  P15  1  0.249950  0.500734  0.000705  1
  Br  Br16  1  0.250004  0.754777  0.745243  1
  Br  Br17  1  0.511996  0.506724  0.756775  1
  Br  Br18  1  0.988573  0.743183  0.993874  1
  Br  Br19  1  0.745378  0.250684  0.756823  1
  Br  Br20  1  0.994561  0.989865  0.745212  1
  Br  Br21  1  0.249955  0.994053  0.504963  1
  Br  Br22  1  0.755465  0.510923  0.505462  1
  Br  Br23  1  0.505986  0.250689  0.994553  1
  Br  Br24  1  0.754606  0.743181  0.249315  1
  Br  Br25  1  0.744534  0.994543  0.989075  1
  Br  Br26  1  0.994702  0.506139  0.249307  1
  Br  Br27  1  0.504766  0.754768  0.509517  1
