# generated using pymatgen
data_RbGd6(CCl6)2
_symmetry_space_group_name_H-M   'P 1'
_cell_length_a   8.64316463
_cell_length_b   8.61686606
_cell_length_c   9.13073000
_cell_angle_alpha   71.72897043
_cell_angle_beta   70.45727704
_cell_angle_gamma   72.43645526
_symmetry_Int_Tables_number   1
_chemical_formula_structural   RbGd6(CCl6)2
_chemical_formula_sum   'Rb1 Gd6 C2 Cl12'
_cell_volume   593.63316805
_cell_formula_units_Z   1
loop_
 _symmetry_equiv_pos_site_id
 _symmetry_equiv_pos_as_xyz
  1  'x, y, z'
loop_
 _atom_site_type_symbol
 _atom_site_label
 _atom_site_symmetry_multiplicity
 _atom_site_fract_x
 _atom_site_fract_y
 _atom_site_fract_z
 _atom_site_occupancy
  Rb  Rb0  1  0.000068  0.499888  0.000242  1
  Gd  Gd1  1  0.476467  0.126998  0.169892  1
  Gd  Gd2  1  0.788944  0.034650  0.402442  1
  Gd  Gd3  1  0.599575  0.713723  0.473976  1
  Gd  Gd4  1  0.400493  0.286373  0.525984  1
  Gd  Gd5  1  0.210974  0.965316  0.597584  1
  Gd  Gd6  1  0.523609  0.872930  0.830313  1
  C  C7  1  0.493108  0.027796  0.420495  1
  C  C8  1  0.506769  0.972259  0.579701  1
  Cl  Cl9  1  0.796882  0.164900  0.085095  1
  Cl  Cl10  1  0.588530  0.790691  0.140760  1
  Cl  Cl11  1  0.350250  0.433240  0.224927  1
  Cl  Cl12  1  0.137429  0.074706  0.296385  1
  Cl  Cl13  1  0.922333  0.725365  0.352607  1
  Cl  Cl14  1  0.711614  0.367216  0.427246  1
  Cl  Cl15  1  0.288438  0.632827  0.572756  1
  Cl  Cl16  1  0.077856  0.274563  0.647409  1
  Cl  Cl17  1  0.862564  0.925397  0.703536  1
  Cl  Cl18  1  0.649490  0.566845  0.774781  1
  Cl  Cl19  1  0.411335  0.209147  0.859083  1
  Cl  Cl20  1  0.203278  0.835165  0.914786  1
