# generated using pymatgen
data_CuH4F7
_symmetry_space_group_name_H-M   'P 1'
_cell_length_a   2.96602624
_cell_length_b   3.83494064
_cell_length_c   11.43857393
_cell_angle_alpha   81.12487609
_cell_angle_beta   87.00092735
_cell_angle_gamma   84.68089485
_symmetry_Int_Tables_number   1
_chemical_formula_structural   CuH4F7
_chemical_formula_sum   'Cu1 H4 F7'
_cell_volume   127.90148774
_cell_formula_units_Z   1
loop_
 _symmetry_equiv_pos_site_id
 _symmetry_equiv_pos_as_xyz
  1  'x, y, z'
loop_
 _atom_site_type_symbol
 _atom_site_label
 _atom_site_symmetry_multiplicity
 _atom_site_fract_x
 _atom_site_fract_y
 _atom_site_fract_z
 _atom_site_occupancy
  Cu  Cu0  1  0.788346  0.989418  0.397822  1
  H  H1  1  0.280149  0.952698  0.043937  1
  H  H2  1  0.324208  0.458121  0.031544  1
  H  H3  1  0.264273  0.140860  0.744857  1
  H  H4  1  0.763186  0.625513  0.769035  1
  F  F5  1  0.469590  0.240703  0.995837  1
  F  F6  1  0.134219  0.724135  0.079793  1
  F  F7  1  0.083957  0.349501  0.707836  1
  F  F8  1  0.305748  0.040610  0.287555  1
  F  F9  1  0.272173  0.939166  0.508091  1
  F  F10  1  0.577892  0.807303  0.804876  1
  F  F11  1  0.786785  0.489428  0.397765  1
