# generated using pymatgen
data_Dy4Ho4Sc12Si15Hg
_symmetry_space_group_name_H-M   'P 1'
_cell_length_a   7.13064860
_cell_length_b   7.39154773
_cell_length_c   14.08400625
_cell_angle_alpha   89.93451009
_cell_angle_beta   89.55509803
_cell_angle_gamma   90.14632475
_symmetry_Int_Tables_number   1
_chemical_formula_structural   Dy4Ho4Sc12Si15Hg
_chemical_formula_sum   'Dy4 Ho4 Sc12 Si15 Hg1'
_cell_volume   742.29378835
_cell_formula_units_Z   1
loop_
 _symmetry_equiv_pos_site_id
 _symmetry_equiv_pos_as_xyz
  1  'x, y, z'
loop_
 _atom_site_type_symbol
 _atom_site_label
 _atom_site_symmetry_multiplicity
 _atom_site_fract_x
 _atom_site_fract_y
 _atom_site_fract_z
 _atom_site_occupancy
  Dy  Dy0  1  0.012165  0.175623  0.097214  1
  Dy  Dy1  1  0.987478  0.825332  0.904338  1
  Dy  Dy2  1  0.487357  0.676740  0.903904  1
  Dy  Dy3  1  0.988849  0.831306  0.598242  1
  Ho  Ho4  1  0.512001  0.323591  0.096480  1
  Ho  Ho5  1  0.007645  0.171200  0.398262  1
  Ho  Ho6  1  0.511684  0.322039  0.399056  1
  Ho  Ho7  1  0.496418  0.681812  0.600335  1
  Sc  Sc8  1  0.162637  0.501582  0.754248  1
  Sc  Sc9  1  0.836866  0.498133  0.250020  1
  Sc  Sc10  1  0.337333  0.001217  0.248817  1
  Sc  Sc11  1  0.664949  0.996634  0.751625  1
  Sc  Sc12  1  0.342357  0.168145  0.628908  1
  Sc  Sc13  1  0.664142  0.824526  0.373008  1
  Sc  Sc14  1  0.166587  0.677897  0.370658  1
  Sc  Sc15  1  0.669328  0.823706  0.124265  1
  Sc  Sc16  1  0.825499  0.325072  0.626289  1
  Sc  Sc17  1  0.329089  0.175153  0.876156  1
  Sc  Sc18  1  0.830226  0.322808  0.876202  1
  Sc  Sc19  1  0.168838  0.676739  0.124931  1
  Si  Si20  1  0.035551  0.120378  0.751471  1
  Si  Si21  1  0.964154  0.884074  0.247914  1
  Si  Si22  1  0.466088  0.615025  0.247872  1
  Si  Si23  1  0.533746  0.386135  0.752172  1
  Si  Si24  1  0.284914  0.871865  0.751799  1
  Si  Si25  1  0.712584  0.127990  0.247780  1
  Si  Si26  1  0.213389  0.370982  0.248119  1
  Si  Si27  1  0.788749  0.628437  0.752639  1
  Si  Si28  1  0.832313  0.538236  0.459065  1
  Si  Si29  1  0.338493  0.962449  0.459980  1
  Si  Si30  1  0.843331  0.535209  0.038906  1
  Si  Si31  1  0.660371  0.037373  0.537533  1
  Si  Si32  1  0.156389  0.464165  0.962162  1
  Si  Si33  1  0.656173  0.034922  0.960592  1
  Si  Si34  1  0.342781  0.965091  0.039826  1
  Hg  Hg35  1  0.169528  0.458411  0.539213  1
