# generated using pymatgen
data_CaTm3As6Rh7
_symmetry_space_group_name_H-M   'P 1'
_cell_length_a   7.26670558
_cell_length_b   7.26670544
_cell_length_c   7.25322400
_cell_angle_alpha   109.43364051
_cell_angle_beta   109.43364012
_cell_angle_gamma   109.50877143
_symmetry_Int_Tables_number   1
_chemical_formula_structural   CaTm3As6Rh7
_chemical_formula_sum   'Ca1 Tm3 As6 Rh7'
_cell_volume   294.97523073
_cell_formula_units_Z   1
loop_
 _symmetry_equiv_pos_site_id
 _symmetry_equiv_pos_as_xyz
  1  'x, y, z'
loop_
 _atom_site_type_symbol
 _atom_site_label
 _atom_site_symmetry_multiplicity
 _atom_site_fract_x
 _atom_site_fract_y
 _atom_site_fract_z
 _atom_site_occupancy
  Ca  Ca0  1  0.000000  0.000000  0.500000  1
  Tm  Tm1  1  0.500000  0.500000  0.500000  1
  Tm  Tm2  1  0.000000  0.500000  0.000000  1
  Tm  Tm3  1  0.500000  0.000000  0.000000  1
  As  As4  1  0.681067  0.000000  0.680954  1
  As  As5  1  0.681067  0.681067  0.000113  1
  As  As6  1  0.318933  0.318933  0.999887  1
  As  As7  1  0.000000  0.681067  0.680954  1
  As  As8  1  0.000000  0.318933  0.319046  1
  As  As9  1  0.318933  0.000000  0.319046  1
  Rh  Rh10  1  0.494358  0.747179  0.247179  1
  Rh  Rh11  1  0.747179  0.252821  0.500000  1
  Rh  Rh12  1  0.252821  0.747179  0.500000  1
  Rh  Rh13  1  0.252821  0.505642  0.752821  1
  Rh  Rh14  1  0.000000  0.000000  0.000000  1
  Rh  Rh15  1  0.505642  0.252821  0.752821  1
  Rh  Rh16  1  0.747179  0.494358  0.247179  1
