# generated using pymatgen
data_Ho6Tm4BiPb5
_symmetry_space_group_name_H-M   'P 1'
_cell_length_a   6.50145200
_cell_length_b   9.01911324
_cell_length_c   9.00841088
_cell_angle_alpha   120.03930832
_cell_angle_beta   90.00024187
_cell_angle_gamma   89.99949653
_symmetry_Int_Tables_number   1
_chemical_formula_structural   Ho6Tm4BiPb5
_chemical_formula_sum   'Ho6 Tm4 Bi1 Pb5'
_cell_volume   457.27858116
_cell_formula_units_Z   1
loop_
 _symmetry_equiv_pos_site_id
 _symmetry_equiv_pos_as_xyz
  1  'x, y, z'
loop_
 _atom_site_type_symbol
 _atom_site_label
 _atom_site_symmetry_multiplicity
 _atom_site_fract_x
 _atom_site_fract_y
 _atom_site_fract_z
 _atom_site_occupancy
  Ho  Ho0  1  0.749991  0.235987  0.000000  1
  Ho  Ho1  1  0.750001  0.763985  0.759996  1
  Ho  Ho2  1  0.750001  0.003989  0.240004  1
  Ho  Ho3  1  0.250007  0.762277  0.000000  1
  Ho  Ho4  1  0.250003  0.237307  0.238151  1
  Ho  Ho5  1  0.250003  0.999156  0.761849  1
  Tm  Tm6  1  0.500144  0.331268  0.664217  1
  Tm  Tm7  1  0.500144  0.667052  0.335783  1
  Tm  Tm8  1  0.999859  0.667069  0.335801  1
  Tm  Tm9  1  0.999859  0.331268  0.664199  1
  Bi  Bi10  1  0.749999  0.606279  0.000000  1
  Pb  Pb11  1  0.750005  0.396286  0.395791  1
  Pb  Pb12  1  0.750005  0.000495  0.604209  1
  Pb  Pb13  1  0.249977  0.394524  0.000000  1
  Pb  Pb14  1  0.250000  0.604535  0.606012  1
  Pb  Pb15  1  0.250000  0.998523  0.393988  1
