# generated using pymatgen
data_AcMgAg5
_symmetry_space_group_name_H-M   'P 1'
_cell_length_a   5.90986035
_cell_length_b   5.90986200
_cell_length_c   5.90986161
_cell_angle_alpha   103.08740360
_cell_angle_beta   103.08741418
_cell_angle_gamma   123.17003168
_symmetry_Int_Tables_number   1
_chemical_formula_structural   AcMgAg5
_chemical_formula_sum   'Ac1 Mg1 Ag5'
_cell_volume   151.96072254
_cell_formula_units_Z   1
loop_
 _symmetry_equiv_pos_site_id
 _symmetry_equiv_pos_as_xyz
  1  'x, y, z'
loop_
 _atom_site_type_symbol
 _atom_site_label
 _atom_site_symmetry_multiplicity
 _atom_site_fract_x
 _atom_site_fract_y
 _atom_site_fract_z
 _atom_site_occupancy
  Ac  Ac0  1  0.000000  0.000000  0.000000  1
  Mg  Mg1  1  0.750000  0.250000  0.500000  1
  Ag  Ag2  1  0.692696  0.307304  0.000000  1
  Ag  Ag3  1  0.307304  0.692696  0.000000  1
  Ag  Ag4  1  0.307304  0.307304  0.614611  1
  Ag  Ag5  1  0.692696  0.692696  0.385389  1
  Ag  Ag6  1  0.250000  0.750000  0.500000  1
