# generated using pymatgen
data_CsRbSr4(ReN4)2
_symmetry_space_group_name_H-M   'P 1'
_cell_length_a   6.24152100
_cell_length_b   6.47309988
_cell_length_c   8.35851388
_cell_angle_alpha   81.07641011
_cell_angle_beta   90.00000000
_cell_angle_gamma   90.00000000
_symmetry_Int_Tables_number   1
_chemical_formula_structural   CsRbSr4(ReN4)2
_chemical_formula_sum   'Cs1 Rb1 Sr4 Re2 N8'
_cell_volume   333.61308515
_cell_formula_units_Z   1
loop_
 _symmetry_equiv_pos_site_id
 _symmetry_equiv_pos_as_xyz
  1  'x, y, z'
loop_
 _atom_site_type_symbol
 _atom_site_label
 _atom_site_symmetry_multiplicity
 _atom_site_fract_x
 _atom_site_fract_y
 _atom_site_fract_z
 _atom_site_occupancy
  Cs  Cs0  1  0.250000  0.838901  0.670672  1
  Rb  Rb1  1  0.750000  0.159737  0.322062  1
  Sr  Sr2  1  0.250000  0.243740  0.950528  1
  Sr  Sr3  1  0.750000  0.756603  0.051944  1
  Sr  Sr4  1  0.750000  0.634879  0.545407  1
  Sr  Sr5  1  0.250000  0.364742  0.454244  1
  Re  Re6  1  0.250000  0.822185  0.226642  1
  Re  Re7  1  0.750000  0.178482  0.774892  1
  N  N8  1  0.511906  0.326511  0.688790  1
  N  N9  1  0.011547  0.672261  0.310831  1
  N  N10  1  0.488453  0.672261  0.310831  1
  N  N11  1  0.988094  0.326511  0.688790  1
  N  N12  1  0.750000  0.908650  0.731933  1
  N  N13  1  0.250000  0.091897  0.270248  1
  N  N14  1  0.750000  0.160906  0.994393  1
  N  N15  1  0.250000  0.841734  0.007789  1
