# generated using pymatgen
data_LaDySi4OsPt3
_symmetry_space_group_name_H-M   'P 1'
_cell_length_a   4.20201000
_cell_length_b   4.21028900
_cell_length_c   9.97399400
_cell_angle_alpha   90.00000000
_cell_angle_beta   90.00000000
_cell_angle_gamma   90.00000000
_symmetry_Int_Tables_number   1
_chemical_formula_structural   LaDySi4OsPt3
_chemical_formula_sum   'La1 Dy1 Si4 Os1 Pt3'
_cell_volume   176.45667507
_cell_formula_units_Z   1
loop_
 _symmetry_equiv_pos_site_id
 _symmetry_equiv_pos_as_xyz
  1  'x, y, z'
loop_
 _atom_site_type_symbol
 _atom_site_label
 _atom_site_symmetry_multiplicity
 _atom_site_fract_x
 _atom_site_fract_y
 _atom_site_fract_z
 _atom_site_occupancy
  La  La0  1  0.500000  0.000000  0.745763  1
  Dy  Dy1  1  0.000000  0.500000  0.253984  1
  Si  Si2  1  0.000000  0.000000  0.496035  1
  Si  Si3  1  0.500000  0.500000  0.495707  1
  Si  Si4  1  0.000000  0.500000  0.873534  1
  Si  Si5  1  0.500000  0.000000  0.131752  1
  Os  Os6  1  0.000000  0.000000  0.004467  1
  Pt  Pt7  1  0.500000  0.500000  0.004544  1
  Pt  Pt8  1  0.000000  0.500000  0.621230  1
  Pt  Pt9  1  0.500000  0.000000  0.372985  1
