# generated using pymatgen
data_Hf4Al18Ir5Ru
_symmetry_space_group_name_H-M   'P 1'
_cell_length_a   7.46859120
_cell_length_b   7.46859064
_cell_length_c   9.23764884
_cell_angle_alpha   90.02453071
_cell_angle_beta   90.02453237
_cell_angle_gamma   119.84121408
_symmetry_Int_Tables_number   1
_chemical_formula_structural   Hf4Al18Ir5Ru
_chemical_formula_sum   'Hf4 Al18 Ir5 Ru1'
_cell_volume   446.95307646
_cell_formula_units_Z   1
loop_
 _symmetry_equiv_pos_site_id
 _symmetry_equiv_pos_as_xyz
  1  'x, y, z'
loop_
 _atom_site_type_symbol
 _atom_site_label
 _atom_site_symmetry_multiplicity
 _atom_site_fract_x
 _atom_site_fract_y
 _atom_site_fract_z
 _atom_site_occupancy
  Hf  Hf0  1  0.993967  0.671229  0.249551  1
  Hf  Hf1  1  0.005511  0.328417  0.750339  1
  Hf  Hf2  1  0.671583  0.994489  0.249661  1
  Hf  Hf3  1  0.328771  0.006033  0.750449  1
  Al  Al4  1  0.124302  0.124745  0.249962  1
  Al  Al5  1  0.875255  0.875698  0.750038  1
  Al  Al6  1  0.996019  0.334720  0.077217  1
  Al  Al7  1  0.999679  0.663129  0.922845  1
  Al  Al8  1  0.001964  0.665808  0.577723  1
  Al  Al9  1  0.334192  0.998036  0.422277  1
  Al  Al10  1  0.997909  0.334606  0.422423  1
  Al  Al11  1  0.665394  0.002091  0.577577  1
  Al  Al12  1  0.665280  0.003981  0.922783  1
  Al  Al13  1  0.336871  0.000321  0.077155  1
  Al  Al14  1  0.331888  0.332068  0.559695  1
  Al  Al15  1  0.667932  0.668112  0.440305  1
  Al  Al16  1  0.668294  0.665666  0.058762  1
  Al  Al17  1  0.334334  0.331706  0.941238  1
  Al  Al18  1  0.338528  0.552128  0.249817  1
  Al  Al19  1  0.661169  0.446024  0.751872  1
  Al  Al20  1  0.553976  0.338831  0.248128  1
  Al  Al21  1  0.447872  0.661472  0.750183  1
  Ir  Ir22  1  0.326830  0.673170  0.000000  1
  Ir  Ir23  1  0.326898  0.673102  0.500000  1
  Ir  Ir24  1  0.672698  0.327302  0.500000  1
  Ir  Ir25  1  0.999981  0.000019  0.000000  1
  Ir  Ir26  1  0.999802  0.000198  0.500000  1
  Ru  Ru27  1  0.673099  0.326901  0.000000  1
