# generated using pymatgen
data_Zr6Co20Si4P9
_symmetry_space_group_name_H-M   'P 1'
_cell_length_a   12.42425526
_cell_length_b   12.47385389
_cell_length_c   3.62559400
_cell_angle_alpha   90.00000000
_cell_angle_beta   90.00000000
_cell_angle_gamma   119.99379753
_symmetry_Int_Tables_number   1
_chemical_formula_structural   Zr6Co20Si4P9
_chemical_formula_sum   'Zr6 Co20 Si4 P9'
_cell_volume   486.64017489
_cell_formula_units_Z   1
loop_
 _symmetry_equiv_pos_site_id
 _symmetry_equiv_pos_as_xyz
  1  'x, y, z'
loop_
 _atom_site_type_symbol
 _atom_site_label
 _atom_site_symmetry_multiplicity
 _atom_site_fract_x
 _atom_site_fract_y
 _atom_site_fract_z
 _atom_site_occupancy
  Zr  Zr0  1  0.808631  0.283685  0.500000  1
  Zr  Zr1  1  0.716295  0.524026  0.500000  1
  Zr  Zr2  1  0.475485  0.192586  0.500000  1
  Zr  Zr3  1  0.193410  0.716937  0.000000  1
  Zr  Zr4  1  0.283813  0.477715  0.000000  1
  Zr  Zr5  1  0.525445  0.807913  0.000000  1
  Co  Co6  1  0.420711  0.978713  0.000000  1
  Co  Co7  1  0.020068  0.439980  0.000000  1
  Co  Co8  1  0.585153  0.020734  0.500000  1
  Co  Co9  1  0.559781  0.581260  0.000000  1
  Co  Co10  1  0.980773  0.562806  0.500000  1
  Co  Co11  1  0.922394  0.083798  0.500000  1
  Co  Co12  1  0.156157  0.071461  0.500000  1
  Co  Co13  1  0.917328  0.838463  0.500000  1
  Co  Co14  1  0.093771  0.888116  0.000000  1
  Co  Co15  1  0.796447  0.906819  0.000000  1
  Co  Co16  1  0.102467  0.201951  0.000000  1
  Co  Co17  1  0.333864  0.667282  0.500000  1
  Co  Co18  1  0.666731  0.332907  0.000000  1
  Co  Co19  1  0.674719  0.749191  0.500000  1
  Co  Co20  1  0.251931  0.924767  0.500000  1
  Co  Co21  1  0.926218  0.673504  0.000000  1
  Co  Co22  1  0.324289  0.250169  0.000000  1
  Co  Co23  1  0.754667  0.079668  0.000000  1
  Co  Co24  1  0.440638  0.419067  0.500000  1
  Co  Co25  1  0.066421  0.324288  0.500000  1
  Si  Si26  1  0.000436  0.998613  0.000000  1
  Si  Si27  1  0.230092  0.283182  0.500000  1
  Si  Si28  1  0.770612  0.716693  0.000000  1
  Si  Si29  1  0.283270  0.053223  0.000000  1
  P  P30  1  0.716785  0.947877  0.500000  1
  P  P31  1  0.052842  0.767563  0.500000  1
  P  P32  1  0.474952  0.613282  0.500000  1
  P  P33  1  0.388020  0.861464  0.500000  1
  P  P34  1  0.859613  0.474359  0.000000  1
  P  P35  1  0.524892  0.385642  0.000000  1
  P  P36  1  0.614456  0.139930  0.000000  1
  P  P37  1  0.946868  0.234465  0.000000  1
  P  P38  1  0.139553  0.525903  0.500000  1
