# generated using pymatgen
data_Rb2Tb2Zr3Se10
_symmetry_space_group_name_H-M   'P 1'
_cell_length_a   6.79625406
_cell_length_b   11.47529482
_cell_length_c   9.15833000
_cell_angle_alpha   59.72757630
_cell_angle_beta   68.37486335
_cell_angle_gamma   90.07202710
_symmetry_Int_Tables_number   1
_chemical_formula_structural   Rb2Tb2Zr3Se10
_chemical_formula_sum   'Rb2 Tb2 Zr3 Se10'
_cell_volume   557.65721759
_cell_formula_units_Z   1
loop_
 _symmetry_equiv_pos_site_id
 _symmetry_equiv_pos_as_xyz
  1  'x, y, z'
loop_
 _atom_site_type_symbol
 _atom_site_label
 _atom_site_symmetry_multiplicity
 _atom_site_fract_x
 _atom_site_fract_y
 _atom_site_fract_z
 _atom_site_occupancy
  Rb  Rb0  1  0.784655  0.073822  0.427215  1
  Rb  Rb1  1  0.010606  0.525682  0.974903  1
  Tb  Tb2  1  0.799042  0.601744  0.403813  1
  Tb  Tb3  1  0.203371  0.397903  0.592912  1
  Zr  Zr4  1  0.398996  0.797767  0.200580  1
  Zr  Zr5  1  0.599706  0.201869  0.805601  1
  Zr  Zr6  1  0.000006  0.999159  0.997753  1
  Se  Se7  1  0.006775  0.847555  0.340108  1
  Se  Se8  1  0.594699  0.035855  0.149236  1
  Se  Se9  1  0.190706  0.229505  0.961059  1
  Se  Se10  1  0.773048  0.426236  0.770384  1
  Se  Se11  1  0.383257  0.650295  0.541936  1
  Se  Se12  1  0.402258  0.964440  0.854443  1
  Se  Se13  1  0.995332  0.150483  0.659571  1
  Se  Se14  1  0.622164  0.349013  0.455030  1
  Se  Se15  1  0.229253  0.574792  0.227736  1
  Se  Se16  1  0.806125  0.773882  0.037718  1
