# generated using pymatgen
data_PrNdAlZn16
_symmetry_space_group_name_H-M   'P 1'
_cell_length_a   6.87747556
_cell_length_b   6.87747436
_cell_length_c   6.87747500
_cell_angle_alpha   82.81310759
_cell_angle_beta   82.81310693
_cell_angle_gamma   82.81310703
_symmetry_Int_Tables_number   1
_chemical_formula_structural   PrNdAlZn16
_chemical_formula_sum   'Pr1 Nd1 Al1 Zn16'
_cell_volume   318.22499275
_cell_formula_units_Z   1
loop_
 _symmetry_equiv_pos_site_id
 _symmetry_equiv_pos_as_xyz
  1  'x, y, z'
loop_
 _atom_site_type_symbol
 _atom_site_label
 _atom_site_symmetry_multiplicity
 _atom_site_fract_x
 _atom_site_fract_y
 _atom_site_fract_z
 _atom_site_occupancy
  Pr  Pr0  1  0.335456  0.335456  0.335456  1
  Nd  Nd1  1  0.664989  0.664989  0.664989  1
  Al  Al2  1  0.097731  0.097731  0.097731  1
  Zn  Zn3  1  0.705972  0.294321  0.999721  1
  Zn  Zn4  1  0.999721  0.705972  0.294321  1
  Zn  Zn5  1  0.294321  0.999721  0.705972  1
  Zn  Zn6  1  0.999721  0.294321  0.705972  1
  Zn  Zn7  1  0.705972  0.999721  0.294321  1
  Zn  Zn8  1  0.294321  0.705972  0.999721  1
  Zn  Zn9  1  0.999110  0.999110  0.502286  1
  Zn  Zn10  1  0.502286  0.999110  0.999110  1
  Zn  Zn11  1  0.999110  0.502286  0.999110  1
  Zn  Zn12  1  0.350125  0.350125  0.840428  1
  Zn  Zn13  1  0.840428  0.350125  0.350125  1
  Zn  Zn14  1  0.350125  0.840428  0.350125  1
  Zn  Zn15  1  0.651090  0.651090  0.159401  1
  Zn  Zn16  1  0.159401  0.651090  0.651090  1
  Zn  Zn17  1  0.651090  0.159401  0.651090  1
  Zn  Zn18  1  0.899031  0.899031  0.899031  1
