# generated using pymatgen
data_Tb3YAs3S
_symmetry_space_group_name_H-M   'P 1'
_cell_length_a   7.07151173
_cell_length_b   7.07151012
_cell_length_c   7.08313651
_cell_angle_alpha   80.30971433
_cell_angle_beta   80.30972362
_cell_angle_gamma   33.70478926
_symmetry_Int_Tables_number   1
_chemical_formula_structural   Tb3YAs3S
_chemical_formula_sum   'Tb3 Y1 As3 S1'
_cell_volume   193.48745433
_cell_formula_units_Z   1
loop_
 _symmetry_equiv_pos_site_id
 _symmetry_equiv_pos_as_xyz
  1  'x, y, z'
loop_
 _atom_site_type_symbol
 _atom_site_label
 _atom_site_symmetry_multiplicity
 _atom_site_fract_x
 _atom_site_fract_y
 _atom_site_fract_z
 _atom_site_occupancy
  Tb  Tb0  1  0.249135  0.249135  0.249401  1
  Tb  Tb1  1  0.499945  0.499945  0.500865  1
  Tb  Tb2  1  0.750527  0.750527  0.749938  1
  Y  Y3  1  0.000228  0.000228  0.999704  1
  As  As4  1  0.624067  0.624067  0.122537  1
  As  As5  1  0.874802  0.874802  0.374044  1
  As  As6  1  0.125724  0.125724  0.627614  1
  S  S7  1  0.375571  0.375571  0.875898  1
