# generated using pymatgen
data_Dy5TcRuO12
_symmetry_space_group_name_H-M   'P 1'
_cell_length_a   6.84834045
_cell_length_b   6.84834001
_cell_length_c   7.50567806
_cell_angle_alpha   73.87302649
_cell_angle_beta   73.87302844
_cell_angle_gamma   48.94622105
_symmetry_Int_Tables_number   1
_chemical_formula_structural   Dy5TcRuO12
_chemical_formula_sum   'Dy5 Tc1 Ru1 O12'
_cell_volume   252.78786803
_cell_formula_units_Z   1
loop_
 _symmetry_equiv_pos_site_id
 _symmetry_equiv_pos_as_xyz
  1  'x, y, z'
loop_
 _atom_site_type_symbol
 _atom_site_label
 _atom_site_symmetry_multiplicity
 _atom_site_fract_x
 _atom_site_fract_y
 _atom_site_fract_z
 _atom_site_occupancy
  Dy  Dy0  1  0.312551  0.294242  0.357557  1
  Dy  Dy1  1  0.705758  0.687449  0.642443  1
  Dy  Dy2  1  0.317986  0.309761  0.826869  1
  Dy  Dy3  1  0.690239  0.682014  0.173131  1
  Dy  Dy4  1  0.007780  0.992220  0.500000  1
  Tc  Tc5  1  0.205744  0.794256  0.000000  1
  Ru  Ru6  1  0.770278  0.229722  0.000000  1
  O  O7  1  0.911954  0.425870  0.915631  1
  O  O8  1  0.411608  0.910879  0.916369  1
  O  O9  1  0.089121  0.588392  0.083631  1
  O  O10  1  0.574130  0.088046  0.084369  1
  O  O11  1  0.106492  0.590091  0.571251  1
  O  O12  1  0.600566  0.089610  0.575764  1
  O  O13  1  0.910390  0.399434  0.424236  1
  O  O14  1  0.409909  0.893508  0.428749  1
  O  O15  1  0.994237  0.003923  0.797753  1
  O  O16  1  0.996077  0.005763  0.202247  1
  O  O17  1  0.493640  0.508462  0.823724  1
  O  O18  1  0.491538  0.506360  0.176276  1
