# generated using pymatgen
data_Pu7O12
_symmetry_space_group_name_H-M   'P 1'
_cell_length_a   6.67227160
_cell_length_b   6.67227154
_cell_length_c   6.67227211
_cell_angle_alpha   99.58422946
_cell_angle_beta   99.58422309
_cell_angle_gamma   99.58423876
_symmetry_Int_Tables_number   1
_chemical_formula_structural   Pu7O12
_chemical_formula_sum   'Pu7 O12'
_cell_volume   282.98901247
_cell_formula_units_Z   1
loop_
 _symmetry_equiv_pos_site_id
 _symmetry_equiv_pos_as_xyz
  1  'x, y, z'
loop_
 _atom_site_type_symbol
 _atom_site_label
 _atom_site_symmetry_multiplicity
 _atom_site_fract_x
 _atom_site_fract_y
 _atom_site_fract_z
 _atom_site_occupancy
  Pu  Pu0  1  0.862651  0.701701  0.402547  1
  Pu  Pu1  1  0.402547  0.862651  0.701701  1
  Pu  Pu2  1  0.701701  0.402547  0.862651  1
  Pu  Pu3  1  0.137349  0.298299  0.597453  1
  Pu  Pu4  1  0.597453  0.137349  0.298299  1
  Pu  Pu5  1  0.298299  0.597453  0.137349  1
  Pu  Pu6  1  0.000000  0.000000  0.000000  1
  O  O7  1  0.067538  0.936182  0.679443  1
  O  O8  1  0.679443  0.067538  0.936182  1
  O  O9  1  0.936182  0.679443  0.067538  1
  O  O10  1  0.932462  0.063818  0.320557  1
  O  O11  1  0.320557  0.932462  0.063818  1
  O  O12  1  0.063818  0.320557  0.932462  1
  O  O13  1  0.565337  0.823700  0.412741  1
  O  O14  1  0.176300  0.587259  0.434663  1
  O  O15  1  0.587259  0.434663  0.176300  1
  O  O16  1  0.434663  0.176300  0.587259  1
  O  O17  1  0.823700  0.412741  0.565337  1
  O  O18  1  0.412741  0.565337  0.823700  1
