# generated using pymatgen
data_Cs2Na2Zr6CoBr18
_symmetry_space_group_name_H-M   'P 1'
_cell_length_a   10.63575500
_cell_length_b   10.67421301
_cell_length_c   10.77503104
_cell_angle_alpha   119.31619840
_cell_angle_beta   102.02189080
_cell_angle_gamma   100.49888542
_symmetry_Int_Tables_number   1
_chemical_formula_structural   Cs2Na2Zr6CoBr18
_chemical_formula_sum   'Cs2 Na2 Zr6 Co1 Br18'
_cell_volume   983.58304055
_cell_formula_units_Z   1
loop_
 _symmetry_equiv_pos_site_id
 _symmetry_equiv_pos_as_xyz
  1  'x, y, z'
loop_
 _atom_site_type_symbol
 _atom_site_label
 _atom_site_symmetry_multiplicity
 _atom_site_fract_x
 _atom_site_fract_y
 _atom_site_fract_z
 _atom_site_occupancy
  Cs  Cs0  1  0.683675  0.225689  0.542262  1
  Cs  Cs1  1  0.316325  0.774311  0.457738  1
  Na  Na2  1  0.617918  0.529049  0.197760  1
  Na  Na3  1  0.382082  0.470951  0.802240  1
  Zr  Zr4  1  0.150449  0.077803  0.254510  1
  Zr  Zr5  1  0.849551  0.922197  0.745490  1
  Zr  Zr6  1  0.860838  0.152743  0.124774  1
  Zr  Zr7  1  0.139162  0.847257  0.875226  1
  Zr  Zr8  1  0.147813  0.229401  0.028869  1
  Zr  Zr9  1  0.852187  0.770599  0.971131  1
  Co  Co10  1  0.000000  0.000000  0.000000  1
  Br  Br11  1  0.007299  0.415766  0.161151  1
  Br  Br12  1  0.992701  0.584234  0.838849  1
  Br  Br13  1  0.325771  0.335506  0.308529  1
  Br  Br14  1  0.674229  0.664494  0.691471  1
  Br  Br15  1  0.327352  0.490962  0.067181  1
  Br  Br16  1  0.672648  0.509038  0.932819  1
  Br  Br17  1  0.002788  0.833710  0.246219  1
  Br  Br18  1  0.997212  0.166290  0.753781  1
  Br  Br19  1  0.704106  0.321600  0.263765  1
  Br  Br20  1  0.295894  0.678400  0.736235  1
  Br  Br21  1  0.312162  0.084251  0.895121  1
  Br  Br22  1  0.687838  0.915749  0.104879  1
  Br  Br23  1  0.010685  0.246618  0.412774  1
  Br  Br24  1  0.989315  0.753382  0.587226  1
  Br  Br25  1  0.317909  0.921522  0.143276  1
  Br  Br26  1  0.682091  0.078478  0.856724  1
  Br  Br27  1  0.327333  0.163724  0.540666  1
  Br  Br28  1  0.672667  0.836276  0.459334  1
