# generated using pymatgen
data_SrPrCuPd9
_symmetry_space_group_name_H-M   'P 1'
_cell_length_a   4.45366800
_cell_length_b   5.47116800
_cell_length_c   9.16672300
_cell_angle_alpha   90.00000000
_cell_angle_beta   90.00000000
_cell_angle_gamma   90.00000000
_symmetry_Int_Tables_number   1
_chemical_formula_structural   SrPrCuPd9
_chemical_formula_sum   'Sr1 Pr1 Cu1 Pd9'
_cell_volume   223.36339290
_cell_formula_units_Z   1
loop_
 _symmetry_equiv_pos_site_id
 _symmetry_equiv_pos_as_xyz
  1  'x, y, z'
loop_
 _atom_site_type_symbol
 _atom_site_label
 _atom_site_symmetry_multiplicity
 _atom_site_fract_x
 _atom_site_fract_y
 _atom_site_fract_z
 _atom_site_occupancy
  Sr  Sr0  1  0.000000  0.999938  0.000000  1
  Pr  Pr1  1  0.000000  0.500066  0.500000  1
  Cu  Cu2  1  0.500000  0.999669  0.500000  1
  Pd  Pd3  1  0.000000  0.000065  0.344306  1
  Pd  Pd4  1  0.000000  0.499987  0.826134  1
  Pd  Pd5  1  0.000000  0.499987  0.173866  1
  Pd  Pd6  1  0.000000  0.000065  0.655694  1
  Pd  Pd7  1  0.500000  0.500072  0.000000  1
  Pd  Pd8  1  0.500000  0.252570  0.263196  1
  Pd  Pd9  1  0.500000  0.747407  0.736840  1
  Pd  Pd10  1  0.500000  0.747407  0.263160  1
  Pd  Pd11  1  0.500000  0.252570  0.736804  1
