# generated using pymatgen
data_PrEr3Ir3RhO14
_symmetry_space_group_name_H-M   'P 1'
_cell_length_a   7.30811959
_cell_length_b   7.22722772
_cell_length_c   7.22177200
_cell_angle_alpha   60.02496824
_cell_angle_beta   60.39008316
_cell_angle_gamma   60.29213600
_symmetry_Int_Tables_number   1
_chemical_formula_structural   PrEr3Ir3RhO14
_chemical_formula_sum   'Pr1 Er3 Ir3 Rh1 O14'
_cell_volume   271.14916541
_cell_formula_units_Z   1
loop_
 _symmetry_equiv_pos_site_id
 _symmetry_equiv_pos_as_xyz
  1  'x, y, z'
loop_
 _atom_site_type_symbol
 _atom_site_label
 _atom_site_symmetry_multiplicity
 _atom_site_fract_x
 _atom_site_fract_y
 _atom_site_fract_z
 _atom_site_occupancy
  Pr  Pr0  1  0.625000  0.125000  0.125000  1
  Er  Er1  1  0.125000  0.125000  0.625000  1
  Er  Er2  1  0.125000  0.125000  0.125000  1
  Er  Er3  1  0.125000  0.625000  0.125000  1
  Ir  Ir4  1  0.625000  0.625000  0.625000  1
  Ir  Ir5  1  0.125000  0.625000  0.625000  1
  Ir  Ir6  1  0.625000  0.625000  0.125000  1
  Rh  Rh7  1  0.625000  0.125000  0.625000  1
  O  O8  1  0.960842  0.544022  0.535719  1
  O  O9  1  0.283183  0.289669  0.713574  1
  O  O10  1  0.960842  0.544022  0.959417  1
  O  O11  1  0.725200  0.289335  0.283733  1
  O  O12  1  0.525991  0.554917  0.959546  1
  O  O13  1  0.524800  0.960665  0.548268  1
  O  O14  1  0.524800  0.960665  0.966267  1
  O  O15  1  0.236253  0.255879  0.253934  1
  O  O16  1  0.289158  0.705978  0.714281  1
  O  O17  1  0.725200  0.289335  0.701732  1
  O  O18  1  0.013747  0.994121  0.996066  1
  O  O19  1  0.966817  0.960331  0.536426  1
  O  O20  1  0.289158  0.705978  0.290583  1
  O  O21  1  0.724009  0.695083  0.290454  1
