# generated using pymatgen
data_Yb4Y4BiPd24
_symmetry_space_group_name_H-M   'P 1'
_cell_length_a   8.39008000
_cell_length_b   8.39008000
_cell_length_c   8.39008000
_cell_angle_alpha   90.00000000
_cell_angle_beta   90.00000000
_cell_angle_gamma   90.00000000
_symmetry_Int_Tables_number   1
_chemical_formula_structural   Yb4Y4BiPd24
_chemical_formula_sum   'Yb4 Y4 Bi1 Pd24'
_cell_volume   590.60661327
_cell_formula_units_Z   1
loop_
 _symmetry_equiv_pos_site_id
 _symmetry_equiv_pos_as_xyz
  1  'x, y, z'
loop_
 _atom_site_type_symbol
 _atom_site_label
 _atom_site_symmetry_multiplicity
 _atom_site_fract_x
 _atom_site_fract_y
 _atom_site_fract_z
 _atom_site_occupancy
  Yb  Yb0  1  0.746657  0.252856  0.252856  1
  Yb  Yb1  1  0.252856  0.252856  0.746657  1
  Yb  Yb2  1  0.252856  0.746657  0.252856  1
  Yb  Yb3  1  0.253345  0.253345  0.253345  1
  Y  Y4  1  0.746313  0.746313  0.253163  1
  Y  Y5  1  0.746313  0.253163  0.746313  1
  Y  Y6  1  0.253163  0.746313  0.746313  1
  Y  Y7  1  0.746288  0.746288  0.746288  1
  Bi  Bi8  1  0.001605  0.001605  0.001605  1
  Pd  Pd9  1  0.000862  0.000862  0.319056  1
  Pd  Pd10  1  0.732251  0.999699  0.499774  1
  Pd  Pd11  1  0.732251  0.499774  0.999699  1
  Pd  Pd12  1  0.499774  0.999699  0.732251  1
  Pd  Pd13  1  0.999699  0.732251  0.499774  1
  Pd  Pd14  1  0.500024  0.999527  0.268351  1
  Pd  Pd15  1  0.999527  0.268351  0.500024  1
  Pd  Pd16  1  0.499774  0.732251  0.999699  1
  Pd  Pd17  1  0.255024  0.499712  0.499712  1
  Pd  Pd18  1  0.499529  0.499529  0.743763  1
  Pd  Pd19  1  0.499712  0.499712  0.255024  1
  Pd  Pd20  1  0.499712  0.255024  0.499712  1
  Pd  Pd21  1  0.499529  0.743763  0.499529  1
  Pd  Pd22  1  0.743763  0.499529  0.499529  1
  Pd  Pd23  1  0.319056  0.000862  0.000862  1
  Pd  Pd24  1  0.000444  0.000444  0.682414  1
  Pd  Pd25  1  0.999527  0.500024  0.268351  1
  Pd  Pd26  1  0.000862  0.319056  0.000862  1
  Pd  Pd27  1  0.000444  0.682414  0.000444  1
  Pd  Pd28  1  0.682414  0.000444  0.000444  1
  Pd  Pd29  1  0.268351  0.500024  0.999527  1
  Pd  Pd30  1  0.268351  0.999527  0.500024  1
  Pd  Pd31  1  0.999699  0.499774  0.732251  1
  Pd  Pd32  1  0.500024  0.268351  0.999527  1
