# generated using pymatgen
data_PrEuPt4
_symmetry_space_group_name_H-M   'P 1'
_cell_length_a   5.53268992
_cell_length_b   5.53268879
_cell_length_c   5.53268900
_cell_angle_alpha   59.99999278
_cell_angle_beta   59.99999953
_cell_angle_gamma   59.99999294
_symmetry_Int_Tables_number   1
_chemical_formula_structural   PrEuPt4
_chemical_formula_sum   'Pr1 Eu1 Pt4'
_cell_volume   119.75503598
_cell_formula_units_Z   1
loop_
 _symmetry_equiv_pos_site_id
 _symmetry_equiv_pos_as_xyz
  1  'x, y, z'
loop_
 _atom_site_type_symbol
 _atom_site_label
 _atom_site_symmetry_multiplicity
 _atom_site_fract_x
 _atom_site_fract_y
 _atom_site_fract_z
 _atom_site_occupancy
  Pr  Pr0  1  0.250000  0.250000  0.250000  1
  Eu  Eu1  1  0.000000  0.000000  0.000000  1
  Pt  Pt2  1  0.625344  0.123968  0.625344  1
  Pt  Pt3  1  0.625344  0.625344  0.123968  1
  Pt  Pt4  1  0.123968  0.625344  0.625344  1
  Pt  Pt5  1  0.625344  0.625344  0.625344  1
