# generated using pymatgen
data_Er8Si12Ni3Pt
_symmetry_space_group_name_H-M   'P 1'
_cell_length_a   7.97288300
_cell_length_b   7.97288206
_cell_length_c   7.97378000
_cell_angle_alpha   90.00000000
_cell_angle_beta   90.00000000
_cell_angle_gamma   119.99999145
_symmetry_Int_Tables_number   1
_chemical_formula_structural   Er8Si12Ni3Pt
_chemical_formula_sum   'Er8 Si12 Ni3 Pt1'
_cell_volume   438.96070933
_cell_formula_units_Z   1
loop_
 _symmetry_equiv_pos_site_id
 _symmetry_equiv_pos_as_xyz
  1  'x, y, z'
loop_
 _atom_site_type_symbol
 _atom_site_label
 _atom_site_symmetry_multiplicity
 _atom_site_fract_x
 _atom_site_fract_y
 _atom_site_fract_z
 _atom_site_occupancy
  Er  Er0  1  0.501582  0.003167  0.248481  1
  Er  Er1  1  0.501362  0.002723  0.751524  1
  Er  Er2  1  0.996833  0.498418  0.248481  1
  Er  Er3  1  0.997277  0.498638  0.751524  1
  Er  Er4  1  0.501582  0.498418  0.248481  1
  Er  Er5  1  0.501362  0.498638  0.751524  1
  Er  Er6  1  0.000000  0.000000  0.247868  1
  Er  Er7  1  0.000000  0.000000  0.752394  1
  Si  Si8  1  0.171100  0.342201  0.000158  1
  Si  Si9  1  0.829524  0.659047  0.999843  1
  Si  Si10  1  0.657799  0.828900  0.000158  1
  Si  Si11  1  0.827852  0.655703  0.500036  1
  Si  Si12  1  0.340953  0.170476  0.999843  1
  Si  Si13  1  0.163774  0.327548  0.500177  1
  Si  Si14  1  0.171100  0.828900  0.000158  1
  Si  Si15  1  0.344297  0.172148  0.500036  1
  Si  Si16  1  0.829524  0.170476  0.999843  1
  Si  Si17  1  0.672452  0.836226  0.500177  1
  Si  Si18  1  0.827852  0.172148  0.500036  1
  Si  Si19  1  0.163774  0.836226  0.500177  1
  Ni  Ni20  1  0.333333  0.666667  0.002375  1
  Ni  Ni21  1  0.666667  0.333333  0.998543  1
  Ni  Ni22  1  0.666667  0.333333  0.498374  1
  Pt  Pt23  1  0.333333  0.666667  0.499790  1
