# generated using pymatgen
data_TbSiNi3Sn
_symmetry_space_group_name_H-M   'P 1'
_cell_length_a   3.89261100
_cell_length_b   9.21358870
_cell_length_c   9.21358929
_cell_angle_alpha   60.00119183
_cell_angle_beta   90.00000000
_cell_angle_gamma   90.00000000
_symmetry_Int_Tables_number   1
_chemical_formula_structural   TbSiNi3Sn
_chemical_formula_sum   'Tb3 Si3 Ni9 Sn3'
_cell_volume   286.17686581
_cell_formula_units_Z   3
loop_
 _symmetry_equiv_pos_site_id
 _symmetry_equiv_pos_as_xyz
  1  'x, y, z'
loop_
 _atom_site_type_symbol
 _atom_site_label
 _atom_site_symmetry_multiplicity
 _atom_site_fract_x
 _atom_site_fract_y
 _atom_site_fract_z
 _atom_site_occupancy
  Tb  Tb0  1  0.500000  0.333302  0.333353  1
  Tb  Tb1  1  0.500000  0.666647  0.666698  1
  Tb  Tb2  1  0.000000  0.000005  0.999995  1
  Si  Si3  1  0.500000  0.751076  0.248924  1
  Si  Si4  1  0.500000  0.248964  0.000024  1
  Si  Si5  1  0.500000  0.999976  0.751036  1
  Ni  Ni6  1  0.000000  0.216035  0.153450  1
  Ni  Ni7  1  0.000000  0.153437  0.630536  1
  Ni  Ni8  1  0.000000  0.630497  0.216058  1
  Ni  Ni9  1  0.000000  0.846550  0.783965  1
  Ni  Ni10  1  0.000000  0.369464  0.846563  1
  Ni  Ni11  1  0.000000  0.783942  0.369503  1
  Ni  Ni12  1  0.500000  0.261718  0.738282  1
  Ni  Ni13  1  0.500000  0.738271  0.999997  1
  Ni  Ni14  1  0.500000  0.000003  0.261729  1
  Sn  Sn15  1  0.000000  0.460857  0.539143  1
  Sn  Sn16  1  0.000000  0.539171  0.000018  1
  Sn  Sn17  1  0.000000  0.999982  0.460829  1
