# generated using pymatgen
data_DyEr2(Co3P2)3
_symmetry_space_group_name_H-M   'P 1'
_cell_length_a   3.68807100
_cell_length_b   10.48912000
_cell_length_c   12.14690600
_cell_angle_alpha   90.00000000
_cell_angle_beta   90.00000000
_cell_angle_gamma   90.00000000
_symmetry_Int_Tables_number   1
_chemical_formula_structural   DyEr2(Co3P2)3
_chemical_formula_sum   'Dy2 Er4 Co18 P12'
_cell_volume   469.89843413
_cell_formula_units_Z   2
loop_
 _symmetry_equiv_pos_site_id
 _symmetry_equiv_pos_as_xyz
  1  'x, y, z'
loop_
 _atom_site_type_symbol
 _atom_site_label
 _atom_site_symmetry_multiplicity
 _atom_site_fract_x
 _atom_site_fract_y
 _atom_site_fract_z
 _atom_site_occupancy
  Dy  Dy0  1  0.750000  0.250000  0.478137  1
  Dy  Dy1  1  0.250000  0.750000  0.521863  1
  Er  Er2  1  0.250000  0.932459  0.794321  1
  Er  Er3  1  0.250000  0.567541  0.794321  1
  Er  Er4  1  0.750000  0.067541  0.205679  1
  Er  Er5  1  0.750000  0.432459  0.205679  1
  Co  Co6  1  0.250000  0.250000  0.841339  1
  Co  Co7  1  0.750000  0.750000  0.158661  1
  Co  Co8  1  0.250000  0.250000  0.296079  1
  Co  Co9  1  0.750000  0.750000  0.703921  1
  Co  Co10  1  0.750000  0.250000  0.013882  1
  Co  Co11  1  0.250000  0.750000  0.986118  1
  Co  Co12  1  0.250000  0.416752  0.005290  1
  Co  Co13  1  0.250000  0.083248  0.005290  1
  Co  Co14  1  0.750000  0.583248  0.994710  1
  Co  Co15  1  0.750000  0.916752  0.994710  1
  Co  Co16  1  0.250000  0.452748  0.569693  1
  Co  Co17  1  0.250000  0.047252  0.569693  1
  Co  Co18  1  0.750000  0.547252  0.430307  1
  Co  Co19  1  0.750000  0.952748  0.430307  1
  Co  Co20  1  0.250000  0.871102  0.289804  1
  Co  Co21  1  0.250000  0.628898  0.289804  1
  Co  Co22  1  0.750000  0.128898  0.710196  1
  Co  Co23  1  0.750000  0.371102  0.710196  1
  P  P24  1  0.250000  0.250000  0.117508  1
  P  P25  1  0.750000  0.750000  0.882492  1
  P  P26  1  0.250000  0.250000  0.656404  1
  P  P27  1  0.750000  0.750000  0.343596  1
  P  P28  1  0.250000  0.439424  0.383511  1
  P  P29  1  0.250000  0.060576  0.383511  1
  P  P30  1  0.750000  0.560576  0.616489  1
  P  P31  1  0.750000  0.939424  0.616489  1
  P  P32  1  0.250000  0.903124  0.107117  1
  P  P33  1  0.250000  0.596876  0.107117  1
  P  P34  1  0.750000  0.096876  0.892883  1
  P  P35  1  0.750000  0.403124  0.892883  1
