# generated using pymatgen
data_Tm6HfCo17As12
_symmetry_space_group_name_H-M   'P 1'
_cell_length_a   3.81457000
_cell_length_b   10.96793000
_cell_length_c   12.73259700
_cell_angle_alpha   90.00000000
_cell_angle_beta   90.00000000
_cell_angle_gamma   90.00000000
_symmetry_Int_Tables_number   1
_chemical_formula_structural   Tm6HfCo17As12
_chemical_formula_sum   'Tm6 Hf1 Co17 As12'
_cell_volume   532.70558782
_cell_formula_units_Z   1
loop_
 _symmetry_equiv_pos_site_id
 _symmetry_equiv_pos_as_xyz
  1  'x, y, z'
loop_
 _atom_site_type_symbol
 _atom_site_label
 _atom_site_symmetry_multiplicity
 _atom_site_fract_x
 _atom_site_fract_y
 _atom_site_fract_z
 _atom_site_occupancy
  Tm  Tm0  1  0.000000  0.500000  0.530251  1
  Tm  Tm1  1  0.500000  0.000000  0.474934  1
  Tm  Tm2  1  0.500000  0.823364  0.209061  1
  Tm  Tm3  1  0.500000  0.176636  0.209061  1
  Tm  Tm4  1  0.000000  0.679985  0.796519  1
  Tm  Tm5  1  0.000000  0.320015  0.796519  1
  Hf  Hf6  1  0.500000  0.500000  0.153606  1
  Co  Co7  1  0.000000  0.000000  0.840110  1
  Co  Co8  1  0.500000  0.500000  0.702892  1
  Co  Co9  1  0.000000  0.000000  0.297541  1
  Co  Co10  1  0.000000  0.500000  0.987977  1
  Co  Co11  1  0.500000  0.000000  0.012340  1
  Co  Co12  1  0.500000  0.327853  0.991908  1
  Co  Co13  1  0.500000  0.672147  0.991908  1
  Co  Co14  1  0.000000  0.162236  0.999922  1
  Co  Co15  1  0.000000  0.837764  0.999922  1
  Co  Co16  1  0.500000  0.295376  0.433474  1
  Co  Co17  1  0.500000  0.704624  0.433474  1
  Co  Co18  1  0.000000  0.201784  0.569688  1
  Co  Co19  1  0.000000  0.798216  0.569688  1
  Co  Co20  1  0.500000  0.879773  0.704036  1
  Co  Co21  1  0.500000  0.120227  0.704036  1
  Co  Co22  1  0.000000  0.622502  0.294173  1
  Co  Co23  1  0.000000  0.377498  0.294173  1
  As  As24  1  0.500000  0.500000  0.881006  1
  As  As25  1  0.000000  0.000000  0.118620  1
  As  As26  1  0.500000  0.500000  0.362270  1
  As  As27  1  0.000000  0.000000  0.650968  1
  As  As28  1  0.500000  0.313127  0.618046  1
  As  As29  1  0.500000  0.686873  0.618046  1
  As  As30  1  0.000000  0.185994  0.385248  1
  As  As31  1  0.000000  0.814006  0.385248  1
  As  As32  1  0.500000  0.849111  0.885268  1
  As  As33  1  0.500000  0.150889  0.885268  1
  As  As34  1  0.000000  0.666740  0.106401  1
  As  As35  1  0.000000  0.333260  0.106401  1
