# generated using pymatgen
data_TbNd7SiAsBr12
_symmetry_space_group_name_H-M   'P 1'
_cell_length_a   4.20505600
_cell_length_b   13.64466092
_cell_length_c   14.45772560
_cell_angle_alpha   90.32899042
_cell_angle_beta   90.00000000
_cell_angle_gamma   90.00000000
_symmetry_Int_Tables_number   1
_chemical_formula_structural   TbNd7SiAsBr12
_chemical_formula_sum   'Tb1 Nd7 Si1 As1 Br12'
_cell_volume   829.52093234
_cell_formula_units_Z   1
loop_
 _symmetry_equiv_pos_site_id
 _symmetry_equiv_pos_as_xyz
  1  'x, y, z'
loop_
 _atom_site_type_symbol
 _atom_site_label
 _atom_site_symmetry_multiplicity
 _atom_site_fract_x
 _atom_site_fract_y
 _atom_site_fract_z
 _atom_site_occupancy
  Tb  Tb0  1  0.500000  0.381890  0.841479  1
  Nd  Nd1  1  0.500000  0.119230  0.340352  1
  Nd  Nd2  1  0.500000  0.880998  0.659955  1
  Nd  Nd3  1  0.500000  0.618407  0.158667  1
  Nd  Nd4  1  0.000000  0.119214  0.579247  1
  Nd  Nd5  1  0.000000  0.881993  0.421638  1
  Nd  Nd6  1  0.000000  0.619380  0.920293  1
  Nd  Nd7  1  0.000000  0.380091  0.079010  1
  Si  Si8  1  0.500000  0.498449  0.997924  1
  As  As9  1  0.500000  0.000606  0.500479  1
  Br  Br10  1  0.500000  0.242626  0.162516  1
  Br  Br11  1  0.500000  0.756904  0.836936  1
  Br  Br12  1  0.500000  0.743742  0.338064  1
  Br  Br13  1  0.500000  0.258335  0.666357  1
  Br  Br14  1  0.000000  0.255845  0.412002  1
  Br  Br15  1  0.000000  0.744217  0.588213  1
  Br  Br16  1  0.000000  0.755132  0.088387  1
  Br  Br17  1  0.000000  0.250476  0.905697  1
  Br  Br18  1  0.000000  0.000937  0.243419  1
  Br  Br19  1  0.000000  0.999131  0.756810  1
  Br  Br20  1  0.000000  0.501555  0.256266  1
  Br  Br21  1  0.000000  0.490843  0.746289  1
