# generated using pymatgen
data_Ba3Sr(BO3)3
_symmetry_space_group_name_H-M   'P 1'
_cell_length_a   8.40166126
_cell_length_b   8.40166154
_cell_length_c   8.40166169
_cell_angle_alpha   105.56797727
_cell_angle_beta   105.56799062
_cell_angle_gamma   105.56799740
_symmetry_Int_Tables_number   1
_chemical_formula_structural   Ba3Sr(BO3)3
_chemical_formula_sum   'Ba6 Sr2 B6 O18'
_cell_volume   511.97289312
_cell_formula_units_Z   2
loop_
 _symmetry_equiv_pos_site_id
 _symmetry_equiv_pos_as_xyz
  1  'x, y, z'
loop_
 _atom_site_type_symbol
 _atom_site_label
 _atom_site_symmetry_multiplicity
 _atom_site_fract_x
 _atom_site_fract_y
 _atom_site_fract_z
 _atom_site_occupancy
  Ba  Ba0  1  0.357948  0.727130  0.848939  1
  Ba  Ba1  1  0.848939  0.357948  0.727130  1
  Ba  Ba2  1  0.727130  0.848939  0.357948  1
  Ba  Ba3  1  0.642052  0.272870  0.151061  1
  Ba  Ba4  1  0.151061  0.642052  0.272870  1
  Ba  Ba5  1  0.272870  0.151061  0.642052  1
  Sr  Sr6  1  0.500000  0.500000  0.500000  1
  Sr  Sr7  1  0.000000  0.000000  0.000000  1
  B  B8  1  0.703259  0.606607  0.960171  1
  B  B9  1  0.960171  0.703259  0.606607  1
  B  B10  1  0.606607  0.960171  0.703259  1
  B  B11  1  0.039829  0.296741  0.393393  1
  B  B12  1  0.393393  0.039829  0.296741  1
  B  B13  1  0.296741  0.393393  0.039829  1
  O  O14  1  0.051894  0.814298  0.539217  1
  O  O15  1  0.539217  0.051894  0.814298  1
  O  O16  1  0.435201  0.508515  0.198211  1
  O  O17  1  0.508515  0.198211  0.435201  1
  O  O18  1  0.198211  0.435201  0.508515  1
  O  O19  1  0.801789  0.564799  0.491485  1
  O  O20  1  0.564799  0.491485  0.801789  1
  O  O21  1  0.491485  0.801789  0.564799  1
  O  O22  1  0.272057  0.215238  0.976691  1
  O  O23  1  0.215238  0.976691  0.272057  1
  O  O24  1  0.976691  0.272057  0.215238  1
  O  O25  1  0.727943  0.784762  0.023309  1
  O  O26  1  0.784762  0.023309  0.727943  1
  O  O27  1  0.023309  0.727943  0.784762  1
  O  O28  1  0.185702  0.460783  0.948106  1
  O  O29  1  0.460783  0.948106  0.185702  1
  O  O30  1  0.948106  0.185702  0.460783  1
  O  O31  1  0.814298  0.539217  0.051894  1
