# generated using pymatgen
data_NpTcO7
_symmetry_space_group_name_H-M   'P 1'
_cell_length_a   6.01222600
_cell_length_b   9.43198200
_cell_length_c   11.98785900
_cell_angle_alpha   90.00000000
_cell_angle_beta   90.00000000
_cell_angle_gamma   90.00000000
_symmetry_Int_Tables_number   1
_chemical_formula_structural   NpTcO7
_chemical_formula_sum   'Np4 Tc4 O28'
_cell_volume   679.79800674
_cell_formula_units_Z   4
loop_
 _symmetry_equiv_pos_site_id
 _symmetry_equiv_pos_as_xyz
  1  'x, y, z'
loop_
 _atom_site_type_symbol
 _atom_site_label
 _atom_site_symmetry_multiplicity
 _atom_site_fract_x
 _atom_site_fract_y
 _atom_site_fract_z
 _atom_site_occupancy
  Np  Np0  1  0.698451  0.488248  0.370588  1
  Np  Np1  1  0.198451  0.511752  0.129412  1
  Np  Np2  1  0.801549  0.988248  0.629412  1
  Np  Np3  1  0.301549  0.011752  0.870588  1
  Tc  Tc4  1  0.216751  0.525551  0.585572  1
  Tc  Tc5  1  0.716751  0.474449  0.914428  1
  Tc  Tc6  1  0.283249  0.025551  0.414428  1
  Tc  Tc7  1  0.783249  0.974449  0.085572  1
  O  O8  1  0.653081  0.673209  0.390164  1
  O  O9  1  0.153081  0.326791  0.109836  1
  O  O10  1  0.846919  0.173209  0.609836  1
  O  O11  1  0.346919  0.826791  0.890164  1
  O  O12  1  0.458361  0.452999  0.521414  1
  O  O13  1  0.958361  0.547001  0.978586  1
  O  O14  1  0.041639  0.952999  0.478586  1
  O  O15  1  0.541639  0.047001  0.021414  1
  O  O16  1  0.013033  0.996487  0.994128  1
  O  O17  1  0.513033  0.003513  0.505872  1
  O  O18  1  0.486967  0.496487  0.005872  1
  O  O19  1  0.986967  0.503513  0.494128  1
  O  O20  1  0.743315  0.797880  0.109994  1
  O  O21  1  0.243315  0.202120  0.390006  1
  O  O22  1  0.756685  0.297880  0.890006  1
  O  O23  1  0.256685  0.702120  0.609994  1
  O  O24  1  0.256508  0.198083  0.866000  1
  O  O25  1  0.756508  0.801917  0.634000  1
  O  O26  1  0.243492  0.698083  0.134000  1
  O  O27  1  0.743492  0.301917  0.366000  1
  O  O28  1  0.835369  0.057042  0.209597  1
  O  O29  1  0.335369  0.942958  0.290403  1
  O  O30  1  0.664631  0.557042  0.790403  1
  O  O31  1  0.164631  0.442958  0.709597  1
  O  O32  1  0.060809  0.979546  0.743844  1
  O  O33  1  0.560809  0.020454  0.756156  1
  O  O34  1  0.439191  0.479546  0.256156  1
  O  O35  1  0.939191  0.520454  0.243844  1
