# generated using pymatgen
data_Yb12Ga12Bi5(RhO16)3
_symmetry_space_group_name_H-M   'P 1'
_cell_length_a   10.99917787
_cell_length_b   10.96125487
_cell_length_c   10.96125516
_cell_angle_alpha   109.40103168
_cell_angle_beta   109.54131553
_cell_angle_gamma   109.54132626
_symmetry_Int_Tables_number   1
_chemical_formula_structural   Yb12Ga12Bi5(RhO16)3
_chemical_formula_sum   'Yb12 Ga12 Bi5 Rh3 O48'
_cell_volume   1016.44160390
_cell_formula_units_Z   1
loop_
 _symmetry_equiv_pos_site_id
 _symmetry_equiv_pos_as_xyz
  1  'x, y, z'
loop_
 _atom_site_type_symbol
 _atom_site_label
 _atom_site_symmetry_multiplicity
 _atom_site_fract_x
 _atom_site_fract_y
 _atom_site_fract_z
 _atom_site_occupancy
  Yb  Yb0  1  0.261256  0.379914  0.137860  1
  Yb  Yb1  1  0.381342  0.757946  0.120085  1
  Yb  Yb2  1  0.380947  0.129720  0.249358  1
  Yb  Yb3  1  0.876603  0.637860  0.257946  1
  Yb  Yb4  1  0.131589  0.250642  0.380361  1
  Yb  Yb5  1  0.751227  0.119638  0.370280  1
  Yb  Yb6  1  0.248773  0.880360  0.629720  1
  Yb  Yb7  1  0.868411  0.749358  0.619639  1
  Yb  Yb8  1  0.123395  0.362140  0.742054  1
  Yb  Yb9  1  0.619053  0.870280  0.750642  1
  Yb  Yb10  1  0.618658  0.242054  0.879913  1
  Yb  Yb11  1  0.738744  0.620086  0.862140  1
  Ga  Ga12  1  0.750715  0.878560  0.128437  1
  Ga  Ga13  1  0.868083  0.242981  0.122652  1
  Ga  Ga14  1  0.622279  0.371563  0.250123  1
  Ga  Ga15  1  0.125103  0.879672  0.257021  1
  Ga  Ga16  1  0.627844  0.750123  0.378560  1
  Ga  Ga17  1  0.254569  0.622652  0.379672  1
  Ga  Ga18  1  0.745431  0.377348  0.620328  1
  Ga  Ga19  1  0.372156  0.249877  0.621440  1
  Ga  Ga20  1  0.874897  0.120328  0.742980  1
  Ga  Ga21  1  0.377721  0.628437  0.749877  1
  Ga  Ga22  1  0.249286  0.121440  0.871563  1
  Ga  Ga23  1  0.131917  0.757020  0.877348  1
  Bi  Bi24  1  0.000000  0.000000  0.000000  1
  Bi  Bi25  1  0.500000  0.500000  0.000000  1
  Bi  Bi26  1  0.000000  0.499999  0.000000  1
  Bi  Bi27  1  0.500000  0.000000  0.500000  1
  Bi  Bi28  1  0.000000  0.500000  0.500000  1
  Rh  Rh29  1  0.499999  0.000000  0.000000  1
  Rh  Rh30  1  0.000000  0.000000  0.499999  1
  Rh  Rh31  1  0.499999  0.499999  0.499999  1
  O  O32  1  0.322338  0.908534  0.027982  1
  O  O33  1  0.212679  0.127368  0.029004  1
  O  O34  1  0.711839  0.684075  0.084313  1
  O  O35  1  0.872079  0.399717  0.086245  1
  O  O36  1  0.972362  0.686529  0.100283  1
  O  O37  1  0.627526  0.415687  0.099762  1
  O  O38  1  0.595755  0.915620  0.120692  1
  O  O39  1  0.028037  0.212887  0.127228  1
  O  O40  1  0.472236  0.599761  0.184075  1
  O  O41  1  0.214167  0.586245  0.186529  1
  O  O42  1  0.129899  0.032273  0.214268  1
  O  O43  1  0.586043  0.179259  0.204688  1
  O  O44  1  0.475063  0.379308  0.294928  1
  O  O45  1  0.315148  0.914339  0.287112  1
  O  O46  1  0.906784  0.025428  0.320741  1
  O  O47  1  0.915631  0.285731  0.318005  1
  O  O48  1  0.294356  0.472018  0.380552  1
  O  O49  1  0.585311  0.901636  0.372631  1
  O  O50  1  0.816324  0.529004  0.401635  1
  O  O51  1  0.086194  0.880552  0.408534  1
  O  O52  1  0.819864  0.794928  0.415620  1
  O  O53  1  0.099192  0.627228  0.414340  1
  O  O54  1  0.597626  0.181995  0.467726  1
  O  O55  1  0.381355  0.295312  0.474572  1
  O  O56  1  0.618645  0.704688  0.525428  1
  O  O57  1  0.402372  0.818004  0.532273  1
  O  O58  1  0.900808  0.372771  0.585660  1
  O  O59  1  0.180136  0.205072  0.584380  1
  O  O60  1  0.913806  0.119448  0.591466  1
  O  O61  1  0.183675  0.470995  0.598363  1
  O  O62  1  0.414689  0.098364  0.627368  1
  O  O63  1  0.705644  0.527982  0.619448  1
  O  O64  1  0.084368  0.714269  0.681995  1
  O  O65  1  0.093216  0.974572  0.679259  1
  O  O66  1  0.684852  0.085660  0.712888  1
  O  O67  1  0.524937  0.620692  0.705072  1
  O  O68  1  0.413957  0.820741  0.795312  1
  O  O69  1  0.870100  0.967726  0.785730  1
  O  O70  1  0.785833  0.413755  0.813471  1
  O  O71  1  0.527763  0.400237  0.815924  1
  O  O72  1  0.971962  0.787111  0.872771  1
  O  O73  1  0.404245  0.084380  0.879308  1
  O  O74  1  0.372473  0.584313  0.900238  1
  O  O75  1  0.027638  0.313471  0.899717  1
  O  O76  1  0.127921  0.600283  0.913755  1
  O  O77  1  0.288161  0.315925  0.915686  1
  O  O78  1  0.677662  0.091466  0.972018  1
  O  O79  1  0.787319  0.872631  0.970995  1
