# generated using pymatgen
data_Ba3HoIr2O9
_symmetry_space_group_name_H-M   'P 1'
_cell_length_a   5.94298800
_cell_length_b   5.94298750
_cell_length_c   14.69119500
_cell_angle_alpha   90.00000000
_cell_angle_beta   90.00000000
_cell_angle_gamma   120.00000281
_symmetry_Int_Tables_number   1
_chemical_formula_structural   Ba3HoIr2O9
_chemical_formula_sum   'Ba6 Ho2 Ir4 O18'
_cell_volume   449.36310577
_cell_formula_units_Z   2
loop_
 _symmetry_equiv_pos_site_id
 _symmetry_equiv_pos_as_xyz
  1  'x, y, z'
loop_
 _atom_site_type_symbol
 _atom_site_label
 _atom_site_symmetry_multiplicity
 _atom_site_fract_x
 _atom_site_fract_y
 _atom_site_fract_z
 _atom_site_occupancy
  Ba  Ba0  1  0.000000  0.000000  0.250000  1
  Ba  Ba1  1  0.000000  0.000000  0.750000  1
  Ba  Ba2  1  0.333333  0.666667  0.592701  1
  Ba  Ba3  1  0.666667  0.333333  0.407299  1
  Ba  Ba4  1  0.666667  0.333333  0.092701  1
  Ba  Ba5  1  0.333333  0.666667  0.907299  1
  Ho  Ho6  1  0.000000  0.000000  0.500000  1
  Ho  Ho7  1  0.000000  0.000000  0.000000  1
  Ir  Ir8  1  0.333333  0.666667  0.336046  1
  Ir  Ir9  1  0.666667  0.333333  0.663954  1
  Ir  Ir10  1  0.666667  0.333333  0.836046  1
  Ir  Ir11  1  0.333333  0.666667  0.163954  1
  O  O12  1  0.491025  0.508975  0.250000  1
  O  O13  1  0.491025  0.982051  0.250000  1
  O  O14  1  0.017949  0.508975  0.250000  1
  O  O15  1  0.508975  0.491025  0.750000  1
  O  O16  1  0.508975  0.017949  0.750000  1
  O  O17  1  0.982051  0.491025  0.750000  1
  O  O18  1  0.175535  0.824465  0.086524  1
  O  O19  1  0.175535  0.351070  0.086524  1
  O  O20  1  0.648930  0.824465  0.086524  1
  O  O21  1  0.824465  0.175535  0.913476  1
  O  O22  1  0.824465  0.648930  0.913476  1
  O  O23  1  0.351070  0.175535  0.913476  1
  O  O24  1  0.824465  0.175535  0.586524  1
  O  O25  1  0.824465  0.648930  0.586524  1
  O  O26  1  0.351070  0.175535  0.586524  1
  O  O27  1  0.175535  0.824465  0.413476  1
  O  O28  1  0.175535  0.351070  0.413476  1
  O  O29  1  0.648930  0.824465  0.413476  1
