# generated using pymatgen
data_La7Y(HoIn5)4
_symmetry_space_group_name_H-M   'P 1'
_cell_length_a   6.68804406
_cell_length_b   10.69531405
_cell_length_c   12.60163200
_cell_angle_alpha   89.95862718
_cell_angle_beta   90.00795865
_cell_angle_gamma   90.01268063
_symmetry_Int_Tables_number   1
_chemical_formula_structural   La7Y(HoIn5)4
_chemical_formula_sum   'La7 Y1 Ho4 In20'
_cell_volume   901.40369120
_cell_formula_units_Z   1
loop_
 _symmetry_equiv_pos_site_id
 _symmetry_equiv_pos_as_xyz
  1  'x, y, z'
loop_
 _atom_site_type_symbol
 _atom_site_label
 _atom_site_symmetry_multiplicity
 _atom_site_fract_x
 _atom_site_fract_y
 _atom_site_fract_z
 _atom_site_occupancy
  La  La0  1  0.888727  0.491412  0.142999  1
  La  La1  1  0.611507  0.009351  0.643090  1
  La  La2  1  0.109966  0.991514  0.855876  1
  La  La3  1  0.388716  0.508707  0.358096  1
  La  La4  1  0.110763  0.508753  0.856429  1
  La  La5  1  0.390068  0.991084  0.357907  1
  La  La6  1  0.888750  0.008039  0.142868  1
  Y  Y7  1  0.610938  0.490058  0.642339  1
  Ho  Ho8  1  0.349261  0.749441  0.058011  1
  Ho  Ho9  1  0.152946  0.751451  0.558802  1
  Ho  Ho10  1  0.651065  0.249519  0.941623  1
  Ho  Ho11  1  0.849643  0.250881  0.442649  1
  In  In12  1  0.619278  0.746307  0.505078  1
  In  In13  1  0.881227  0.749638  0.998862  1
  In  In14  1  0.385446  0.251351  0.501190  1
  In  In15  1  0.118233  0.249678  0.999785  1
  In  In16  1  0.651028  0.749642  0.243544  1
  In  In17  1  0.845650  0.745851  0.740265  1
  In  In18  1  0.349723  0.252308  0.755687  1
  In  In19  1  0.150576  0.250118  0.257271  1
  In  In20  1  0.110528  0.749853  0.285218  1
  In  In21  1  0.388958  0.749724  0.784722  1
  In  In22  1  0.884319  0.254744  0.713844  1
  In  In23  1  0.611046  0.249921  0.214925  1
  In  In24  1  0.877846  0.543726  0.406442  1
  In  In25  1  0.621231  0.955147  0.904689  1
  In  In26  1  0.121499  0.046499  0.595341  1
  In  In27  1  0.377740  0.455447  0.094410  1
  In  In28  1  0.125840  0.457606  0.596503  1
  In  In29  1  0.377846  0.044391  0.095767  1
  In  In30  1  0.877642  0.955110  0.405100  1
  In  In31  1  0.621989  0.542727  0.900668  1
