# generated using pymatgen
data_Ti2Al3MoRu6
_symmetry_space_group_name_H-M   'P 1'
_cell_length_a   4.31852800
_cell_length_b   6.11903200
_cell_length_c   12.94221200
_cell_angle_alpha   89.99988628
_cell_angle_beta   89.99926107
_cell_angle_gamma   90.00389793
_symmetry_Int_Tables_number   1
_chemical_formula_structural   Ti2Al3MoRu6
_chemical_formula_sum   'Ti4 Al6 Mo2 Ru12'
_cell_volume   342.00068282
_cell_formula_units_Z   2
loop_
 _symmetry_equiv_pos_site_id
 _symmetry_equiv_pos_as_xyz
  1  'x, y, z'
loop_
 _atom_site_type_symbol
 _atom_site_label
 _atom_site_symmetry_multiplicity
 _atom_site_fract_x
 _atom_site_fract_y
 _atom_site_fract_z
 _atom_site_occupancy
  Ti  Ti0  1  0.999849  0.499966  0.336807  1
  Ti  Ti1  1  0.499999  0.000045  0.501524  1
  Ti  Ti2  1  0.000138  0.499947  0.665152  1
  Ti  Ti3  1  0.500151  0.000035  0.829875  1
  Al  Al4  1  0.000006  0.000044  0.998750  1
  Al  Al5  1  0.499836  0.499951  0.167903  1
  Al  Al6  1  0.999830  0.000032  0.335925  1
  Al  Al7  1  0.499999  0.499964  0.500842  1
  Al  Al8  1  0.000160  0.000037  0.665812  1
  Al  Al9  1  0.500175  0.499968  0.830764  1
  Mo  Mo10  1  0.000011  0.500008  0.996201  1
  Mo  Mo11  1  0.499832  0.999991  0.170443  1
  Ru  Ru12  1  0.499875  0.251398  0.001430  1
  Ru  Ru13  1  0.500149  0.748593  0.001429  1
  Ru  Ru14  1  0.999976  0.248561  0.165239  1
  Ru  Ru15  1  0.999707  0.751452  0.165241  1
  Ru  Ru16  1  0.499798  0.250175  0.331382  1
  Ru  Ru17  1  0.499872  0.749824  0.331380  1
  Ru  Ru18  1  0.999994  0.250510  0.499416  1
  Ru  Ru19  1  0.999985  0.749500  0.499428  1
  Ru  Ru20  1  0.500166  0.249548  0.667226  1
  Ru  Ru21  1  0.500156  0.750448  0.667212  1
  Ru  Ru22  1  0.000201  0.249921  0.835308  1
  Ru  Ru23  1  0.000136  0.750076  0.835311  1
