# generated using pymatgen
data_YBi3IrRh3O14
_symmetry_space_group_name_H-M   'P 1'
_cell_length_a   7.28456760
_cell_length_b   7.28456768
_cell_length_c   7.26829900
_cell_angle_alpha   60.36780915
_cell_angle_beta   60.36780881
_cell_angle_gamma   60.30711388
_symmetry_Int_Tables_number   1
_chemical_formula_structural   YBi3IrRh3O14
_chemical_formula_sum   'Y1 Bi3 Ir1 Rh3 O14'
_cell_volume   274.86948188
_cell_formula_units_Z   1
loop_
 _symmetry_equiv_pos_site_id
 _symmetry_equiv_pos_as_xyz
  1  'x, y, z'
loop_
 _atom_site_type_symbol
 _atom_site_label
 _atom_site_symmetry_multiplicity
 _atom_site_fract_x
 _atom_site_fract_y
 _atom_site_fract_z
 _atom_site_occupancy
  Y  Y0  1  0.125000  0.125000  0.125000  1
  Bi  Bi1  1  0.125000  0.625000  0.125000  1
  Bi  Bi2  1  0.625000  0.125000  0.125000  1
  Bi  Bi3  1  0.125000  0.125000  0.625000  1
  Ir  Ir4  1  0.625000  0.625000  0.125000  1
  Rh  Rh5  1  0.625000  0.625000  0.625000  1
  Rh  Rh6  1  0.125000  0.625000  0.625000  1
  Rh  Rh7  1  0.625000  0.125000  0.625000  1
  O  O8  1  0.248410  0.248410  0.246369  1
  O  O9  1  0.292753  0.715397  0.288068  1
  O  O10  1  0.961655  0.961655  0.530814  1
  O  O11  1  0.543071  0.958478  0.539603  1
  O  O12  1  0.706054  0.706054  0.291164  1
  O  O13  1  0.958478  0.543071  0.539603  1
  O  O14  1  0.706929  0.291522  0.710397  1
  O  O15  1  0.288345  0.288345  0.719186  1
  O  O16  1  0.715397  0.292753  0.288068  1
  O  O17  1  0.291522  0.706929  0.710397  1
  O  O18  1  0.957247  0.534603  0.961932  1
  O  O19  1  0.543946  0.543946  0.958836  1
  O  O20  1  0.001590  0.001590  0.003631  1
  O  O21  1  0.534603  0.957247  0.961932  1
