# generated using pymatgen
data_K2Zr(PdSe2)3
_symmetry_space_group_name_H-M   'P 1'
_cell_length_a   11.65061961
_cell_length_b   9.95841600
_cell_length_c   9.28745900
_cell_angle_alpha   74.41732523
_cell_angle_beta   55.42023001
_cell_angle_gamma   50.16242497
_symmetry_Int_Tables_number   1
_chemical_formula_structural   K2Zr(PdSe2)3
_chemical_formula_sum   'K4 Zr2 Pd6 Se12'
_cell_volume   673.50885171
_cell_formula_units_Z   2
loop_
 _symmetry_equiv_pos_site_id
 _symmetry_equiv_pos_as_xyz
  1  'x, y, z'
loop_
 _atom_site_type_symbol
 _atom_site_label
 _atom_site_symmetry_multiplicity
 _atom_site_fract_x
 _atom_site_fract_y
 _atom_site_fract_z
 _atom_site_occupancy
  K  K0  1  0.249820  0.250318  0.250280  1
  K  K1  1  0.750199  0.749683  0.749690  1
  K  K2  1  0.357957  0.642695  0.356116  1
  K  K3  1  0.642052  0.357245  0.643850  1
  Zr  Zr4  1  0.166189  0.166165  0.833718  1
  Zr  Zr5  1  0.833812  0.833836  0.166279  1
  Pd  Pd6  1  0.830993  0.169149  0.168793  1
  Pd  Pd7  1  0.169020  0.830848  0.831215  1
  Pd  Pd8  1  0.830365  0.497509  0.169082  1
  Pd  Pd9  1  0.497438  0.830329  0.502464  1
  Pd  Pd10  1  0.502568  0.169670  0.497554  1
  Pd  Pd11  1  0.169631  0.502491  0.830912  1
  Se  Se12  1  0.028928  0.179540  0.187269  1
  Se  Se13  1  0.179546  0.028544  0.604044  1
  Se  Se14  1  0.603678  0.187853  0.179872  1
  Se  Se15  1  0.187712  0.604046  0.029273  1
  Se  Se16  1  0.971051  0.820511  0.812743  1
  Se  Se17  1  0.820471  0.971447  0.395957  1
  Se  Se18  1  0.396307  0.812156  0.820146  1
  Se  Se19  1  0.812302  0.395937  0.970725  1
  Se  Se20  1  0.398570  0.183130  0.816757  1
  Se  Se21  1  0.183542  0.398729  0.601645  1
  Se  Se22  1  0.601378  0.816894  0.183288  1
  Se  Se23  1  0.816472  0.601275  0.398329  1
