# generated using pymatgen
data_Tb4Al24Pt5(RhAu)2
_symmetry_space_group_name_H-M   'P 1'
_cell_length_a   7.54506594
_cell_length_b   7.58106249
_cell_length_c   13.21352471
_cell_angle_alpha   84.56716991
_cell_angle_beta   79.09490471
_cell_angle_gamma   59.86247563
_symmetry_Int_Tables_number   1
_chemical_formula_structural   Tb4Al24Pt5(RhAu)2
_chemical_formula_sum   'Tb4 Al24 Pt5 Rh2 Au2'
_cell_volume   641.83689825
_cell_formula_units_Z   1
loop_
 _symmetry_equiv_pos_site_id
 _symmetry_equiv_pos_as_xyz
  1  'x, y, z'
loop_
 _atom_site_type_symbol
 _atom_site_label
 _atom_site_symmetry_multiplicity
 _atom_site_fract_x
 _atom_site_fract_y
 _atom_site_fract_z
 _atom_site_occupancy
  Tb  Tb0  1  0.391848  0.169058  0.809557  1
  Tb  Tb1  1  0.607902  0.830183  0.190219  1
  Tb  Tb2  1  0.733740  0.499137  0.810262  1
  Tb  Tb3  1  0.265831  0.501922  0.189886  1
  Al  Al4  1  0.685598  0.834733  0.947858  1
  Al  Al5  1  0.317777  0.169137  0.052479  1
  Al  Al6  1  0.146143  0.838949  0.561311  1
  Al  Al7  1  0.853714  0.161091  0.438774  1
  Al  Al8  1  0.487744  0.159212  0.558510  1
  Al  Al9  1  0.512682  0.840534  0.441407  1
  Al  Al10  1  0.222625  0.160564  0.325245  1
  Al  Al11  1  0.778074  0.839428  0.674939  1
  Al  Al12  1  0.439375  0.507408  0.675061  1
  Al  Al13  1  0.561534  0.491812  0.324784  1
  Al  Al14  1  0.108440  0.153946  0.673581  1
  Al  Al15  1  0.891607  0.846055  0.326390  1
  Al  Al16  1  0.352941  0.495362  0.947248  1
  Al  Al17  1  0.650683  0.497369  0.052439  1
  Al  Al18  1  0.011096  0.171265  0.957006  1
  Al  Al19  1  0.982079  0.832173  0.042935  1
  Al  Al20  1  0.195200  0.499329  0.438407  1
  Al  Al21  1  0.805366  0.500424  0.561553  1
  Al  Al22  1  0.732197  0.163873  0.180294  1
  Al  Al23  1  0.265547  0.835619  0.817554  1
  Al  Al24  1  0.059784  0.631865  0.821036  1
  Al  Al25  1  0.941099  0.367730  0.178975  1
  Al  Al26  1  0.851342  0.044819  0.819311  1
  Al  Al27  1  0.145118  0.958662  0.182899  1
  Pt  Pt28  1  0.342935  0.828291  0.000170  1
  Pt  Pt29  1  0.537916  0.166548  0.362546  1
  Pt  Pt30  1  0.462874  0.833078  0.637253  1
  Pt  Pt31  1  0.779889  0.174674  0.636089  1
  Pt  Pt32  1  0.220909  0.824858  0.364123  1
  Rh  Rh33  1  0.657892  0.171237  0.999872  1
  Rh  Rh34  1  0.000000  0.499945  0.999964  1
  Au  Au35  1  0.120444  0.491076  0.638087  1
  Au  Au36  1  0.880058  0.508633  0.361978  1
