# generated using pymatgen
data_LiV3(SeO6)2
_symmetry_space_group_name_H-M   'P 1'
_cell_length_a   6.33368524
_cell_length_b   7.21244418
_cell_length_c   10.66452816
_cell_angle_alpha   90.86758585
_cell_angle_beta   93.49953672
_cell_angle_gamma   105.72553904
_symmetry_Int_Tables_number   1
_chemical_formula_structural   LiV3(SeO6)2
_chemical_formula_sum   'Li2 V6 Se4 O24'
_cell_volume   467.80675248
_cell_formula_units_Z   2
loop_
 _symmetry_equiv_pos_site_id
 _symmetry_equiv_pos_as_xyz
  1  'x, y, z'
loop_
 _atom_site_type_symbol
 _atom_site_label
 _atom_site_symmetry_multiplicity
 _atom_site_fract_x
 _atom_site_fract_y
 _atom_site_fract_z
 _atom_site_occupancy
  Li  Li0  1  0.785428  0.756411  0.113256  1
  Li  Li1  1  0.214572  0.243586  0.886745  1
  V  V2  1  0.613863  0.225988  0.088927  1
  V  V3  1  0.337292  0.796807  0.243651  1
  V  V4  1  0.624987  0.193331  0.421817  1
  V  V5  1  0.374982  0.806633  0.578195  1
  V  V6  1  0.662695  0.203170  0.756356  1
  V  V7  1  0.386142  0.774019  0.911051  1
  Se  Se8  1  0.122224  0.163005  0.191752  1
  Se  Se9  1  0.801533  0.797797  0.410536  1
  Se  Se10  1  0.198464  0.202217  0.589473  1
  Se  Se11  1  0.877775  0.836994  0.808243  1
  O  O12  1  0.289618  0.224187  0.067260  1
  O  O13  1  0.429628  0.841370  0.077695  1
  O  O14  1  0.725516  0.456990  0.099790  1
  O  O15  1  0.869865  0.129550  0.106991  1
  O  O16  1  0.090934  0.911469  0.198197  1
  O  O17  1  0.179709  0.578664  0.239909  1
  O  O18  1  0.530357  0.146560  0.251783  1
  O  O19  1  0.624441  0.734644  0.274889  1
  O  O20  1  0.845614  0.049786  0.405286  1
  O  O21  1  0.370518  0.883519  0.407355  1
  O  O22  1  0.795366  0.405618  0.422151  1
  O  O23  1  0.360257  0.265270  0.463869  1
  O  O24  1  0.639772  0.734753  0.536115  1
  O  O25  1  0.204640  0.594395  0.577846  1
  O  O26  1  0.629478  0.116478  0.592629  1
  O  O27  1  0.154393  0.950232  0.594708  1
  O  O28  1  0.375559  0.265358  0.725105  1
  O  O29  1  0.469644  0.853446  0.748226  1
  O  O30  1  0.820293  0.421323  0.760098  1
  O  O31  1  0.909061  0.088524  0.801804  1
  O  O32  1  0.130143  0.870453  0.893014  1
  O  O33  1  0.274488  0.543012  0.900210  1
  O  O34  1  0.570370  0.158631  0.922315  1
  O  O35  1  0.710376  0.775810  0.932750  1
