# generated using pymatgen
data_Y2MnFe2Co9As7
_symmetry_space_group_name_H-M   'P 1'
_cell_length_a   3.75730400
_cell_length_b   9.40109868
_cell_length_c   9.37394384
_cell_angle_alpha   119.81531422
_cell_angle_beta   90.00000000
_cell_angle_gamma   90.00000000
_symmetry_Int_Tables_number   1
_chemical_formula_structural   Y2MnFe2Co9As7
_chemical_formula_sum   'Y2 Mn1 Fe2 Co9 As7'
_cell_volume   287.28513172
_cell_formula_units_Z   1
loop_
 _symmetry_equiv_pos_site_id
 _symmetry_equiv_pos_as_xyz
  1  'x, y, z'
loop_
 _atom_site_type_symbol
 _atom_site_label
 _atom_site_symmetry_multiplicity
 _atom_site_fract_x
 _atom_site_fract_y
 _atom_site_fract_z
 _atom_site_occupancy
  Y  Y0  1  0.000000  0.667417  0.336261  1
  Y  Y1  1  0.500000  0.330886  0.665085  1
  Mn  Mn2  1  0.500000  0.784166  0.899788  1
  Fe  Fe3  1  0.500000  0.122252  0.216152  1
  Fe  Fe4  1  0.500000  0.098982  0.880708  1
  Co  Co5  1  0.000000  0.567205  0.941697  1
  Co  Co6  1  0.000000  0.371922  0.430134  1
  Co  Co7  1  0.000000  0.057484  0.626036  1
  Co  Co8  1  0.000000  0.878597  0.156187  1
  Co  Co9  1  0.000000  0.279900  0.121113  1
  Co  Co10  1  0.000000  0.842742  0.725387  1
  Co  Co11  1  0.500000  0.950099  0.382113  1
  Co  Co12  1  0.500000  0.432133  0.049799  1
  Co  Co13  1  0.500000  0.617571  0.566588  1
  As  As14  1  0.000000  0.005197  0.003426  1
  As  As15  1  0.500000  0.706967  0.117559  1
  As  As16  1  0.500000  0.404534  0.291139  1
  As  As17  1  0.500000  0.887906  0.597064  1
  As  As18  1  0.000000  0.585881  0.701714  1
  As  As19  1  0.000000  0.114130  0.408318  1
  As  As20  1  0.000000  0.294029  0.883733  1
