# generated using pymatgen
data_HoTmIr2F14
_symmetry_space_group_name_H-M   'P 1'
_cell_length_a   5.52304500
_cell_length_b   8.84090090
_cell_length_c   11.89522143
_cell_angle_alpha   62.69934958
_cell_angle_beta   90.00000000
_cell_angle_gamma   90.00000000
_symmetry_Int_Tables_number   1
_chemical_formula_structural   HoTmIr2F14
_chemical_formula_sum   'Ho2 Tm2 Ir4 F28'
_cell_volume   516.13085394
_cell_formula_units_Z   2
loop_
 _symmetry_equiv_pos_site_id
 _symmetry_equiv_pos_as_xyz
  1  'x, y, z'
loop_
 _atom_site_type_symbol
 _atom_site_label
 _atom_site_symmetry_multiplicity
 _atom_site_fract_x
 _atom_site_fract_y
 _atom_site_fract_z
 _atom_site_occupancy
  Ho  Ho0  1  0.239693  0.186684  0.234326  1
  Ho  Ho1  1  0.739693  0.813316  0.265674  1
  Tm  Tm2  1  0.759978  0.815261  0.765222  1
  Tm  Tm3  1  0.259978  0.184739  0.734778  1
  Ir  Ir4  1  0.758049  0.274098  0.954558  1
  Ir  Ir5  1  0.258049  0.725902  0.545442  1
  Ir  Ir6  1  0.242481  0.727765  0.042316  1
  Ir  Ir7  1  0.742481  0.272235  0.457684  1
  F  F8  1  0.443363  0.705600  0.913992  1
  F  F9  1  0.943363  0.294400  0.586008  1
  F  F10  1  0.559249  0.295767  0.083434  1
  F  F11  1  0.059249  0.704233  0.416566  1
  F  F12  1  0.440853  0.276557  0.546751  1
  F  F13  1  0.940853  0.723443  0.953249  1
  F  F14  1  0.558464  0.721060  0.456398  1
  F  F15  1  0.058464  0.278940  0.043602  1
  F  F16  1  0.771464  0.521364  0.858075  1
  F  F17  1  0.271464  0.478636  0.641925  1
  F  F18  1  0.227910  0.480530  0.140128  1
  F  F19  1  0.727910  0.519470  0.359872  1
  F  F20  1  0.756311  0.027257  0.049245  1
  F  F21  1  0.256311  0.972743  0.450755  1
  F  F22  1  0.244196  0.975353  0.947866  1
  F  F23  1  0.744196  0.024647  0.552134  1
  F  F24  1  0.965491  0.728348  0.639967  1
  F  F25  1  0.465491  0.271652  0.860033  1
  F  F26  1  0.034932  0.272479  0.362721  1
  F  F27  1  0.534932  0.727521  0.137279  1
  F  F28  1  0.047847  0.747045  0.174213  1
  F  F29  1  0.547847  0.252955  0.325787  1
  F  F30  1  0.954375  0.252940  0.823983  1
  F  F31  1  0.454375  0.747060  0.676017  1
  F  F32  1  0.415234  0.970031  0.231524  1
  F  F33  1  0.915234  0.029969  0.268476  1
  F  F34  1  0.580108  0.027945  0.767655  1
  F  F35  1  0.080108  0.972055  0.732345  1
