# generated using pymatgen
data_TbPr2Nd3CoBr10
_symmetry_space_group_name_H-M   'P 1'
_cell_length_a   7.57640866
_cell_length_b   9.39624380
_cell_length_c   9.57668496
_cell_angle_alpha   108.52929100
_cell_angle_beta   96.49063515
_cell_angle_gamma   105.34245895
_symmetry_Int_Tables_number   1
_chemical_formula_structural   TbPr2Nd3CoBr10
_chemical_formula_sum   'Tb1 Pr2 Nd3 Co1 Br10'
_cell_volume   608.72436411
_cell_formula_units_Z   1
loop_
 _symmetry_equiv_pos_site_id
 _symmetry_equiv_pos_as_xyz
  1  'x, y, z'
loop_
 _atom_site_type_symbol
 _atom_site_label
 _atom_site_symmetry_multiplicity
 _atom_site_fract_x
 _atom_site_fract_y
 _atom_site_fract_z
 _atom_site_occupancy
  Tb  Tb0  1  0.646276  0.868936  0.325085  1
  Pr  Pr1  1  0.029988  0.711429  0.408170  1
  Pr  Pr2  1  0.966202  0.286945  0.589271  1
  Nd  Nd3  1  0.868880  0.949338  0.744486  1
  Nd  Nd4  1  0.125937  0.047150  0.253698  1
  Nd  Nd5  1  0.361028  0.136057  0.680612  1
  Co  Co6  1  0.999320  0.999435  0.500293  1
  Br  Br7  1  0.453873  0.820724  0.575690  1
  Br  Br8  1  0.548128  0.173054  0.415243  1
  Br  Br9  1  0.912071  0.629939  0.670847  1
  Br  Br10  1  0.085618  0.367684  0.326315  1
  Br  Br11  1  0.245864  0.080188  0.951226  1
  Br  Br12  1  0.745108  0.914371  0.053510  1
  Br  Br13  1  0.351589  0.455498  0.768893  1
  Br  Br14  1  0.642535  0.554388  0.228106  1
  Br  Br15  1  0.787031  0.254850  0.849480  1
  Br  Br16  1  0.230553  0.750016  0.159078  1
