# generated using pymatgen
data_Ac8EuIr6
_symmetry_space_group_name_H-M   'P 1'
_cell_length_a   8.09942700
_cell_length_b   8.09942763
_cell_length_c   8.09942823
_cell_angle_alpha   69.45882896
_cell_angle_beta   69.45882767
_cell_angle_gamma   69.45881396
_symmetry_Int_Tables_number   1
_chemical_formula_structural   Ac8EuIr6
_chemical_formula_sum   'Ac8 Eu1 Ir6'
_cell_volume   449.92170855
_cell_formula_units_Z   1
loop_
 _symmetry_equiv_pos_site_id
 _symmetry_equiv_pos_as_xyz
  1  'x, y, z'
loop_
 _atom_site_type_symbol
 _atom_site_label
 _atom_site_symmetry_multiplicity
 _atom_site_fract_x
 _atom_site_fract_y
 _atom_site_fract_z
 _atom_site_occupancy
  Ac  Ac0  1  0.806641  0.806641  0.806641  1
  Ac  Ac1  1  0.193359  0.193359  0.193359  1
  Ac  Ac2  1  0.147563  0.388879  0.679634  1
  Ac  Ac3  1  0.679634  0.147563  0.388879  1
  Ac  Ac4  1  0.388879  0.679634  0.147563  1
  Ac  Ac5  1  0.852437  0.611121  0.320366  1
  Ac  Ac6  1  0.320366  0.852437  0.611121  1
  Ac  Ac7  1  0.611121  0.320366  0.852437  1
  Eu  Eu8  1  0.000000  0.000000  0.000000  1
  Ir  Ir9  1  0.955005  0.172913  0.587128  1
  Ir  Ir10  1  0.587128  0.955005  0.172913  1
  Ir  Ir11  1  0.172913  0.587128  0.955005  1
  Ir  Ir12  1  0.044995  0.827087  0.412872  1
  Ir  Ir13  1  0.412872  0.044995  0.827087  1
  Ir  Ir14  1  0.827087  0.412872  0.044995  1
