# generated using pymatgen
data_Sr4Ce2P17Pd6
_symmetry_space_group_name_H-M   'P 1'
_cell_length_a   9.09183174
_cell_length_b   9.01203478
_cell_length_c   9.15771669
_cell_angle_alpha   110.14802364
_cell_angle_beta   109.44558933
_cell_angle_gamma   108.79241157
_symmetry_Int_Tables_number   1
_chemical_formula_structural   Sr4Ce2P17Pd6
_chemical_formula_sum   'Sr4 Ce2 P17 Pd6'
_cell_volume   577.75269896
_cell_formula_units_Z   1
loop_
 _symmetry_equiv_pos_site_id
 _symmetry_equiv_pos_as_xyz
  1  'x, y, z'
loop_
 _atom_site_type_symbol
 _atom_site_label
 _atom_site_symmetry_multiplicity
 _atom_site_fract_x
 _atom_site_fract_y
 _atom_site_fract_z
 _atom_site_occupancy
  Sr  Sr0  1  0.279887  0.998211  0.280722  1
  Sr  Sr1  1  0.000000  0.707974  0.711274  1
  Sr  Sr2  1  0.000000  0.288107  0.290481  1
  Sr  Sr3  1  0.720113  0.718324  0.000835  1
  Ce  Ce4  1  0.276323  0.277992  0.000774  1
  Ce  Ce5  1  0.723677  0.001668  0.724450  1
  P  P6  1  0.781926  0.787701  0.429365  1
  P  P7  1  0.639548  0.215818  0.995488  1
  P  P8  1  0.220215  0.634361  0.000892  1
  P  P9  1  0.360452  0.576270  0.355940  1
  P  P10  1  0.637366  0.999015  0.215258  1
  P  P11  1  0.000000  0.637496  0.220267  1
  P  P12  1  0.574499  0.358800  0.354084  1
  P  P13  1  0.425501  0.784301  0.779585  1
  P  P14  1  0.779785  0.414147  0.780677  1
  P  P15  1  0.218074  0.005775  0.647439  1
  P  P16  1  0.000000  0.217990  0.647743  1
  P  P17  1  0.362634  0.361648  0.577891  1
  P  P18  1  0.000000  0.000252  0.440801  1
  P  P19  1  0.437404  0.003676  0.999458  1
  P  P20  1  0.000000  0.431698  0.997623  1
  P  P21  1  0.562596  0.566272  0.562055  1
  P  P22  1  0.000000  0.013491  0.984744  1
  Pd  Pd23  1  0.254406  0.499613  0.753015  1
  Pd  Pd24  1  0.501003  0.750816  0.251337  1
  Pd  Pd25  1  0.498997  0.249813  0.750334  1
  Pd  Pd26  1  0.745594  0.245207  0.498610  1
  Pd  Pd27  1  0.252818  0.753192  0.500839  1
  Pd  Pd28  1  0.747182  0.500374  0.248021  1
