# generated using pymatgen
data_Tb18Ho2Ir11Au
_symmetry_space_group_name_H-M   'P 1'
_cell_length_a   11.00917018
_cell_length_b   11.00917064
_cell_length_c   6.37390914
_cell_angle_alpha   89.96825610
_cell_angle_beta   89.96826082
_cell_angle_gamma   89.61426317
_symmetry_Int_Tables_number   1
_chemical_formula_structural   Tb18Ho2Ir11Au
_chemical_formula_sum   'Tb18 Ho2 Ir11 Au1'
_cell_volume   772.51172967
_cell_formula_units_Z   1
loop_
 _symmetry_equiv_pos_site_id
 _symmetry_equiv_pos_as_xyz
  1  'x, y, z'
loop_
 _atom_site_type_symbol
 _atom_site_label
 _atom_site_symmetry_multiplicity
 _atom_site_fract_x
 _atom_site_fract_y
 _atom_site_fract_z
 _atom_site_occupancy
  Tb  Tb0  1  0.290314  0.088208  0.376810  1
  Tb  Tb1  1  0.292764  0.910965  0.876337  1
  Tb  Tb2  1  0.704015  0.084795  0.865990  1
  Tb  Tb3  1  0.705412  0.904671  0.380233  1
  Tb  Tb4  1  0.587944  0.790551  0.879066  1
  Tb  Tb5  1  0.579736  0.210419  0.378813  1
  Tb  Tb6  1  0.410847  0.790711  0.377891  1
  Tb  Tb7  1  0.410151  0.208769  0.877987  1
  Tb  Tb8  1  0.209449  0.412056  0.620934  1
  Tb  Tb9  1  0.209289  0.589153  0.122109  1
  Tb  Tb10  1  0.789581  0.420264  0.121187  1
  Tb  Tb11  1  0.791231  0.589849  0.622013  1
  Tb  Tb12  1  0.911792  0.709686  0.123190  1
  Tb  Tb13  1  0.915205  0.295985  0.634010  1
  Tb  Tb14  1  0.089035  0.707236  0.623663  1
  Tb  Tb15  1  0.095329  0.294588  0.119767  1
  Tb  Tb16  1  0.003501  0.995812  0.501316  1
  Tb  Tb17  1  0.004188  0.996499  0.998684  1
  Ho  Ho18  1  0.499137  0.499453  0.998905  1
  Ho  Ho19  1  0.500547  0.500863  0.501095  1
  Ir  Ir20  1  0.846410  0.847819  0.749507  1
  Ir  Ir21  1  0.152181  0.153590  0.750493  1
  Ir  Ir22  1  0.155262  0.844738  0.250000  1
  Ir  Ir23  1  0.654237  0.345763  0.750000  1
  Ir  Ir24  1  0.652910  0.651580  0.248773  1
  Ir  Ir25  1  0.348420  0.347090  0.251227  1
  Ir  Ir26  1  0.347269  0.652731  0.750000  1
  Ir  Ir27  1  0.500728  0.000151  0.124472  1
  Ir  Ir28  1  0.499823  0.000475  0.620944  1
  Ir  Ir29  1  0.999525  0.500177  0.879056  1
  Ir  Ir30  1  0.999849  0.499272  0.375528  1
  Au  Au31  1  0.843915  0.156085  0.250000  1
