# generated using pymatgen
data_U3CuPt12
_symmetry_space_group_name_H-M   'P 1'
_cell_length_a   5.77364500
_cell_length_b   5.77364470
_cell_length_c   9.51191000
_cell_angle_alpha   90.00000000
_cell_angle_beta   90.00000000
_cell_angle_gamma   119.99980119
_symmetry_Int_Tables_number   1
_chemical_formula_structural   U3CuPt12
_chemical_formula_sum   'U3 Cu1 Pt12'
_cell_volume   274.59926221
_cell_formula_units_Z   1
loop_
 _symmetry_equiv_pos_site_id
 _symmetry_equiv_pos_as_xyz
  1  'x, y, z'
loop_
 _atom_site_type_symbol
 _atom_site_label
 _atom_site_symmetry_multiplicity
 _atom_site_fract_x
 _atom_site_fract_y
 _atom_site_fract_z
 _atom_site_occupancy
  U  U0  1  0.000000  0.000000  0.507418  1
  U  U1  1  0.000000  0.000000  0.992582  1
  U  U2  1  0.666666  0.333334  0.250000  1
  Cu  Cu3  1  0.333333  0.666667  0.750000  1
  Pt  Pt4  1  0.498999  0.501001  0.504177  1
  Pt  Pt5  1  0.498998  0.997997  0.504176  1
  Pt  Pt6  1  0.002003  0.501002  0.504176  1
  Pt  Pt7  1  0.498999  0.501001  0.995823  1
  Pt  Pt8  1  0.498998  0.997997  0.995824  1
  Pt  Pt9  1  0.002003  0.501002  0.995824  1
  Pt  Pt10  1  0.169040  0.830960  0.250000  1
  Pt  Pt11  1  0.169041  0.338078  0.250000  1
  Pt  Pt12  1  0.661922  0.830959  0.250000  1
  Pt  Pt13  1  0.829760  0.170240  0.750000  1
  Pt  Pt14  1  0.829761  0.659522  0.750000  1
  Pt  Pt15  1  0.340478  0.170239  0.750000  1
