# generated using pymatgen
data_CdTc4Hg9O20
_symmetry_space_group_name_H-M   'P 1'
_cell_length_a   11.56255258
_cell_length_b   6.75709373
_cell_length_c   8.16229700
_cell_angle_alpha   80.14258766
_cell_angle_beta   92.75845539
_cell_angle_gamma   88.55890077
_symmetry_Int_Tables_number   1
_chemical_formula_structural   CdTc4Hg9O20
_chemical_formula_sum   'Cd1 Tc4 Hg9 O20'
_cell_volume   627.21016889
_cell_formula_units_Z   1
loop_
 _symmetry_equiv_pos_site_id
 _symmetry_equiv_pos_as_xyz
  1  'x, y, z'
loop_
 _atom_site_type_symbol
 _atom_site_label
 _atom_site_symmetry_multiplicity
 _atom_site_fract_x
 _atom_site_fract_y
 _atom_site_fract_z
 _atom_site_occupancy
  Cd  Cd0  1  0.500000  0.500000  0.000000  1
  Tc  Tc1  1  0.345791  0.598544  0.518750  1
  Tc  Tc2  1  0.832804  0.392276  0.012234  1
  Tc  Tc3  1  0.654209  0.401456  0.481250  1
  Tc  Tc4  1  0.167196  0.607724  0.987766  1
  Hg  Hg5  1  0.092827  0.981834  0.316217  1
  Hg  Hg6  1  0.717632  0.884538  0.815881  1
  Hg  Hg7  1  0.584435  0.006398  0.186406  1
  Hg  Hg8  1  0.784893  0.875770  0.321421  1
  Hg  Hg9  1  0.282368  0.115462  0.184119  1
  Hg  Hg10  1  0.907173  0.018166  0.683783  1
  Hg  Hg11  1  0.215107  0.124230  0.678579  1
  Hg  Hg12  1  0.415565  0.993602  0.813594  1
  Hg  Hg13  1  0.000000  0.500000  0.500000  1
  O  O14  1  0.159791  0.393487  0.897150  1
  O  O15  1  0.560817  0.808727  0.936068  1
  O  O16  1  0.793782  0.316550  0.448698  1
  O  O17  1  0.334745  0.389032  0.422499  1
  O  O18  1  0.577834  0.467556  0.288394  1
  O  O19  1  0.955035  0.803875  0.443708  1
  O  O20  1  0.665255  0.610968  0.577501  1
  O  O21  1  0.587160  0.208957  0.607738  1
  O  O22  1  0.044965  0.196125  0.556292  1
  O  O23  1  0.896162  0.436412  0.821759  1
  O  O24  1  0.686259  0.336580  0.978922  1
  O  O25  1  0.439183  0.191273  0.063932  1
  O  O26  1  0.412840  0.791043  0.392262  1
  O  O27  1  0.103838  0.563588  0.178241  1
  O  O28  1  0.313741  0.663420  0.021078  1
  O  O29  1  0.422166  0.532444  0.711606  1
  O  O30  1  0.840209  0.606513  0.102850  1
  O  O31  1  0.096329  0.812511  0.859993  1
  O  O32  1  0.206218  0.683450  0.551302  1
  O  O33  1  0.903671  0.187489  0.140007  1
