# generated using pymatgen
data_Dy7YC10
_symmetry_space_group_name_H-M   'P 1'
_cell_length_a   3.67205600
_cell_length_b   6.58351512
_cell_length_c   11.96812922
_cell_angle_alpha   89.97816874
_cell_angle_beta   90.00000000
_cell_angle_gamma   90.00000000
_symmetry_Int_Tables_number   1
_chemical_formula_structural   Dy7YC10
_chemical_formula_sum   'Dy7 Y1 C10'
_cell_volume   289.32993602
_cell_formula_units_Z   1
loop_
 _symmetry_equiv_pos_site_id
 _symmetry_equiv_pos_as_xyz
  1  'x, y, z'
loop_
 _atom_site_type_symbol
 _atom_site_label
 _atom_site_symmetry_multiplicity
 _atom_site_fract_x
 _atom_site_fract_y
 _atom_site_fract_z
 _atom_site_occupancy
  Dy  Dy0  1  0.000000  0.256084  0.542651  1
  Dy  Dy1  1  0.000000  0.743925  0.457410  1
  Dy  Dy2  1  0.000000  0.756144  0.957386  1
  Dy  Dy3  1  0.500000  0.106646  0.803672  1
  Dy  Dy4  1  0.500000  0.893314  0.196230  1
  Dy  Dy5  1  0.500000  0.606651  0.696319  1
  Dy  Dy6  1  0.500000  0.393475  0.303717  1
  Y  Y7  1  0.000000  0.244588  0.042619  1
  C  C8  1  0.500000  0.500035  0.500001  1
  C  C9  1  0.500000  0.998943  0.999751  1
  C  C10  1  0.000000  0.360355  0.735538  1
  C  C11  1  0.000000  0.639783  0.264476  1
  C  C12  1  0.000000  0.860242  0.764414  1
  C  C13  1  0.000000  0.139774  0.235701  1
  C  C14  1  0.000000  0.403456  0.844343  1
  C  C15  1  0.000000  0.596505  0.155682  1
  C  C16  1  0.000000  0.096491  0.344429  1
  C  C17  1  0.000000  0.903589  0.655661  1
