# generated using pymatgen
data_Ho7Er5InCo4Ru
_symmetry_space_group_name_H-M   'P 1'
_cell_length_a   8.23183701
_cell_length_b   8.23329924
_cell_length_c   8.23183728
_cell_angle_alpha   111.08226555
_cell_angle_beta   111.03886305
_cell_angle_gamma   106.33046597
_symmetry_Int_Tables_number   1
_chemical_formula_structural   Ho7Er5InCo4Ru
_chemical_formula_sum   'Ho7 Er5 In1 Co4 Ru1'
_cell_volume   428.55945357
_cell_formula_units_Z   1
loop_
 _symmetry_equiv_pos_site_id
 _symmetry_equiv_pos_as_xyz
  1  'x, y, z'
loop_
 _atom_site_type_symbol
 _atom_site_label
 _atom_site_symmetry_multiplicity
 _atom_site_fract_x
 _atom_site_fract_y
 _atom_site_fract_z
 _atom_site_occupancy
  Ho  Ho0  1  0.183597  0.282949  0.466991  1
  Ho  Ho1  1  0.815970  0.717097  0.532774  1
  Ho  Ho2  1  0.184324  0.717097  0.901127  1
  Ho  Ho3  1  0.815957  0.282949  0.099352  1
  Ho  Ho4  1  0.314026  0.619512  0.305485  1
  Ho  Ho5  1  0.686217  0.380605  0.694388  1
  Ho  Ho6  1  0.313979  0.008498  0.694518  1
  Er  Er7  1  0.685849  0.991767  0.305918  1
  Er  Er8  1  0.412973  0.219357  0.193413  1
  Er  Er9  1  0.587300  0.780702  0.806930  1
  Er  Er10  1  0.025944  0.219357  0.806384  1
  Er  Er11  1  0.973772  0.780702  0.193401  1
  In  In12  1  0.499971  0.500082  0.000111  1
  Co  Co13  1  0.111079  0.611167  0.500088  1
  Co  Co14  1  0.888570  0.388463  0.499894  1
  Co  Co15  1  0.376249  0.999911  0.375688  1
  Co  Co16  1  0.624222  0.999911  0.623660  1
  Ru  Ru17  1  0.000001  0.999879  0.999878  1
