# generated using pymatgen
data_MnOsIF12
_symmetry_space_group_name_H-M   'P 1'
_cell_length_a   5.52555081
_cell_length_b   5.89791192
_cell_length_c   9.35602872
_cell_angle_alpha   72.92807605
_cell_angle_beta   87.65345189
_cell_angle_gamma   61.99261077
_symmetry_Int_Tables_number   1
_chemical_formula_structural   MnOsIF12
_chemical_formula_sum   'Mn1 Os1 I1 F12'
_cell_volume   255.63337225
_cell_formula_units_Z   1
loop_
 _symmetry_equiv_pos_site_id
 _symmetry_equiv_pos_as_xyz
  1  'x, y, z'
loop_
 _atom_site_type_symbol
 _atom_site_label
 _atom_site_symmetry_multiplicity
 _atom_site_fract_x
 _atom_site_fract_y
 _atom_site_fract_z
 _atom_site_occupancy
  Mn  Mn0  1  0.495373  0.502672  0.492451  1
  Os  Os1  1  0.770889  0.999026  0.248664  1
  I  I2  1  0.236453  0.000979  0.749732  1
  F  F3  1  0.939460  0.219478  0.198625  1
  F  F4  1  0.060545  0.782841  0.805922  1
  F  F5  1  0.999776  0.773029  0.140229  1
  F  F6  1  0.489394  0.735919  0.627112  1
  F  F7  1  0.538153  0.223976  0.371318  1
  F  F8  1  0.922481  0.246114  0.566022  1
  F  F9  1  0.054510  0.762642  0.424003  1
  F  F10  1  0.410713  0.269977  0.685967  1
  F  F11  1  0.595113  0.767822  0.314326  1
  F  F12  1  0.489344  0.781627  0.927496  1
  F  F13  1  0.498710  0.216853  0.084124  1
  F  F14  1  0.999088  0.217046  0.864011  1
