# generated using pymatgen
data_Ca2Zn14Ir3
_symmetry_space_group_name_H-M   'P 1'
_cell_length_a   6.84861848
_cell_length_b   6.84861902
_cell_length_c   6.84861693
_cell_angle_alpha   82.98015210
_cell_angle_beta   82.98014861
_cell_angle_gamma   82.98015829
_symmetry_Int_Tables_number   1
_chemical_formula_structural   Ca2Zn14Ir3
_chemical_formula_sum   'Ca2 Zn14 Ir3'
_cell_volume   314.54480508
_cell_formula_units_Z   1
loop_
 _symmetry_equiv_pos_site_id
 _symmetry_equiv_pos_as_xyz
  1  'x, y, z'
loop_
 _atom_site_type_symbol
 _atom_site_label
 _atom_site_symmetry_multiplicity
 _atom_site_fract_x
 _atom_site_fract_y
 _atom_site_fract_z
 _atom_site_occupancy
  Ca  Ca0  1  0.668539  0.668539  0.668539  1
  Ca  Ca1  1  0.331461  0.331461  0.331461  1
  Zn  Zn2  1  0.350783  0.350783  0.845425  1
  Zn  Zn3  1  0.845425  0.350783  0.350783  1
  Zn  Zn4  1  0.104404  0.104404  0.104404  1
  Zn  Zn5  1  0.895596  0.895596  0.895596  1
  Zn  Zn6  1  0.292443  0.707557  0.000000  1
  Zn  Zn7  1  0.707557  0.000000  0.292443  1
  Zn  Zn8  1  0.000000  0.292443  0.707557  1
  Zn  Zn9  1  0.707557  0.292443  0.000000  1
  Zn  Zn10  1  0.292443  0.000000  0.707557  1
  Zn  Zn11  1  0.000000  0.707557  0.292443  1
  Zn  Zn12  1  0.154575  0.649217  0.649217  1
  Zn  Zn13  1  0.649217  0.649217  0.154575  1
  Zn  Zn14  1  0.649217  0.154575  0.649217  1
  Zn  Zn15  1  0.350783  0.845425  0.350783  1
  Ir  Ir16  1  0.000000  0.000000  0.500000  1
  Ir  Ir17  1  0.000000  0.500000  0.000000  1
  Ir  Ir18  1  0.500000  0.000000  0.000000  1
