# generated using pymatgen
data_Zr4AlTc6Os
_symmetry_space_group_name_H-M   'P 1'
_cell_length_a   5.22623100
_cell_length_b   5.22623055
_cell_length_c   8.74501200
_cell_angle_alpha   90.00000000
_cell_angle_beta   90.00000000
_cell_angle_gamma   120.00000920
_symmetry_Int_Tables_number   1
_chemical_formula_structural   Zr4AlTc6Os
_chemical_formula_sum   'Zr4 Al1 Tc6 Os1'
_cell_volume   206.85602118
_cell_formula_units_Z   1
loop_
 _symmetry_equiv_pos_site_id
 _symmetry_equiv_pos_as_xyz
  1  'x, y, z'
loop_
 _atom_site_type_symbol
 _atom_site_label
 _atom_site_symmetry_multiplicity
 _atom_site_fract_x
 _atom_site_fract_y
 _atom_site_fract_z
 _atom_site_occupancy
  Zr  Zr0  1  0.333333  0.666667  0.430301  1
  Zr  Zr1  1  0.666667  0.333333  0.569699  1
  Zr  Zr2  1  0.666667  0.333333  0.937303  1
  Zr  Zr3  1  0.333333  0.666667  0.062697  1
  Al  Al4  1  0.000000  0.000000  0.500000  1
  Tc  Tc5  1  0.828636  0.171364  0.250828  1
  Tc  Tc6  1  0.828636  0.657272  0.250828  1
  Tc  Tc7  1  0.342728  0.171364  0.250828  1
  Tc  Tc8  1  0.171364  0.828636  0.749172  1
  Tc  Tc9  1  0.171364  0.342728  0.749172  1
  Tc  Tc10  1  0.657272  0.828636  0.749172  1
  Os  Os11  1  0.000000  0.000000  0.000000  1
