# generated using pymatgen
data_TbDy3AlFe2Ru5
_symmetry_space_group_name_H-M   'P 1'
_cell_length_a   5.25924027
_cell_length_b   5.40009710
_cell_length_c   9.20356952
_cell_angle_alpha   72.94020430
_cell_angle_beta   91.14704997
_cell_angle_gamma   120.88998223
_symmetry_Int_Tables_number   1
_chemical_formula_structural   TbDy3AlFe2Ru5
_chemical_formula_sum   'Tb1 Dy3 Al1 Fe2 Ru5'
_cell_volume   211.70470768
_cell_formula_units_Z   1
loop_
 _symmetry_equiv_pos_site_id
 _symmetry_equiv_pos_as_xyz
  1  'x, y, z'
loop_
 _atom_site_type_symbol
 _atom_site_label
 _atom_site_symmetry_multiplicity
 _atom_site_fract_x
 _atom_site_fract_y
 _atom_site_fract_z
 _atom_site_occupancy
  Tb  Tb0  1  0.874986  0.750634  0.373718  1
  Dy  Dy1  1  0.378572  0.752907  0.872757  1
  Dy  Dy2  1  0.995541  0.994405  0.006733  1
  Dy  Dy3  1  0.503680  0.000954  0.501771  1
  Al  Al4  1  0.690126  0.376402  0.937323  1
  Fe  Fe5  1  0.934378  0.371921  0.190536  1
  Fe  Fe6  1  0.426592  0.370273  0.686046  1
  Ru  Ru7  1  0.443834  0.373158  0.184946  1
  Ru  Ru8  1  0.936164  0.378320  0.690153  1
  Ru  Ru9  1  0.443834  0.885730  0.184946  1
  Ru  Ru10  1  0.936164  0.867689  0.690153  1
  Ru  Ru11  1  0.186126  0.377605  0.430915  1
