# generated using pymatgen
data_DyY3CoAg
_symmetry_space_group_name_H-M   'P 1'
_cell_length_a   9.45380896
_cell_length_b   9.45380962
_cell_length_c   9.45381100
_cell_angle_alpha   60.00000567
_cell_angle_beta   60.00000336
_cell_angle_gamma   60.00000859
_symmetry_Int_Tables_number   1
_chemical_formula_structural   DyY3CoAg
_chemical_formula_sum   'Dy4 Y12 Co4 Ag4'
_cell_volume   597.45561910
_cell_formula_units_Z   4
loop_
 _symmetry_equiv_pos_site_id
 _symmetry_equiv_pos_as_xyz
  1  'x, y, z'
loop_
 _atom_site_type_symbol
 _atom_site_label
 _atom_site_symmetry_multiplicity
 _atom_site_fract_x
 _atom_site_fract_y
 _atom_site_fract_z
 _atom_site_occupancy
  Dy  Dy0  1  0.347952  0.347952  0.347952  1
  Dy  Dy1  1  0.347952  0.347952  0.956144  1
  Dy  Dy2  1  0.347952  0.956144  0.347952  1
  Dy  Dy3  1  0.956144  0.347952  0.347952  1
  Y  Y4  1  0.811480  0.188520  0.188520  1
  Y  Y5  1  0.188520  0.811480  0.811480  1
  Y  Y6  1  0.188520  0.811480  0.188520  1
  Y  Y7  1  0.811480  0.188520  0.811480  1
  Y  Y8  1  0.188520  0.188520  0.811480  1
  Y  Y9  1  0.811480  0.811480  0.188520  1
  Y  Y10  1  0.937795  0.562205  0.562205  1
  Y  Y11  1  0.562205  0.937795  0.937795  1
  Y  Y12  1  0.562205  0.937795  0.562205  1
  Y  Y13  1  0.937795  0.562205  0.937795  1
  Y  Y14  1  0.562205  0.562205  0.937795  1
  Y  Y15  1  0.937795  0.937795  0.562205  1
  Co  Co16  1  0.142137  0.142137  0.142137  1
  Co  Co17  1  0.142137  0.142137  0.573589  1
  Co  Co18  1  0.142137  0.573589  0.142137  1
  Co  Co19  1  0.573589  0.142137  0.142137  1
  Ag  Ag20  1  0.581170  0.581170  0.581170  1
  Ag  Ag21  1  0.581170  0.581170  0.256491  1
  Ag  Ag22  1  0.581170  0.256491  0.581170  1
  Ag  Ag23  1  0.256491  0.581170  0.581170  1
