# generated using pymatgen
data_DyCd3P7N12
_symmetry_space_group_name_H-M   'P 1'
_cell_length_a   7.43439938
_cell_length_b   7.46017821
_cell_length_c   7.46017856
_cell_angle_alpha   109.54110671
_cell_angle_beta   109.40123745
_cell_angle_gamma   109.40124250
_symmetry_Int_Tables_number   1
_chemical_formula_structural   DyCd3P7N12
_chemical_formula_sum   'Dy1 Cd3 P7 N12'
_cell_volume   318.78420454
_cell_formula_units_Z   1
loop_
 _symmetry_equiv_pos_site_id
 _symmetry_equiv_pos_as_xyz
  1  'x, y, z'
loop_
 _atom_site_type_symbol
 _atom_site_label
 _atom_site_symmetry_multiplicity
 _atom_site_fract_x
 _atom_site_fract_y
 _atom_site_fract_z
 _atom_site_occupancy
  Dy  Dy0  1  0.642139  0.000000  0.000000  1
  Cd  Cd1  1  0.999096  0.000000  0.670384  1
  Cd  Cd2  1  0.999096  0.670384  0.000000  1
  Cd  Cd3  1  0.328712  0.329616  0.329616  1
  P  P4  1  0.248693  0.749028  0.496775  1
  P  P5  1  0.751918  0.252253  0.503225  1
  P  P6  1  0.751918  0.503225  0.252253  1
  P  P7  1  0.248693  0.496775  0.749028  1
  P  P8  1  0.499665  0.747747  0.250972  1
  P  P9  1  0.499665  0.250972  0.747747  1
  P  P10  1  0.002382  0.000000  0.000000  1
  N  N11  1  0.714834  0.294268  0.294268  1
  N  N12  1  0.287801  0.707769  0.287094  1
  N  N13  1  0.307744  0.594128  0.594128  1
  N  N14  1  0.580032  0.579325  0.292231  1
  N  N15  1  0.420567  0.705732  0.000000  1
  N  N16  1  0.000707  0.712906  0.420675  1
  N  N17  1  0.580032  0.292231  0.579325  1
  N  N18  1  0.713617  0.000000  0.405872  1
  N  N19  1  0.420567  0.000000  0.705732  1
  N  N20  1  0.713617  0.405872  0.000000  1
  N  N21  1  0.287801  0.287094  0.707769  1
  N  N22  1  0.000707  0.420675  0.712906  1
