# generated using pymatgen
data_Ti4ZnAuN2
_symmetry_space_group_name_H-M   'P 1'
_cell_length_a   8.36832073
_cell_length_b   8.36832073
_cell_length_c   4.24923100
_cell_angle_alpha   90.00000000
_cell_angle_beta   90.00000000
_cell_angle_gamma   159.27999986
_symmetry_Int_Tables_number   1
_chemical_formula_structural   Ti4ZnAuN2
_chemical_formula_sum   'Ti4 Zn1 Au1 N2'
_cell_volume   105.28014342
_cell_formula_units_Z   1
loop_
 _symmetry_equiv_pos_site_id
 _symmetry_equiv_pos_as_xyz
  1  'x, y, z'
loop_
 _atom_site_type_symbol
 _atom_site_label
 _atom_site_symmetry_multiplicity
 _atom_site_fract_x
 _atom_site_fract_y
 _atom_site_fract_z
 _atom_site_occupancy
  Ti  Ti0  1  0.786018  0.213982  0.250000  1
  Ti  Ti1  1  0.212757  0.787243  0.750000  1
  Ti  Ti2  1  0.612701  0.387299  0.250000  1
  Ti  Ti3  1  0.385756  0.614244  0.750000  1
  Zn  Zn4  1  0.046404  0.953596  0.750000  1
  Au  Au5  1  0.957552  0.042448  0.250000  1
  N  N6  1  0.199577  0.800423  0.250000  1
  N  N7  1  0.799235  0.200765  0.750000  1
