# generated using pymatgen
data_La2Eu3Hf2ThSb10
_symmetry_space_group_name_H-M   'P 1'
_cell_length_a   9.59236600
_cell_length_b   9.57442837
_cell_length_c   6.41902000
_cell_angle_alpha   90.00000000
_cell_angle_beta   90.00000000
_cell_angle_gamma   120.06200095
_symmetry_Int_Tables_number   1
_chemical_formula_structural   La2Eu3Hf2ThSb10
_chemical_formula_sum   'La2 Eu3 Hf2 Th1 Sb10'
_cell_volume   510.23034737
_cell_formula_units_Z   1
loop_
 _symmetry_equiv_pos_site_id
 _symmetry_equiv_pos_as_xyz
  1  'x, y, z'
loop_
 _atom_site_type_symbol
 _atom_site_label
 _atom_site_symmetry_multiplicity
 _atom_site_fract_x
 _atom_site_fract_y
 _atom_site_fract_z
 _atom_site_occupancy
  La  La0  1  0.382495  0.383673  0.250000  1
  La  La1  1  0.998822  0.616327  0.250000  1
  Eu  Eu2  1  0.616119  0.611477  0.750000  1
  Eu  Eu3  1  0.379910  0.000000  0.750000  1
  Eu  Eu4  1  0.004642  0.388523  0.750000  1
  Hf  Hf5  1  0.999861  0.000000  0.997025  1
  Hf  Hf6  1  0.999861  0.000000  0.502975  1
  Th  Th7  1  0.616946  0.000000  0.250000  1
  Sb  Sb8  1  0.338730  0.672889  0.492762  1
  Sb  Sb9  1  0.665842  0.327111  0.007238  1
  Sb  Sb10  1  0.665842  0.327111  0.492762  1
  Sb  Sb11  1  0.338730  0.672889  0.007238  1
  Sb  Sb12  1  0.739545  0.000000  0.750000  1
  Sb  Sb13  1  0.741401  0.744191  0.250000  1
  Sb  Sb14  1  0.997211  0.255809  0.250000  1
  Sb  Sb15  1  0.998906  0.741650  0.750000  1
  Sb  Sb16  1  0.257882  0.000000  0.250000  1
  Sb  Sb17  1  0.257255  0.258350  0.750000  1
