# generated using pymatgen
data_Sm3Y7(Sn3Bi)2
_symmetry_space_group_name_H-M   'P 1'
_cell_length_a   8.21445800
_cell_length_b   8.25447984
_cell_length_c   15.59111809
_cell_angle_alpha   90.04434498
_cell_angle_beta   90.00000000
_cell_angle_gamma   90.00000000
_symmetry_Int_Tables_number   1
_chemical_formula_structural   Sm3Y7(Sn3Bi)2
_chemical_formula_sum   'Sm6 Y14 Sn12 Bi4'
_cell_volume   1057.17225200
_cell_formula_units_Z   2
loop_
 _symmetry_equiv_pos_site_id
 _symmetry_equiv_pos_as_xyz
  1  'x, y, z'
loop_
 _atom_site_type_symbol
 _atom_site_label
 _atom_site_symmetry_multiplicity
 _atom_site_fract_x
 _atom_site_fract_y
 _atom_site_fract_z
 _atom_site_occupancy
  Sm  Sm0  1  0.460800  0.675071  0.396942  1
  Sm  Sm1  1  0.960800  0.824929  0.103058  1
  Sm  Sm2  1  0.477334  0.675252  0.101548  1
  Sm  Sm3  1  0.977334  0.824748  0.398452  1
  Sm  Sm4  1  0.521560  0.323924  0.601490  1
  Sm  Sm5  1  0.021560  0.176076  0.898510  1
  Y  Y6  1  0.374715  0.839454  0.875440  1
  Y  Y7  1  0.874715  0.660546  0.624560  1
  Y  Y8  1  0.623533  0.161035  0.375592  1
  Y  Y9  1  0.123533  0.338965  0.124408  1
  Y  Y10  1  0.632958  0.161796  0.122377  1
  Y  Y11  1  0.132958  0.338204  0.377623  1
  Y  Y12  1  0.366819  0.838407  0.623577  1
  Y  Y13  1  0.866819  0.661593  0.876423  1
  Y  Y14  1  0.542729  0.326731  0.894427  1
  Y  Y15  1  0.042729  0.173269  0.605573  1
  Y  Y16  1  0.201145  0.500614  0.747091  1
  Y  Y17  1  0.701145  0.999386  0.752909  1
  Y  Y18  1  0.798552  0.499139  0.246880  1
  Y  Y19  1  0.298552  0.000861  0.253120  1
  Sn  Sn20  1  0.710528  0.965552  0.956529  1
  Sn  Sn21  1  0.210528  0.534448  0.543471  1
  Sn  Sn22  1  0.286872  0.035785  0.458508  1
  Sn  Sn23  1  0.786872  0.464215  0.041492  1
  Sn  Sn24  1  0.567258  0.622918  0.748490  1
  Sn  Sn25  1  0.067258  0.877082  0.751510  1
  Sn  Sn26  1  0.432059  0.376514  0.248089  1
  Sn  Sn27  1  0.932059  0.123486  0.251911  1
  Sn  Sn28  1  0.337753  0.146935  0.752540  1
  Sn  Sn29  1  0.837753  0.353065  0.747460  1
  Sn  Sn30  1  0.662943  0.854725  0.251275  1
  Sn  Sn31  1  0.162943  0.645275  0.248725  1
  Bi  Bi32  1  0.285737  0.032192  0.043402  1
  Bi  Bi33  1  0.785737  0.467808  0.456598  1
  Bi  Bi34  1  0.716704  0.970180  0.543675  1
  Bi  Bi35  1  0.216704  0.529820  0.956325  1
