# generated using pymatgen
data_Y3Mn8P6Pt
_symmetry_space_group_name_H-M   'P 1'
_cell_length_a   3.65539900
_cell_length_b   11.01448900
_cell_length_c   12.82908500
_cell_angle_alpha   90.00000000
_cell_angle_beta   90.00000000
_cell_angle_gamma   90.00000000
_symmetry_Int_Tables_number   1
_chemical_formula_structural   Y3Mn8P6Pt
_chemical_formula_sum   'Y6 Mn16 P12 Pt2'
_cell_volume   516.52913708
_cell_formula_units_Z   2
loop_
 _symmetry_equiv_pos_site_id
 _symmetry_equiv_pos_as_xyz
  1  'x, y, z'
loop_
 _atom_site_type_symbol
 _atom_site_label
 _atom_site_symmetry_multiplicity
 _atom_site_fract_x
 _atom_site_fract_y
 _atom_site_fract_z
 _atom_site_occupancy
  Y  Y0  1  0.000000  0.500000  0.525126  1
  Y  Y1  1  0.500000  0.000000  0.474874  1
  Y  Y2  1  0.500000  0.815159  0.203668  1
  Y  Y3  1  0.500000  0.184841  0.203668  1
  Y  Y4  1  0.000000  0.684841  0.796332  1
  Y  Y5  1  0.000000  0.315159  0.796332  1
  Mn  Mn6  1  0.500000  0.500000  0.167978  1
  Mn  Mn7  1  0.000000  0.000000  0.832022  1
  Mn  Mn8  1  0.000000  0.500000  0.995054  1
  Mn  Mn9  1  0.500000  0.000000  0.004946  1
  Mn  Mn10  1  0.500000  0.331602  0.998058  1
  Mn  Mn11  1  0.500000  0.668398  0.998058  1
  Mn  Mn12  1  0.000000  0.168398  0.001942  1
  Mn  Mn13  1  0.000000  0.831602  0.001942  1
  Mn  Mn14  1  0.500000  0.300717  0.432117  1
  Mn  Mn15  1  0.500000  0.699283  0.432117  1
  Mn  Mn16  1  0.000000  0.199283  0.567883  1
  Mn  Mn17  1  0.000000  0.800717  0.567883  1
  Mn  Mn18  1  0.500000  0.883582  0.703657  1
  Mn  Mn19  1  0.500000  0.116418  0.703657  1
  Mn  Mn20  1  0.000000  0.616418  0.296343  1
  Mn  Mn21  1  0.000000  0.383582  0.296343  1
  P  P22  1  0.500000  0.500000  0.890258  1
  P  P23  1  0.000000  0.000000  0.109742  1
  P  P24  1  0.500000  0.500000  0.357820  1
  P  P25  1  0.000000  0.000000  0.642180  1
  P  P26  1  0.500000  0.308400  0.614999  1
  P  P27  1  0.500000  0.691600  0.614999  1
  P  P28  1  0.000000  0.191600  0.385001  1
  P  P29  1  0.000000  0.808400  0.385001  1
  P  P30  1  0.500000  0.847134  0.885636  1
  P  P31  1  0.500000  0.152866  0.885636  1
  P  P32  1  0.000000  0.652866  0.114364  1
  P  P33  1  0.000000  0.347134  0.114364  1
  Pt  Pt34  1  0.500000  0.500000  0.705506  1
  Pt  Pt35  1  0.000000  0.000000  0.294494  1
