# generated using pymatgen
data_Sc22TcIr5Ru2
_symmetry_space_group_name_H-M   'P 1'
_cell_length_a   9.48253877
_cell_length_b   9.49199920
_cell_length_c   9.48253926
_cell_angle_alpha   59.96699922
_cell_angle_beta   59.94729326
_cell_angle_gamma   59.96699628
_symmetry_Int_Tables_number   1
_chemical_formula_structural   Sc22TcIr5Ru2
_chemical_formula_sum   'Sc22 Tc1 Ir5 Ru2'
_cell_volume   602.97878740
_cell_formula_units_Z   1
loop_
 _symmetry_equiv_pos_site_id
 _symmetry_equiv_pos_as_xyz
  1  'x, y, z'
loop_
 _atom_site_type_symbol
 _atom_site_label
 _atom_site_symmetry_multiplicity
 _atom_site_fract_x
 _atom_site_fract_y
 _atom_site_fract_z
 _atom_site_occupancy
  Sc  Sc0  1  0.803132  0.803232  0.196868  1
  Sc  Sc1  1  0.197259  0.802741  0.197259  1
  Sc  Sc2  1  0.803132  0.196768  0.196868  1
  Sc  Sc3  1  0.196868  0.196768  0.803132  1
  Sc  Sc4  1  0.802741  0.197259  0.802741  1
  Sc  Sc5  1  0.196868  0.803232  0.803132  1
  Sc  Sc6  1  0.616114  0.617197  0.149490  1
  Sc  Sc7  1  0.615994  0.150386  0.615994  1
  Sc  Sc8  1  0.149490  0.617197  0.616114  1
  Sc  Sc9  1  0.615994  0.617624  0.615994  1
  Sc  Sc10  1  0.383886  0.382803  0.850510  1
  Sc  Sc11  1  0.384006  0.849614  0.384006  1
  Sc  Sc12  1  0.850510  0.382803  0.383886  1
  Sc  Sc13  1  0.384006  0.382376  0.384006  1
  Sc  Sc14  1  0.842833  0.843630  0.469905  1
  Sc  Sc15  1  0.842914  0.470673  0.842914  1
  Sc  Sc16  1  0.469905  0.843630  0.842833  1
  Sc  Sc17  1  0.842914  0.843497  0.842914  1
  Sc  Sc18  1  0.157167  0.156370  0.530095  1
  Sc  Sc19  1  0.157086  0.529327  0.157086  1
  Sc  Sc20  1  0.530095  0.156370  0.157167  1
  Sc  Sc21  1  0.157086  0.156503  0.157086  1
  Tc  Tc22  1  0.500000  0.000000  0.500000  1
  Ir  Ir23  1  0.000000  0.000000  0.500000  1
  Ir  Ir24  1  0.000000  0.500000  0.500000  1
  Ir  Ir25  1  0.500000  0.500000  0.000000  1
  Ir  Ir26  1  0.000000  0.500000  0.000000  1
  Ir  Ir27  1  0.500000  0.000000  0.000000  1
  Ru  Ru28  1  0.000000  0.000000  0.000000  1
  Ru  Ru29  1  0.500000  0.500000  0.500000  1
