# generated using pymatgen
data_Tm12Th4Mg3HgIrRh3
_symmetry_space_group_name_H-M   'P 1'
_cell_length_a   9.67867657
_cell_length_b   9.67867708
_cell_length_c   9.67867682
_cell_angle_alpha   59.89417821
_cell_angle_beta   59.89417488
_cell_angle_gamma   59.89417184
_symmetry_Int_Tables_number   1
_chemical_formula_structural   Tm12Th4Mg3HgIrRh3
_chemical_formula_sum   'Tm12 Th4 Mg3 Hg1 Ir1 Rh3'
_cell_volume   639.57136681
_cell_formula_units_Z   1
loop_
 _symmetry_equiv_pos_site_id
 _symmetry_equiv_pos_as_xyz
  1  'x, y, z'
loop_
 _atom_site_type_symbol
 _atom_site_label
 _atom_site_symmetry_multiplicity
 _atom_site_fract_x
 _atom_site_fract_y
 _atom_site_fract_z
 _atom_site_occupancy
  Tm  Tm0  1  0.063488  0.436631  0.436631  1
  Tm  Tm1  1  0.435174  0.063929  0.063929  1
  Tm  Tm2  1  0.436631  0.063488  0.436631  1
  Tm  Tm3  1  0.063929  0.435174  0.063929  1
  Tm  Tm4  1  0.436631  0.436631  0.063488  1
  Tm  Tm5  1  0.063929  0.063929  0.435174  1
  Tm  Tm6  1  0.182065  0.816648  0.816648  1
  Tm  Tm7  1  0.816607  0.183625  0.183625  1
  Tm  Tm8  1  0.816648  0.182065  0.816648  1
  Tm  Tm9  1  0.183625  0.816607  0.183625  1
  Tm  Tm10  1  0.816648  0.816648  0.182065  1
  Tm  Tm11  1  0.183625  0.183625  0.816607  1
  Th  Th12  1  0.598774  0.598774  0.598774  1
  Th  Th13  1  0.601530  0.601530  0.198163  1
  Th  Th14  1  0.601530  0.198163  0.601530  1
  Th  Th15  1  0.198163  0.601530  0.601530  1
  Mg  Mg16  1  0.829940  0.829940  0.509046  1
  Mg  Mg17  1  0.829940  0.509046  0.829940  1
  Mg  Mg18  1  0.509046  0.829940  0.829940  1
  Hg  Hg19  1  0.834601  0.834601  0.834601  1
  Ir  Ir20  1  0.393046  0.393046  0.393046  1
  Rh  Rh21  1  0.392446  0.392446  0.819534  1
  Rh  Rh22  1  0.392446  0.819534  0.392446  1
  Rh  Rh23  1  0.819534  0.392446  0.392446  1
