# generated using pymatgen
data_Tb3Nd5Dy4(Si2Ni)4
_symmetry_space_group_name_H-M   'P 1'
_cell_length_a   4.16489500
_cell_length_b   11.46513500
_cell_length_c   11.50094906
_cell_angle_alpha   89.70690411
_cell_angle_beta   90.00000000
_cell_angle_gamma   90.00000000
_symmetry_Int_Tables_number   1
_chemical_formula_structural   Tb3Nd5Dy4(Si2Ni)4
_chemical_formula_sum   'Tb3 Nd5 Dy4 Si8 Ni4'
_cell_volume   549.17559216
_cell_formula_units_Z   1
loop_
 _symmetry_equiv_pos_site_id
 _symmetry_equiv_pos_as_xyz
  1  'x, y, z'
loop_
 _atom_site_type_symbol
 _atom_site_label
 _atom_site_symmetry_multiplicity
 _atom_site_fract_x
 _atom_site_fract_y
 _atom_site_fract_z
 _atom_site_occupancy
  Tb  Tb0  1  0.250000  0.693393  0.215520  1
  Tb  Tb1  1  0.750000  0.195791  0.282550  1
  Tb  Tb2  1  0.750000  0.303963  0.782359  1
  Nd  Nd3  1  0.250000  0.125681  0.557774  1
  Nd  Nd4  1  0.250000  0.375109  0.056609  1
  Nd  Nd5  1  0.750000  0.875256  0.441357  1
  Nd  Nd6  1  0.750000  0.624583  0.942768  1
  Nd  Nd7  1  0.250000  0.802943  0.716516  1
  Dy  Dy8  1  0.250000  0.058387  0.886498  1
  Dy  Dy9  1  0.250000  0.440649  0.382909  1
  Dy  Dy10  1  0.750000  0.941353  0.118412  1
  Dy  Dy11  1  0.750000  0.556622  0.612549  1
  Si  Si12  1  0.250000  0.816536  0.979273  1
  Si  Si13  1  0.250000  0.681641  0.471229  1
  Si  Si14  1  0.750000  0.183066  0.025135  1
  Si  Si15  1  0.750000  0.316456  0.524132  1
  Si  Si16  1  0.250000  0.493953  0.795838  1
  Si  Si17  1  0.250000  0.007480  0.297447  1
  Si  Si18  1  0.750000  0.504325  0.202786  1
  Si  Si19  1  0.750000  0.998786  0.706567  1
  Ni  Ni20  1  0.250000  0.370027  0.625715  1
  Ni  Ni21  1  0.250000  0.130374  0.126408  1
  Ni  Ni22  1  0.750000  0.631332  0.370614  1
  Ni  Ni23  1  0.750000  0.872293  0.879035  1
