# generated using pymatgen
data_Ho4Al24Cu2Pd6Rh
_symmetry_space_group_name_H-M   'P 1'
_cell_length_a   7.52036732
_cell_length_b   7.52550186
_cell_length_c   13.06328278
_cell_angle_alpha   84.71131838
_cell_angle_beta   79.03139296
_cell_angle_gamma   59.92904544
_symmetry_Int_Tables_number   1
_chemical_formula_structural   Ho4Al24Cu2Pd6Rh
_chemical_formula_sum   'Ho4 Al24 Cu2 Pd6 Rh1'
_cell_volume   628.11081309
_cell_formula_units_Z   1
loop_
 _symmetry_equiv_pos_site_id
 _symmetry_equiv_pos_as_xyz
  1  'x, y, z'
loop_
 _atom_site_type_symbol
 _atom_site_label
 _atom_site_symmetry_multiplicity
 _atom_site_fract_x
 _atom_site_fract_y
 _atom_site_fract_z
 _atom_site_occupancy
  Ho  Ho0  1  0.393664  0.167486  0.808164  1
  Ho  Ho1  1  0.606336  0.832514  0.191836  1
  Ho  Ho2  1  0.733382  0.498519  0.808136  1
  Ho  Ho3  1  0.266618  0.501481  0.191864  1
  Al  Al4  1  0.686773  0.830151  0.946677  1
  Al  Al5  1  0.313227  0.169849  0.053323  1
  Al  Al6  1  0.145224  0.834167  0.563827  1
  Al  Al7  1  0.854776  0.165833  0.436173  1
  Al  Al8  1  0.479907  0.167407  0.561292  1
  Al  Al9  1  0.520093  0.832593  0.438708  1
  Al  Al10  1  0.214386  0.167919  0.328770  1
  Al  Al11  1  0.785614  0.832081  0.671230  1
  Al  Al12  1  0.432933  0.506905  0.671954  1
  Al  Al13  1  0.567067  0.493095  0.328046  1
  Al  Al14  1  0.110165  0.162493  0.670029  1
  Al  Al15  1  0.889835  0.837507  0.329971  1
  Al  Al16  1  0.349345  0.498695  0.945955  1
  Al  Al17  1  0.650655  0.501305  0.054045  1
  Al  Al18  1  0.014639  0.170977  0.956086  1
  Al  Al19  1  0.985361  0.829023  0.043914  1
  Al  Al20  1  0.185724  0.500280  0.442173  1
  Al  Al21  1  0.814276  0.499720  0.557827  1
  Al  Al22  1  0.734341  0.164555  0.184146  1
  Al  Al23  1  0.265659  0.835445  0.815854  1
  Al  Al24  1  0.060313  0.626994  0.815610  1
  Al  Al25  1  0.939687  0.373006  0.184390  1
  Al  Al26  1  0.856128  0.041668  0.816103  1
  Al  Al27  1  0.143872  0.958332  0.183897  1
  Cu  Cu28  1  0.119313  0.492562  0.638726  1
  Cu  Cu29  1  0.880687  0.507438  0.361274  1
  Pd  Pd30  1  0.656904  0.171734  0.000285  1
  Pd  Pd31  1  0.343096  0.828266  0.999715  1
  Pd  Pd32  1  0.535626  0.167991  0.363563  1
  Pd  Pd33  1  0.464374  0.832009  0.636437  1
  Pd  Pd34  1  0.779781  0.176341  0.636486  1
  Pd  Pd35  1  0.220219  0.823659  0.363514  1
  Rh  Rh36  1  0.000000  0.500000  0.000000  1
