# generated using pymatgen
data_AcNb8AlS16
_symmetry_space_group_name_H-M   'P 1'
_cell_length_a   6.67627100
_cell_length_b   6.67627373
_cell_length_c   13.64257700
_cell_angle_alpha   90.00000000
_cell_angle_beta   90.00000000
_cell_angle_gamma   120.00001124
_symmetry_Int_Tables_number   1
_chemical_formula_structural   AcNb8AlS16
_chemical_formula_sum   'Ac1 Nb8 Al1 S16'
_cell_volume   526.61725865
_cell_formula_units_Z   1
loop_
 _symmetry_equiv_pos_site_id
 _symmetry_equiv_pos_as_xyz
  1  'x, y, z'
loop_
 _atom_site_type_symbol
 _atom_site_label
 _atom_site_symmetry_multiplicity
 _atom_site_fract_x
 _atom_site_fract_y
 _atom_site_fract_z
 _atom_site_occupancy
  Ac  Ac0  1  0.000000  0.000000  0.500000  1
  Nb  Nb1  1  0.000000  0.000000  0.226369  1
  Nb  Nb2  1  0.000000  0.000000  0.773631  1
  Nb  Nb3  1  0.504475  0.008952  0.223011  1
  Nb  Nb4  1  0.495525  0.991048  0.776989  1
  Nb  Nb5  1  0.991048  0.495525  0.223011  1
  Nb  Nb6  1  0.008952  0.504475  0.776989  1
  Nb  Nb7  1  0.504475  0.495525  0.223011  1
  Nb  Nb8  1  0.495525  0.504475  0.776989  1
  Al  Al9  1  0.000000  0.000000  0.000000  1
  S  S10  1  0.333333  0.666667  0.657758  1
  S  S11  1  0.666667  0.333333  0.342242  1
  S  S12  1  0.666667  0.333333  0.107149  1
  S  S13  1  0.333333  0.666667  0.892851  1
  S  S14  1  0.166419  0.332839  0.108092  1
  S  S15  1  0.833581  0.667161  0.891908  1
  S  S16  1  0.667161  0.833581  0.108092  1
  S  S17  1  0.830174  0.660346  0.660858  1
  S  S18  1  0.332839  0.166419  0.891908  1
  S  S19  1  0.169826  0.339654  0.339142  1
  S  S20  1  0.166419  0.833581  0.108092  1
  S  S21  1  0.339654  0.169826  0.660858  1
  S  S22  1  0.833581  0.166419  0.891908  1
  S  S23  1  0.660346  0.830174  0.339142  1
  S  S24  1  0.830174  0.169826  0.660858  1
  S  S25  1  0.169826  0.830174  0.339142  1
