# generated using pymatgen
data_Nd6Mn2Fe(Co5P4)3
_symmetry_space_group_name_H-M   'P 1'
_cell_length_a   3.76729400
_cell_length_b   10.71477700
_cell_length_c   12.38232500
_cell_angle_alpha   90.00000000
_cell_angle_beta   90.00000000
_cell_angle_gamma   90.00000000
_symmetry_Int_Tables_number   1
_chemical_formula_structural   Nd6Mn2Fe(Co5P4)3
_chemical_formula_sum   'Nd6 Mn2 Fe1 Co15 P12'
_cell_volume   499.82140327
_cell_formula_units_Z   1
loop_
 _symmetry_equiv_pos_site_id
 _symmetry_equiv_pos_as_xyz
  1  'x, y, z'
loop_
 _atom_site_type_symbol
 _atom_site_label
 _atom_site_symmetry_multiplicity
 _atom_site_fract_x
 _atom_site_fract_y
 _atom_site_fract_z
 _atom_site_occupancy
  Nd  Nd0  1  0.000000  0.500000  0.522887  1
  Nd  Nd1  1  0.500000  0.000000  0.477643  1
  Nd  Nd2  1  0.500000  0.818443  0.205210  1
  Nd  Nd3  1  0.500000  0.181557  0.205210  1
  Nd  Nd4  1  0.000000  0.680411  0.795123  1
  Nd  Nd5  1  0.000000  0.319589  0.795123  1
  Mn  Mn6  1  0.500000  0.500000  0.155627  1
  Mn  Mn7  1  0.000000  0.000000  0.844005  1
  Fe  Fe8  1  0.000000  0.500000  0.990273  1
  Co  Co9  1  0.500000  0.500000  0.703286  1
  Co  Co10  1  0.000000  0.000000  0.295607  1
  Co  Co11  1  0.500000  0.000000  0.011341  1
  Co  Co12  1  0.500000  0.331847  0.996408  1
  Co  Co13  1  0.500000  0.668153  0.996408  1
  Co  Co14  1  0.000000  0.166126  0.003931  1
  Co  Co15  1  0.000000  0.833874  0.003931  1
  Co  Co16  1  0.500000  0.296403  0.429942  1
  Co  Co17  1  0.500000  0.703597  0.429942  1
  Co  Co18  1  0.000000  0.203703  0.569907  1
  Co  Co19  1  0.000000  0.796297  0.569907  1
  Co  Co20  1  0.500000  0.881038  0.710297  1
  Co  Co21  1  0.500000  0.118962  0.710297  1
  Co  Co22  1  0.000000  0.618386  0.289398  1
  Co  Co23  1  0.000000  0.381614  0.289398  1
  P  P24  1  0.500000  0.500000  0.888857  1
  P  P25  1  0.000000  0.000000  0.112517  1
  P  P26  1  0.500000  0.500000  0.341408  1
  P  P27  1  0.000000  0.000000  0.658019  1
  P  P28  1  0.500000  0.306557  0.614456  1
  P  P29  1  0.500000  0.693443  0.614456  1
  P  P30  1  0.000000  0.193375  0.385605  1
  P  P31  1  0.000000  0.806625  0.385605  1
  P  P32  1  0.500000  0.847124  0.895174  1
  P  P33  1  0.500000  0.152876  0.895174  1
  P  P34  1  0.000000  0.652321  0.103815  1
  P  P35  1  0.000000  0.347679  0.103815  1
