# generated using pymatgen
data_NdYB4(IrRu)2
_symmetry_space_group_name_H-M   'P 1'
_cell_length_a   6.85115479
_cell_length_b   6.01551906
_cell_length_c   5.58297226
_cell_angle_alpha   72.30343388
_cell_angle_beta   56.77041748
_cell_angle_gamma   50.72848183
_symmetry_Int_Tables_number   1
_chemical_formula_structural   NdYB4(IrRu)2
_chemical_formula_sum   'Nd1 Y1 B4 Ir2 Ru2'
_cell_volume   148.67274344
_cell_formula_units_Z   1
loop_
 _symmetry_equiv_pos_site_id
 _symmetry_equiv_pos_as_xyz
  1  'x, y, z'
loop_
 _atom_site_type_symbol
 _atom_site_label
 _atom_site_symmetry_multiplicity
 _atom_site_fract_x
 _atom_site_fract_y
 _atom_site_fract_z
 _atom_site_occupancy
  Nd  Nd0  1  0.746101  0.746101  0.753899  1
  Y  Y1  1  0.494657  0.494657  0.505343  1
  B  B2  1  0.071585  0.431945  0.066398  1
  B  B3  1  0.817196  0.184481  0.814583  1
  B  B4  1  0.431945  0.071585  0.430072  1
  B  B5  1  0.184481  0.817196  0.183741  1
  Ir  Ir6  1  0.866888  0.866888  0.133112  1
  Ir  Ir7  1  0.115562  0.115562  0.384438  1
  Ru  Ru8  1  0.386519  0.386519  0.113481  1
  Ru  Ru9  1  0.135068  0.135068  0.864932  1
