# generated using pymatgen
data_Zr12Zn4Ir3Rh5N4
_symmetry_space_group_name_H-M   'P 1'
_cell_length_a   8.55911969
_cell_length_b   8.55911979
_cell_length_c   8.56020603
_cell_angle_alpha   60.00419367
_cell_angle_beta   60.00419554
_cell_angle_gamma   59.99999958
_symmetry_Int_Tables_number   1
_chemical_formula_structural   Zr12Zn4Ir3Rh5N4
_chemical_formula_sum   'Zr12 Zn4 Ir3 Rh5 N4'
_cell_volume   443.46051283
_cell_formula_units_Z   1
loop_
 _symmetry_equiv_pos_site_id
 _symmetry_equiv_pos_as_xyz
  1  'x, y, z'
loop_
 _atom_site_type_symbol
 _atom_site_label
 _atom_site_symmetry_multiplicity
 _atom_site_fract_x
 _atom_site_fract_y
 _atom_site_fract_z
 _atom_site_occupancy
  Zr  Zr0  1  0.808653  0.192709  0.189985  1
  Zr  Zr1  1  0.192709  0.808653  0.189985  1
  Zr  Zr2  1  0.808653  0.808653  0.189985  1
  Zr  Zr3  1  0.191531  0.808567  0.808370  1
  Zr  Zr4  1  0.808567  0.191531  0.808370  1
  Zr  Zr5  1  0.191531  0.191531  0.808370  1
  Zr  Zr6  1  0.442347  0.057660  0.057645  1
  Zr  Zr7  1  0.057660  0.442347  0.057645  1
  Zr  Zr8  1  0.442347  0.442347  0.057645  1
  Zr  Zr9  1  0.057890  0.441623  0.442598  1
  Zr  Zr10  1  0.441623  0.057890  0.442598  1
  Zr  Zr11  1  0.057890  0.057890  0.442598  1
  Zn  Zn12  1  0.624237  0.624237  0.127290  1
  Zn  Zn13  1  0.624877  0.624877  0.624145  1
  Zn  Zn14  1  0.126101  0.624877  0.624145  1
  Zn  Zn15  1  0.624877  0.126101  0.624145  1
  Ir  Ir16  1  0.834742  0.834742  0.835645  1
  Ir  Ir17  1  0.494873  0.834742  0.835645  1
  Ir  Ir18  1  0.834742  0.494873  0.835645  1
  Rh  Rh19  1  0.414654  0.414654  0.756035  1
  Rh  Rh20  1  0.414656  0.414656  0.414807  1
  Rh  Rh21  1  0.755880  0.414656  0.414807  1
  Rh  Rh22  1  0.414656  0.755880  0.414807  1
  Rh  Rh23  1  0.834937  0.834937  0.495191  1
  N  N24  1  0.125140  0.125140  0.624581  1
  N  N25  1  0.124909  0.124909  0.125771  1
  N  N26  1  0.624411  0.124909  0.125771  1
  N  N27  1  0.124909  0.624411  0.125771  1
