# generated using pymatgen
data_Y3Ho5Au4
_symmetry_space_group_name_H-M   'P 1'
_cell_length_a   4.93413900
_cell_length_b   7.14391422
_cell_length_c   8.95931828
_cell_angle_alpha   89.97147115
_cell_angle_beta   90.00000000
_cell_angle_gamma   90.00000000
_symmetry_Int_Tables_number   1
_chemical_formula_structural   Y3Ho5Au4
_chemical_formula_sum   'Y3 Ho5 Au4'
_cell_volume   315.80756010
_cell_formula_units_Z   1
loop_
 _symmetry_equiv_pos_site_id
 _symmetry_equiv_pos_as_xyz
  1  'x, y, z'
loop_
 _atom_site_type_symbol
 _atom_site_label
 _atom_site_symmetry_multiplicity
 _atom_site_fract_x
 _atom_site_fract_y
 _atom_site_fract_z
 _atom_site_occupancy
  Y  Y0  1  0.250000  0.486608  0.176976  1
  Y  Y1  1  0.750000  0.513610  0.822704  1
  Y  Y2  1  0.250000  0.986484  0.322737  1
  Ho  Ho3  1  0.750000  0.013277  0.675961  1
  Ho  Ho4  1  0.750000  0.648670  0.420276  1
  Ho  Ho5  1  0.250000  0.351103  0.580453  1
  Ho  Ho6  1  0.750000  0.148140  0.079923  1
  Ho  Ho7  1  0.250000  0.852164  0.919225  1
  Au  Au8  1  0.250000  0.254670  0.899867  1
  Au  Au9  1  0.750000  0.745010  0.100237  1
  Au  Au10  1  0.250000  0.755735  0.600518  1
  Au  Au11  1  0.750000  0.244529  0.401122  1
