# generated using pymatgen
data_TmSi(Ni7B2)3
_symmetry_space_group_name_H-M   'P 1'
_cell_length_a   7.43100632
_cell_length_b   7.43105945
_cell_length_c   7.43074600
_cell_angle_alpha   60.00168008
_cell_angle_beta   60.00083666
_cell_angle_gamma   60.00556388
_symmetry_Int_Tables_number   1
_chemical_formula_structural   TmSi(Ni7B2)3
_chemical_formula_sum   'Tm1 Si1 Ni21 B6'
_cell_volume   290.16318127
_cell_formula_units_Z   1
loop_
 _symmetry_equiv_pos_site_id
 _symmetry_equiv_pos_as_xyz
  1  'x, y, z'
loop_
 _atom_site_type_symbol
 _atom_site_label
 _atom_site_symmetry_multiplicity
 _atom_site_fract_x
 _atom_site_fract_y
 _atom_site_fract_z
 _atom_site_occupancy
  Tm  Tm0  1  0.249987  0.249983  0.249993  1
  Si  Si1  1  0.749948  0.750058  0.749970  1
  Ni  Ni2  1  0.337681  0.999914  0.999922  1
  Ni  Ni3  1  0.662452  0.999900  0.999936  1
  Ni  Ni4  1  0.999927  0.337671  0.662492  1
  Ni  Ni5  1  0.999907  0.662482  0.337691  1
  Ni  Ni6  1  0.999922  0.337696  0.999926  1
  Ni  Ni7  1  0.662512  0.999896  0.337684  1
  Ni  Ni8  1  0.999926  0.662404  0.999918  1
  Ni  Ni9  1  0.337683  0.999902  0.662501  1
  Ni  Ni10  1  0.999919  0.999907  0.337673  1
  Ni  Ni11  1  0.999937  0.999902  0.662438  1
  Ni  Ni12  1  0.662476  0.337694  0.999934  1
  Ni  Ni13  1  0.337687  0.662498  0.999915  1
  Ni  Ni14  1  0.393595  0.393634  0.393570  1
  Ni  Ni15  1  0.625430  0.625402  0.625412  1
  Ni  Ni16  1  0.393579  0.393633  0.819175  1
  Ni  Ni17  1  0.393619  0.819201  0.393575  1
  Ni  Ni18  1  0.625478  0.625426  0.123730  1
  Ni  Ni19  1  0.625469  0.123717  0.625455  1
  Ni  Ni20  1  0.819180  0.393638  0.393566  1
  Ni  Ni21  1  0.123694  0.625435  0.625494  1
  Ni  Ni22  1  0.999981  0.999980  0.000002  1
  B  B23  1  0.729821  0.270198  0.270197  1
  B  B24  1  0.270109  0.729828  0.729831  1
  B  B25  1  0.270199  0.729819  0.270214  1
  B  B26  1  0.729845  0.270101  0.729850  1
  B  B27  1  0.270196  0.270220  0.729827  1
  B  B28  1  0.729843  0.729861  0.270107  1
