# generated using pymatgen
data_Ce2SmHo7(Al2Ru3)2
_symmetry_space_group_name_H-M   'P 1'
_cell_length_a   8.47115814
_cell_length_b   8.37153891
_cell_length_c   8.34662741
_cell_angle_alpha   110.05214476
_cell_angle_beta   109.21826299
_cell_angle_gamma   110.35553313
_symmetry_Int_Tables_number   1
_chemical_formula_structural   Ce2SmHo7(Al2Ru3)2
_chemical_formula_sum   'Ce2 Sm1 Ho7 Al4 Ru6'
_cell_volume   448.67429371
_cell_formula_units_Z   1
loop_
 _symmetry_equiv_pos_site_id
 _symmetry_equiv_pos_as_xyz
  1  'x, y, z'
loop_
 _atom_site_type_symbol
 _atom_site_label
 _atom_site_symmetry_multiplicity
 _atom_site_fract_x
 _atom_site_fract_y
 _atom_site_fract_z
 _atom_site_occupancy
  Ce  Ce0  1  0.943237  0.251311  0.195801  1
  Ce  Ce1  1  0.197560  0.941735  0.252209  1
  Sm  Sm2  1  0.254307  0.190169  0.933496  1
  Ho  Ho3  1  0.780866  0.785094  0.778526  1
  Ho  Ho4  1  0.317749  0.567025  0.753934  1
  Ho  Ho5  1  0.751102  0.317272  0.568356  1
  Ho  Ho6  1  0.568075  0.749102  0.313750  1
  Ho  Ho7  1  0.721357  0.503973  0.998355  1
  Ho  Ho8  1  0.998802  0.718449  0.505604  1
  Ho  Ho9  1  0.501843  0.991826  0.715457  1
  Al  Al10  1  0.416966  0.412526  0.411410  1
  Al  Al11  1  0.091117  0.492508  0.996905  1
  Al  Al12  1  0.996803  0.090448  0.500353  1
  Al  Al13  1  0.503181  0.009557  0.095262  1
  Ru  Ru14  1  0.865126  0.115131  0.738700  1
  Ru  Ru15  1  0.753213  0.901901  0.121273  1
  Ru  Ru16  1  0.125818  0.761457  0.907014  1
  Ru  Ru17  1  0.224748  0.591451  0.363800  1
  Ru  Ru18  1  0.358872  0.222320  0.595848  1
  Ru  Ru19  1  0.629258  0.386746  0.253945  1
