# generated using pymatgen
data_Lu4Th2VCo17P12
_symmetry_space_group_name_H-M   'P 1'
_cell_length_a   3.70752400
_cell_length_b   10.52543000
_cell_length_c   12.18774700
_cell_angle_alpha   90.00000000
_cell_angle_beta   90.00000000
_cell_angle_gamma   90.00000000
_symmetry_Int_Tables_number   1
_chemical_formula_structural   Lu4Th2VCo17P12
_chemical_formula_sum   'Lu4 Th2 V1 Co17 P12'
_cell_volume   475.60591659
_cell_formula_units_Z   1
loop_
 _symmetry_equiv_pos_site_id
 _symmetry_equiv_pos_as_xyz
  1  'x, y, z'
loop_
 _atom_site_type_symbol
 _atom_site_label
 _atom_site_symmetry_multiplicity
 _atom_site_fract_x
 _atom_site_fract_y
 _atom_site_fract_z
 _atom_site_occupancy
  Lu  Lu0  1  0.500000  0.817294  0.204086  1
  Lu  Lu1  1  0.500000  0.182706  0.204086  1
  Lu  Lu2  1  0.000000  0.683031  0.798719  1
  Lu  Lu3  1  0.000000  0.316969  0.798719  1
  Th  Th4  1  0.000000  0.500000  0.526836  1
  Th  Th5  1  0.500000  0.000000  0.475022  1
  V  V6  1  0.500000  0.500000  0.150674  1
  Co  Co7  1  0.000000  0.000000  0.843581  1
  Co  Co8  1  0.500000  0.500000  0.703055  1
  Co  Co9  1  0.000000  0.000000  0.295028  1
  Co  Co10  1  0.000000  0.500000  0.985293  1
  Co  Co11  1  0.500000  0.000000  0.014771  1
  Co  Co12  1  0.500000  0.332198  0.992243  1
  Co  Co13  1  0.500000  0.667802  0.992243  1
  Co  Co14  1  0.000000  0.166246  0.006358  1
  Co  Co15  1  0.000000  0.833754  0.006358  1
  Co  Co16  1  0.500000  0.296931  0.430210  1
  Co  Co17  1  0.500000  0.703069  0.430210  1
  Co  Co18  1  0.000000  0.201322  0.570529  1
  Co  Co19  1  0.000000  0.798678  0.570529  1
  Co  Co20  1  0.500000  0.879218  0.712902  1
  Co  Co21  1  0.500000  0.120782  0.712902  1
  Co  Co22  1  0.000000  0.621282  0.287651  1
  Co  Co23  1  0.000000  0.378718  0.287651  1
  P  P24  1  0.500000  0.500000  0.880596  1
  P  P25  1  0.000000  0.000000  0.117908  1
  P  P26  1  0.500000  0.500000  0.340573  1
  P  P27  1  0.000000  0.000000  0.661628  1
  P  P28  1  0.500000  0.306060  0.621009  1
  P  P29  1  0.500000  0.693940  0.621009  1
  P  P30  1  0.000000  0.193408  0.380106  1
  P  P31  1  0.000000  0.806592  0.380106  1
  P  P32  1  0.500000  0.847275  0.893027  1
  P  P33  1  0.500000  0.152725  0.893027  1
  P  P34  1  0.000000  0.655675  0.105677  1
  P  P35  1  0.000000  0.344325  0.105677  1
