# generated using pymatgen
data_SrP3(WO6)2
_symmetry_space_group_name_H-M   'P 1'
_cell_length_a   8.84565418
_cell_length_b   8.84565447
_cell_length_c   9.29821093
_cell_angle_alpha   61.82074835
_cell_angle_beta   61.82074649
_cell_angle_gamma   59.95146870
_symmetry_Int_Tables_number   1
_chemical_formula_structural   SrP3(WO6)2
_chemical_formula_sum   'Sr2 P6 W4 O24'
_cell_volume   527.95368748
_cell_formula_units_Z   2
loop_
 _symmetry_equiv_pos_site_id
 _symmetry_equiv_pos_as_xyz
  1  'x, y, z'
loop_
 _atom_site_type_symbol
 _atom_site_label
 _atom_site_symmetry_multiplicity
 _atom_site_fract_x
 _atom_site_fract_y
 _atom_site_fract_z
 _atom_site_occupancy
  Sr  Sr0  1  0.008749  0.490231  0.749259  1
  Sr  Sr1  1  0.509769  0.991251  0.250741  1
  P  P2  1  0.255402  0.454741  0.000627  1
  P  P3  1  0.462314  0.245352  0.499722  1
  P  P4  1  0.047159  0.952841  0.500000  1
  P  P5  1  0.966010  0.033990  0.000000  1
  P  P6  1  0.545259  0.744598  0.999373  1
  P  P7  1  0.754648  0.537686  0.500278  1
  W  W8  1  0.649753  0.141534  0.810017  1
  W  W9  1  0.858466  0.350247  0.189983  1
  W  W10  1  0.152685  0.642178  0.306444  1
  W  W11  1  0.357822  0.847315  0.693556  1
  O  O12  1  0.029341  0.114331  0.337095  1
  O  O13  1  0.776622  0.524427  0.333230  1
  O  O14  1  0.421113  0.272080  0.002168  1
  O  O15  1  0.301437  0.608789  0.837166  1
  O  O16  1  0.229400  0.917891  0.521712  1
  O  O17  1  0.624621  0.268076  0.338810  1
  O  O18  1  0.475573  0.223378  0.666770  1
  O  O19  1  0.088640  0.438729  0.002148  1
  O  O20  1  0.429918  0.079572  0.514257  1
  O  O21  1  0.280134  0.415222  0.479673  1
  O  O22  1  0.885669  0.970659  0.662905  1
  O  O23  1  0.082109  0.770600  0.478288  1
  O  O24  1  0.948319  0.213706  0.005563  1
  O  O25  1  0.124711  0.001681  0.834585  1
  O  O26  1  0.561271  0.911360  0.997852  1
  O  O27  1  0.727920  0.578887  0.997832  1
  O  O28  1  0.920428  0.570082  0.485743  1
  O  O29  1  0.508753  0.793264  0.832090  1
  O  O30  1  0.391211  0.698563  0.162834  1
  O  O31  1  0.786294  0.051681  0.994437  1
  O  O32  1  0.731924  0.375379  0.661190  1
  O  O33  1  0.584778  0.719866  0.520327  1
  O  O34  1  0.206736  0.491247  0.167910  1
  O  O35  1  0.998319  0.875289  0.165415  1
