# generated using pymatgen
data_ErTm3B12RhW
_symmetry_space_group_name_H-M   'P 1'
_cell_length_a   3.61231100
_cell_length_b   9.15109671
_cell_length_c   11.55904212
_cell_angle_alpha   90.44481156
_cell_angle_beta   89.99996927
_cell_angle_gamma   90.00000006
_symmetry_Int_Tables_number   1
_chemical_formula_structural   ErTm3B12RhW
_chemical_formula_sum   'Er2 Tm6 B24 Rh2 W2'
_cell_volume   382.09120147
_cell_formula_units_Z   2
loop_
 _symmetry_equiv_pos_site_id
 _symmetry_equiv_pos_as_xyz
  1  'x, y, z'
loop_
 _atom_site_type_symbol
 _atom_site_label
 _atom_site_symmetry_multiplicity
 _atom_site_fract_x
 _atom_site_fract_y
 _atom_site_fract_z
 _atom_site_occupancy
  Er  Er0  1  0.500002  0.319490  0.411828  1
  Er  Er1  1  0.499998  0.680510  0.588172  1
  Tm  Tm2  1  0.500000  0.175248  0.916930  1
  Tm  Tm3  1  0.500000  0.824752  0.083070  1
  Tm  Tm4  1  0.500000  0.444354  0.126616  1
  Tm  Tm5  1  0.500000  0.555646  0.873384  1
  Tm  Tm6  1  0.499999  0.055309  0.627591  1
  Tm  Tm7  1  0.500001  0.944691  0.372409  1
  B  B8  1  0.000001  0.107111  0.472021  1
  B  B9  1  0.999999  0.892889  0.527979  1
  B  B10  1  0.000000  0.395118  0.970144  1
  B  B11  1  0.000000  0.604882  0.029856  1
  B  B12  1  0.000001  0.133060  0.318377  1
  B  B13  1  0.999999  0.866940  0.681623  1
  B  B14  1  0.999999  0.367510  0.816161  1
  B  B15  1  0.000001  0.632490  0.183839  1
  B  B16  1  0.000001  0.051302  0.065233  1
  B  B17  1  0.999999  0.948698  0.934767  1
  B  B18  1  0.999998  0.446138  0.565337  1
  B  B19  1  0.000002  0.553862  0.434663  1
  B  B20  1  0.000003  0.483907  0.288417  1
  B  B21  1  0.999997  0.516093  0.711583  1
  B  B22  1  0.999999  0.021344  0.785796  1
  B  B23  1  0.000001  0.978656  0.214204  1
  B  B24  1  0.000001  0.251592  0.078353  1
  B  B25  1  0.999999  0.748408  0.921647  1
  B  B26  1  0.999999  0.250832  0.578976  1
  B  B27  1  0.000001  0.749168  0.421024  1
  B  B28  1  0.000002  0.297440  0.236981  1
  B  B29  1  0.999998  0.702560  0.763019  1
  B  B30  1  0.999997  0.208575  0.734565  1
  B  B31  1  0.000003  0.791425  0.265435  1
  Rh  Rh32  1  0.499996  0.361044  0.678861  1
  Rh  Rh33  1  0.500004  0.638956  0.321139  1
  W  W34  1  0.499999  0.139378  0.180727  1
  W  W35  1  0.500001  0.860622  0.819273  1
