# generated using pymatgen
data_Zr2Mn2FeSi
_symmetry_space_group_name_H-M   'P 1'
_cell_length_a   5.00459542
_cell_length_b   5.00484548
_cell_length_c   8.07268000
_cell_angle_alpha   90.00000000
_cell_angle_beta   90.00000000
_cell_angle_gamma   59.81520856
_symmetry_Int_Tables_number   1
_chemical_formula_structural   Zr2Mn2FeSi
_chemical_formula_sum   'Zr4 Mn4 Fe2 Si2'
_cell_volume   174.78184097
_cell_formula_units_Z   2
loop_
 _symmetry_equiv_pos_site_id
 _symmetry_equiv_pos_as_xyz
  1  'x, y, z'
loop_
 _atom_site_type_symbol
 _atom_site_label
 _atom_site_symmetry_multiplicity
 _atom_site_fract_x
 _atom_site_fract_y
 _atom_site_fract_z
 _atom_site_occupancy
  Zr  Zr0  1  0.333320  0.333327  0.565494  1
  Zr  Zr1  1  0.666700  0.666694  0.436090  1
  Zr  Zr2  1  0.666700  0.666694  0.063910  1
  Zr  Zr3  1  0.333320  0.333327  0.934506  1
  Mn  Mn4  1  0.830446  0.830439  0.750000  1
  Mn  Mn5  1  0.173972  0.651593  0.250000  1
  Mn  Mn6  1  0.651516  0.173977  0.250000  1
  Mn  Mn7  1  0.173953  0.173873  0.250000  1
  Fe  Fe8  1  0.830600  0.339330  0.750000  1
  Fe  Fe9  1  0.339378  0.830568  0.750000  1
  Si  Si10  1  0.000048  0.000090  0.499593  1
  Si  Si11  1  0.000048  0.000090  0.000407  1
