# generated using pymatgen
data_Pr2GdIn3O9
_symmetry_space_group_name_H-M   'P 1'
_cell_length_a   6.53359800
_cell_length_b   6.53359900
_cell_length_c   12.50755300
_cell_angle_alpha   90.00000000
_cell_angle_beta   90.00000000
_cell_angle_gamma   119.99999494
_symmetry_Int_Tables_number   1
_chemical_formula_structural   Pr2GdIn3O9
_chemical_formula_sum   'Pr4 Gd2 In6 O18'
_cell_volume   462.38942322
_cell_formula_units_Z   2
loop_
 _symmetry_equiv_pos_site_id
 _symmetry_equiv_pos_as_xyz
  1  'x, y, z'
loop_
 _atom_site_type_symbol
 _atom_site_label
 _atom_site_symmetry_multiplicity
 _atom_site_fract_x
 _atom_site_fract_y
 _atom_site_fract_z
 _atom_site_occupancy
  Pr  Pr0  1  0.666667  0.333333  0.961532  1
  Pr  Pr1  1  0.333333  0.666667  0.461532  1
  Pr  Pr2  1  0.666667  0.333333  0.461532  1
  Pr  Pr3  1  0.333333  0.666667  0.961532  1
  Gd  Gd4  1  0.000000  0.000000  0.997127  1
  Gd  Gd5  1  0.000000  0.000000  0.497127  1
  In  In6  1  0.669082  0.669082  0.727032  1
  In  In7  1  0.000000  0.330918  0.727032  1
  In  In8  1  0.330918  0.330918  0.227032  1
  In  In9  1  0.000000  0.669082  0.227032  1
  In  In10  1  0.330918  0.000000  0.727032  1
  In  In11  1  0.669082  0.000000  0.227032  1
  O  O12  1  0.700061  0.700061  0.895782  1
  O  O13  1  0.000000  0.299939  0.895782  1
  O  O14  1  0.299939  0.299939  0.395782  1
  O  O15  1  0.000000  0.700061  0.395782  1
  O  O16  1  0.299939  0.000000  0.895782  1
  O  O17  1  0.700061  0.000000  0.395782  1
  O  O18  1  0.647228  0.647228  0.559348  1
  O  O19  1  0.000000  0.352772  0.559348  1
  O  O20  1  0.352772  0.352772  0.059348  1
  O  O21  1  0.000000  0.647228  0.059348  1
  O  O22  1  0.352772  0.000000  0.559348  1
  O  O23  1  0.647228  0.000000  0.059348  1
  O  O24  1  0.000000  0.000000  0.696553  1
  O  O25  1  0.000000  0.000000  0.196553  1
  O  O26  1  0.666667  0.333333  0.751329  1
  O  O27  1  0.333333  0.666667  0.251329  1
  O  O28  1  0.666667  0.333333  0.251329  1
  O  O29  1  0.333333  0.666667  0.751329  1
