# generated using pymatgen
data_DyY9Co4
_symmetry_space_group_name_H-M   'P 1'
_cell_length_a   6.34337801
_cell_length_b   6.98357899
_cell_length_c   8.58935600
_cell_angle_alpha   96.31951966
_cell_angle_beta   111.66986274
_cell_angle_gamma   89.99999382
_symmetry_Int_Tables_number   1
_chemical_formula_structural   DyY9Co4
_chemical_formula_sum   'Dy1 Y9 Co4'
_cell_volume   351.12346947
_cell_formula_units_Z   1
loop_
 _symmetry_equiv_pos_site_id
 _symmetry_equiv_pos_as_xyz
  1  'x, y, z'
loop_
 _atom_site_type_symbol
 _atom_site_label
 _atom_site_symmetry_multiplicity
 _atom_site_fract_x
 _atom_site_fract_y
 _atom_site_fract_z
 _atom_site_occupancy
  Dy  Dy0  1  0.571778  0.250000  0.000000  1
  Y  Y1  1  0.795073  0.587723  0.812202  1
  Y  Y2  1  0.982871  0.912277  0.187798  1
  Y  Y3  1  0.204874  0.411410  0.187920  1
  Y  Y4  1  0.016954  0.088590  0.812080  1
  Y  Y5  1  0.214719  0.683716  0.566648  1
  Y  Y6  1  0.648070  0.816284  0.433352  1
  Y  Y7  1  0.784692  0.315903  0.432605  1
  Y  Y8  1  0.352087  0.184097  0.567395  1
  Y  Y9  1  0.427217  0.750000  0.000000  1
  Co  Co10  1  0.602680  0.929581  0.781431  1
  Co  Co11  1  0.821248  0.570419  0.218569  1
  Co  Co12  1  0.398481  0.071973  0.219228  1
  Co  Co13  1  0.179254  0.428027  0.780772  1
