# generated using pymatgen
data_Li4Al8Pd3Rh
_symmetry_space_group_name_H-M   'P 1'
_cell_length_a   6.02459800
_cell_length_b   4.31268200
_cell_length_c   8.66155800
_cell_angle_alpha   90.00000000
_cell_angle_beta   90.00003887
_cell_angle_gamma   90.00000000
_symmetry_Int_Tables_number   1
_chemical_formula_structural   Li4Al8Pd3Rh
_chemical_formula_sum   'Li4 Al8 Pd3 Rh1'
_cell_volume   225.04611878
_cell_formula_units_Z   1
loop_
 _symmetry_equiv_pos_site_id
 _symmetry_equiv_pos_as_xyz
  1  'x, y, z'
loop_
 _atom_site_type_symbol
 _atom_site_label
 _atom_site_symmetry_multiplicity
 _atom_site_fract_x
 _atom_site_fract_y
 _atom_site_fract_z
 _atom_site_occupancy
  Li  Li0  1  0.250002  0.250001  0.123552  1
  Li  Li1  1  0.750007  0.750001  0.375030  1
  Li  Li2  1  0.249993  0.250001  0.626403  1
  Li  Li3  1  0.749993  0.750001  0.875022  1
  Al  Al4  1  0.004474  0.750001  0.120832  1
  Al  Al5  1  0.495545  0.750001  0.120842  1
  Al  Al6  1  0.999307  0.250001  0.374981  1
  Al  Al7  1  0.500679  0.250001  0.374986  1
  Al  Al8  1  0.495542  0.750001  0.629191  1
  Al  Al9  1  0.004479  0.750001  0.629201  1
  Al  Al10  1  0.495174  0.250001  0.874979  1
  Al  Al11  1  0.004806  0.250001  0.874985  1
  Pd  Pd12  1  0.749995  0.250001  0.127305  1
  Pd  Pd13  1  0.249990  0.750001  0.375012  1
  Pd  Pd14  1  0.750003  0.250001  0.622659  1
  Rh  Rh15  1  0.250009  0.750001  0.875019  1
