# generated using pymatgen
data_ErNp3(ReB6)2
_symmetry_space_group_name_H-M   'P 1'
_cell_length_a   3.61914700
_cell_length_b   9.27009139
_cell_length_c   11.33429648
_cell_angle_alpha   89.96657751
_cell_angle_beta   90.00000000
_cell_angle_gamma   90.00000000
_symmetry_Int_Tables_number   1
_chemical_formula_structural   ErNp3(ReB6)2
_chemical_formula_sum   'Er2 Np6 Re4 B24'
_cell_volume   380.26358131
_cell_formula_units_Z   2
loop_
 _symmetry_equiv_pos_site_id
 _symmetry_equiv_pos_as_xyz
  1  'x, y, z'
loop_
 _atom_site_type_symbol
 _atom_site_label
 _atom_site_symmetry_multiplicity
 _atom_site_fract_x
 _atom_site_fract_y
 _atom_site_fract_z
 _atom_site_occupancy
  Er  Er0  1  0.000000  0.337640  0.407432  1
  Er  Er1  1  0.000000  0.662360  0.592568  1
  Np  Np2  1  0.000000  0.837076  0.093645  1
  Np  Np3  1  0.000000  0.162924  0.906355  1
  Np  Np4  1  0.000000  0.958858  0.400448  1
  Np  Np5  1  0.000000  0.041142  0.599552  1
  Np  Np6  1  0.000000  0.458953  0.099325  1
  Np  Np7  1  0.000000  0.541047  0.900675  1
  Re  Re8  1  0.000000  0.646863  0.317720  1
  Re  Re9  1  0.000000  0.353137  0.682280  1
  Re  Re10  1  0.000000  0.144752  0.179989  1
  Re  Re11  1  0.000000  0.855248  0.820011  1
  B  B12  1  0.500000  0.551777  0.431502  1
  B  B13  1  0.500000  0.448223  0.568498  1
  B  B14  1  0.500000  0.051858  0.068224  1
  B  B15  1  0.500000  0.948142  0.931776  1
  B  B16  1  0.500000  0.743411  0.423771  1
  B  B17  1  0.500000  0.256589  0.576229  1
  B  B18  1  0.500000  0.243639  0.076358  1
  B  B19  1  0.500000  0.756361  0.923642  1
  B  B20  1  0.500000  0.804797  0.274543  1
  B  B21  1  0.500000  0.195203  0.725457  1
  B  B22  1  0.500000  0.304426  0.225323  1
  B  B23  1  0.500000  0.695574  0.774677  1
  B  B24  1  0.500000  0.644996  0.188364  1
  B  B25  1  0.500000  0.355004  0.811636  1
  B  B26  1  0.500000  0.145179  0.312092  1
  B  B27  1  0.500000  0.854821  0.687908  1
  B  B28  1  0.500000  0.987896  0.220728  1
  B  B29  1  0.500000  0.012104  0.779272  1
  B  B30  1  0.500000  0.488000  0.279954  1
  B  B31  1  0.500000  0.512000  0.720046  1
  B  B32  1  0.500000  0.642258  0.039489  1
  B  B33  1  0.500000  0.357742  0.960511  1
  B  B34  1  0.500000  0.140797  0.461069  1
  B  B35  1  0.500000  0.859203  0.538931  1
