# generated using pymatgen
data_Tc2RuSeF24
_symmetry_space_group_name_H-M   'P 1'
_cell_length_a   5.17512735
_cell_length_b   8.97496900
_cell_length_c   9.68630130
_cell_angle_alpha   90.00000000
_cell_angle_beta   89.42151493
_cell_angle_gamma   90.00000000
_symmetry_Int_Tables_number   1
_chemical_formula_structural   Tc2RuSeF24
_chemical_formula_sum   'Tc2 Ru1 Se1 F24'
_cell_volume   449.87290387
_cell_formula_units_Z   1
loop_
 _symmetry_equiv_pos_site_id
 _symmetry_equiv_pos_as_xyz
  1  'x, y, z'
loop_
 _atom_site_type_symbol
 _atom_site_label
 _atom_site_symmetry_multiplicity
 _atom_site_fract_x
 _atom_site_fract_y
 _atom_site_fract_z
 _atom_site_occupancy
  Tc  Tc0  1  0.083915  0.250000  0.370019  1
  Tc  Tc1  1  0.417601  0.250000  0.871340  1
  Ru  Ru2  1  0.582418  0.750000  0.129742  1
  Se  Se3  1  0.916619  0.750000  0.629077  1
  F  F4  1  0.185285  0.750000  0.520562  1
  F  F5  1  0.791923  0.250000  0.483906  1
  F  F6  1  0.707478  0.250000  0.982530  1
  F  F7  1  0.290426  0.750000  0.018576  1
  F  F8  1  0.647063  0.750000  0.736996  1
  F  F9  1  0.375568  0.250000  0.256364  1
  F  F10  1  0.127136  0.250000  0.759343  1
  F  F11  1  0.876181  0.750000  0.239825  1
  F  F12  1  0.774434  0.612925  0.528158  1
  F  F13  1  0.232415  0.395679  0.478586  1
  F  F14  1  0.267541  0.396494  0.980071  1
  F  F15  1  0.232415  0.104321  0.478586  1
  F  F16  1  0.731255  0.602102  0.018228  1
  F  F17  1  0.774434  0.887075  0.528158  1
  F  F18  1  0.731255  0.897898  0.018228  1
  F  F19  1  0.267541  0.103506  0.980071  1
  F  F20  1  0.058065  0.613067  0.730245  1
  F  F21  1  0.937223  0.396552  0.262628  1
  F  F22  1  0.565187  0.396460  0.761353  1
  F  F23  1  0.937223  0.103448  0.262628  1
  F  F24  1  0.433073  0.602575  0.241593  1
  F  F25  1  0.058065  0.886933  0.730245  1
  F  F26  1  0.433073  0.897425  0.241593  1
  F  F27  1  0.565187  0.103540  0.761353  1
