# generated using pymatgen
data_Er3BBr3
_symmetry_space_group_name_H-M   'P 1'
_cell_length_a   9.65041956
_cell_length_b   9.65041920
_cell_length_c   9.65042000
_cell_angle_alpha   109.47121812
_cell_angle_beta   109.47121736
_cell_angle_gamma   109.47122764
_symmetry_Int_Tables_number   1
_chemical_formula_structural   Er3BBr3
_chemical_formula_sum   'Er12 B4 Br12'
_cell_volume   691.85756069
_cell_formula_units_Z   4
loop_
 _symmetry_equiv_pos_site_id
 _symmetry_equiv_pos_as_xyz
  1  'x, y, z'
loop_
 _atom_site_type_symbol
 _atom_site_label
 _atom_site_symmetry_multiplicity
 _atom_site_fract_x
 _atom_site_fract_y
 _atom_site_fract_z
 _atom_site_occupancy
  Er  Er0  1  0.458657  0.479328  0.229328  1
  Er  Er1  1  0.750000  0.229328  0.270672  1
  Er  Er2  1  0.750000  0.020672  0.479328  1
  Er  Er3  1  0.229328  0.458657  0.479328  1
  Er  Er4  1  0.270672  0.750000  0.229328  1
  Er  Er5  1  0.041343  0.270672  0.020672  1
  Er  Er6  1  0.020672  0.041343  0.270672  1
  Er  Er7  1  0.479328  0.750000  0.020672  1
  Er  Er8  1  0.479328  0.229328  0.458657  1
  Er  Er9  1  0.020672  0.479328  0.750000  1
  Er  Er10  1  0.270672  0.020672  0.041343  1
  Er  Er11  1  0.229328  0.270672  0.750000  1
  B  B12  1  0.250000  0.250000  0.250000  1
  B  B13  1  0.500000  0.000000  0.250000  1
  B  B14  1  0.000000  0.250000  0.500000  1
  B  B15  1  0.250000  0.500000  0.000000  1
  Br  Br16  1  0.250000  0.758251  0.741749  1
  Br  Br17  1  0.516503  0.508251  0.758251  1
  Br  Br18  1  0.983497  0.741749  0.991749  1
  Br  Br19  1  0.741749  0.250000  0.758251  1
  Br  Br20  1  0.991749  0.983497  0.741749  1
  Br  Br21  1  0.250000  0.991749  0.508251  1
  Br  Br22  1  0.758251  0.516503  0.508251  1
  Br  Br23  1  0.508251  0.250000  0.991749  1
  Br  Br24  1  0.758251  0.741749  0.250000  1
  Br  Br25  1  0.741749  0.991749  0.983497  1
  Br  Br26  1  0.991749  0.508251  0.250000  1
  Br  Br27  1  0.508251  0.758251  0.516503  1
