# generated using pymatgen
data_TbNd3Ga18(PdRu)3
_symmetry_space_group_name_H-M   'P 1'
_cell_length_a   7.65539499
_cell_length_b   7.65502141
_cell_length_c   9.64781471
_cell_angle_alpha   89.98294628
_cell_angle_beta   89.97209494
_cell_angle_gamma   119.75367084
_symmetry_Int_Tables_number   1
_chemical_formula_structural   TbNd3Ga18(PdRu)3
_chemical_formula_sum   'Tb1 Nd3 Ga18 Pd3 Ru3'
_cell_volume   490.84697278
_cell_formula_units_Z   1
loop_
 _symmetry_equiv_pos_site_id
 _symmetry_equiv_pos_as_xyz
  1  'x, y, z'
loop_
 _atom_site_type_symbol
 _atom_site_label
 _atom_site_symmetry_multiplicity
 _atom_site_fract_x
 _atom_site_fract_y
 _atom_site_fract_z
 _atom_site_occupancy
  Tb  Tb0  1  0.330061  0.003949  0.749595  1
  Nd  Nd1  1  0.995379  0.669972  0.250273  1
  Nd  Nd2  1  0.001521  0.327846  0.749537  1
  Nd  Nd3  1  0.671783  0.998066  0.250466  1
  Ga  Ga4  1  0.136274  0.132996  0.250103  1
  Ga  Ga5  1  0.868752  0.864704  0.749921  1
  Ga  Ga6  1  0.009440  0.339616  0.078956  1
  Ga  Ga7  1  0.003819  0.666829  0.919296  1
  Ga  Ga8  1  0.999687  0.661946  0.577722  1
  Ga  Ga9  1  0.340197  0.001784  0.426379  1
  Ga  Ga10  1  0.003942  0.340543  0.423172  1
  Ga  Ga11  1  0.657234  0.996674  0.578745  1
  Ga  Ga12  1  0.658769  0.991438  0.919066  1
  Ga  Ga13  1  0.335361  0.998494  0.076453  1
  Ga  Ga14  1  0.340692  0.339186  0.562607  1
  Ga  Ga15  1  0.658667  0.658757  0.440376  1
  Ga  Ga16  1  0.657529  0.663012  0.063761  1
  Ga  Ga17  1  0.336765  0.340350  0.933085  1
  Ga  Ga18  1  0.337344  0.550135  0.250728  1
  Ga  Ga19  1  0.662775  0.454230  0.746035  1
  Ga  Ga20  1  0.543277  0.334888  0.254325  1
  Ga  Ga21  1  0.449467  0.664213  0.749292  1
  Pd  Pd22  1  0.671832  0.328858  0.999290  1
  Pd  Pd23  1  0.000785  0.999677  0.999258  1
  Pd  Pd24  1  0.999930  0.000623  0.500822  1
  Ru  Ru25  1  0.328453  0.671745  0.999167  1
  Ru  Ru26  1  0.327903  0.671855  0.500849  1
  Ru  Ru27  1  0.672370  0.327611  0.500723  1
