# generated using pymatgen
data_DyHo4P12Ir11Ru8
_symmetry_space_group_name_H-M   'P 1'
_cell_length_a   12.62933703
_cell_length_b   12.59821250
_cell_length_c   3.97252500
_cell_angle_alpha   90.00000000
_cell_angle_beta   90.00000000
_cell_angle_gamma   120.05385559
_symmetry_Int_Tables_number   1
_chemical_formula_structural   DyHo4P12Ir11Ru8
_chemical_formula_sum   'Dy1 Ho4 P12 Ir11 Ru8'
_cell_volume   547.07996741
_cell_formula_units_Z   1
loop_
 _symmetry_equiv_pos_site_id
 _symmetry_equiv_pos_as_xyz
  1  'x, y, z'
loop_
 _atom_site_type_symbol
 _atom_site_label
 _atom_site_symmetry_multiplicity
 _atom_site_fract_x
 _atom_site_fract_y
 _atom_site_fract_z
 _atom_site_occupancy
  Dy  Dy0  1  0.999355  0.815107  0.500000  1
  Ho  Ho1  1  0.666974  0.331357  0.000000  1
  Ho  Ho2  1  0.334714  0.669075  0.000000  1
  Ho  Ho3  1  0.813835  0.001009  0.500000  1
  Ho  Ho4  1  0.183082  0.184695  0.500000  1
  P  P5  1  0.634395  0.999050  0.000000  1
  P  P6  1  0.363116  0.363401  0.000000  1
  P  P7  1  0.000267  0.636050  0.000000  1
  P  P8  1  0.688731  0.517656  0.500000  1
  P  P9  1  0.829852  0.307534  0.500000  1
  P  P10  1  0.317261  0.834053  0.500000  1
  P  P11  1  0.519248  0.691210  0.500000  1
  P  P12  1  0.178944  0.000211  0.000000  1
  P  P13  1  0.819190  0.819459  0.000000  1
  P  P14  1  0.996583  0.180942  0.000000  1
  P  P15  1  0.480182  0.167475  0.500000  1
  P  P16  1  0.170451  0.482438  0.500000  1
  Ir  Ir17  1  0.624631  0.804099  0.000000  1
  Ir  Ir18  1  0.183022  0.376606  0.000000  1
  Ir  Ir19  1  0.374200  0.181467  0.000000  1
  Ir  Ir20  1  0.192039  0.818735  0.000000  1
  Ir  Ir21  1  0.805933  0.623125  0.000000  1
  Ir  Ir22  1  0.869907  0.506685  0.500000  1
  Ir  Ir23  1  0.492243  0.360140  0.500000  1
  Ir  Ir24  1  0.637125  0.129355  0.500000  1
  Ir  Ir25  1  0.132856  0.640973  0.500000  1
  Ir  Ir26  1  0.362483  0.492442  0.500000  1
  Ir  Ir27  1  0.998928  0.000621  0.000000  1
  Ru  Ru28  1  0.511652  0.871484  0.500000  1
  Ru  Ru29  1  0.712209  0.710641  0.500000  1
  Ru  Ru30  1  0.002305  0.289307  0.500000  1
  Ru  Ru31  1  0.450554  0.998829  0.000000  1
  Ru  Ru32  1  0.546701  0.544386  0.000000  1
  Ru  Ru33  1  0.002334  0.455003  0.000000  1
  Ru  Ru34  1  0.818263  0.195609  0.000000  1
  Ru  Ru35  1  0.286432  0.999768  0.500000  1
