# generated using pymatgen
data_TbYMnCo5P4
_symmetry_space_group_name_H-M   'P 1'
_cell_length_a   3.70351000
_cell_length_b   10.55617900
_cell_length_c   12.18343800
_cell_angle_alpha   90.00266427
_cell_angle_beta   90.00000000
_cell_angle_gamma   90.00000000
_symmetry_Int_Tables_number   1
_chemical_formula_structural   TbYMnCo5P4
_chemical_formula_sum   'Tb3 Y3 Mn3 Co15 P12'
_cell_volume   476.31046653
_cell_formula_units_Z   3
loop_
 _symmetry_equiv_pos_site_id
 _symmetry_equiv_pos_as_xyz
  1  'x, y, z'
loop_
 _atom_site_type_symbol
 _atom_site_label
 _atom_site_symmetry_multiplicity
 _atom_site_fract_x
 _atom_site_fract_y
 _atom_site_fract_z
 _atom_site_occupancy
  Tb  Tb0  1  0.000000  0.500055  0.523571  1
  Tb  Tb1  1  0.500000  0.999935  0.477150  1
  Tb  Tb2  1  0.000000  0.319578  0.795789  1
  Y  Y3  1  0.500000  0.818325  0.204876  1
  Y  Y4  1  0.500000  0.181650  0.204736  1
  Y  Y5  1  0.000000  0.680629  0.795916  1
  Mn  Mn6  1  0.500000  0.500015  0.154471  1
  Mn  Mn7  1  0.000000  0.999877  0.841285  1
  Mn  Mn8  1  0.000000  0.500291  0.989191  1
  Co  Co9  1  0.500000  0.499973  0.700005  1
  Co  Co10  1  0.000000  0.999951  0.297698  1
  Co  Co11  1  0.500000  0.999949  0.013211  1
  Co  Co12  1  0.500000  0.330356  0.994513  1
  Co  Co13  1  0.500000  0.669835  0.994426  1
  Co  Co14  1  0.000000  0.164764  0.004847  1
  Co  Co15  1  0.000000  0.835146  0.004952  1
  Co  Co16  1  0.500000  0.296071  0.430358  1
  Co  Co17  1  0.500000  0.703927  0.430558  1
  Co  Co18  1  0.000000  0.203348  0.569844  1
  Co  Co19  1  0.000000  0.796612  0.570033  1
  Co  Co20  1  0.500000  0.879860  0.709681  1
  Co  Co21  1  0.500000  0.119878  0.709596  1
  Co  Co22  1  0.000000  0.621060  0.291483  1
  Co  Co23  1  0.000000  0.378933  0.291347  1
  P  P24  1  0.500000  0.500189  0.883182  1
  P  P25  1  0.000000  0.999974  0.117204  1
  P  P26  1  0.500000  0.499984  0.345851  1
  P  P27  1  0.000000  0.000035  0.655424  1
  P  P28  1  0.500000  0.309889  0.616159  1
  P  P29  1  0.500000  0.689963  0.616477  1
  P  P30  1  0.000000  0.189243  0.384161  1
  P  P31  1  0.000000  0.810693  0.384307  1
  P  P32  1  0.500000  0.847537  0.892869  1
  P  P33  1  0.500000  0.152423  0.892965  1
  P  P34  1  0.000000  0.655217  0.105990  1
  P  P35  1  0.000000  0.344834  0.105869  1
