# generated using pymatgen
data_Tb2HoTm5(SiBr6)2
_symmetry_space_group_name_H-M   'P 1'
_cell_length_a   4.02654600
_cell_length_b   13.17616669
_cell_length_c   13.91256200
_cell_angle_alpha   90.36879855
_cell_angle_beta   90.00000000
_cell_angle_gamma   90.00000000
_symmetry_Int_Tables_number   1
_chemical_formula_structural   Tb2HoTm5(SiBr6)2
_chemical_formula_sum   'Tb2 Ho1 Tm5 Si2 Br12'
_cell_volume   738.10791332
_cell_formula_units_Z   1
loop_
 _symmetry_equiv_pos_site_id
 _symmetry_equiv_pos_as_xyz
  1  'x, y, z'
loop_
 _atom_site_type_symbol
 _atom_site_label
 _atom_site_symmetry_multiplicity
 _atom_site_fract_x
 _atom_site_fract_y
 _atom_site_fract_z
 _atom_site_occupancy
  Tb  Tb0  1  0.000000  0.619048  0.920577  1
  Tb  Tb1  1  0.000000  0.380941  0.079404  1
  Ho  Ho2  1  0.000000  0.116925  0.578217  1
  Tm  Tm3  1  0.500000  0.117036  0.342581  1
  Tm  Tm4  1  0.500000  0.882840  0.657338  1
  Tm  Tm5  1  0.500000  0.618007  0.158479  1
  Tm  Tm6  1  0.500000  0.381966  0.841512  1
  Tm  Tm7  1  0.000000  0.883222  0.421891  1
  Si  Si8  1  0.500000  0.999118  0.499420  1
  Si  Si9  1  0.500000  0.499999  0.000024  1
  Br  Br10  1  0.500000  0.240853  0.166651  1
  Br  Br11  1  0.500000  0.759063  0.833289  1
  Br  Br12  1  0.500000  0.747429  0.336742  1
  Br  Br13  1  0.500000  0.254032  0.664186  1
  Br  Br14  1  0.000000  0.253794  0.411240  1
  Br  Br15  1  0.000000  0.746555  0.587715  1
  Br  Br16  1  0.000000  0.755169  0.092827  1
  Br  Br17  1  0.000000  0.244846  0.907215  1
  Br  Br18  1  0.000000  0.002004  0.244591  1
  Br  Br19  1  0.000000  0.997065  0.756046  1
  Br  Br20  1  0.000000  0.506656  0.258752  1
  Br  Br21  1  0.000000  0.493430  0.741301  1
