# generated using pymatgen
data_Y4Al18(RuAu)3
_symmetry_space_group_name_H-M   'P 1'
_cell_length_a   7.67439241
_cell_length_b   7.67439247
_cell_length_c   9.52297305
_cell_angle_alpha   90.02219185
_cell_angle_beta   90.02218662
_cell_angle_gamma   119.72143960
_symmetry_Int_Tables_number   1
_chemical_formula_structural   Y4Al18(RuAu)3
_chemical_formula_sum   'Y4 Al18 Ru3 Au3'
_cell_volume   487.08334657
_cell_formula_units_Z   1
loop_
 _symmetry_equiv_pos_site_id
 _symmetry_equiv_pos_as_xyz
  1  'x, y, z'
loop_
 _atom_site_type_symbol
 _atom_site_label
 _atom_site_symmetry_multiplicity
 _atom_site_fract_x
 _atom_site_fract_y
 _atom_site_fract_z
 _atom_site_occupancy
  Y  Y0  1  0.997293  0.667779  0.248699  1
  Y  Y1  1  0.007969  0.336017  0.750486  1
  Y  Y2  1  0.663983  0.992031  0.249514  1
  Y  Y3  1  0.332221  0.002707  0.751301  1
  Al  Al4  1  0.117384  0.119933  0.247739  1
  Al  Al5  1  0.880067  0.882616  0.752261  1
  Al  Al6  1  0.987574  0.321903  0.074543  1
  Al  Al7  1  0.989887  0.664970  0.924892  1
  Al  Al8  1  0.996472  0.677905  0.580538  1
  Al  Al9  1  0.322095  0.003528  0.419462  1
  Al  Al10  1  0.000657  0.322993  0.420878  1
  Al  Al11  1  0.677007  0.999343  0.579122  1
  Al  Al12  1  0.678097  0.012426  0.925457  1
  Al  Al13  1  0.335030  0.010113  0.075108  1
  Al  Al14  1  0.323828  0.324231  0.560519  1
  Al  Al15  1  0.675769  0.676172  0.439481  1
  Al  Al16  1  0.678902  0.668822  0.049158  1
  Al  Al17  1  0.331178  0.321098  0.950842  1
  Al  Al18  1  0.341143  0.537463  0.248580  1
  Al  Al19  1  0.656738  0.451526  0.759612  1
  Al  Al20  1  0.548474  0.343262  0.240388  1
  Al  Al21  1  0.462537  0.658857  0.751420  1
  Ru  Ru22  1  0.671719  0.328281  0.000000  1
  Ru  Ru23  1  0.000668  0.999332  0.000000  1
  Ru  Ru24  1  0.999231  0.000769  0.500000  1
  Au  Au25  1  0.326191  0.673809  0.000000  1
  Au  Au26  1  0.325355  0.674645  0.500000  1
  Au  Au27  1  0.672528  0.327472  0.500000  1
