# generated using pymatgen
data_Dy8ErSc11Si15Rh
_symmetry_space_group_name_H-M   'P 1'
_cell_length_a   7.09320587
_cell_length_b   7.47720133
_cell_length_c   13.99839408
_cell_angle_alpha   89.94145433
_cell_angle_beta   90.02163488
_cell_angle_gamma   90.23657825
_symmetry_Int_Tables_number   1
_chemical_formula_structural   Dy8ErSc11Si15Rh
_chemical_formula_sum   'Dy8 Er1 Sc11 Si15 Rh1'
_cell_volume   742.43065591
_cell_formula_units_Z   1
loop_
 _symmetry_equiv_pos_site_id
 _symmetry_equiv_pos_as_xyz
  1  'x, y, z'
loop_
 _atom_site_type_symbol
 _atom_site_label
 _atom_site_symmetry_multiplicity
 _atom_site_fract_x
 _atom_site_fract_y
 _atom_site_fract_z
 _atom_site_occupancy
  Dy  Dy0  1  0.011565  0.178852  0.096043  1
  Dy  Dy1  1  0.991004  0.824303  0.906503  1
  Dy  Dy2  1  0.489972  0.677110  0.906579  1
  Dy  Dy3  1  0.989156  0.822244  0.595322  1
  Dy  Dy4  1  0.511691  0.322512  0.096278  1
  Dy  Dy5  1  0.011447  0.178465  0.402996  1
  Dy  Dy6  1  0.512193  0.322308  0.401702  1
  Dy  Dy7  1  0.489576  0.678185  0.595393  1
  Er  Er8  1  0.316797  0.172256  0.626593  1
  Sc  Sc9  1  0.159048  0.508393  0.751742  1
  Sc  Sc10  1  0.839025  0.496492  0.249726  1
  Sc  Sc11  1  0.339583  0.005073  0.249140  1
  Sc  Sc12  1  0.668835  0.996747  0.751185  1
  Sc  Sc13  1  0.672630  0.825468  0.371988  1
  Sc  Sc14  1  0.171212  0.676863  0.372317  1
  Sc  Sc15  1  0.672171  0.826218  0.126169  1
  Sc  Sc16  1  0.832305  0.322923  0.627652  1
  Sc  Sc17  1  0.317982  0.171856  0.873769  1
  Sc  Sc18  1  0.834736  0.322261  0.873580  1
  Sc  Sc19  1  0.171634  0.677478  0.125946  1
  Si  Si20  1  0.969988  0.885230  0.249302  1
  Si  Si21  1  0.470138  0.613834  0.249078  1
  Si  Si22  1  0.530946  0.391044  0.752664  1
  Si  Si23  1  0.286754  0.864303  0.752533  1
  Si  Si24  1  0.713931  0.129960  0.249385  1
  Si  Si25  1  0.213299  0.371673  0.249267  1
  Si  Si26  1  0.780966  0.627151  0.751141  1
  Si  Si27  1  0.153746  0.472487  0.536435  1
  Si  Si28  1  0.841642  0.536332  0.460513  1
  Si  Si29  1  0.347338  0.962637  0.456529  1
  Si  Si30  1  0.843490  0.535385  0.039156  1
  Si  Si31  1  0.663358  0.034149  0.536352  1
  Si  Si32  1  0.159162  0.466978  0.962920  1
  Si  Si33  1  0.657342  0.035333  0.961399  1
  Si  Si34  1  0.344711  0.966195  0.039817  1
  Rh  Rh35  1  0.020624  0.101301  0.752884  1
