# generated using pymatgen
data_Ta5Be3NbSi
_symmetry_space_group_name_H-M   'P 1'
_cell_length_a   6.58211904
_cell_length_b   6.57623131
_cell_length_c   3.38567500
_cell_angle_alpha   90.00000000
_cell_angle_beta   90.00000000
_cell_angle_gamma   89.80356035
_symmetry_Int_Tables_number   1
_chemical_formula_structural   Ta5Be3NbSi
_chemical_formula_sum   'Ta5 Be3 Nb1 Si1'
_cell_volume   146.54990037
_cell_formula_units_Z   1
loop_
 _symmetry_equiv_pos_site_id
 _symmetry_equiv_pos_as_xyz
  1  'x, y, z'
loop_
 _atom_site_type_symbol
 _atom_site_label
 _atom_site_symmetry_multiplicity
 _atom_site_fract_x
 _atom_site_fract_y
 _atom_site_fract_z
 _atom_site_occupancy
  Ta  Ta0  1  0.002223  0.995309  0.000000  1
  Ta  Ta1  1  0.495599  0.502422  0.000000  1
  Ta  Ta2  1  0.671407  0.171883  0.500000  1
  Ta  Ta3  1  0.185536  0.319903  0.500000  1
  Ta  Ta4  1  0.322415  0.822906  0.500000  1
  Be  Be5  1  0.385409  0.113887  0.000000  1
  Be  Be6  1  0.613687  0.885551  0.000000  1
  Be  Be7  1  0.120071  0.619603  0.000000  1
  Nb  Nb8  1  0.820059  0.684731  0.500000  1
  Si  Si9  1  0.883594  0.383802  0.000000  1
