# generated using pymatgen
data_Y2Al9RuPt2
_symmetry_space_group_name_H-M   'P 1'
_cell_length_a   7.60008679
_cell_length_b   7.60008739
_cell_length_c   9.48650900
_cell_angle_alpha   90.00000000
_cell_angle_beta   90.00000000
_cell_angle_gamma   119.51353172
_symmetry_Int_Tables_number   1
_chemical_formula_structural   Y2Al9RuPt2
_chemical_formula_sum   'Y4 Al18 Ru2 Pt4'
_cell_volume   476.85055208
_cell_formula_units_Z   2
loop_
 _symmetry_equiv_pos_site_id
 _symmetry_equiv_pos_as_xyz
  1  'x, y, z'
loop_
 _atom_site_type_symbol
 _atom_site_label
 _atom_site_symmetry_multiplicity
 _atom_site_fract_x
 _atom_site_fract_y
 _atom_site_fract_z
 _atom_site_occupancy
  Y  Y0  1  0.994458  0.669596  0.250000  1
  Y  Y1  1  0.005542  0.330404  0.750000  1
  Y  Y2  1  0.669596  0.994458  0.250000  1
  Y  Y3  1  0.330404  0.005542  0.750000  1
  Al  Al4  1  0.123525  0.123525  0.250000  1
  Al  Al5  1  0.876475  0.876475  0.750000  1
  Al  Al6  1  0.000226  0.329201  0.075765  1
  Al  Al7  1  0.999774  0.670799  0.924235  1
  Al  Al8  1  0.999774  0.670799  0.575765  1
  Al  Al9  1  0.329201  0.000226  0.424235  1
  Al  Al10  1  0.000226  0.329201  0.424235  1
  Al  Al11  1  0.670799  0.999774  0.575765  1
  Al  Al12  1  0.670799  0.999774  0.924235  1
  Al  Al13  1  0.329201  0.000226  0.075765  1
  Al  Al14  1  0.327653  0.327653  0.554035  1
  Al  Al15  1  0.672347  0.672347  0.445965  1
  Al  Al16  1  0.672347  0.672347  0.054035  1
  Al  Al17  1  0.327653  0.327653  0.945965  1
  Al  Al18  1  0.341172  0.545542  0.250000  1
  Al  Al19  1  0.658828  0.454458  0.750000  1
  Al  Al20  1  0.545542  0.341172  0.250000  1
  Al  Al21  1  0.454458  0.658828  0.750000  1
  Ru  Ru22  1  0.000000  0.000000  0.000000  1
  Ru  Ru23  1  0.000000  0.000000  0.500000  1
  Pt  Pt24  1  0.672058  0.327942  0.000000  1
  Pt  Pt25  1  0.327942  0.672058  0.000000  1
  Pt  Pt26  1  0.327942  0.672058  0.500000  1
  Pt  Pt27  1  0.672058  0.327942  0.500000  1
