# generated using pymatgen
data_Tm2Co4P6IrRh5
_symmetry_space_group_name_H-M   'P 1'
_cell_length_a   3.78755100
_cell_length_b   10.62341400
_cell_length_c   12.19650900
_cell_angle_alpha   90.00000000
_cell_angle_beta   90.00000000
_cell_angle_gamma   90.00000000
_symmetry_Int_Tables_number   1
_chemical_formula_structural   Tm2Co4P6IrRh5
_chemical_formula_sum   'Tm4 Co8 P12 Ir2 Rh10'
_cell_volume   490.74754590
_cell_formula_units_Z   2
loop_
 _symmetry_equiv_pos_site_id
 _symmetry_equiv_pos_as_xyz
  1  'x, y, z'
loop_
 _atom_site_type_symbol
 _atom_site_label
 _atom_site_symmetry_multiplicity
 _atom_site_fract_x
 _atom_site_fract_y
 _atom_site_fract_z
 _atom_site_occupancy
  Tm  Tm0  1  0.250000  0.581806  0.709193  1
  Tm  Tm1  1  0.250000  0.918194  0.209193  1
  Tm  Tm2  1  0.750000  0.416483  0.290119  1
  Tm  Tm3  1  0.750000  0.083517  0.790119  1
  Co  Co4  1  0.250000  0.883967  0.696868  1
  Co  Co5  1  0.250000  0.616033  0.196868  1
  Co  Co6  1  0.750000  0.116171  0.303554  1
  Co  Co7  1  0.750000  0.383829  0.803554  1
  Co  Co8  1  0.250000  0.463921  0.932673  1
  Co  Co9  1  0.250000  0.036079  0.432673  1
  Co  Co10  1  0.750000  0.536720  0.067470  1
  Co  Co11  1  0.750000  0.963280  0.567470  1
  P  P12  1  0.250000  0.430622  0.111079  1
  P  P13  1  0.250000  0.069378  0.611079  1
  P  P14  1  0.750000  0.569016  0.888750  1
  P  P15  1  0.750000  0.930984  0.388750  1
  P  P16  1  0.250000  0.273540  0.870925  1
  P  P17  1  0.250000  0.226460  0.370925  1
  P  P18  1  0.750000  0.726690  0.128931  1
  P  P19  1  0.750000  0.773310  0.628931  1
  P  P20  1  0.250000  0.598799  0.379886  1
  P  P21  1  0.250000  0.901201  0.879886  1
  P  P22  1  0.750000  0.400425  0.620085  1
  P  P23  1  0.750000  0.099575  0.120085  1
  Ir  Ir24  1  0.750000  0.773502  0.819665  1
  Ir  Ir25  1  0.750000  0.726498  0.319665  1
  Rh  Rh26  1  0.250000  0.717996  0.990642  1
  Rh  Rh27  1  0.250000  0.782004  0.490642  1
  Rh  Rh28  1  0.750000  0.283493  0.009731  1
  Rh  Rh29  1  0.750000  0.216507  0.509731  1
  Rh  Rh30  1  0.250000  0.409391  0.477148  1
  Rh  Rh31  1  0.250000  0.090609  0.977148  1
  Rh  Rh32  1  0.750000  0.590961  0.523106  1
  Rh  Rh33  1  0.750000  0.909039  0.023106  1
  Rh  Rh34  1  0.250000  0.226323  0.180175  1
  Rh  Rh35  1  0.250000  0.273677  0.680175  1
