# generated using pymatgen
data_Ce8LuMgSn6
_symmetry_space_group_name_H-M   'P 1'
_cell_length_a   9.08825207
_cell_length_b   9.08825202
_cell_length_c   9.08825340
_cell_angle_alpha   96.61816523
_cell_angle_beta   96.61815776
_cell_angle_gamma   140.30866601
_symmetry_Int_Tables_number   1
_chemical_formula_structural   Ce8LuMgSn6
_chemical_formula_sum   'Ce8 Lu1 Mg1 Sn6'
_cell_volume   450.93590058
_cell_formula_units_Z   1
loop_
 _symmetry_equiv_pos_site_id
 _symmetry_equiv_pos_as_xyz
  1  'x, y, z'
loop_
 _atom_site_type_symbol
 _atom_site_label
 _atom_site_symmetry_multiplicity
 _atom_site_fract_x
 _atom_site_fract_y
 _atom_site_fract_z
 _atom_site_occupancy
  Ce  Ce0  1  0.097991  0.234467  0.331577  1
  Ce  Ce1  1  0.902889  0.766413  0.668423  1
  Ce  Ce2  1  0.765533  0.097111  0.863524  1
  Ce  Ce3  1  0.402009  0.733587  0.136476  1
  Ce  Ce4  1  0.233587  0.902009  0.136476  1
  Ce  Ce5  1  0.597111  0.265533  0.863524  1
  Ce  Ce6  1  0.734467  0.597991  0.331577  1
  Ce  Ce7  1  0.266413  0.402889  0.668423  1
  Lu  Lu8  1  0.250000  0.750000  0.500000  1
  Mg  Mg9  1  0.750000  0.250000  0.500000  1
  Sn  Sn10  1  0.150686  0.650686  0.801588  1
  Sn  Sn11  1  0.849098  0.349098  0.198412  1
  Sn  Sn12  1  0.349314  0.150902  0.500000  1
  Sn  Sn13  1  0.650902  0.849314  0.500000  1
  Sn  Sn14  1  0.250000  0.250000  0.000000  1
  Sn  Sn15  1  0.750000  0.750000  0.000000  1
