# generated using pymatgen
data_HoLu2(Co3P2)3
_symmetry_space_group_name_H-M   'P 1'
_cell_length_a   3.66572200
_cell_length_b   10.48164900
_cell_length_c   12.10853900
_cell_angle_alpha   90.00000000
_cell_angle_beta   90.00000000
_cell_angle_gamma   90.00000000
_symmetry_Int_Tables_number   1
_chemical_formula_structural   HoLu2(Co3P2)3
_chemical_formula_sum   'Ho2 Lu4 Co18 P12'
_cell_volume   465.24410955
_cell_formula_units_Z   2
loop_
 _symmetry_equiv_pos_site_id
 _symmetry_equiv_pos_as_xyz
  1  'x, y, z'
loop_
 _atom_site_type_symbol
 _atom_site_label
 _atom_site_symmetry_multiplicity
 _atom_site_fract_x
 _atom_site_fract_y
 _atom_site_fract_z
 _atom_site_occupancy
  Ho  Ho0  1  0.000000  0.500000  0.522892  1
  Ho  Ho1  1  0.500000  0.000000  0.477108  1
  Lu  Lu2  1  0.500000  0.818884  0.206091  1
  Lu  Lu3  1  0.500000  0.181116  0.206091  1
  Lu  Lu4  1  0.000000  0.681116  0.793909  1
  Lu  Lu5  1  0.000000  0.318884  0.793909  1
  Co  Co6  1  0.500000  0.500000  0.160053  1
  Co  Co7  1  0.000000  0.000000  0.839947  1
  Co  Co8  1  0.500000  0.500000  0.704504  1
  Co  Co9  1  0.000000  0.000000  0.295496  1
  Co  Co10  1  0.000000  0.500000  0.987267  1
  Co  Co11  1  0.500000  0.000000  0.012733  1
  Co  Co12  1  0.500000  0.333029  0.994769  1
  Co  Co13  1  0.500000  0.666971  0.994769  1
  Co  Co14  1  0.000000  0.166971  0.005231  1
  Co  Co15  1  0.000000  0.833029  0.005231  1
  Co  Co16  1  0.500000  0.297100  0.430591  1
  Co  Co17  1  0.500000  0.702900  0.430591  1
  Co  Co18  1  0.000000  0.202900  0.569409  1
  Co  Co19  1  0.000000  0.797100  0.569409  1
  Co  Co20  1  0.500000  0.877856  0.709276  1
  Co  Co21  1  0.500000  0.122144  0.709276  1
  Co  Co22  1  0.000000  0.622144  0.290724  1
  Co  Co23  1  0.000000  0.377856  0.290724  1
  P  P24  1  0.500000  0.500000  0.882552  1
  P  P25  1  0.000000  0.000000  0.117448  1
  P  P26  1  0.500000  0.500000  0.345252  1
  P  P27  1  0.000000  0.000000  0.654748  1
  P  P28  1  0.500000  0.311848  0.617107  1
  P  P29  1  0.500000  0.688152  0.617107  1
  P  P30  1  0.000000  0.188152  0.382893  1
  P  P31  1  0.000000  0.811848  0.382893  1
  P  P32  1  0.500000  0.846112  0.891387  1
  P  P33  1  0.500000  0.153888  0.891387  1
  P  P34  1  0.000000  0.653888  0.108613  1
  P  P35  1  0.000000  0.346112  0.108613  1
