# generated using pymatgen
data_Yb2HoTm5(B6Os)4
_symmetry_space_group_name_H-M   'P 1'
_cell_length_a   3.61994000
_cell_length_b   9.10140921
_cell_length_c   11.48965205
_cell_angle_alpha   89.85218658
_cell_angle_beta   90.00000000
_cell_angle_gamma   90.00000000
_symmetry_Int_Tables_number   1
_chemical_formula_structural   Yb2HoTm5(B6Os)4
_chemical_formula_sum   'Yb2 Ho1 Tm5 B24 Os4'
_cell_volume   378.54319636
_cell_formula_units_Z   1
loop_
 _symmetry_equiv_pos_site_id
 _symmetry_equiv_pos_as_xyz
  1  'x, y, z'
loop_
 _atom_site_type_symbol
 _atom_site_label
 _atom_site_symmetry_multiplicity
 _atom_site_fract_x
 _atom_site_fract_y
 _atom_site_fract_z
 _atom_site_occupancy
  Yb  Yb0  1  0.000000  0.324182  0.414547  1
  Yb  Yb1  1  0.000000  0.675791  0.585505  1
  Ho  Ho2  1  0.000000  0.821767  0.086369  1
  Tm  Tm3  1  0.000000  0.178323  0.913604  1
  Tm  Tm4  1  0.000000  0.942314  0.370495  1
  Tm  Tm5  1  0.000000  0.057790  0.629532  1
  Tm  Tm6  1  0.000000  0.442842  0.129745  1
  Tm  Tm7  1  0.000000  0.556948  0.870155  1
  B  B8  1  0.500000  0.553856  0.432490  1
  B  B9  1  0.500000  0.446034  0.567620  1
  B  B10  1  0.500000  0.053746  0.066281  1
  B  B11  1  0.500000  0.946805  0.933395  1
  B  B12  1  0.500000  0.748643  0.418058  1
  B  B13  1  0.500000  0.251365  0.582081  1
  B  B14  1  0.500000  0.248870  0.080628  1
  B  B15  1  0.500000  0.751169  0.918865  1
  B  B16  1  0.500000  0.791596  0.264702  1
  B  B17  1  0.500000  0.208203  0.735670  1
  B  B18  1  0.500000  0.290608  0.234145  1
  B  B19  1  0.500000  0.709444  0.765741  1
  B  B20  1  0.500000  0.630951  0.184859  1
  B  B21  1  0.500000  0.368670  0.815407  1
  B  B22  1  0.500000  0.130565  0.314143  1
  B  B23  1  0.500000  0.869596  0.685859  1
  B  B24  1  0.500000  0.982659  0.211879  1
  B  B25  1  0.500000  0.017903  0.788238  1
  B  B26  1  0.500000  0.483091  0.287682  1
  B  B27  1  0.500000  0.516731  0.712360  1
  B  B28  1  0.500000  0.602497  0.028201  1
  B  B29  1  0.500000  0.396848  0.971602  1
  B  B30  1  0.500000  0.099213  0.472620  1
  B  B31  1  0.500000  0.900847  0.527429  1
  Os  Os32  1  0.000000  0.639918  0.318814  1
  Os  Os33  1  0.000000  0.359825  0.681455  1
  Os  Os34  1  0.000000  0.136953  0.177830  1
  Os  Os35  1  0.000000  0.863437  0.821995  1
