# generated using pymatgen
data_HfBe2Cu2Pd
_symmetry_space_group_name_H-M   'P 1'
_cell_length_a   4.80662408
_cell_length_b   4.69120395
_cell_length_c   4.69120326
_cell_angle_alpha   60.11322598
_cell_angle_beta   59.18270781
_cell_angle_gamma   59.18272516
_symmetry_Int_Tables_number   1
_chemical_formula_structural   HfBe2Cu2Pd
_chemical_formula_sum   'Hf1 Be2 Cu2 Pd1'
_cell_volume   73.92265788
_cell_formula_units_Z   1
loop_
 _symmetry_equiv_pos_site_id
 _symmetry_equiv_pos_as_xyz
  1  'x, y, z'
loop_
 _atom_site_type_symbol
 _atom_site_label
 _atom_site_symmetry_multiplicity
 _atom_site_fract_x
 _atom_site_fract_y
 _atom_site_fract_z
 _atom_site_occupancy
  Hf  Hf0  1  0.000208  0.999792  0.999792  1
  Be  Be1  1  0.618687  0.630021  0.132606  1
  Be  Be2  1  0.618687  0.132606  0.630021  1
  Cu  Cu3  1  0.123631  0.624789  0.624789  1
  Cu  Cu4  1  0.626791  0.624789  0.624789  1
  Pd  Pd5  1  0.261997  0.238003  0.238003  1
