# generated using pymatgen
data_Sc12Co4TcTe
_symmetry_space_group_name_H-M   'P 1'
_cell_length_a   7.73639613
_cell_length_b   7.73639634
_cell_length_c   7.73639664
_cell_angle_alpha   111.67936415
_cell_angle_beta   110.14154510
_cell_angle_gamma   106.63342588
_symmetry_Int_Tables_number   1
_chemical_formula_structural   Sc12Co4TcTe
_chemical_formula_sum   'Sc12 Co4 Tc1 Te1'
_cell_volume   355.72711715
_cell_formula_units_Z   1
loop_
 _symmetry_equiv_pos_site_id
 _symmetry_equiv_pos_as_xyz
  1  'x, y, z'
loop_
 _atom_site_type_symbol
 _atom_site_label
 _atom_site_symmetry_multiplicity
 _atom_site_fract_x
 _atom_site_fract_y
 _atom_site_fract_z
 _atom_site_occupancy
  Sc  Sc0  1  0.425322  0.223848  0.201473  1
  Sc  Sc1  1  0.574678  0.776152  0.798527  1
  Sc  Sc2  1  0.022375  0.223848  0.798527  1
  Sc  Sc3  1  0.977625  0.776152  0.201473  1
  Sc  Sc4  1  0.311451  0.617262  0.305811  1
  Sc  Sc5  1  0.688549  0.382738  0.694189  1
  Sc  Sc6  1  0.311451  0.005640  0.694189  1
  Sc  Sc7  1  0.688549  0.994360  0.305811  1
  Sc  Sc8  1  0.181043  0.271375  0.452419  1
  Sc  Sc9  1  0.818957  0.728624  0.547581  1
  Sc  Sc10  1  0.181043  0.728624  0.909668  1
  Sc  Sc11  1  0.818957  0.271375  0.090332  1
  Co  Co12  1  0.361283  0.000000  0.361283  1
  Co  Co13  1  0.638717  0.000000  0.638717  1
  Co  Co14  1  0.117996  0.617996  0.500000  1
  Co  Co15  1  0.882004  0.382004  0.500000  1
  Tc  Tc16  1  0.000000  0.000000  0.000000  1
  Te  Te17  1  0.500000  0.500000  0.000000  1
