# generated using pymatgen
data_DyHo3(Al3Rh)6
_symmetry_space_group_name_H-M   'P 1'
_cell_length_a   7.55092755
_cell_length_b   7.55023123
_cell_length_c   9.46170100
_cell_angle_alpha   90.00000000
_cell_angle_beta   90.00000000
_cell_angle_gamma   119.32490083
_symmetry_Int_Tables_number   1
_chemical_formula_structural   DyHo3(Al3Rh)6
_chemical_formula_sum   'Dy1 Ho3 Al18 Rh6'
_cell_volume   470.29979241
_cell_formula_units_Z   1
loop_
 _symmetry_equiv_pos_site_id
 _symmetry_equiv_pos_as_xyz
  1  'x, y, z'
loop_
 _atom_site_type_symbol
 _atom_site_label
 _atom_site_symmetry_multiplicity
 _atom_site_fract_x
 _atom_site_fract_y
 _atom_site_fract_z
 _atom_site_occupancy
  Dy  Dy0  1  0.327838  0.005778  0.250000  1
  Ho  Ho1  1  0.994364  0.671591  0.750000  1
  Ho  Ho2  1  0.005595  0.328046  0.250000  1
  Ho  Ho3  1  0.671668  0.994396  0.750000  1
  Al  Al4  1  0.128444  0.128609  0.750000  1
  Al  Al5  1  0.871432  0.871728  0.250000  1
  Al  Al6  1  0.000615  0.335867  0.575098  1
  Al  Al7  1  0.999202  0.663960  0.424779  1
  Al  Al8  1  0.999202  0.663960  0.075221  1
  Al  Al9  1  0.335966  0.000694  0.924407  1
  Al  Al10  1  0.000615  0.335867  0.924902  1
  Al  Al11  1  0.664550  0.999457  0.075115  1
  Al  Al12  1  0.664550  0.999457  0.424885  1
  Al  Al13  1  0.335966  0.000694  0.575593  1
  Al  Al14  1  0.332430  0.332680  0.048425  1
  Al  Al15  1  0.667560  0.667532  0.950885  1
  Al  Al16  1  0.667560  0.667532  0.549115  1
  Al  Al17  1  0.332430  0.332680  0.451575  1
  Al  Al18  1  0.339907  0.550050  0.750000  1
  Al  Al19  1  0.660429  0.449637  0.250000  1
  Al  Al20  1  0.550231  0.340035  0.750000  1
  Al  Al21  1  0.449308  0.659734  0.250000  1
  Rh  Rh22  1  0.672228  0.328366  0.500305  1
  Rh  Rh23  1  0.328238  0.671904  0.500304  1
  Rh  Rh24  1  0.328238  0.671904  0.999696  1
  Rh  Rh25  1  0.672228  0.328366  0.999695  1
  Rh  Rh26  1  0.999603  0.999738  0.500336  1
  Rh  Rh27  1  0.999603  0.999738  0.999664  1
