# generated using pymatgen
data_Tb3ErGa18Co5Ni
_symmetry_space_group_name_H-M   'P 1'
_cell_length_a   7.36574611
_cell_length_b   7.36562720
_cell_length_c   9.42994040
_cell_angle_alpha   89.95956160
_cell_angle_beta   89.95799909
_cell_angle_gamma   119.72639429
_symmetry_Int_Tables_number   1
_chemical_formula_structural   Tb3ErGa18Co5Ni
_chemical_formula_sum   'Tb3 Er1 Ga18 Co5 Ni1'
_cell_volume   444.27961452
_cell_formula_units_Z   1
loop_
 _symmetry_equiv_pos_site_id
 _symmetry_equiv_pos_as_xyz
  1  'x, y, z'
loop_
 _atom_site_type_symbol
 _atom_site_label
 _atom_site_symmetry_multiplicity
 _atom_site_fract_x
 _atom_site_fract_y
 _atom_site_fract_z
 _atom_site_occupancy
  Tb  Tb0  1  0.502908  0.830112  0.749980  1
  Tb  Tb1  1  0.497053  0.169759  0.249972  1
  Tb  Tb2  1  0.169623  0.497007  0.249940  1
  Er  Er3  1  0.830101  0.502908  0.750021  1
  Ga  Ga4  1  0.162236  0.948076  0.750296  1
  Ga  Ga5  1  0.836870  0.050371  0.249605  1
  Ga  Ga6  1  0.050295  0.836680  0.249696  1
  Ga  Ga7  1  0.949151  0.164067  0.750409  1
  Ga  Ga8  1  0.625156  0.624857  0.247613  1
  Ga  Ga9  1  0.375689  0.374925  0.752294  1
  Ga  Ga10  1  0.166120  0.166202  0.056597  1
  Ga  Ga11  1  0.836665  0.835928  0.560547  1
  Ga  Ga12  1  0.833478  0.832842  0.941284  1
  Ga  Ga13  1  0.163228  0.163188  0.441562  1
  Ga  Ga14  1  0.500098  0.834582  0.070445  1
  Ga  Ga15  1  0.500462  0.164002  0.573110  1
  Ga  Ga16  1  0.164401  0.500157  0.928468  1
  Ga  Ga17  1  0.836786  0.500499  0.428591  1
  Ga  Ga18  1  0.501307  0.166173  0.928581  1
  Ga  Ga19  1  0.500848  0.836815  0.427836  1
  Ga  Ga20  1  0.834428  0.499610  0.069662  1
  Ga  Ga21  1  0.162180  0.499515  0.573211  1
  Co  Co22  1  0.170820  0.829253  0.999606  1
  Co  Co23  1  0.500005  0.500138  0.999487  1
  Co  Co24  1  0.829223  0.170757  0.500437  1
  Co  Co25  1  0.829140  0.170671  0.999581  1
  Co  Co26  1  0.170942  0.829277  0.500381  1
  Ni  Ni27  1  0.500785  0.501629  0.500788  1
