# generated using pymatgen
data_La8Zn8Pd6RuRh
_symmetry_space_group_name_H-M   'P 1'
_cell_length_a   4.09621100
_cell_length_b   7.57854274
_cell_length_c   16.91278429
_cell_angle_alpha   90.32410630
_cell_angle_beta   90.00000000
_cell_angle_gamma   90.00000000
_symmetry_Int_Tables_number   1
_chemical_formula_structural   La8Zn8Pd6RuRh
_chemical_formula_sum   'La8 Zn8 Pd6 Ru1 Rh1'
_cell_volume   525.02040820
_cell_formula_units_Z   1
loop_
 _symmetry_equiv_pos_site_id
 _symmetry_equiv_pos_as_xyz
  1  'x, y, z'
loop_
 _atom_site_type_symbol
 _atom_site_label
 _atom_site_symmetry_multiplicity
 _atom_site_fract_x
 _atom_site_fract_y
 _atom_site_fract_z
 _atom_site_occupancy
  La  La0  1  0.750000  0.327418  0.442031  1
  La  La1  1  0.250000  0.044193  0.716934  1
  La  La2  1  0.250000  0.554914  0.780606  1
  La  La3  1  0.250000  0.676086  0.562373  1
  La  La4  1  0.750000  0.833254  0.058352  1
  La  La5  1  0.250000  0.178295  0.947779  1
  La  La6  1  0.750000  0.439609  0.208755  1
  La  La7  1  0.750000  0.949485  0.283289  1
  Zn  Zn8  1  0.250000  0.121775  0.146861  1
  Zn  Zn9  1  0.250000  0.999189  0.439957  1
  Zn  Zn10  1  0.750000  0.876549  0.848568  1
  Zn  Zn11  1  0.750000  0.000068  0.562003  1
  Zn  Zn12  1  0.250000  0.499778  0.060422  1
  Zn  Zn13  1  0.750000  0.382761  0.650816  1
  Zn  Zn14  1  0.750000  0.499434  0.941717  1
  Zn  Zn15  1  0.250000  0.619055  0.348479  1
  Pd  Pd16  1  0.750000  0.253804  0.813728  1
  Pd  Pd17  1  0.250000  0.244014  0.317146  1
  Pd  Pd18  1  0.250000  0.740953  0.932773  1
  Pd  Pd19  1  0.250000  0.238889  0.568079  1
  Pd  Pd20  1  0.250000  0.745998  0.185370  1
  Pd  Pd21  1  0.750000  0.761525  0.432900  1
  Ru  Ru22  1  0.750000  0.262486  0.067763  1
  Rh  Rh23  1  0.750000  0.750467  0.683297  1
