# generated using pymatgen
data_NdSm7(Ho3Sn4)4
_symmetry_space_group_name_H-M   'P 1'
_cell_length_a   8.07245879
_cell_length_b   8.23040555
_cell_length_c   15.53378802
_cell_angle_alpha   90.01991306
_cell_angle_beta   89.96371256
_cell_angle_gamma   90.06733874
_symmetry_Int_Tables_number   1
_chemical_formula_structural   NdSm7(Ho3Sn4)4
_chemical_formula_sum   'Nd1 Sm7 Ho12 Sn16'
_cell_volume   1032.05783022
_cell_formula_units_Z   1
loop_
 _symmetry_equiv_pos_site_id
 _symmetry_equiv_pos_as_xyz
  1  'x, y, z'
loop_
 _atom_site_type_symbol
 _atom_site_label
 _atom_site_symmetry_multiplicity
 _atom_site_fract_x
 _atom_site_fract_y
 _atom_site_fract_z
 _atom_site_occupancy
  Nd  Nd0  1  0.515443  0.320826  0.903555  1
  Sm  Sm1  1  0.016754  0.178844  0.596574  1
  Sm  Sm2  1  0.483194  0.679089  0.402941  1
  Sm  Sm3  1  0.983427  0.821097  0.097169  1
  Sm  Sm4  1  0.483815  0.679652  0.097091  1
  Sm  Sm5  1  0.983170  0.821047  0.402891  1
  Sm  Sm6  1  0.517077  0.320779  0.597102  1
  Sm  Sm7  1  0.016558  0.178543  0.903118  1
  Ho  Ho8  1  0.363160  0.836505  0.877316  1
  Ho  Ho9  1  0.863910  0.663731  0.622520  1
  Ho  Ho10  1  0.636358  0.163651  0.377362  1
  Ho  Ho11  1  0.137210  0.336039  0.123102  1
  Ho  Ho12  1  0.637181  0.163515  0.122794  1
  Ho  Ho13  1  0.136239  0.336281  0.377259  1
  Ho  Ho14  1  0.363609  0.836249  0.622282  1
  Ho  Ho15  1  0.862938  0.663867  0.876977  1
  Ho  Ho16  1  0.196015  0.503079  0.749651  1
  Ho  Ho17  1  0.696284  0.996996  0.749704  1
  Ho  Ho18  1  0.804018  0.497138  0.250211  1
  Ho  Ho19  1  0.303776  0.002883  0.250152  1
  Sn  Sn20  1  0.298674  0.038918  0.041846  1
  Sn  Sn21  1  0.798585  0.461182  0.458287  1
  Sn  Sn22  1  0.701457  0.960795  0.541703  1
  Sn  Sn23  1  0.198616  0.540782  0.958693  1
  Sn  Sn24  1  0.701400  0.959637  0.958429  1
  Sn  Sn25  1  0.201491  0.538567  0.541741  1
  Sn  Sn26  1  0.298464  0.039188  0.458230  1
  Sn  Sn27  1  0.800850  0.461824  0.042463  1
  Sn  Sn28  1  0.561845  0.622449  0.749802  1
  Sn  Sn29  1  0.061911  0.878208  0.749885  1
  Sn  Sn30  1  0.438272  0.378371  0.250019  1
  Sn  Sn31  1  0.938030  0.121240  0.250155  1
  Sn  Sn32  1  0.324845  0.143979  0.749305  1
  Sn  Sn33  1  0.826927  0.354976  0.749699  1
  Sn  Sn34  1  0.674200  0.855309  0.250014  1
  Sn  Sn35  1  0.174296  0.644764  0.249958  1
