# generated using pymatgen
data_Tb3Cd3IrAu2
_symmetry_space_group_name_H-M   'P 1'
_cell_length_a   7.90485900
_cell_length_b   7.90485864
_cell_length_c   3.80896700
_cell_angle_alpha   90.00000000
_cell_angle_beta   90.00000000
_cell_angle_gamma   120.00000570
_symmetry_Int_Tables_number   1
_chemical_formula_structural   Tb3Cd3IrAu2
_chemical_formula_sum   'Tb3 Cd3 Ir1 Au2'
_cell_volume   206.12280905
_cell_formula_units_Z   1
loop_
 _symmetry_equiv_pos_site_id
 _symmetry_equiv_pos_as_xyz
  1  'x, y, z'
loop_
 _atom_site_type_symbol
 _atom_site_label
 _atom_site_symmetry_multiplicity
 _atom_site_fract_x
 _atom_site_fract_y
 _atom_site_fract_z
 _atom_site_occupancy
  Tb  Tb0  1  0.582051  0.973015  0.000000  1
  Tb  Tb1  1  0.026985  0.609037  0.000000  1
  Tb  Tb2  1  0.390963  0.417949  0.000000  1
  Cd  Cd3  1  0.268799  0.003049  0.500000  1
  Cd  Cd4  1  0.996951  0.265750  0.500000  1
  Cd  Cd5  1  0.734250  0.731201  0.500000  1
  Ir  Ir6  1  0.333333  0.666667  0.500000  1
  Au  Au7  1  0.666667  0.333333  0.500000  1
  Au  Au8  1  0.000000  0.000000  0.000000  1
