# generated using pymatgen
data_Tb4Ho2PtI10
_symmetry_space_group_name_H-M   'P 1'
_cell_length_a   7.76509096
_cell_length_b   9.75157923
_cell_length_c   9.79788922
_cell_angle_alpha   107.16939056
_cell_angle_beta   96.88039840
_cell_angle_gamma   104.78463859
_symmetry_Int_Tables_number   1
_chemical_formula_structural   Tb4Ho2PtI10
_chemical_formula_sum   'Tb4 Ho2 Pt1 I10'
_cell_volume   669.91990094
_cell_formula_units_Z   1
loop_
 _symmetry_equiv_pos_site_id
 _symmetry_equiv_pos_as_xyz
  1  'x, y, z'
loop_
 _atom_site_type_symbol
 _atom_site_label
 _atom_site_symmetry_multiplicity
 _atom_site_fract_x
 _atom_site_fract_y
 _atom_site_fract_z
 _atom_site_occupancy
  Tb  Tb0  1  0.884251  0.958841  0.241954  1
  Tb  Tb1  1  0.115749  0.041159  0.758046  1
  Tb  Tb2  1  0.349083  0.125209  0.166119  1
  Tb  Tb3  1  0.650917  0.874791  0.833881  1
  Ho  Ho4  1  0.971402  0.285649  0.086347  1
  Ho  Ho5  1  0.028598  0.714351  0.913653  1
  Pt  Pt6  1  0.000000  0.000000  0.000000  1
  I  I7  1  0.351967  0.453004  0.271741  1
  I  I8  1  0.648033  0.546996  0.728259  1
  I  I9  1  0.915092  0.625810  0.177565  1
  I  I10  1  0.084908  0.374190  0.822435  1
  I  I11  1  0.452613  0.815545  0.091453  1
  I  I12  1  0.547387  0.184455  0.908547  1
  I  I13  1  0.259298  0.087600  0.462842  1
  I  I14  1  0.740702  0.912400  0.537158  1
  I  I15  1  0.780030  0.259668  0.345987  1
  I  I16  1  0.219970  0.740332  0.654013  1
