# generated using pymatgen
data_Be4BRh
_symmetry_space_group_name_H-M   'P 1'
_cell_length_a   4.08239976
_cell_length_b   4.08240056
_cell_length_c   4.08240008
_cell_angle_alpha   61.04940661
_cell_angle_beta   61.04939640
_cell_angle_gamma   61.04940623
_symmetry_Int_Tables_number   1
_chemical_formula_structural   Be4BRh
_chemical_formula_sum   'Be4 B1 Rh1'
_cell_volume   49.24641400
_cell_formula_units_Z   1
loop_
 _symmetry_equiv_pos_site_id
 _symmetry_equiv_pos_as_xyz
  1  'x, y, z'
loop_
 _atom_site_type_symbol
 _atom_site_label
 _atom_site_symmetry_multiplicity
 _atom_site_fract_x
 _atom_site_fract_y
 _atom_site_fract_z
 _atom_site_occupancy
  Be  Be0  1  0.873216  0.375801  0.375801  1
  Be  Be1  1  0.375801  0.873216  0.375801  1
  Be  Be2  1  0.749223  0.749223  0.749223  1
  Be  Be3  1  0.375801  0.375801  0.873216  1
  B  B4  1  0.376436  0.376436  0.376436  1
  Rh  Rh5  1  0.999524  0.999524  0.999524  1
