# generated using pymatgen
data_YHo2(IrRh2)3
_symmetry_space_group_name_H-M   'P 1'
_cell_length_a   5.28651100
_cell_length_b   5.28651177
_cell_length_c   17.49061000
_cell_angle_alpha   90.00000000
_cell_angle_beta   90.00000000
_cell_angle_gamma   119.99998893
_symmetry_Int_Tables_number   1
_chemical_formula_structural   YHo2(IrRh2)3
_chemical_formula_sum   'Y2 Ho4 Ir6 Rh12'
_cell_volume   423.32506123
_cell_formula_units_Z   2
loop_
 _symmetry_equiv_pos_site_id
 _symmetry_equiv_pos_as_xyz
  1  'x, y, z'
loop_
 _atom_site_type_symbol
 _atom_site_label
 _atom_site_symmetry_multiplicity
 _atom_site_fract_x
 _atom_site_fract_y
 _atom_site_fract_z
 _atom_site_occupancy
  Y  Y0  1  0.333333  0.666667  0.747764  1
  Y  Y1  1  0.666667  0.333333  0.252236  1
  Ho  Ho2  1  0.333333  0.666667  0.957715  1
  Ho  Ho3  1  0.666667  0.333333  0.042285  1
  Ho  Ho4  1  0.666667  0.333333  0.458962  1
  Ho  Ho5  1  0.333333  0.666667  0.541038  1
  Ir  Ir6  1  0.167561  0.832439  0.373680  1
  Ir  Ir7  1  0.167561  0.335122  0.373680  1
  Ir  Ir8  1  0.664878  0.832439  0.373680  1
  Ir  Ir9  1  0.832439  0.167561  0.626320  1
  Ir  Ir10  1  0.832439  0.664878  0.626320  1
  Ir  Ir11  1  0.335122  0.167561  0.626320  1
  Rh  Rh12  1  0.832467  0.167533  0.875390  1
  Rh  Rh13  1  0.832467  0.664934  0.875390  1
  Rh  Rh14  1  0.335066  0.167533  0.875390  1
  Rh  Rh15  1  0.167533  0.832467  0.124610  1
  Rh  Rh16  1  0.167533  0.335066  0.124610  1
  Rh  Rh17  1  0.664934  0.832467  0.124610  1
  Rh  Rh18  1  0.333333  0.666667  0.249092  1
  Rh  Rh19  1  0.666667  0.333333  0.750908  1
  Rh  Rh20  1  0.000000  0.000000  0.249800  1
  Rh  Rh21  1  0.000000  0.000000  0.750200  1
  Rh  Rh22  1  0.000000  0.000000  0.500000  1
  Rh  Rh23  1  0.000000  0.000000  0.000000  1
