# generated using pymatgen
data_Li2Nd18Si15Os
_symmetry_space_group_name_H-M   'P 1'
_cell_length_a   7.51008727
_cell_length_b   8.00057142
_cell_length_c   15.14708600
_cell_angle_alpha   90.00000000
_cell_angle_beta   90.00000000
_cell_angle_gamma   89.87248230
_symmetry_Int_Tables_number   1
_chemical_formula_structural   Li2Nd18Si15Os
_chemical_formula_sum   'Li2 Nd18 Si15 Os1'
_cell_volume   910.11025014
_cell_formula_units_Z   1
loop_
 _symmetry_equiv_pos_site_id
 _symmetry_equiv_pos_as_xyz
  1  'x, y, z'
loop_
 _atom_site_type_symbol
 _atom_site_label
 _atom_site_symmetry_multiplicity
 _atom_site_fract_x
 _atom_site_fract_y
 _atom_site_fract_z
 _atom_site_occupancy
  Li  Li0  1  0.148103  0.526775  0.750000  1
  Li  Li1  1  0.648666  0.976798  0.750000  1
  Nd  Nd2  1  0.817262  0.321907  0.628580  1
  Nd  Nd3  1  0.459322  0.694734  0.893796  1
  Nd  Nd4  1  0.960112  0.807144  0.894853  1
  Nd  Nd5  1  0.197476  0.676513  0.125868  1
  Nd  Nd6  1  0.681279  0.813601  0.121883  1
  Nd  Nd7  1  0.316534  0.182261  0.870551  1
  Nd  Nd8  1  0.197476  0.676513  0.374132  1
  Nd  Nd9  1  0.029978  0.183698  0.095001  1
  Nd  Nd10  1  0.316534  0.182261  0.629449  1
  Nd  Nd11  1  0.840888  0.489181  0.250000  1
  Nd  Nd12  1  0.361240  0.015116  0.250000  1
  Nd  Nd13  1  0.526972  0.320352  0.406925  1
  Nd  Nd14  1  0.817262  0.321907  0.871420  1
  Nd  Nd15  1  0.960112  0.807144  0.605147  1
  Nd  Nd16  1  0.459322  0.694734  0.606204  1
  Nd  Nd17  1  0.029978  0.183698  0.404999  1
  Nd  Nd18  1  0.681279  0.813601  0.378117  1
  Nd  Nd19  1  0.526972  0.320352  0.093075  1
  Si  Si20  1  0.245730  0.369913  0.250000  1
  Si  Si21  1  0.867190  0.523289  0.462482  1
  Si  Si22  1  0.513383  0.422428  0.750000  1
  Si  Si23  1  0.643510  0.030966  0.959435  1
  Si  Si24  1  0.010513  0.077137  0.750000  1
  Si  Si25  1  0.748919  0.627387  0.750000  1
  Si  Si26  1  0.753174  0.120388  0.250000  1
  Si  Si27  1  0.360055  0.977246  0.463666  1
  Si  Si28  1  0.980676  0.901633  0.250000  1
  Si  Si29  1  0.360055  0.977246  0.036334  1
  Si  Si30  1  0.643510  0.030966  0.540565  1
  Si  Si31  1  0.148366  0.470822  0.962064  1
  Si  Si32  1  0.148366  0.470822  0.537936  1
  Si  Si33  1  0.867190  0.523289  0.037518  1
  Si  Si34  1  0.247277  0.875146  0.750000  1
  Os  Os35  1  0.485318  0.593032  0.250000  1
