# generated using pymatgen
data_Y4Mg(GaB4)2
_symmetry_space_group_name_H-M   'P 1'
_cell_length_a   7.20106100
_cell_length_b   7.20106100
_cell_length_c   8.03733200
_cell_angle_alpha   90.00000000
_cell_angle_beta   90.00000000
_cell_angle_gamma   90.00000000
_symmetry_Int_Tables_number   1
_chemical_formula_structural   Y4Mg(GaB4)2
_chemical_formula_sum   'Y8 Mg2 Ga4 B16'
_cell_volume   416.77809750
_cell_formula_units_Z   2
loop_
 _symmetry_equiv_pos_site_id
 _symmetry_equiv_pos_as_xyz
  1  'x, y, z'
loop_
 _atom_site_type_symbol
 _atom_site_label
 _atom_site_symmetry_multiplicity
 _atom_site_fract_x
 _atom_site_fract_y
 _atom_site_fract_z
 _atom_site_occupancy
  Y  Y0  1  0.681936  0.181936  0.226942  1
  Y  Y1  1  0.318064  0.818064  0.773058  1
  Y  Y2  1  0.318064  0.818064  0.226942  1
  Y  Y3  1  0.818064  0.681936  0.226942  1
  Y  Y4  1  0.818064  0.681936  0.773058  1
  Y  Y5  1  0.681936  0.181936  0.773058  1
  Y  Y6  1  0.181936  0.318064  0.773058  1
  Y  Y7  1  0.181936  0.318064  0.226942  1
  Mg  Mg8  1  0.000000  0.000000  0.500000  1
  Mg  Mg9  1  0.500000  0.500000  0.500000  1
  Ga  Ga10  1  0.121660  0.621660  0.500000  1
  Ga  Ga11  1  0.878340  0.378340  0.500000  1
  Ga  Ga12  1  0.378340  0.121660  0.500000  1
  Ga  Ga13  1  0.621660  0.878340  0.500000  1
  B  B14  1  0.172467  0.040303  0.000000  1
  B  B15  1  0.827533  0.959697  0.000000  1
  B  B16  1  0.959697  0.172467  0.000000  1
  B  B17  1  0.327533  0.540303  0.000000  1
  B  B18  1  0.040303  0.827533  0.000000  1
  B  B19  1  0.672467  0.459697  0.000000  1
  B  B20  1  0.540303  0.672467  0.000000  1
  B  B21  1  0.459697  0.327533  0.000000  1
  B  B22  1  0.089798  0.589798  0.000000  1
  B  B23  1  0.910202  0.410202  0.000000  1
  B  B24  1  0.410202  0.089798  0.000000  1
  B  B25  1  0.589798  0.910202  0.000000  1
  B  B26  1  0.000000  0.000000  0.159820  1
  B  B27  1  0.000000  0.000000  0.840180  1
  B  B28  1  0.500000  0.500000  0.840180  1
  B  B29  1  0.500000  0.500000  0.159820  1
