# generated using pymatgen
data_Sc5Si(SnRu2)6
_symmetry_space_group_name_H-M   'P 1'
_cell_length_a   4.51482901
_cell_length_b   6.40768601
_cell_length_c   13.53515200
_cell_angle_alpha   90.00001740
_cell_angle_beta   89.99982227
_cell_angle_gamma   89.99407069
_symmetry_Int_Tables_number   1
_chemical_formula_structural   Sc5Si(SnRu2)6
_chemical_formula_sum   'Sc5 Si1 Sn6 Ru12'
_cell_volume   391.56662125
_cell_formula_units_Z   1
loop_
 _symmetry_equiv_pos_site_id
 _symmetry_equiv_pos_as_xyz
  1  'x, y, z'
loop_
 _atom_site_type_symbol
 _atom_site_label
 _atom_site_symmetry_multiplicity
 _atom_site_fract_x
 _atom_site_fract_y
 _atom_site_fract_z
 _atom_site_occupancy
  Sc  Sc0  1  0.499902  0.499936  0.161899  1
  Sc  Sc1  1  0.999907  0.000052  0.333960  1
  Sc  Sc2  1  0.499984  0.499953  0.500004  1
  Sc  Sc3  1  0.000092  0.000047  0.666042  1
  Sc  Sc4  1  0.500099  0.499932  0.838097  1
  Si  Si5  1  0.000001  0.000072  0.000010  1
  Sn  Sn6  1  0.000003  0.499954  0.000000  1
  Sn  Sn7  1  0.499887  0.000006  0.174004  1
  Sn  Sn8  1  0.999898  0.500003  0.329046  1
  Sn  Sn9  1  0.499999  0.000022  0.500002  1
  Sn  Sn10  1  0.000104  0.500003  0.670965  1
  Sn  Sn11  1  0.500113  0.000011  0.825989  1
  Ru  Ru12  1  0.500169  0.222374  0.999988  1
  Ru  Ru13  1  0.499831  0.777596  0.999987  1
  Ru  Ru14  1  0.999791  0.236658  0.155034  1
  Ru  Ru15  1  0.999990  0.763337  0.155022  1
  Ru  Ru16  1  0.499972  0.253132  0.331968  1
  Ru  Ru17  1  0.499818  0.746894  0.331966  1
  Ru  Ru18  1  0.999936  0.250396  0.500008  1
  Ru  Ru19  1  0.000065  0.749622  0.500008  1
  Ru  Ru20  1  0.500177  0.253136  0.668038  1
  Ru  Ru21  1  0.500031  0.746878  0.668034  1
  Ru  Ru22  1  0.000011  0.236651  0.844958  1
  Ru  Ru23  1  0.000215  0.763341  0.844970  1
