# generated using pymatgen
data_Ce5NdCr2(Co4P3)4
_symmetry_space_group_name_H-M   'P 1'
_cell_length_a   3.74798200
_cell_length_b   10.56524400
_cell_length_c   12.34382100
_cell_angle_alpha   90.00000000
_cell_angle_beta   90.00000000
_cell_angle_gamma   90.00000000
_symmetry_Int_Tables_number   1
_chemical_formula_structural   Ce5NdCr2(Co4P3)4
_chemical_formula_sum   'Ce5 Nd1 Cr2 Co16 P12'
_cell_volume   488.79487440
_cell_formula_units_Z   1
loop_
 _symmetry_equiv_pos_site_id
 _symmetry_equiv_pos_as_xyz
  1  'x, y, z'
loop_
 _atom_site_type_symbol
 _atom_site_label
 _atom_site_symmetry_multiplicity
 _atom_site_fract_x
 _atom_site_fract_y
 _atom_site_fract_z
 _atom_site_occupancy
  Ce  Ce0  1  0.000000  0.500000  0.522944  1
  Ce  Ce1  1  0.500000  0.819866  0.206994  1
  Ce  Ce2  1  0.500000  0.180134  0.206994  1
  Ce  Ce3  1  0.000000  0.681175  0.793266  1
  Ce  Ce4  1  0.000000  0.318825  0.793266  1
  Nd  Nd5  1  0.500000  0.000000  0.480313  1
  Cr  Cr6  1  0.500000  0.500000  0.154880  1
  Cr  Cr7  1  0.000000  0.000000  0.845830  1
  Co  Co8  1  0.500000  0.500000  0.703535  1
  Co  Co9  1  0.000000  0.000000  0.291190  1
  Co  Co10  1  0.000000  0.500000  0.986923  1
  Co  Co11  1  0.500000  0.000000  0.012393  1
  Co  Co12  1  0.500000  0.332971  0.994260  1
  Co  Co13  1  0.500000  0.667029  0.994260  1
  Co  Co14  1  0.000000  0.167487  0.005411  1
  Co  Co15  1  0.000000  0.832513  0.005411  1
  Co  Co16  1  0.500000  0.300796  0.428774  1
  Co  Co17  1  0.500000  0.699204  0.428774  1
  Co  Co18  1  0.000000  0.203196  0.571559  1
  Co  Co19  1  0.000000  0.796804  0.571559  1
  Co  Co20  1  0.500000  0.879706  0.713334  1
  Co  Co21  1  0.500000  0.120294  0.713334  1
  Co  Co22  1  0.000000  0.619653  0.287841  1
  Co  Co23  1  0.000000  0.380347  0.287841  1
  P  P24  1  0.500000  0.500000  0.886526  1
  P  P25  1  0.000000  0.000000  0.111870  1
  P  P26  1  0.500000  0.500000  0.339745  1
  P  P27  1  0.000000  0.000000  0.661460  1
  P  P28  1  0.500000  0.306552  0.613475  1
  P  P29  1  0.500000  0.693448  0.613475  1
  P  P30  1  0.000000  0.193125  0.386083  1
  P  P31  1  0.000000  0.806875  0.386083  1
  P  P32  1  0.500000  0.848339  0.894274  1
  P  P33  1  0.500000  0.151661  0.894274  1
  P  P34  1  0.000000  0.651663  0.105925  1
  P  P35  1  0.000000  0.348337  0.105925  1
