# generated using pymatgen
data_Ca11Ac(SnRh)8
_symmetry_space_group_name_H-M   'P 1'
_cell_length_a   5.95360423
_cell_length_b   8.18198855
_cell_length_c   14.18231900
_cell_angle_alpha   90.01640026
_cell_angle_beta   90.12079694
_cell_angle_gamma   89.88591309
_symmetry_Int_Tables_number   1
_chemical_formula_structural   Ca11Ac(SnRh)8
_chemical_formula_sum   'Ca11 Ac1 Sn8 Rh8'
_cell_volume   690.85075213
_cell_formula_units_Z   1
loop_
 _symmetry_equiv_pos_site_id
 _symmetry_equiv_pos_as_xyz
  1  'x, y, z'
loop_
 _atom_site_type_symbol
 _atom_site_label
 _atom_site_symmetry_multiplicity
 _atom_site_fract_x
 _atom_site_fract_y
 _atom_site_fract_z
 _atom_site_occupancy
  Ca  Ca0  1  0.626557  0.253587  0.253349  1
  Ca  Ca1  1  0.374467  0.749554  0.748472  1
  Ca  Ca2  1  0.372350  0.745584  0.255199  1
  Ca  Ca3  1  0.626078  0.250544  0.748455  1
  Ca  Ca4  1  0.153338  0.398241  0.093496  1
  Ca  Ca5  1  0.841666  0.596549  0.900989  1
  Ca  Ca6  1  0.845659  0.602835  0.593586  1
  Ca  Ca7  1  0.844157  0.897444  0.407310  1
  Ca  Ca8  1  0.155453  0.397427  0.409070  1
  Ca  Ca9  1  0.156069  0.101510  0.593858  1
  Ca  Ca10  1  0.162211  0.107559  0.902172  1
  Ac  Ac11  1  0.841855  0.896402  0.090267  1
  Sn  Sn12  1  0.140782  0.101395  0.253484  1
  Sn  Sn13  1  0.868884  0.903059  0.750374  1
  Sn  Sn14  1  0.868271  0.593235  0.253186  1
  Sn  Sn15  1  0.133338  0.402225  0.748355  1
  Sn  Sn16  1  0.634428  0.255560  0.997235  1
  Sn  Sn17  1  0.352870  0.747388  0.996255  1
  Sn  Sn18  1  0.364539  0.749722  0.500594  1
  Sn  Sn19  1  0.637037  0.248898  0.501233  1
  Rh  Rh20  1  0.368674  0.036406  0.092503  1
  Rh  Rh21  1  0.631699  0.963344  0.907442  1
  Rh  Rh22  1  0.635008  0.963532  0.592794  1
  Rh  Rh23  1  0.635864  0.534128  0.410073  1
  Rh  Rh24  1  0.366271  0.036182  0.410122  1
  Rh  Rh25  1  0.365235  0.463932  0.591421  1
  Rh  Rh26  1  0.365042  0.464051  0.906660  1
  Rh  Rh27  1  0.632199  0.539712  0.092046  1
