# generated using pymatgen
data_CePr3(HgRh2)2
_symmetry_space_group_name_H-M   'P 1'
_cell_length_a   7.70919518
_cell_length_b   7.70919518
_cell_length_c   3.85491000
_cell_angle_alpha   90.00000000
_cell_angle_beta   90.00000000
_cell_angle_gamma   87.82611876
_symmetry_Int_Tables_number   1
_chemical_formula_structural   CePr3(HgRh2)2
_chemical_formula_sum   'Ce1 Pr3 Hg2 Rh4'
_cell_volume   228.93893399
_cell_formula_units_Z   1
loop_
 _symmetry_equiv_pos_site_id
 _symmetry_equiv_pos_as_xyz
  1  'x, y, z'
loop_
 _atom_site_type_symbol
 _atom_site_label
 _atom_site_symmetry_multiplicity
 _atom_site_fract_x
 _atom_site_fract_y
 _atom_site_fract_z
 _atom_site_occupancy
  Ce  Ce0  1  0.670086  0.829915  0.499999  1
  Pr  Pr1  1  0.328816  0.171184  0.499999  1
  Pr  Pr2  1  0.830076  0.327956  0.499999  1
  Pr  Pr3  1  0.172044  0.669925  0.499999  1
  Hg  Hg4  1  0.008273  0.001615  0.000000  1
  Hg  Hg5  1  0.498385  0.491727  0.000000  1
  Rh  Rh6  1  0.640924  0.112905  0.000000  1
  Rh  Rh7  1  0.118714  0.381287  0.000000  1
  Rh  Rh8  1  0.845589  0.654411  0.000000  1
  Rh  Rh9  1  0.387096  0.859076  0.000000  1
