# generated using pymatgen
data_HoEr2Tm(GaCo)4
_symmetry_space_group_name_H-M   'P 1'
_cell_length_a   4.39272800
_cell_length_b   6.86057755
_cell_length_c   6.96675929
_cell_angle_alpha   89.86153751
_cell_angle_beta   90.00000000
_cell_angle_gamma   90.00000000
_symmetry_Int_Tables_number   1
_chemical_formula_structural   HoEr2Tm(GaCo)4
_chemical_formula_sum   'Ho1 Er2 Tm1 Ga4 Co4'
_cell_volume   209.95418077
_cell_formula_units_Z   1
loop_
 _symmetry_equiv_pos_site_id
 _symmetry_equiv_pos_as_xyz
  1  'x, y, z'
loop_
 _atom_site_type_symbol
 _atom_site_label
 _atom_site_symmetry_multiplicity
 _atom_site_fract_x
 _atom_site_fract_y
 _atom_site_fract_z
 _atom_site_occupancy
  Ho  Ho0  1  0.750000  0.804360  0.978422  1
  Er  Er1  1  0.250000  0.196828  0.022020  1
  Er  Er2  1  0.750000  0.695787  0.478121  1
  Tm  Tm3  1  0.250000  0.303047  0.522625  1
  Ga  Ga4  1  0.250000  0.894888  0.695136  1
  Ga  Ga5  1  0.250000  0.605334  0.196303  1
  Ga  Ga6  1  0.750000  0.106220  0.304668  1
  Ga  Ga7  1  0.750000  0.393425  0.804005  1
  Co  Co8  1  0.250000  0.938344  0.343964  1
  Co  Co9  1  0.250000  0.561407  0.842733  1
  Co  Co10  1  0.750000  0.062892  0.655163  1
  Co  Co11  1  0.750000  0.437470  0.156843  1
