# generated using pymatgen
data_Zr10Ti3MnAl9CoIr6
_symmetry_space_group_name_H-M   'P 1'
_cell_length_a   9.01521082
_cell_length_b   9.01520957
_cell_length_c   9.01521000
_cell_angle_alpha   60.01275951
_cell_angle_beta   60.01275675
_cell_angle_gamma   60.01276461
_symmetry_Int_Tables_number   1
_chemical_formula_structural   Zr10Ti3MnAl9CoIr6
_chemical_formula_sum   'Zr10 Ti3 Mn1 Al9 Co1 Ir6'
_cell_volume   518.24865061
_cell_formula_units_Z   1
loop_
 _symmetry_equiv_pos_site_id
 _symmetry_equiv_pos_as_xyz
  1  'x, y, z'
loop_
 _atom_site_type_symbol
 _atom_site_label
 _atom_site_symmetry_multiplicity
 _atom_site_fract_x
 _atom_site_fract_y
 _atom_site_fract_z
 _atom_site_occupancy
  Zr  Zr0  1  0.199395  0.199395  0.800583  1
  Zr  Zr1  1  0.800583  0.199395  0.199395  1
  Zr  Zr2  1  0.199395  0.800583  0.199395  1
  Zr  Zr3  1  0.803371  0.803371  0.187459  1
  Zr  Zr4  1  0.187459  0.803371  0.803371  1
  Zr  Zr5  1  0.803371  0.187459  0.803371  1
  Zr  Zr6  1  0.382359  0.382359  0.382359  1
  Zr  Zr7  1  0.382860  0.853806  0.382860  1
  Zr  Zr8  1  0.853806  0.382860  0.382860  1
  Zr  Zr9  1  0.382860  0.382860  0.853806  1
  Ti  Ti10  1  0.833356  0.503017  0.833356  1
  Ti  Ti11  1  0.503017  0.833356  0.833356  1
  Ti  Ti12  1  0.833356  0.833356  0.503017  1
  Mn  Mn13  1  0.500293  0.500293  0.500293  1
  Al  Al14  1  0.162966  0.162966  0.162966  1
  Al  Al15  1  0.165240  0.505895  0.165240  1
  Al  Al16  1  0.505895  0.165240  0.165240  1
  Al  Al17  1  0.165240  0.165240  0.505895  1
  Al  Al18  1  0.618329  0.618329  0.618329  1
  Al  Al19  1  0.617707  0.147808  0.617707  1
  Al  Al20  1  0.147808  0.617707  0.617707  1
  Al  Al21  1  0.617707  0.617707  0.147808  1
  Al  Al22  1  0.828809  0.828809  0.828809  1
  Co  Co23  1  0.001208  0.001208  0.001208  1
  Ir  Ir24  1  0.999717  0.999717  0.498749  1
  Ir  Ir25  1  0.498749  0.999717  0.999717  1
  Ir  Ir26  1  0.999717  0.498749  0.999717  1
  Ir  Ir27  1  0.503713  0.503713  0.997996  1
  Ir  Ir28  1  0.997996  0.503713  0.503713  1
  Ir  Ir29  1  0.503713  0.997996  0.503713  1
