# generated using pymatgen
data_Tb16In3AgPd4
_symmetry_space_group_name_H-M   'P 1'
_cell_length_a   9.77079141
_cell_length_b   9.77010439
_cell_length_c   9.77010400
_cell_angle_alpha   60.00000132
_cell_angle_beta   60.00232724
_cell_angle_gamma   60.00231995
_symmetry_Int_Tables_number   1
_chemical_formula_structural   Tb16In3AgPd4
_chemical_formula_sum   'Tb16 In3 Ag1 Pd4'
_cell_volume   659.52063914
_cell_formula_units_Z   1
loop_
 _symmetry_equiv_pos_site_id
 _symmetry_equiv_pos_as_xyz
  1  'x, y, z'
loop_
 _atom_site_type_symbol
 _atom_site_label
 _atom_site_symmetry_multiplicity
 _atom_site_fract_x
 _atom_site_fract_y
 _atom_site_fract_z
 _atom_site_occupancy
  Tb  Tb0  1  0.352577  0.354414  0.354414  1
  Tb  Tb1  1  0.352577  0.354414  0.938596  1
  Tb  Tb2  1  0.352577  0.938596  0.354414  1
  Tb  Tb3  1  0.940828  0.353058  0.353058  1
  Tb  Tb4  1  0.809628  0.190537  0.190537  1
  Tb  Tb5  1  0.189282  0.810478  0.810478  1
  Tb  Tb6  1  0.189282  0.810478  0.189763  1
  Tb  Tb7  1  0.809628  0.190537  0.809299  1
  Tb  Tb8  1  0.189282  0.189763  0.810478  1
  Tb  Tb9  1  0.809628  0.809299  0.190537  1
  Tb  Tb10  1  0.939152  0.564841  0.564841  1
  Tb  Tb11  1  0.565953  0.934927  0.934927  1
  Tb  Tb12  1  0.565953  0.934927  0.564191  1
  Tb  Tb13  1  0.939152  0.564841  0.931167  1
  Tb  Tb14  1  0.565953  0.564191  0.934927  1
  Tb  Tb15  1  0.939152  0.931167  0.564841  1
  In  In16  1  0.581257  0.583623  0.583623  1
  In  In17  1  0.581257  0.583623  0.251497  1
  In  In18  1  0.581257  0.251497  0.583623  1
  Ag  Ag19  1  0.245510  0.584830  0.584830  1
  Pd  Pd20  1  0.144472  0.143856  0.143856  1
  Pd  Pd21  1  0.144472  0.143856  0.567816  1
  Pd  Pd22  1  0.144472  0.567816  0.143856  1
  Pd  Pd23  1  0.566700  0.144433  0.144433  1
