# generated using pymatgen
data_ScCrCo4P3
_symmetry_space_group_name_H-M   'P 1'
_cell_length_a   3.58827100
_cell_length_b   10.17237400
_cell_length_c   11.65082200
_cell_angle_alpha   90.00000000
_cell_angle_beta   90.00000000
_cell_angle_gamma   90.00000000
_symmetry_Int_Tables_number   1
_chemical_formula_structural   ScCrCo4P3
_chemical_formula_sum   'Sc4 Cr4 Co16 P12'
_cell_volume   425.26938740
_cell_formula_units_Z   4
loop_
 _symmetry_equiv_pos_site_id
 _symmetry_equiv_pos_as_xyz
  1  'x, y, z'
loop_
 _atom_site_type_symbol
 _atom_site_label
 _atom_site_symmetry_multiplicity
 _atom_site_fract_x
 _atom_site_fract_y
 _atom_site_fract_z
 _atom_site_occupancy
  Sc  Sc0  1  0.250000  0.582534  0.704904  1
  Sc  Sc1  1  0.250000  0.917466  0.204904  1
  Sc  Sc2  1  0.750000  0.417466  0.295096  1
  Sc  Sc3  1  0.750000  0.082534  0.795096  1
  Cr  Cr4  1  0.250000  0.710886  0.988710  1
  Cr  Cr5  1  0.250000  0.789114  0.488710  1
  Cr  Cr6  1  0.750000  0.289114  0.011290  1
  Cr  Cr7  1  0.750000  0.210886  0.511290  1
  Co  Co8  1  0.250000  0.407291  0.487279  1
  Co  Co9  1  0.250000  0.092709  0.987279  1
  Co  Co10  1  0.750000  0.592709  0.512721  1
  Co  Co11  1  0.750000  0.907291  0.012721  1
  Co  Co12  1  0.250000  0.220817  0.178042  1
  Co  Co13  1  0.250000  0.279184  0.678042  1
  Co  Co14  1  0.750000  0.779184  0.821958  1
  Co  Co15  1  0.750000  0.720816  0.321958  1
  Co  Co16  1  0.250000  0.886565  0.699980  1
  Co  Co17  1  0.250000  0.613435  0.199980  1
  Co  Co18  1  0.750000  0.113435  0.300020  1
  Co  Co19  1  0.750000  0.386565  0.800020  1
  Co  Co20  1  0.250000  0.465308  0.932682  1
  Co  Co21  1  0.250000  0.034692  0.432682  1
  Co  Co22  1  0.750000  0.534692  0.067318  1
  Co  Co23  1  0.750000  0.965308  0.567318  1
  P  P24  1  0.250000  0.417805  0.116039  1
  P  P25  1  0.250000  0.082195  0.616039  1
  P  P26  1  0.750000  0.582195  0.883961  1
  P  P27  1  0.750000  0.917805  0.383961  1
  P  P28  1  0.250000  0.264682  0.867765  1
  P  P29  1  0.250000  0.235318  0.367765  1
  P  P30  1  0.750000  0.735318  0.132235  1
  P  P31  1  0.750000  0.764682  0.632235  1
  P  P32  1  0.250000  0.596788  0.389784  1
  P  P33  1  0.250000  0.903212  0.889784  1
  P  P34  1  0.750000  0.403212  0.610216  1
  P  P35  1  0.750000  0.096788  0.110216  1
