# generated using pymatgen
data_LiTb7DyInRh2
_symmetry_space_group_name_H-M   'P 1'
_cell_length_a   9.67488225
_cell_length_b   9.67222770
_cell_length_c   9.69486241
_cell_angle_alpha   59.95434219
_cell_angle_beta   59.95176314
_cell_angle_gamma   60.00318936
_symmetry_Int_Tables_number   1
_chemical_formula_structural   LiTb7DyInRh2
_chemical_formula_sum   'Li2 Tb14 Dy2 In2 Rh4'
_cell_volume   641.06307108
_cell_formula_units_Z   2
loop_
 _symmetry_equiv_pos_site_id
 _symmetry_equiv_pos_as_xyz
  1  'x, y, z'
loop_
 _atom_site_type_symbol
 _atom_site_label
 _atom_site_symmetry_multiplicity
 _atom_site_fract_x
 _atom_site_fract_y
 _atom_site_fract_z
 _atom_site_occupancy
  Li  Li0  1  0.427922  0.427941  0.424504  1
  Li  Li1  1  0.427731  0.427528  0.720839  1
  Tb  Tb2  1  0.182842  0.182977  0.818416  1
  Tb  Tb3  1  0.653080  0.043377  0.650622  1
  Tb  Tb4  1  0.064177  0.064452  0.436503  1
  Tb  Tb5  1  0.438159  0.437854  0.062073  1
  Tb  Tb6  1  0.651376  0.650909  0.648917  1
  Tb  Tb7  1  0.811760  0.186589  0.189388  1
  Tb  Tb8  1  0.187846  0.811531  0.811789  1
  Tb  Tb9  1  0.043076  0.653080  0.650615  1
  Tb  Tb10  1  0.437068  0.064008  0.062157  1
  Tb  Tb11  1  0.435628  0.063935  0.436521  1
  Tb  Tb12  1  0.063929  0.436781  0.062421  1
  Tb  Tb13  1  0.650515  0.650440  0.050315  1
  Tb  Tb14  1  0.186651  0.811779  0.189661  1
  Tb  Tb15  1  0.063832  0.435433  0.436628  1
  Dy  Dy16  1  0.807886  0.808355  0.192408  1
  Dy  Dy17  1  0.811470  0.188045  0.811792  1
  In  In18  1  0.415885  0.743715  0.420816  1
  In  In19  1  0.743683  0.415769  0.421009  1
  Rh  Rh20  1  0.855937  0.426974  0.857491  1
  Rh  Rh21  1  0.856173  0.856674  0.860369  1
  Rh  Rh22  1  0.856079  0.855965  0.427089  1
  Rh  Rh23  1  0.427297  0.855891  0.857658  1
