# generated using pymatgen
data_Tb7SmHf11Si16Au
_symmetry_space_group_name_H-M   'P 1'
_cell_length_a   7.30861434
_cell_length_b   7.30971725
_cell_length_c   13.29181339
_cell_angle_alpha   89.73819241
_cell_angle_beta   90.22340447
_cell_angle_gamma   89.79439926
_symmetry_Int_Tables_number   1
_chemical_formula_structural   Tb7SmHf11Si16Au
_chemical_formula_sum   'Tb7 Sm1 Hf11 Si16 Au1'
_cell_volume   710.08313760
_cell_formula_units_Z   1
loop_
 _symmetry_equiv_pos_site_id
 _symmetry_equiv_pos_as_xyz
  1  'x, y, z'
loop_
 _atom_site_type_symbol
 _atom_site_label
 _atom_site_symmetry_multiplicity
 _atom_site_fract_x
 _atom_site_fract_y
 _atom_site_fract_z
 _atom_site_occupancy
  Tb  Tb0  1  0.005085  0.654958  0.716527  1
  Tb  Tb1  1  0.155188  0.495618  0.464918  1
  Tb  Tb2  1  0.498047  0.848479  0.032584  1
  Tb  Tb3  1  0.848445  0.498260  0.967160  1
  Tb  Tb4  1  0.495600  0.154965  0.535306  1
  Tb  Tb5  1  0.345851  0.997861  0.789424  1
  Tb  Tb6  1  0.654717  0.004888  0.283540  1
  Sm  Sm7  1  0.997316  0.345291  0.210430  1
  Hf  Hf8  1  0.824637  0.824800  0.500098  1
  Hf  Hf9  1  0.323151  0.677450  0.249074  1
  Hf  Hf10  1  0.677126  0.322717  0.750967  1
  Hf  Hf11  1  0.145787  0.996210  0.374031  1
  Hf  Hf12  1  0.857129  0.003192  0.878971  1
  Hf  Hf13  1  0.504409  0.646923  0.626538  1
  Hf  Hf14  1  0.355456  0.491498  0.877734  1
  Hf  Hf15  1  0.491310  0.355414  0.122100  1
  Hf  Hf16  1  0.646810  0.504720  0.373709  1
  Hf  Hf17  1  0.996292  0.145377  0.626194  1
  Hf  Hf18  1  0.003262  0.856909  0.120878  1
  Si  Si19  1  0.360817  0.295996  0.316509  1
  Si  Si20  1  0.639770  0.704243  0.819754  1
  Si  Si21  1  0.206930  0.861279  0.568530  1
  Si  Si22  1  0.131583  0.774916  0.927166  1
  Si  Si23  1  0.773778  0.130681  0.072278  1
  Si  Si24  1  0.861260  0.206759  0.431763  1
  Si  Si25  1  0.296237  0.359787  0.683754  1
  Si  Si26  1  0.703489  0.640491  0.180270  1
  Si  Si27  1  0.295361  0.051682  0.188902  1
  Si  Si28  1  0.705251  0.950304  0.686930  1
  Si  Si29  1  0.450040  0.795105  0.435644  1
  Si  Si30  1  0.211037  0.567430  0.063895  1
  Si  Si31  1  0.566428  0.210368  0.935747  1
  Si  Si32  1  0.795098  0.450021  0.564453  1
  Si  Si33  1  0.052326  0.294745  0.811160  1
  Si  Si34  1  0.950007  0.706264  0.313391  1
  Au  Au35  1  0.174967  0.174396  0.999671  1
