# generated using pymatgen
data_Sr4Sc7SbSe16
_symmetry_space_group_name_H-M   'P 1'
_cell_length_a   3.99938700
_cell_length_b   12.34314105
_cell_length_c   14.48475301
_cell_angle_alpha   90.14960156
_cell_angle_beta   90.00000000
_cell_angle_gamma   90.00000000
_symmetry_Int_Tables_number   1
_chemical_formula_structural   Sr4Sc7SbSe16
_chemical_formula_sum   'Sr4 Sc7 Sb1 Se16'
_cell_volume   715.03736366
_cell_formula_units_Z   1
loop_
 _symmetry_equiv_pos_site_id
 _symmetry_equiv_pos_as_xyz
  1  'x, y, z'
loop_
 _atom_site_type_symbol
 _atom_site_label
 _atom_site_symmetry_multiplicity
 _atom_site_fract_x
 _atom_site_fract_y
 _atom_site_fract_z
 _atom_site_occupancy
  Sr  Sr0  1  0.750000  0.738920  0.170979  1
  Sr  Sr1  1  0.750000  0.237059  0.334452  1
  Sr  Sr2  1  0.250000  0.257949  0.825798  1
  Sr  Sr3  1  0.250000  0.763155  0.668648  1
  Sc  Sc4  1  0.750000  0.054647  0.111066  1
  Sc  Sc5  1  0.750000  0.559272  0.394204  1
  Sc  Sc6  1  0.250000  0.943312  0.889786  1
  Sc  Sc7  1  0.250000  0.444153  0.611000  1
  Sc  Sc8  1  0.750000  0.081709  0.596734  1
  Sc  Sc9  1  0.750000  0.584742  0.899085  1
  Sc  Sc10  1  0.250000  0.917306  0.403501  1
  Sb  Sb11  1  0.250000  0.417129  0.095772  1
  Se  Se12  1  0.750000  0.297945  0.657704  1
  Se  Se13  1  0.750000  0.799652  0.838597  1
  Se  Se14  1  0.250000  0.702482  0.341930  1
  Se  Se15  1  0.250000  0.192436  0.166966  1
  Se  Se16  1  0.750000  0.379413  0.957013  1
  Se  Se17  1  0.750000  0.876755  0.529344  1
  Se  Se18  1  0.250000  0.627857  0.026620  1
  Se  Se19  1  0.250000  0.122679  0.471809  1
  Se  Se20  1  0.750000  0.472802  0.221659  1
  Se  Se21  1  0.750000  0.967275  0.286073  1
  Se  Se22  1  0.250000  0.532509  0.782822  1
  Se  Se23  1  0.250000  0.030345  0.714631  1
  Se  Se24  1  0.750000  0.087827  0.926525  1
  Se  Se25  1  0.750000  0.589752  0.576168  1
  Se  Se26  1  0.250000  0.908920  0.073793  1
  Se  Se27  1  0.250000  0.412000  0.427321  1
