# generated using pymatgen
data_Li5AgSb2
_symmetry_space_group_name_H-M   'P 1'
_cell_length_a   4.79558200
_cell_length_b   4.99956744
_cell_length_c   6.07047536
_cell_angle_alpha   90.69787718
_cell_angle_beta   90.00000000
_cell_angle_gamma   90.00000000
_symmetry_Int_Tables_number   1
_chemical_formula_structural   Li5AgSb2
_chemical_formula_sum   'Li5 Ag1 Sb2'
_cell_volume   145.53392305
_cell_formula_units_Z   1
loop_
 _symmetry_equiv_pos_site_id
 _symmetry_equiv_pos_as_xyz
  1  'x, y, z'
loop_
 _atom_site_type_symbol
 _atom_site_label
 _atom_site_symmetry_multiplicity
 _atom_site_fract_x
 _atom_site_fract_y
 _atom_site_fract_z
 _atom_site_occupancy
  Li  Li0  1  0.500000  0.348273  0.984028  1
  Li  Li1  1  0.000000  0.646605  0.514015  1
  Li  Li2  1  0.000000  0.193354  0.246281  1
  Li  Li3  1  0.500000  0.812019  0.251131  1
  Li  Li4  1  0.000000  0.177292  0.750056  1
  Ag  Ag5  1  0.500000  0.828808  0.754611  1
  Sb  Sb6  1  0.000000  0.697260  0.011852  1
  Sb  Sb7  1  0.500000  0.296388  0.488026  1
