# generated using pymatgen
data_Yb3CdIn3Ir2
_symmetry_space_group_name_H-M   'P 1'
_cell_length_a   7.63500000
_cell_length_b   7.63500004
_cell_length_c   4.15513900
_cell_angle_alpha   90.00000000
_cell_angle_beta   90.00000000
_cell_angle_gamma   119.99999234
_symmetry_Int_Tables_number   1
_chemical_formula_structural   Yb3CdIn3Ir2
_chemical_formula_sum   'Yb3 Cd1 In3 Ir2'
_cell_volume   209.76561839
_cell_formula_units_Z   1
loop_
 _symmetry_equiv_pos_site_id
 _symmetry_equiv_pos_as_xyz
  1  'x, y, z'
loop_
 _atom_site_type_symbol
 _atom_site_label
 _atom_site_symmetry_multiplicity
 _atom_site_fract_x
 _atom_site_fract_y
 _atom_site_fract_z
 _atom_site_occupancy
  Yb  Yb0  1  0.382615  0.419975  0.500000  1
  Yb  Yb1  1  0.580025  0.962640  0.500000  1
  Yb  Yb2  1  0.037360  0.617385  0.500000  1
  Cd  Cd3  1  0.666667  0.333333  0.000000  1
  In  In4  1  0.743998  0.757015  0.000000  1
  In  In5  1  0.242985  0.986984  0.000000  1
  In  In6  1  0.013016  0.256002  0.000000  1
  Ir  Ir7  1  0.000000  0.000000  0.500000  1
  Ir  Ir8  1  0.333333  0.666667  0.000000  1
