# generated using pymatgen
data_Tc(SeBr6)2
_symmetry_space_group_name_H-M   'P 1'
_cell_length_a   9.37994975
_cell_length_b   9.37994964
_cell_length_c   6.98510918
_cell_angle_alpha   72.11657236
_cell_angle_beta   72.11657291
_cell_angle_gamma   78.68390530
_symmetry_Int_Tables_number   1
_chemical_formula_structural   Tc(SeBr6)2
_chemical_formula_sum   'Tc1 Se2 Br12'
_cell_volume   553.08459905
_cell_formula_units_Z   1
loop_
 _symmetry_equiv_pos_site_id
 _symmetry_equiv_pos_as_xyz
  1  'x, y, z'
loop_
 _atom_site_type_symbol
 _atom_site_label
 _atom_site_symmetry_multiplicity
 _atom_site_fract_x
 _atom_site_fract_y
 _atom_site_fract_z
 _atom_site_occupancy
  Tc  Tc0  1  0.000000  0.000000  0.000000  1
  Se  Se1  1  0.275318  0.275318  0.733585  1
  Se  Se2  1  0.724682  0.724682  0.266415  1
  Br  Br3  1  0.958917  0.254606  0.750411  1
  Br  Br4  1  0.254606  0.958917  0.750411  1
  Br  Br5  1  0.041083  0.745394  0.249589  1
  Br  Br6  1  0.745394  0.041083  0.249589  1
  Br  Br7  1  0.214678  0.520496  0.794918  1
  Br  Br8  1  0.520496  0.214678  0.794918  1
  Br  Br9  1  0.785322  0.479504  0.205082  1
  Br  Br10  1  0.479504  0.785322  0.205082  1
  Br  Br11  1  0.125700  0.125700  0.167372  1
  Br  Br12  1  0.874300  0.874300  0.832628  1
  Br  Br13  1  0.649960  0.649960  0.641468  1
  Br  Br14  1  0.350040  0.350040  0.358532  1
