# generated using pymatgen
data_Dy16MgCd3FeNi3
_symmetry_space_group_name_H-M   'P 1'
_cell_length_a   9.56667289
_cell_length_b   9.56667155
_cell_length_c   9.56667140
_cell_angle_alpha   59.70285139
_cell_angle_beta   59.70285454
_cell_angle_gamma   59.70285166
_symmetry_Int_Tables_number   1
_chemical_formula_structural   Dy16MgCd3FeNi3
_chemical_formula_sum   'Dy16 Mg1 Cd3 Fe1 Ni3'
_cell_volume   614.93103989
_cell_formula_units_Z   1
loop_
 _symmetry_equiv_pos_site_id
 _symmetry_equiv_pos_as_xyz
  1  'x, y, z'
loop_
 _atom_site_type_symbol
 _atom_site_label
 _atom_site_symmetry_multiplicity
 _atom_site_fract_x
 _atom_site_fract_y
 _atom_site_fract_z
 _atom_site_occupancy
  Dy  Dy0  1  0.598555  0.598555  0.598555  1
  Dy  Dy1  1  0.596352  0.596352  0.208371  1
  Dy  Dy2  1  0.596352  0.208371  0.596352  1
  Dy  Dy3  1  0.208371  0.596352  0.596352  1
  Dy  Dy4  1  0.064949  0.438823  0.438823  1
  Dy  Dy5  1  0.436234  0.062620  0.062620  1
  Dy  Dy6  1  0.438823  0.064949  0.438823  1
  Dy  Dy7  1  0.062620  0.436234  0.062620  1
  Dy  Dy8  1  0.438823  0.438823  0.064949  1
  Dy  Dy9  1  0.062620  0.062620  0.436234  1
  Dy  Dy10  1  0.186324  0.814831  0.814831  1
  Dy  Dy11  1  0.809905  0.187955  0.187955  1
  Dy  Dy12  1  0.814831  0.186324  0.814831  1
  Dy  Dy13  1  0.187955  0.809905  0.187955  1
  Dy  Dy14  1  0.814831  0.814831  0.186324  1
  Dy  Dy15  1  0.187955  0.187955  0.809905  1
  Mg  Mg16  1  0.824850  0.824850  0.824850  1
  Cd  Cd17  1  0.830784  0.830784  0.504830  1
  Cd  Cd18  1  0.830784  0.504830  0.830784  1
  Cd  Cd19  1  0.504830  0.830784  0.830784  1
  Fe  Fe20  1  0.393279  0.393279  0.393279  1
  Ni  Ni21  1  0.392630  0.392630  0.824714  1
  Ni  Ni22  1  0.392630  0.824714  0.392630  1
  Ni  Ni23  1  0.824714  0.392630  0.392630  1
