# generated using pymatgen
data_La4TbTcBi2
_symmetry_space_group_name_H-M   'P 1'
_cell_length_a   8.58511500
_cell_length_b   9.24319100
_cell_length_c   12.74315200
_cell_angle_alpha   90.00000000
_cell_angle_beta   90.00000000
_cell_angle_gamma   90.00000000
_symmetry_Int_Tables_number   1
_chemical_formula_structural   La4TbTcBi2
_chemical_formula_sum   'La16 Tb4 Tc4 Bi8'
_cell_volume   1011.21827048
_cell_formula_units_Z   4
loop_
 _symmetry_equiv_pos_site_id
 _symmetry_equiv_pos_as_xyz
  1  'x, y, z'
loop_
 _atom_site_type_symbol
 _atom_site_label
 _atom_site_symmetry_multiplicity
 _atom_site_fract_x
 _atom_site_fract_y
 _atom_site_fract_z
 _atom_site_occupancy
  La  La0  1  0.840570  0.750000  0.795157  1
  La  La1  1  0.159430  0.250000  0.204843  1
  La  La2  1  0.340570  0.250000  0.704843  1
  La  La3  1  0.659430  0.750000  0.295157  1
  La  La4  1  0.375210  0.750000  0.698307  1
  La  La5  1  0.624790  0.250000  0.301693  1
  La  La6  1  0.875210  0.250000  0.801693  1
  La  La7  1  0.124790  0.750000  0.198307  1
  La  La8  1  0.678136  0.030368  0.564100  1
  La  La9  1  0.321864  0.969632  0.435900  1
  La  La10  1  0.178136  0.969632  0.935900  1
  La  La11  1  0.321864  0.530368  0.435900  1
  La  La12  1  0.821864  0.030368  0.064100  1
  La  La13  1  0.678136  0.469632  0.564100  1
  La  La14  1  0.821864  0.469632  0.064100  1
  La  La15  1  0.178136  0.530368  0.935900  1
  Tb  Tb16  1  0.953135  0.750000  0.502146  1
  Tb  Tb17  1  0.046865  0.250000  0.497854  1
  Tb  Tb18  1  0.453135  0.250000  0.997854  1
  Tb  Tb19  1  0.546865  0.750000  0.002146  1
  Tc  Tc20  1  0.591568  0.750000  0.521093  1
  Tc  Tc21  1  0.408432  0.250000  0.478907  1
  Tc  Tc22  1  0.091568  0.250000  0.978907  1
  Tc  Tc23  1  0.908432  0.750000  0.021093  1
  Bi  Bi24  1  0.570416  0.492214  0.833034  1
  Bi  Bi25  1  0.429584  0.507786  0.166966  1
  Bi  Bi26  1  0.070416  0.507786  0.666966  1
  Bi  Bi27  1  0.429584  0.992214  0.166966  1
  Bi  Bi28  1  0.929584  0.492214  0.333034  1
  Bi  Bi29  1  0.570416  0.007786  0.833034  1
  Bi  Bi30  1  0.929584  0.007786  0.333034  1
  Bi  Bi31  1  0.070416  0.992214  0.666966  1
