# generated using pymatgen
data_Y4Ga18OsPt4Rh
_symmetry_space_group_name_H-M   'P 1'
_cell_length_a   7.65377762
_cell_length_b   7.65377813
_cell_length_c   9.52324338
_cell_angle_alpha   90.02919732
_cell_angle_beta   90.02920631
_cell_angle_gamma   120.00533259
_symmetry_Int_Tables_number   1
_chemical_formula_structural   Y4Ga18OsPt4Rh
_chemical_formula_sum   'Y4 Ga18 Os1 Pt4 Rh1'
_cell_volume   483.10736514
_cell_formula_units_Z   1
loop_
 _symmetry_equiv_pos_site_id
 _symmetry_equiv_pos_as_xyz
  1  'x, y, z'
loop_
 _atom_site_type_symbol
 _atom_site_label
 _atom_site_symmetry_multiplicity
 _atom_site_fract_x
 _atom_site_fract_y
 _atom_site_fract_z
 _atom_site_occupancy
  Y  Y0  1  0.997149  0.668432  0.249733  1
  Y  Y1  1  0.003165  0.332004  0.750509  1
  Y  Y2  1  0.667996  0.996835  0.249491  1
  Y  Y3  1  0.331568  0.002851  0.750267  1
  Ga  Ga4  1  0.335881  0.332454  0.568344  1
  Ga  Ga5  1  0.667546  0.664119  0.431656  1
  Ga  Ga6  1  0.668255  0.663174  0.066615  1
  Ga  Ga7  1  0.336826  0.331745  0.933385  1
  Ga  Ga8  1  0.337364  0.541685  0.250009  1
  Ga  Ga9  1  0.660914  0.452002  0.750254  1
  Ga  Ga10  1  0.547998  0.339086  0.249746  1
  Ga  Ga11  1  0.458315  0.662636  0.749991  1
  Ga  Ga12  1  0.994755  0.334432  0.079249  1
  Ga  Ga13  1  0.996847  0.661567  0.919335  1
  Ga  Ga14  1  0.997963  0.662692  0.581296  1
  Ga  Ga15  1  0.337308  0.002037  0.418704  1
  Ga  Ga16  1  0.994507  0.333964  0.420267  1
  Ga  Ga17  1  0.666036  0.005493  0.579733  1
  Ga  Ga18  1  0.665568  0.005245  0.920751  1
  Ga  Ga19  1  0.338433  0.003153  0.080665  1
  Ga  Ga20  1  0.127983  0.131109  0.250045  1
  Ga  Ga21  1  0.868891  0.872017  0.749955  1
  Os  Os22  1  0.671073  0.328927  0.000000  1
  Pt  Pt23  1  0.000016  0.999984  0.000000  1
  Pt  Pt24  1  0.000633  0.999367  0.500000  1
  Pt  Pt25  1  0.328175  0.671825  0.000000  1
  Pt  Pt26  1  0.328793  0.671207  0.500000  1
  Rh  Rh27  1  0.670039  0.329961  0.500000  1
