# generated using pymatgen
data_Sc4BBr5
_symmetry_space_group_name_H-M   'P 1'
_cell_length_a   8.83747818
_cell_length_b   8.83747768
_cell_length_c   7.78630257
_cell_angle_alpha   102.44293978
_cell_angle_beta   102.44293972
_cell_angle_gamma   24.19171697
_symmetry_Int_Tables_number   1
_chemical_formula_structural   Sc4BBr5
_chemical_formula_sum   'Sc4 B1 Br5'
_cell_volume   243.07575129
_cell_formula_units_Z   1
loop_
 _symmetry_equiv_pos_site_id
 _symmetry_equiv_pos_as_xyz
  1  'x, y, z'
loop_
 _atom_site_type_symbol
 _atom_site_label
 _atom_site_symmetry_multiplicity
 _atom_site_fract_x
 _atom_site_fract_y
 _atom_site_fract_z
 _atom_site_occupancy
  Sc  Sc0  1  0.636082  0.636082  0.070626  1
  Sc  Sc1  1  0.999886  0.999886  0.199589  1
  Sc  Sc2  1  0.000114  0.000114  0.800411  1
  Sc  Sc3  1  0.363918  0.363918  0.929373  1
  B  B4  1  0.500000  0.500000  0.000000  1
  Br  Br5  1  0.831424  0.831424  0.163689  1
  Br  Br6  1  0.163227  0.163227  0.331441  1
  Br  Br7  1  0.500000  0.500000  0.500000  1
  Br  Br8  1  0.836773  0.836773  0.668559  1
  Br  Br9  1  0.168576  0.168576  0.836311  1
