# generated using pymatgen
data_CaDy6NiBr12
_symmetry_space_group_name_H-M   'P 1'
_cell_length_a   9.17627943
_cell_length_b   9.17627888
_cell_length_c   9.17627845
_cell_angle_alpha   106.55155476
_cell_angle_beta   106.55155369
_cell_angle_gamma   106.55154808
_symmetry_Int_Tables_number   1
_chemical_formula_structural   CaDy6NiBr12
_chemical_formula_sum   'Ca1 Dy6 Ni1 Br12'
_cell_volume   651.20716033
_cell_formula_units_Z   1
loop_
 _symmetry_equiv_pos_site_id
 _symmetry_equiv_pos_as_xyz
  1  'x, y, z'
loop_
 _atom_site_type_symbol
 _atom_site_label
 _atom_site_symmetry_multiplicity
 _atom_site_fract_x
 _atom_site_fract_y
 _atom_site_fract_z
 _atom_site_occupancy
  Ca  Ca0  1  0.500000  0.500000  0.500000  1
  Dy  Dy1  1  0.100090  0.022916  0.306099  1
  Dy  Dy2  1  0.022916  0.306099  0.100090  1
  Dy  Dy3  1  0.306099  0.100090  0.022916  1
  Dy  Dy4  1  0.899909  0.977084  0.693901  1
  Dy  Dy5  1  0.977084  0.693901  0.899909  1
  Dy  Dy6  1  0.693901  0.899909  0.977084  1
  Ni  Ni7  1  0.000000  0.000000  0.000000  1
  Br  Br8  1  0.074165  0.677756  0.220675  1
  Br  Br9  1  0.677756  0.220675  0.074165  1
  Br  Br10  1  0.220675  0.074165  0.677756  1
  Br  Br11  1  0.925835  0.322244  0.779325  1
  Br  Br12  1  0.322244  0.779325  0.925835  1
  Br  Br13  1  0.779325  0.925835  0.322244  1
  Br  Br14  1  0.452590  0.153740  0.375306  1
  Br  Br15  1  0.153740  0.375306  0.452590  1
  Br  Br16  1  0.375306  0.452590  0.153740  1
  Br  Br17  1  0.547410  0.846260  0.624694  1
  Br  Br18  1  0.846260  0.624694  0.547410  1
  Br  Br19  1  0.624694  0.547410  0.846260  1
