# generated using pymatgen
data_Dy3Sc5Tc2(B12Ir)2
_symmetry_space_group_name_H-M   'P 1'
_cell_length_a   3.56146600
_cell_length_b   8.95357796
_cell_length_c   11.34207301
_cell_angle_alpha   90.14296231
_cell_angle_beta   90.00000000
_cell_angle_gamma   90.00000000
_symmetry_Int_Tables_number   1
_chemical_formula_structural   Dy3Sc5Tc2(B12Ir)2
_chemical_formula_sum   'Dy3 Sc5 Tc2 B24 Ir2'
_cell_volume   361.67335014
_cell_formula_units_Z   1
loop_
 _symmetry_equiv_pos_site_id
 _symmetry_equiv_pos_as_xyz
  1  'x, y, z'
loop_
 _atom_site_type_symbol
 _atom_site_label
 _atom_site_symmetry_multiplicity
 _atom_site_fract_x
 _atom_site_fract_y
 _atom_site_fract_z
 _atom_site_occupancy
  Dy  Dy0  1  0.500000  0.316553  0.410906  1
  Dy  Dy1  1  0.500000  0.683550  0.588428  1
  Dy  Dy2  1  0.500000  0.176459  0.917215  1
  Sc  Sc3  1  0.500000  0.824613  0.080069  1
  Sc  Sc4  1  0.500000  0.442309  0.124629  1
  Sc  Sc5  1  0.500000  0.559513  0.876751  1
  Sc  Sc6  1  0.500000  0.051345  0.627252  1
  Sc  Sc7  1  0.500000  0.947467  0.372060  1
  Tc  Tc8  1  0.500000  0.137947  0.181519  1
  Tc  Tc9  1  0.500000  0.859402  0.819737  1
  B  B10  1  0.000000  0.099367  0.473228  1
  B  B11  1  0.000000  0.900144  0.526563  1
  B  B12  1  0.000000  0.400681  0.972823  1
  B  B13  1  0.000000  0.602714  0.028374  1
  B  B14  1  0.000000  0.127884  0.316384  1
  B  B15  1  0.000000  0.871013  0.683698  1
  B  B16  1  0.000000  0.371847  0.818720  1
  B  B17  1  0.000000  0.630752  0.180361  1
  B  B18  1  0.000000  0.051748  0.067281  1
  B  B19  1  0.000000  0.944950  0.934877  1
  B  B20  1  0.000000  0.444840  0.566408  1
  B  B21  1  0.000000  0.555380  0.433030  1
  B  B22  1  0.000000  0.481561  0.284969  1
  B  B23  1  0.000000  0.519341  0.714932  1
  B  B24  1  0.000000  0.018636  0.786224  1
  B  B25  1  0.000000  0.978710  0.213056  1
  B  B26  1  0.000000  0.251683  0.081033  1
  B  B27  1  0.000000  0.748688  0.921900  1
  B  B28  1  0.000000  0.245770  0.579876  1
  B  B29  1  0.000000  0.754101  0.419441  1
  B  B30  1  0.000000  0.293753  0.234165  1
  B  B31  1  0.000000  0.705935  0.766597  1
  B  B32  1  0.000000  0.206718  0.735200  1
  B  B33  1  0.000000  0.793700  0.263187  1
  Ir  Ir34  1  0.500000  0.360711  0.680856  1
  Ir  Ir35  1  0.500000  0.640217  0.318253  1
