# generated using pymatgen
data_Tm4(Al8Ni3)3
_symmetry_space_group_name_H-M   'P 1'
_cell_length_a   7.27586806
_cell_length_b   7.30879577
_cell_length_c   12.71408739
_cell_angle_alpha   84.59593597
_cell_angle_beta   79.08503460
_cell_angle_gamma   59.98074094
_symmetry_Int_Tables_number   1
_chemical_formula_structural   Tm4(Al8Ni3)3
_chemical_formula_sum   'Tm4 Al24 Ni9'
_cell_volume   574.82206047
_cell_formula_units_Z   1
loop_
 _symmetry_equiv_pos_site_id
 _symmetry_equiv_pos_as_xyz
  1  'x, y, z'
loop_
 _atom_site_type_symbol
 _atom_site_label
 _atom_site_symmetry_multiplicity
 _atom_site_fract_x
 _atom_site_fract_y
 _atom_site_fract_z
 _atom_site_occupancy
  Tm  Tm0  1  0.394474  0.168723  0.804716  1
  Tm  Tm1  1  0.605526  0.831277  0.195284  1
  Tm  Tm2  1  0.735216  0.497844  0.804794  1
  Tm  Tm3  1  0.264784  0.502156  0.195206  1
  Al  Al4  1  0.680194  0.833566  0.947682  1
  Al  Al5  1  0.319806  0.166434  0.052318  1
  Al  Al6  1  0.146005  0.833116  0.560026  1
  Al  Al7  1  0.853995  0.166884  0.439974  1
  Al  Al8  1  0.480668  0.166580  0.557475  1
  Al  Al9  1  0.519332  0.833420  0.442525  1
  Al  Al10  1  0.215339  0.165699  0.335435  1
  Al  Al11  1  0.784661  0.834301  0.664565  1
  Al  Al12  1  0.439246  0.506280  0.664475  1
  Al  Al13  1  0.560754  0.493720  0.335525  1
  Al  Al14  1  0.111313  0.159521  0.663236  1
  Al  Al15  1  0.888687  0.840479  0.336764  1
  Al  Al16  1  0.354659  0.496321  0.947839  1
  Al  Al17  1  0.645341  0.503679  0.052161  1
  Al  Al18  1  0.013432  0.169714  0.960020  1
  Al  Al19  1  0.986568  0.830286  0.039980  1
  Al  Al20  1  0.186340  0.499715  0.442393  1
  Al  Al21  1  0.813660  0.500285  0.557607  1
  Al  Al22  1  0.728009  0.164148  0.184439  1
  Al  Al23  1  0.271991  0.835852  0.815561  1
  Al  Al24  1  0.062036  0.625525  0.814327  1
  Al  Al25  1  0.937964  0.374475  0.185673  1
  Al  Al26  1  0.850740  0.046624  0.815515  1
  Al  Al27  1  0.149260  0.953376  0.184485  1
  Ni  Ni28  1  0.118833  0.492210  0.638607  1
  Ni  Ni29  1  0.881167  0.507790  0.361393  1
  Ni  Ni30  1  0.659342  0.170967  0.999903  1
  Ni  Ni31  1  0.340658  0.829033  0.000097  1
  Ni  Ni32  1  0.538258  0.166347  0.361181  1
  Ni  Ni33  1  0.461742  0.833653  0.638819  1
  Ni  Ni34  1  0.777643  0.173915  0.638451  1
  Ni  Ni35  1  0.222357  0.826085  0.361549  1
  Ni  Ni36  1  0.000000  0.500000  0.000000  1
