# generated using pymatgen
data_Na3Ho(H6Ir)2
_symmetry_space_group_name_H-M   'P 1'
_cell_length_a   7.24071100
_cell_length_b   7.24071100
_cell_length_c   7.23000900
_cell_angle_alpha   90.00000000
_cell_angle_beta   90.00000000
_cell_angle_gamma   90.00000000
_symmetry_Int_Tables_number   1
_chemical_formula_structural   Na3Ho(H6Ir)2
_chemical_formula_sum   'Na6 Ho2 H24 Ir4'
_cell_volume   379.05415838
_cell_formula_units_Z   2
loop_
 _symmetry_equiv_pos_site_id
 _symmetry_equiv_pos_as_xyz
  1  'x, y, z'
loop_
 _atom_site_type_symbol
 _atom_site_label
 _atom_site_symmetry_multiplicity
 _atom_site_fract_x
 _atom_site_fract_y
 _atom_site_fract_z
 _atom_site_occupancy
  Na  Na0  1  0.000000  0.500000  0.500000  1
  Na  Na1  1  0.500000  0.000000  0.500000  1
  Na  Na2  1  0.000000  0.000000  0.500000  1
  Na  Na3  1  0.000000  0.500000  0.000000  1
  Na  Na4  1  0.500000  0.000000  0.000000  1
  Na  Na5  1  0.000000  0.000000  0.000000  1
  Ho  Ho6  1  0.500000  0.500000  0.500000  1
  Ho  Ho7  1  0.500000  0.500000  0.000000  1
  H  H8  1  0.736988  0.736988  0.481935  1
  H  H9  1  0.263012  0.263012  0.481935  1
  H  H10  1  0.042848  0.736180  0.751668  1
  H  H11  1  0.263820  0.957152  0.751668  1
  H  H12  1  0.736180  0.042848  0.751668  1
  H  H13  1  0.957152  0.263820  0.751668  1
  H  H14  1  0.736173  0.506731  0.748622  1
  H  H15  1  0.506731  0.736173  0.748622  1
  H  H16  1  0.493269  0.263827  0.748622  1
  H  H17  1  0.263827  0.493269  0.748622  1
  H  H18  1  0.265754  0.734246  0.982928  1
  H  H19  1  0.734246  0.265754  0.982928  1
  H  H20  1  0.734246  0.734246  0.017072  1
  H  H21  1  0.265754  0.265754  0.017072  1
  H  H22  1  0.263827  0.506731  0.251378  1
  H  H23  1  0.493269  0.736173  0.251378  1
  H  H24  1  0.506731  0.263827  0.251378  1
  H  H25  1  0.736173  0.493269  0.251378  1
  H  H26  1  0.957152  0.736180  0.248332  1
  H  H27  1  0.736180  0.957152  0.248332  1
  H  H28  1  0.263820  0.042848  0.248332  1
  H  H29  1  0.042848  0.263820  0.248332  1
  H  H30  1  0.263012  0.736988  0.518065  1
  H  H31  1  0.736988  0.263012  0.518065  1
  Ir  Ir32  1  0.272863  0.727137  0.750389  1
  Ir  Ir33  1  0.727137  0.272863  0.750389  1
  Ir  Ir34  1  0.727137  0.727137  0.249611  1
  Ir  Ir35  1  0.272863  0.272863  0.249611  1
