# generated using pymatgen
data_Pr2Ho4Al24Os5Pt3
_symmetry_space_group_name_H-M   'P 1'
_cell_length_a   8.87967236
_cell_length_b   8.88050686
_cell_length_c   9.56884220
_cell_angle_alpha   89.94590181
_cell_angle_beta   89.73957277
_cell_angle_gamma   119.74009445
_symmetry_Int_Tables_number   1
_chemical_formula_structural   Pr2Ho4Al24Os5Pt3
_chemical_formula_sum   'Pr2 Ho4 Al24 Os5 Pt3'
_cell_volume   655.16207234
_cell_formula_units_Z   1
loop_
 _symmetry_equiv_pos_site_id
 _symmetry_equiv_pos_as_xyz
  1  'x, y, z'
loop_
 _atom_site_type_symbol
 _atom_site_label
 _atom_site_symmetry_multiplicity
 _atom_site_fract_x
 _atom_site_fract_y
 _atom_site_fract_z
 _atom_site_occupancy
  Pr  Pr0  1  0.186435  0.377690  0.250456  1
  Pr  Pr1  1  0.813565  0.622310  0.749544  1
  Ho  Ho2  1  0.613070  0.814570  0.251789  1
  Ho  Ho3  1  0.386930  0.185430  0.748211  1
  Ho  Ho4  1  0.195747  0.809727  0.250823  1
  Ho  Ho5  1  0.804253  0.190273  0.749177  1
  Al  Al6  1  0.336313  0.671849  0.027420  1
  Al  Al7  1  0.663687  0.328151  0.972580  1
  Al  Al8  1  0.669079  0.330779  0.524318  1
  Al  Al9  1  0.330921  0.669221  0.475682  1
  Al  Al10  1  0.158014  0.324446  0.577253  1
  Al  Al11  1  0.841986  0.675554  0.422747  1
  Al  Al12  1  0.673838  0.842011  0.574580  1
  Al  Al13  1  0.837476  0.677248  0.079562  1
  Al  Al14  1  0.326162  0.157989  0.425420  1
  Al  Al15  1  0.162524  0.322752  0.920438  1
  Al  Al16  1  0.165757  0.836748  0.573568  1
  Al  Al17  1  0.326134  0.157923  0.074059  1
  Al  Al18  1  0.834243  0.163252  0.426432  1
  Al  Al19  1  0.673866  0.842077  0.925941  1
  Al  Al20  1  0.831009  0.158415  0.074820  1
  Al  Al21  1  0.168991  0.841585  0.925180  1
  Al  Al22  1  0.560287  0.123672  0.249101  1
  Al  Al23  1  0.439713  0.876328  0.750899  1
  Al  Al24  1  0.873604  0.439057  0.252956  1
  Al  Al25  1  0.126396  0.560943  0.747044  1
  Al  Al26  1  0.564567  0.438121  0.249145  1
  Al  Al27  1  0.435433  0.561879  0.750855  1
  Al  Al28  1  0.995314  0.995726  0.250229  1
  Al  Al29  1  0.004686  0.004274  0.749771  1
  Os  Os30  1  0.500000  0.000000  0.000000  1
  Os  Os31  1  0.500000  0.000000  0.500000  1
  Os  Os32  1  0.000000  0.500000  0.500000  1
  Os  Os33  1  0.000000  0.000000  0.000000  1
  Os  Os34  1  0.000000  0.000000  0.500000  1
  Pt  Pt35  1  0.000000  0.500000  0.000000  1
  Pt  Pt36  1  0.500000  0.500000  0.000000  1
  Pt  Pt37  1  0.500000  0.500000  0.500000  1
