# generated using pymatgen
data_Zr24FeAs3Se8
_symmetry_space_group_name_H-M   'P 1'
_cell_length_a   3.65928900
_cell_length_b   12.73237072
_cell_length_c   15.82134891
_cell_angle_alpha   90.19577631
_cell_angle_beta   90.00000000
_cell_angle_gamma   90.00000000
_symmetry_Int_Tables_number   1
_chemical_formula_structural   Zr24FeAs3Se8
_chemical_formula_sum   'Zr24 Fe1 As3 Se8'
_cell_volume   737.13487443
_cell_formula_units_Z   1
loop_
 _symmetry_equiv_pos_site_id
 _symmetry_equiv_pos_as_xyz
  1  'x, y, z'
loop_
 _atom_site_type_symbol
 _atom_site_label
 _atom_site_symmetry_multiplicity
 _atom_site_fract_x
 _atom_site_fract_y
 _atom_site_fract_z
 _atom_site_occupancy
  Zr  Zr0  1  0.000000  0.343546  0.479311  1
  Zr  Zr1  1  0.000000  0.663823  0.512758  1
  Zr  Zr2  1  0.500000  0.152720  0.979389  1
  Zr  Zr3  1  0.500000  0.848249  0.020489  1
  Zr  Zr4  1  0.000000  0.082821  0.578212  1
  Zr  Zr5  1  0.000000  0.907335  0.420572  1
  Zr  Zr6  1  0.500000  0.416781  0.078398  1
  Zr  Zr7  1  0.500000  0.584194  0.923864  1
  Zr  Zr8  1  0.000000  0.698969  0.300394  1
  Zr  Zr9  1  0.000000  0.304311  0.704812  1
  Zr  Zr10  1  0.500000  0.805445  0.794593  1
  Zr  Zr11  1  0.500000  0.195189  0.204786  1
  Zr  Zr12  1  0.000000  0.030818  0.109729  1
  Zr  Zr13  1  0.000000  0.969504  0.889763  1
  Zr  Zr14  1  0.500000  0.469214  0.607852  1
  Zr  Zr15  1  0.500000  0.529201  0.393941  1
  Zr  Zr16  1  0.000000  0.620088  0.077139  1
  Zr  Zr17  1  0.000000  0.380010  0.923506  1
  Zr  Zr18  1  0.500000  0.878863  0.578570  1
  Zr  Zr19  1  0.500000  0.118955  0.423545  1
  Zr  Zr20  1  0.000000  0.410972  0.241913  1
  Zr  Zr21  1  0.000000  0.586998  0.757755  1
  Zr  Zr22  1  0.500000  0.086783  0.744755  1
  Zr  Zr23  1  0.500000  0.916059  0.253146  1
  Fe  Fe24  1  0.500000  0.759544  0.412078  1
  As  As25  1  0.000000  0.256727  0.085791  1
  As  As26  1  0.000000  0.744185  0.913882  1
  As  As27  1  0.500000  0.242901  0.585140  1
  Se  Se28  1  0.000000  0.815012  0.150542  1
  Se  Se29  1  0.000000  0.185734  0.849486  1
  Se  Se30  1  0.500000  0.683264  0.651632  1
  Se  Se31  1  0.500000  0.312510  0.349250  1
  Se  Se32  1  0.000000  0.071175  0.293264  1
  Se  Se33  1  0.000000  0.929138  0.707868  1
  Se  Se34  1  0.500000  0.429213  0.792723  1
  Se  Se35  1  0.500000  0.569747  0.209153  1
