# generated using pymatgen
data_Ho2Tm2Al4Ir3Au
_symmetry_space_group_name_H-M   'P 1'
_cell_length_a   4.32514100
_cell_length_b   6.81265995
_cell_length_c   7.88734200
_cell_angle_alpha   90.05315469
_cell_angle_beta   90.00000000
_cell_angle_gamma   90.00000000
_symmetry_Int_Tables_number   1
_chemical_formula_structural   Ho2Tm2Al4Ir3Au
_chemical_formula_sum   'Ho2 Tm2 Al4 Ir3 Au1'
_cell_volume   232.40607047
_cell_formula_units_Z   1
loop_
 _symmetry_equiv_pos_site_id
 _symmetry_equiv_pos_as_xyz
  1  'x, y, z'
loop_
 _atom_site_type_symbol
 _atom_site_label
 _atom_site_symmetry_multiplicity
 _atom_site_fract_x
 _atom_site_fract_y
 _atom_site_fract_z
 _atom_site_occupancy
  Ho  Ho0  1  0.250000  0.024561  0.327197  1
  Ho  Ho1  1  0.250000  0.541074  0.181733  1
  Tm  Tm2  1  0.750000  0.969504  0.678222  1
  Tm  Tm3  1  0.750000  0.476933  0.813156  1
  Al  Al4  1  0.250000  0.136231  0.931396  1
  Al  Al5  1  0.250000  0.641392  0.562716  1
  Al  Al6  1  0.750000  0.847455  0.059029  1
  Al  Al7  1  0.750000  0.363838  0.446058  1
  Ir  Ir8  1  0.250000  0.267446  0.621326  1
  Ir  Ir9  1  0.250000  0.764937  0.879688  1
  Ir  Ir10  1  0.750000  0.734900  0.379019  1
  Au  Au11  1  0.750000  0.231731  0.120461  1
