# generated using pymatgen
data_Pr4Mn3ZnO12
_symmetry_space_group_name_H-M   'P 1'
_cell_length_a   5.50727934
_cell_length_b   5.66093679
_cell_length_c   7.91700826
_cell_angle_alpha   89.57272698
_cell_angle_beta   89.90543646
_cell_angle_gamma   89.38915150
_symmetry_Int_Tables_number   1
_chemical_formula_structural   Pr4Mn3ZnO12
_chemical_formula_sum   'Pr4 Mn3 Zn1 O12'
_cell_volume   246.80230676
_cell_formula_units_Z   1
loop_
 _symmetry_equiv_pos_site_id
 _symmetry_equiv_pos_as_xyz
  1  'x, y, z'
loop_
 _atom_site_type_symbol
 _atom_site_label
 _atom_site_symmetry_multiplicity
 _atom_site_fract_x
 _atom_site_fract_y
 _atom_site_fract_z
 _atom_site_occupancy
  Pr  Pr0  1  0.489136  0.550890  0.253935  1
  Pr  Pr1  1  0.983699  0.946698  0.746020  1
  Pr  Pr2  1  0.510864  0.449110  0.746065  1
  Pr  Pr3  1  0.016301  0.053302  0.253980  1
  Mn  Mn4  1  0.000000  0.500000  0.000000  1
  Mn  Mn5  1  0.500000  0.000000  0.000000  1
  Mn  Mn6  1  0.500000  0.000000  0.500000  1
  Zn  Zn7  1  0.000000  0.500000  0.500000  1
  O  O8  1  0.592187  0.975114  0.239160  1
  O  O9  1  0.083823  0.522138  0.763537  1
  O  O10  1  0.407813  0.024886  0.760840  1
  O  O11  1  0.916177  0.477862  0.236463  1
  O  O12  1  0.218964  0.798693  0.050847  1
  O  O13  1  0.704400  0.711723  0.949366  1
  O  O14  1  0.781036  0.201307  0.949153  1
  O  O15  1  0.295600  0.288277  0.050634  1
  O  O16  1  0.302033  0.283901  0.455315  1
  O  O17  1  0.781612  0.199216  0.543558  1
  O  O18  1  0.697967  0.716099  0.544685  1
  O  O19  1  0.218388  0.800784  0.456442  1
