# generated using pymatgen
data_K2Rb3BaNbAs4
_symmetry_space_group_name_H-M   'P 1'
_cell_length_a   10.78761598
_cell_length_b   10.78761672
_cell_length_c   8.17603843
_cell_angle_alpha   88.96986372
_cell_angle_beta   88.96986786
_cell_angle_gamma   120.34247161
_symmetry_Int_Tables_number   1
_chemical_formula_structural   K2Rb3BaNbAs4
_chemical_formula_sum   'K4 Rb6 Ba2 Nb2 As8'
_cell_volume   820.60011744
_cell_formula_units_Z   2
loop_
 _symmetry_equiv_pos_site_id
 _symmetry_equiv_pos_as_xyz
  1  'x, y, z'
loop_
 _atom_site_type_symbol
 _atom_site_label
 _atom_site_symmetry_multiplicity
 _atom_site_fract_x
 _atom_site_fract_y
 _atom_site_fract_z
 _atom_site_occupancy
  K  K0  1  0.466444  0.526698  0.611275  1
  K  K1  1  0.057724  0.527757  0.611009  1
  K  K2  1  0.526698  0.466444  0.111275  1
  K  K3  1  0.527757  0.057724  0.111009  1
  Rb  Rb4  1  0.865296  0.140258  0.788751  1
  Rb  Rb5  1  0.296648  0.155348  0.825770  1
  Rb  Rb6  1  0.854082  0.717193  0.769741  1
  Rb  Rb7  1  0.140258  0.865296  0.288751  1
  Rb  Rb8  1  0.717193  0.854082  0.269741  1
  Rb  Rb9  1  0.155348  0.296648  0.325770  1
  Ba  Ba10  1  0.464036  0.934264  0.600582  1
  Ba  Ba11  1  0.934264  0.464036  0.100582  1
  Nb  Nb12  1  0.667626  0.332313  0.499893  1
  Nb  Nb13  1  0.332313  0.667626  0.999893  1
  As  As14  1  0.681506  0.335680  0.808464  1
  As  As15  1  0.335680  0.681506  0.308464  1
  As  As16  1  0.200905  0.790892  0.892469  1
  As  As17  1  0.583444  0.795080  0.879935  1
  As  As18  1  0.197916  0.408890  0.919310  1
  As  As19  1  0.790892  0.200905  0.392469  1
  As  As20  1  0.408890  0.197916  0.419310  1
  As  As21  1  0.795080  0.583444  0.379935  1
