# generated using pymatgen
data_Hf3Np2ScF22
_symmetry_space_group_name_H-M   'P 1'
_cell_length_a   8.35576353
_cell_length_b   8.35576433
_cell_length_c   8.39441854
_cell_angle_alpha   124.92008032
_cell_angle_beta   106.48948120
_cell_angle_gamma   98.03431128
_symmetry_Int_Tables_number   1
_chemical_formula_structural   Hf3Np2ScF22
_chemical_formula_sum   'Hf3 Np2 Sc1 F22'
_cell_volume   425.38966965
_cell_formula_units_Z   1
loop_
 _symmetry_equiv_pos_site_id
 _symmetry_equiv_pos_as_xyz
  1  'x, y, z'
loop_
 _atom_site_type_symbol
 _atom_site_label
 _atom_site_symmetry_multiplicity
 _atom_site_fract_x
 _atom_site_fract_y
 _atom_site_fract_z
 _atom_site_occupancy
  Hf  Hf0  1  0.323253  0.368120  0.691373  1
  Hf  Hf1  1  0.177816  0.866711  0.044528  1
  Hf  Hf2  1  0.813568  0.133678  0.947245  1
  Np  Np3  1  0.747905  0.244720  0.490188  1
  Np  Np4  1  0.245467  0.742283  0.490188  1
  Sc  Sc5  1  0.682603  0.636998  0.319600  1
  F  F6  1  0.707479  0.905179  0.346741  1
  F  F7  1  0.293760  0.101262  0.656727  1
  F  F8  1  0.555464  0.362967  0.656727  1
  F  F9  1  0.945336  0.604154  0.812282  1
  F  F10  1  0.441562  0.639262  0.346741  1
  F  F11  1  0.056676  0.391008  0.185096  1
  F  F12  1  0.794087  0.128419  0.185096  1
  F  F13  1  0.208128  0.866946  0.812282  1
  F  F14  1  0.497418  0.499005  0.996423  1
  F  F15  1  0.000268  0.001794  0.002062  1
  F  F16  1  0.780163  0.875313  0.655475  1
  F  F17  1  0.221339  0.129704  0.351042  1
  F  F18  1  0.278657  0.632227  0.910884  1
  F  F19  1  0.721027  0.367287  0.088313  1
  F  F20  1  0.960300  0.737993  0.420781  1
  F  F21  1  0.049551  0.263812  0.586189  1
  F  F22  1  0.322377  0.536638  0.586189  1
  F  F23  1  0.175307  0.759913  0.211469  1
  F  F24  1  0.682787  0.460481  0.420781  1
  F  F25  1  0.824292  0.245201  0.787057  1
  F  F26  1  0.541856  0.962765  0.787057  1
  F  F27  1  0.451557  0.036162  0.211469  1
