# generated using pymatgen
data_Tb7CeTm8(CdRu)4
_symmetry_space_group_name_H-M   'P 1'
_cell_length_a   9.61732438
_cell_length_b   9.61736258
_cell_length_c   9.63192120
_cell_angle_alpha   59.38052328
_cell_angle_beta   59.37960891
_cell_angle_gamma   59.35784953
_symmetry_Int_Tables_number   1
_chemical_formula_structural   Tb7CeTm8(CdRu)4
_chemical_formula_sum   'Tb7 Ce1 Tm8 Cd4 Ru4'
_cell_volume   620.95828429
_cell_formula_units_Z   1
loop_
 _symmetry_equiv_pos_site_id
 _symmetry_equiv_pos_as_xyz
  1  'x, y, z'
loop_
 _atom_site_type_symbol
 _atom_site_label
 _atom_site_symmetry_multiplicity
 _atom_site_fract_x
 _atom_site_fract_y
 _atom_site_fract_z
 _atom_site_occupancy
  Tb  Tb0  1  0.561573  0.561574  0.938593  1
  Tb  Tb1  1  0.939989  0.559885  0.940988  1
  Tb  Tb2  1  0.559885  0.939991  0.940989  1
  Tb  Tb3  1  0.940634  0.940634  0.558998  1
  Tb  Tb4  1  0.562342  0.938368  0.560793  1
  Tb  Tb5  1  0.938363  0.562345  0.560804  1
  Tb  Tb6  1  0.187775  0.187776  0.814032  1
  Ce  Ce7  1  0.342226  0.342229  0.340907  1
  Tm  Tm8  1  0.811329  0.186707  0.811999  1
  Tm  Tm9  1  0.186694  0.811338  0.812003  1
  Tm  Tm10  1  0.812320  0.812327  0.186913  1
  Tm  Tm11  1  0.187434  0.813130  0.188824  1
  Tm  Tm12  1  0.813126  0.187441  0.188819  1
  Tm  Tm13  1  0.346993  0.346992  0.958366  1
  Tm  Tm14  1  0.346526  0.957869  0.346831  1
  Tm  Tm15  1  0.957878  0.346522  0.346824  1
  Cd  Cd16  1  0.579767  0.579767  0.258444  1
  Cd  Cd17  1  0.580272  0.258609  0.579526  1
  Cd  Cd18  1  0.258609  0.580272  0.579527  1
  Cd  Cd19  1  0.579424  0.579421  0.579582  1
  Ru  Ru20  1  0.145041  0.145051  0.575611  1
  Ru  Ru21  1  0.145359  0.576268  0.145049  1
  Ru  Ru22  1  0.576279  0.145343  0.145056  1
  Ru  Ru23  1  0.140157  0.140144  0.140522  1
