# generated using pymatgen
data_YbPa3F15
_symmetry_space_group_name_H-M   'P 1'
_cell_length_a   8.66480233
_cell_length_b   8.66480235
_cell_length_c   8.64512571
_cell_angle_alpha   79.53817493
_cell_angle_beta   79.53817560
_cell_angle_gamma   100.30571492
_symmetry_Int_Tables_number   1
_chemical_formula_structural   YbPa3F15
_chemical_formula_sum   'Yb2 Pa6 F30'
_cell_volume   612.41490064
_cell_formula_units_Z   2
loop_
 _symmetry_equiv_pos_site_id
 _symmetry_equiv_pos_as_xyz
  1  'x, y, z'
loop_
 _atom_site_type_symbol
 _atom_site_label
 _atom_site_symmetry_multiplicity
 _atom_site_fract_x
 _atom_site_fract_y
 _atom_site_fract_z
 _atom_site_occupancy
  Yb  Yb0  1  0.179433  0.820567  0.250000  1
  Yb  Yb1  1  0.820567  0.179433  0.750000  1
  Pa  Pa2  1  0.749267  0.250733  0.250000  1
  Pa  Pa3  1  0.250733  0.749267  0.750000  1
  Pa  Pa4  1  0.758843  0.679204  0.670485  1
  Pa  Pa5  1  0.320796  0.241157  0.829515  1
  Pa  Pa6  1  0.241157  0.320796  0.329515  1
  Pa  Pa7  1  0.679204  0.758843  0.170485  1
  F  F8  1  0.468036  0.531964  0.250000  1
  F  F9  1  0.749538  0.963128  0.965573  1
  F  F10  1  0.036872  0.250462  0.534427  1
  F  F11  1  0.250462  0.036872  0.034427  1
  F  F12  1  0.963128  0.749538  0.465573  1
  F  F13  1  0.531964  0.468036  0.750000  1
  F  F14  1  0.773806  0.278565  0.995271  1
  F  F15  1  0.012401  0.274772  0.213289  1
  F  F16  1  0.778067  0.510232  0.226176  1
  F  F17  1  0.510232  0.778067  0.726176  1
  F  F18  1  0.274772  0.012401  0.713289  1
  F  F19  1  0.278565  0.773806  0.495271  1
  F  F20  1  0.226194  0.721435  0.004729  1
  F  F21  1  0.987599  0.725228  0.786711  1
  F  F22  1  0.221933  0.489768  0.773824  1
  F  F23  1  0.489768  0.221933  0.273824  1
  F  F24  1  0.725228  0.987599  0.286711  1
  F  F25  1  0.721435  0.226194  0.504729  1
  F  F26  1  0.316103  0.351932  0.051737  1
  F  F27  1  0.937690  0.809993  0.153933  1
  F  F28  1  0.841820  0.455997  0.685364  1
  F  F29  1  0.455997  0.841820  0.185364  1
  F  F30  1  0.809993  0.937690  0.653933  1
  F  F31  1  0.351932  0.316103  0.551737  1
  F  F32  1  0.683897  0.648068  0.948263  1
  F  F33  1  0.062310  0.190007  0.846067  1
  F  F34  1  0.158180  0.544003  0.314636  1
  F  F35  1  0.544003  0.158180  0.814636  1
  F  F36  1  0.190007  0.062310  0.346067  1
  F  F37  1  0.648068  0.683897  0.448263  1
