# generated using pymatgen
data_Ho4Al18ZnIr5
_symmetry_space_group_name_H-M   'P 1'
_cell_length_a   7.58403146
_cell_length_b   7.58403134
_cell_length_c   9.44752949
_cell_angle_alpha   89.95072842
_cell_angle_beta   89.95072293
_cell_angle_gamma   119.68140992
_symmetry_Int_Tables_number   1
_chemical_formula_structural   Ho4Al18ZnIr5
_chemical_formula_sum   'Ho4 Al18 Zn1 Ir5'
_cell_volume   472.09977156
_cell_formula_units_Z   1
loop_
 _symmetry_equiv_pos_site_id
 _symmetry_equiv_pos_as_xyz
  1  'x, y, z'
loop_
 _atom_site_type_symbol
 _atom_site_label
 _atom_site_symmetry_multiplicity
 _atom_site_fract_x
 _atom_site_fract_y
 _atom_site_fract_z
 _atom_site_occupancy
  Ho  Ho0  1  0.992016  0.666847  0.250094  1
  Ho  Ho1  1  0.001514  0.329133  0.750121  1
  Ho  Ho2  1  0.670867  0.998486  0.249879  1
  Ho  Ho3  1  0.333153  0.007984  0.749906  1
  Al  Al4  1  0.126785  0.124430  0.251354  1
  Al  Al5  1  0.875570  0.873215  0.748646  1
  Al  Al6  1  0.011982  0.335406  0.078572  1
  Al  Al7  1  0.007352  0.674378  0.921917  1
  Al  Al8  1  0.002164  0.665344  0.572431  1
  Al  Al9  1  0.334656  0.997836  0.427569  1
  Al  Al10  1  0.999647  0.334369  0.426111  1
  Al  Al11  1  0.665631  0.000353  0.573889  1
  Al  Al12  1  0.664594  0.988018  0.921428  1
  Al  Al13  1  0.325622  0.992648  0.078083  1
  Al  Al14  1  0.331160  0.331366  0.549248  1
  Al  Al15  1  0.668634  0.668840  0.450752  1
  Al  Al16  1  0.665567  0.671647  0.060829  1
  Al  Al17  1  0.328353  0.334433  0.939171  1
  Al  Al18  1  0.341142  0.551778  0.251723  1
  Al  Al19  1  0.660467  0.457699  0.742744  1
  Al  Al20  1  0.542301  0.339533  0.257256  1
  Al  Al21  1  0.448222  0.658858  0.748277  1
  Zn  Zn22  1  0.673717  0.326283  0.000000  1
  Ir  Ir23  1  0.328561  0.671439  0.000000  1
  Ir  Ir24  1  0.328612  0.671388  0.500000  1
  Ir  Ir25  1  0.672161  0.327839  0.500000  1
  Ir  Ir26  1  0.999224  0.000776  0.000000  1
  Ir  Ir27  1  0.000325  0.999675  0.500000  1
