# generated using pymatgen
data_CeHoTm(ZnNi)3
_symmetry_space_group_name_H-M   'P 1'
_cell_length_a   7.13969769
_cell_length_b   7.00496691
_cell_length_c   3.70806400
_cell_angle_alpha   90.00000000
_cell_angle_beta   90.00000000
_cell_angle_gamma   120.71716178
_symmetry_Int_Tables_number   1
_chemical_formula_structural   CeHoTm(ZnNi)3
_chemical_formula_sum   'Ce1 Ho1 Tm1 Zn3 Ni3'
_cell_volume   159.43354801
_cell_formula_units_Z   1
loop_
 _symmetry_equiv_pos_site_id
 _symmetry_equiv_pos_as_xyz
  1  'x, y, z'
loop_
 _atom_site_type_symbol
 _atom_site_label
 _atom_site_symmetry_multiplicity
 _atom_site_fract_x
 _atom_site_fract_y
 _atom_site_fract_z
 _atom_site_occupancy
  Ce  Ce0  1  0.418668  0.000265  0.500000  1
  Ho  Ho1  1  0.589657  0.593359  0.500000  1
  Tm  Tm2  1  0.996278  0.405712  0.500000  1
  Zn  Zn3  1  0.994258  0.748380  0.000000  1
  Zn  Zn4  1  0.243724  0.250320  0.000000  1
  Zn  Zn5  1  0.767211  0.001540  0.000000  1
  Ni  Ni6  1  0.331097  0.678212  0.000000  1
  Ni  Ni7  1  0.654373  0.321849  0.000000  1
  Ni  Ni8  1  0.004733  0.000363  0.500000  1
