# generated using pymatgen
data_Pu2SNO
_symmetry_space_group_name_H-M   'P 1'
_cell_length_a   3.83990900
_cell_length_b   3.83990997
_cell_length_c   6.55078600
_cell_angle_alpha   90.00000000
_cell_angle_beta   90.00000000
_cell_angle_gamma   120.00001746
_symmetry_Int_Tables_number   1
_chemical_formula_structural   Pu2SNO
_chemical_formula_sum   'Pu2 S1 N1 O1'
_cell_volume   83.64999942
_cell_formula_units_Z   1
loop_
 _symmetry_equiv_pos_site_id
 _symmetry_equiv_pos_as_xyz
  1  'x, y, z'
loop_
 _atom_site_type_symbol
 _atom_site_label
 _atom_site_symmetry_multiplicity
 _atom_site_fract_x
 _atom_site_fract_y
 _atom_site_fract_z
 _atom_site_occupancy
  Pu  Pu0  1  0.666667  0.333333  0.720400  1
  Pu  Pu1  1  0.333333  0.666667  0.283037  1
  S  S2  1  0.000000  0.000000  0.001609  1
  N  N3  1  0.333333  0.666667  0.627476  1
  O  O4  1  0.666667  0.333333  0.367478  1
