# generated using pymatgen
data_YbDyHo8(In2Pt)4
_symmetry_space_group_name_H-M   'P 1'
_cell_length_a   3.60825400
_cell_length_b   8.17222397
_cell_length_c   18.29078717
_cell_angle_alpha   89.94418405
_cell_angle_beta   90.00000000
_cell_angle_gamma   90.00000000
_symmetry_Int_Tables_number   1
_chemical_formula_structural   YbDyHo8(In2Pt)4
_chemical_formula_sum   'Yb1 Dy1 Ho8 In8 Pt4'
_cell_volume   539.34859594
_cell_formula_units_Z   1
loop_
 _symmetry_equiv_pos_site_id
 _symmetry_equiv_pos_as_xyz
  1  'x, y, z'
loop_
 _atom_site_type_symbol
 _atom_site_label
 _atom_site_symmetry_multiplicity
 _atom_site_fract_x
 _atom_site_fract_y
 _atom_site_fract_z
 _atom_site_occupancy
  Yb  Yb0  1  0.000000  0.000000  0.000000  1
  Dy  Dy1  1  0.000000  0.500000  0.500000  1
  Ho  Ho2  1  0.000000  0.117452  0.414482  1
  Ho  Ho3  1  0.000000  0.882548  0.585518  1
  Ho  Ho4  1  0.000000  0.382221  0.914391  1
  Ho  Ho5  1  0.000000  0.617779  0.085609  1
  Ho  Ho6  1  0.000000  0.243097  0.220217  1
  Ho  Ho7  1  0.000000  0.756903  0.779783  1
  Ho  Ho8  1  0.000000  0.256976  0.720182  1
  Ho  Ho9  1  0.000000  0.743024  0.279818  1
  In  In10  1  0.500000  0.423648  0.350741  1
  In  In11  1  0.500000  0.576352  0.649259  1
  In  In12  1  0.500000  0.076033  0.850645  1
  In  In13  1  0.500000  0.923967  0.149355  1
  In  In14  1  0.500000  0.292870  0.066919  1
  In  In15  1  0.500000  0.707130  0.933081  1
  In  In16  1  0.500000  0.207360  0.566705  1
  In  In17  1  0.500000  0.792640  0.433295  1
  Pt  Pt18  1  0.500000  0.024791  0.303456  1
  Pt  Pt19  1  0.500000  0.975209  0.696544  1
  Pt  Pt20  1  0.500000  0.475987  0.803274  1
  Pt  Pt21  1  0.500000  0.524013  0.196726  1
