# generated using pymatgen
data_Eu2TaVO6
_symmetry_space_group_name_H-M   'P 1'
_cell_length_a   5.64062188
_cell_length_b   5.77745593
_cell_length_c   7.96927000
_cell_angle_alpha   90.00000000
_cell_angle_beta   90.00000000
_cell_angle_gamma   89.46809605
_symmetry_Int_Tables_number   1
_chemical_formula_structural   Eu2TaVO6
_chemical_formula_sum   'Eu4 Ta2 V2 O12'
_cell_volume   259.69492057
_cell_formula_units_Z   2
loop_
 _symmetry_equiv_pos_site_id
 _symmetry_equiv_pos_as_xyz
  1  'x, y, z'
loop_
 _atom_site_type_symbol
 _atom_site_label
 _atom_site_symmetry_multiplicity
 _atom_site_fract_x
 _atom_site_fract_y
 _atom_site_fract_z
 _atom_site_occupancy
  Eu  Eu0  1  0.003755  0.963326  0.250000  1
  Eu  Eu1  1  0.489150  0.439580  0.250000  1
  Eu  Eu2  1  0.510850  0.560420  0.750000  1
  Eu  Eu3  1  0.996245  0.036674  0.750000  1
  Ta  Ta4  1  0.000000  0.500000  0.000000  1
  Ta  Ta5  1  0.000000  0.500000  0.500000  1
  V  V6  1  0.500000  0.000000  0.000000  1
  V  V7  1  0.500000  0.000000  0.500000  1
  O  O8  1  0.798725  0.781438  0.541326  1
  O  O9  1  0.281091  0.699166  0.460192  1
  O  O10  1  0.201275  0.218562  0.458674  1
  O  O11  1  0.718909  0.300834  0.960192  1
  O  O12  1  0.077981  0.479626  0.750000  1
  O  O13  1  0.718909  0.300834  0.539808  1
  O  O14  1  0.281091  0.699166  0.039808  1
  O  O15  1  0.798725  0.781438  0.958674  1
  O  O16  1  0.582906  0.027292  0.250000  1
  O  O17  1  0.201275  0.218562  0.041326  1
  O  O18  1  0.417094  0.972708  0.750000  1
  O  O19  1  0.922019  0.520374  0.250000  1
