# generated using pymatgen
data_Ho3Tm5(Sc3Sn4)4
_symmetry_space_group_name_H-M   'P 1'
_cell_length_a   7.65942018
_cell_length_b   7.93599201
_cell_length_c   14.79576034
_cell_angle_alpha   90.00318041
_cell_angle_beta   89.97573430
_cell_angle_gamma   90.00463681
_symmetry_Int_Tables_number   1
_chemical_formula_structural   Ho3Tm5(Sc3Sn4)4
_chemical_formula_sum   'Ho3 Tm5 Sc12 Sn16'
_cell_volume   899.36164720
_cell_formula_units_Z   1
loop_
 _symmetry_equiv_pos_site_id
 _symmetry_equiv_pos_as_xyz
  1  'x, y, z'
loop_
 _atom_site_type_symbol
 _atom_site_label
 _atom_site_symmetry_multiplicity
 _atom_site_fract_x
 _atom_site_fract_y
 _atom_site_fract_z
 _atom_site_occupancy
  Ho  Ho0  1  0.994343  0.178220  0.093707  1
  Ho  Ho1  1  0.005659  0.821855  0.906322  1
  Ho  Ho2  1  0.505719  0.678127  0.906342  1
  Tm  Tm3  1  0.005770  0.821710  0.593748  1
  Tm  Tm4  1  0.494273  0.321682  0.093777  1
  Tm  Tm5  1  0.994234  0.178304  0.406213  1
  Tm  Tm6  1  0.494255  0.321705  0.406304  1
  Tm  Tm7  1  0.505749  0.678297  0.593742  1
  Sc  Sc8  1  0.164437  0.496542  0.749909  1
  Sc  Sc9  1  0.835504  0.503382  0.250053  1
  Sc  Sc10  1  0.335611  0.996619  0.250038  1
  Sc  Sc11  1  0.664427  0.003442  0.749923  1
  Sc  Sc12  1  0.336165  0.161189  0.627335  1
  Sc  Sc13  1  0.663845  0.838814  0.372629  1
  Sc  Sc14  1  0.163843  0.661213  0.372630  1
  Sc  Sc15  1  0.663815  0.838824  0.127442  1
  Sc  Sc16  1  0.836167  0.338802  0.627338  1
  Sc  Sc17  1  0.336246  0.161273  0.872607  1
  Sc  Sc18  1  0.836142  0.338772  0.872589  1
  Sc  Sc19  1  0.163907  0.661114  0.127437  1
  Sn  Sn20  1  0.026836  0.122884  0.749948  1
  Sn  Sn21  1  0.973188  0.877095  0.250065  1
  Sn  Sn22  1  0.473194  0.622694  0.250034  1
  Sn  Sn23  1  0.526802  0.377148  0.749948  1
  Sn  Sn24  1  0.306885  0.848385  0.749707  1
  Sn  Sn25  1  0.692845  0.151862  0.250097  1
  Sn  Sn26  1  0.193310  0.348359  0.250175  1
  Sn  Sn27  1  0.806899  0.651606  0.749709  1
  Sn  Sn28  1  0.182418  0.458467  0.542244  1
  Sn  Sn29  1  0.817629  0.541543  0.457742  1
  Sn  Sn30  1  0.317582  0.958464  0.457727  1
  Sn  Sn31  1  0.817709  0.541528  0.042341  1
  Sn  Sn32  1  0.682407  0.041520  0.542250  1
  Sn  Sn33  1  0.182152  0.458200  0.957812  1
  Sn  Sn34  1  0.681786  0.041888  0.957770  1
  Sn  Sn35  1  0.318245  0.958470  0.042345  1
