# generated using pymatgen
data_NdMn8BeSi4
_symmetry_space_group_name_H-M   'P 1'
_cell_length_a   7.98369666
_cell_length_b   7.98500089
_cell_length_c   7.98173609
_cell_angle_alpha   121.08222955
_cell_angle_beta   121.07956582
_cell_angle_gamma   88.15274904
_symmetry_Int_Tables_number   1
_chemical_formula_structural   NdMn8BeSi4
_chemical_formula_sum   'Nd2 Mn16 Be2 Si8'
_cell_volume   353.67434388
_cell_formula_units_Z   2
loop_
 _symmetry_equiv_pos_site_id
 _symmetry_equiv_pos_as_xyz
  1  'x, y, z'
loop_
 _atom_site_type_symbol
 _atom_site_label
 _atom_site_symmetry_multiplicity
 _atom_site_fract_x
 _atom_site_fract_y
 _atom_site_fract_z
 _atom_site_occupancy
  Nd  Nd0  1  0.249988  0.250067  0.999960  1
  Nd  Nd1  1  0.750012  0.749933  0.000040  1
  Mn  Mn2  1  0.691230  0.557468  0.248687  1
  Mn  Mn3  1  0.444272  0.944298  0.729769  1
  Mn  Mn4  1  0.714492  0.444413  0.499925  1
  Mn  Mn5  1  0.055465  0.785495  0.499914  1
  Mn  Mn6  1  0.191270  0.942384  0.133654  1
  Mn  Mn7  1  0.555728  0.055702  0.270231  1
  Mn  Mn8  1  0.308770  0.442532  0.751313  1
  Mn  Mn9  1  0.785509  0.285510  0.729805  1
  Mn  Mn10  1  0.942475  0.808663  0.751101  1
  Mn  Mn11  1  0.944535  0.214505  0.500086  1
  Mn  Mn12  1  0.057525  0.191337  0.248899  1
  Mn  Mn13  1  0.808730  0.057616  0.866346  1
  Mn  Mn14  1  0.557582  0.308864  0.866429  1
  Mn  Mn15  1  0.214491  0.714490  0.270195  1
  Mn  Mn16  1  0.285508  0.555587  0.500075  1
  Mn  Mn17  1  0.442418  0.691136  0.133571  1
  Be  Be18  1  0.500000  0.000000  0.500000  1
  Be  Be19  1  0.000000  0.500000  0.500000  1
  Si  Si20  1  0.446452  0.301422  0.500071  1
  Si  Si21  1  0.198571  0.053596  0.500018  1
  Si  Si22  1  0.053622  0.553570  0.855113  1
  Si  Si23  1  0.698522  0.198512  0.144908  1
  Si  Si24  1  0.801429  0.946404  0.499982  1
  Si  Si25  1  0.301478  0.801488  0.855092  1
  Si  Si26  1  0.553548  0.698578  0.499929  1
  Si  Si27  1  0.946378  0.446430  0.144887  1
