# generated using pymatgen
data_Ac2CuSi3
_symmetry_space_group_name_H-M   'P 1'
_cell_length_a   8.57581505
_cell_length_b   8.29831107
_cell_length_c   6.24693267
_cell_angle_alpha   70.65639307
_cell_angle_beta   65.92565350
_cell_angle_gamma   43.41795332
_symmetry_Int_Tables_number   1
_chemical_formula_structural   Ac2CuSi3
_chemical_formula_sum   'Ac4 Cu2 Si6'
_cell_volume   278.54325820
_cell_formula_units_Z   2
loop_
 _symmetry_equiv_pos_site_id
 _symmetry_equiv_pos_as_xyz
  1  'x, y, z'
loop_
 _atom_site_type_symbol
 _atom_site_label
 _atom_site_symmetry_multiplicity
 _atom_site_fract_x
 _atom_site_fract_y
 _atom_site_fract_z
 _atom_site_occupancy
  Ac  Ac0  1  0.244316  0.755683  0.244317  1
  Ac  Ac1  1  0.250000  0.250000  0.249999  1
  Ac  Ac2  1  0.750000  0.750000  0.749999  1
  Ac  Ac3  1  0.755683  0.244317  0.755684  1
  Cu  Cu4  1  0.666309  0.666310  0.333691  1
  Cu  Cu5  1  0.333690  0.333690  0.666310  1
  Si  Si6  1  0.831261  0.831261  0.168739  1
  Si  Si7  1  0.829962  0.338031  0.170038  1
  Si  Si8  1  0.661969  0.170037  0.338032  1
  Si  Si9  1  0.338031  0.829963  0.661970  1
  Si  Si10  1  0.170037  0.661969  0.829964  1
  Si  Si11  1  0.168738  0.168738  0.831262  1
