# generated using pymatgen
data_CaTm5(SiRh2)6
_symmetry_space_group_name_H-M   'P 1'
_cell_length_a   5.56057100
_cell_length_b   5.56057097
_cell_length_c   14.91958100
_cell_angle_alpha   90.00000000
_cell_angle_beta   90.00000000
_cell_angle_gamma   119.99999423
_symmetry_Int_Tables_number   1
_chemical_formula_structural   CaTm5(SiRh2)6
_chemical_formula_sum   'Ca1 Tm5 Si6 Rh12'
_cell_volume   399.50853515
_cell_formula_units_Z   1
loop_
 _symmetry_equiv_pos_site_id
 _symmetry_equiv_pos_as_xyz
  1  'x, y, z'
loop_
 _atom_site_type_symbol
 _atom_site_label
 _atom_site_symmetry_multiplicity
 _atom_site_fract_x
 _atom_site_fract_y
 _atom_site_fract_z
 _atom_site_occupancy
  Ca  Ca0  1  0.333333  0.666667  0.250000  1
  Tm  Tm1  1  0.666667  0.333333  0.962483  1
  Tm  Tm2  1  0.666667  0.333333  0.537517  1
  Tm  Tm3  1  0.333333  0.666667  0.040073  1
  Tm  Tm4  1  0.666667  0.333333  0.750000  1
  Tm  Tm5  1  0.333333  0.666667  0.459927  1
  Si  Si6  1  0.666667  0.333333  0.250000  1
  Si  Si7  1  0.000000  0.000000  0.500474  1
  Si  Si8  1  0.000000  0.000000  0.250000  1
  Si  Si9  1  0.000000  0.000000  0.750000  1
  Si  Si10  1  0.333333  0.666667  0.750000  1
  Si  Si11  1  0.000000  0.000000  0.999526  1
  Rh  Rh12  1  0.167194  0.334387  0.870625  1
  Rh  Rh13  1  0.167194  0.334387  0.629375  1
  Rh  Rh14  1  0.665613  0.832806  0.870625  1
  Rh  Rh15  1  0.334557  0.167279  0.371503  1
  Rh  Rh16  1  0.832721  0.665443  0.371503  1
  Rh  Rh17  1  0.832721  0.167279  0.371503  1
  Rh  Rh18  1  0.832721  0.167279  0.128497  1
  Rh  Rh19  1  0.334557  0.167279  0.128497  1
  Rh  Rh20  1  0.665613  0.832806  0.629375  1
  Rh  Rh21  1  0.167194  0.832806  0.629375  1
  Rh  Rh22  1  0.832721  0.665443  0.128497  1
  Rh  Rh23  1  0.167194  0.832806  0.870625  1
