# generated using pymatgen
data_CrRe(TcIr2)2
_symmetry_space_group_name_H-M   'P 1'
_cell_length_a   5.45144900
_cell_length_b   5.51327049
_cell_length_c   4.34768800
_cell_angle_alpha   90.00000000
_cell_angle_beta   90.00000000
_cell_angle_gamma   119.62975190
_symmetry_Int_Tables_number   1
_chemical_formula_structural   CrRe(TcIr2)2
_chemical_formula_sum   'Cr1 Re1 Tc2 Ir4'
_cell_volume   113.58434814
_cell_formula_units_Z   1
loop_
 _symmetry_equiv_pos_site_id
 _symmetry_equiv_pos_as_xyz
  1  'x, y, z'
loop_
 _atom_site_type_symbol
 _atom_site_label
 _atom_site_symmetry_multiplicity
 _atom_site_fract_x
 _atom_site_fract_y
 _atom_site_fract_z
 _atom_site_occupancy
  Cr  Cr0  1  0.667903  0.335805  0.250000  1
  Re  Re1  1  0.332763  0.665527  0.750000  1
  Tc  Tc2  1  0.166984  0.333965  0.250000  1
  Tc  Tc3  1  0.829525  0.659051  0.750000  1
  Ir  Ir4  1  0.666828  0.831209  0.250000  1
  Ir  Ir5  1  0.164383  0.831209  0.250000  1
  Ir  Ir6  1  0.339591  0.171616  0.750000  1
  Ir  Ir7  1  0.832024  0.171616  0.750000  1
