# generated using pymatgen
data_Sc22IrOs4Ru3
_symmetry_space_group_name_H-M   'P 1'
_cell_length_a   9.48573046
_cell_length_b   9.41196369
_cell_length_c   9.46199915
_cell_angle_alpha   60.17477467
_cell_angle_beta   60.25930075
_cell_angle_gamma   60.25692596
_symmetry_Int_Tables_number   1
_chemical_formula_structural   Sc22IrOs4Ru3
_chemical_formula_sum   'Sc22 Ir1 Os4 Ru3'
_cell_volume   600.45036347
_cell_formula_units_Z   1
loop_
 _symmetry_equiv_pos_site_id
 _symmetry_equiv_pos_as_xyz
  1  'x, y, z'
loop_
 _atom_site_type_symbol
 _atom_site_label
 _atom_site_symmetry_multiplicity
 _atom_site_fract_x
 _atom_site_fract_y
 _atom_site_fract_z
 _atom_site_occupancy
  Sc  Sc0  1  0.799914  0.804192  0.198248  1
  Sc  Sc1  1  0.199893  0.802271  0.195566  1
  Sc  Sc2  1  0.799914  0.197646  0.198248  1
  Sc  Sc3  1  0.200086  0.195808  0.801752  1
  Sc  Sc4  1  0.800107  0.197729  0.804434  1
  Sc  Sc5  1  0.200086  0.802354  0.801752  1
  Sc  Sc6  1  0.613581  0.618141  0.150134  1
  Sc  Sc7  1  0.614713  0.147764  0.617678  1
  Sc  Sc8  1  0.151784  0.616639  0.614935  1
  Sc  Sc9  1  0.614713  0.619845  0.617678  1
  Sc  Sc10  1  0.386419  0.381859  0.849866  1
  Sc  Sc11  1  0.385287  0.852236  0.382322  1
  Sc  Sc12  1  0.848216  0.383361  0.385065  1
  Sc  Sc13  1  0.385287  0.380155  0.382322  1
  Sc  Sc14  1  0.845983  0.842967  0.468083  1
  Sc  Sc15  1  0.843998  0.469814  0.843024  1
  Sc  Sc16  1  0.468731  0.843192  0.844883  1
  Sc  Sc17  1  0.843998  0.843163  0.843024  1
  Sc  Sc18  1  0.154017  0.157033  0.531917  1
  Sc  Sc19  1  0.156002  0.530186  0.156976  1
  Sc  Sc20  1  0.531269  0.156808  0.155117  1
  Sc  Sc21  1  0.156002  0.156837  0.156976  1
  Ir  Ir22  1  0.000000  0.500000  0.000000  1
  Os  Os23  1  0.500000  0.500000  0.500000  1
  Os  Os24  1  0.500000  0.000000  0.500000  1
  Os  Os25  1  0.500000  0.500000  0.000000  1
  Os  Os26  1  0.500000  0.000000  0.000000  1
  Ru  Ru27  1  0.000000  0.000000  0.000000  1
  Ru  Ru28  1  0.000000  0.000000  0.500000  1
  Ru  Ru29  1  0.000000  0.500000  0.500000  1
