# generated using pymatgen
data_Nb4VGaAs2
_symmetry_space_group_name_H-M   'P 1'
_cell_length_a   7.58690151
_cell_length_b   7.58691812
_cell_length_c   7.58690023
_cell_angle_alpha   96.33401739
_cell_angle_beta   96.33297011
_cell_angle_gamma   141.20269342
_symmetry_Int_Tables_number   1
_chemical_formula_structural   Nb4VGaAs2
_chemical_formula_sum   'Nb8 V2 Ga2 As4'
_cell_volume   258.09532567
_cell_formula_units_Z   2
loop_
 _symmetry_equiv_pos_site_id
 _symmetry_equiv_pos_as_xyz
  1  'x, y, z'
loop_
 _atom_site_type_symbol
 _atom_site_label
 _atom_site_symmetry_multiplicity
 _atom_site_fract_x
 _atom_site_fract_y
 _atom_site_fract_z
 _atom_site_occupancy
  Nb  Nb0  1  0.775356  0.920639  0.695995  1
  Nb  Nb1  1  0.920647  0.224649  0.145286  1
  Nb  Nb2  1  0.079353  0.775351  0.854714  1
  Nb  Nb3  1  0.224644  0.079361  0.304005  1
  Nb  Nb4  1  0.579364  0.724649  0.304001  1
  Nb  Nb5  1  0.420636  0.275351  0.695999  1
  Nb  Nb6  1  0.275355  0.579361  0.854718  1
  Nb  Nb7  1  0.724645  0.420639  0.145282  1
  V  V8  1  0.250001  0.750000  0.500001  1
  V  V9  1  0.749999  0.250000  0.499999  1
  Ga  Ga10  1  0.750001  0.750000  0.000001  1
  Ga  Ga11  1  0.249999  0.250000  0.999999  1
  As  As12  1  0.340653  0.840647  0.181305  1
  As  As13  1  0.840656  0.659353  0.500006  1
  As  As14  1  0.159344  0.340647  0.499994  1
  As  As15  1  0.659347  0.159353  0.818695  1
