# generated using pymatgen
data_Tb10Y9TmPb16
_symmetry_space_group_name_H-M   'P 1'
_cell_length_a   8.23918500
_cell_length_b   8.32187248
_cell_length_c   15.72201900
_cell_angle_alpha   90.01079562
_cell_angle_beta   90.00031989
_cell_angle_gamma   90.01617960
_symmetry_Int_Tables_number   1
_chemical_formula_structural   Tb10Y9TmPb16
_chemical_formula_sum   'Tb10 Y9 Tm1 Pb16'
_cell_volume   1077.98719687
_cell_formula_units_Z   1
loop_
 _symmetry_equiv_pos_site_id
 _symmetry_equiv_pos_as_xyz
  1  'x, y, z'
loop_
 _atom_site_type_symbol
 _atom_site_label
 _atom_site_symmetry_multiplicity
 _atom_site_fract_x
 _atom_site_fract_y
 _atom_site_fract_z
 _atom_site_occupancy
  Tb  Tb0  1  0.377469  0.840671  0.620239  1
  Tb  Tb1  1  0.877519  0.659343  0.879627  1
  Tb  Tb2  1  0.534715  0.323395  0.899970  1
  Tb  Tb3  1  0.034689  0.176579  0.599937  1
  Tb  Tb4  1  0.465055  0.676858  0.399725  1
  Tb  Tb5  1  0.965459  0.823681  0.100278  1
  Tb  Tb6  1  0.465026  0.676749  0.100213  1
  Tb  Tb7  1  0.965438  0.823780  0.399789  1
  Tb  Tb8  1  0.534791  0.323569  0.600117  1
  Tb  Tb9  1  0.034820  0.176391  0.899999  1
  Y  Y10  1  0.377184  0.840843  0.879515  1
  Y  Y11  1  0.877116  0.659129  0.620595  1
  Y  Y12  1  0.622343  0.158793  0.379237  1
  Y  Y13  1  0.122982  0.340825  0.120701  1
  Y  Y14  1  0.622276  0.158923  0.120855  1
  Y  Y15  1  0.122973  0.340674  0.379197  1
  Y  Y16  1  0.209093  0.503719  0.750066  1
  Y  Y17  1  0.709126  0.996301  0.749954  1
  Y  Y18  1  0.790899  0.496279  0.250047  1
  Tm  Tm19  1  0.290741  0.004123  0.249924  1
  Pb  Pb20  1  0.281177  0.032835  0.043229  1
  Pb  Pb21  1  0.781162  0.466906  0.457286  1
  Pb  Pb22  1  0.719171  0.967050  0.542469  1
  Pb  Pb23  1  0.219108  0.532835  0.957529  1
  Pb  Pb24  1  0.718612  0.967156  0.957488  1
  Pb  Pb25  1  0.218526  0.532754  0.542528  1
  Pb  Pb26  1  0.281187  0.032966  0.456582  1
  Pb  Pb27  1  0.781091  0.466729  0.042875  1
  Pb  Pb28  1  0.572938  0.625627  0.749967  1
  Pb  Pb29  1  0.073016  0.874460  0.750065  1
  Pb  Pb30  1  0.426869  0.373531  0.249994  1
  Pb  Pb31  1  0.928159  0.125165  0.249999  1
  Pb  Pb32  1  0.346098  0.151970  0.750003  1
  Pb  Pb33  1  0.846187  0.347805  0.750031  1
  Pb  Pb34  1  0.652941  0.848067  0.249969  1
  Pb  Pb35  1  0.154042  0.653518  0.250003  1
