# generated using pymatgen
data_PaZn9Ag2
_symmetry_space_group_name_H-M   'P 1'
_cell_length_a   8.30318305
_cell_length_b   8.30318047
_cell_length_c   8.29699670
_cell_angle_alpha   99.81594616
_cell_angle_beta   100.30561415
_cell_angle_gamma   130.60803546
_symmetry_Int_Tables_number   1
_chemical_formula_structural   PaZn9Ag2
_chemical_formula_sum   'Pa2 Zn18 Ag4'
_cell_volume   394.47796324
_cell_formula_units_Z   2
loop_
 _symmetry_equiv_pos_site_id
 _symmetry_equiv_pos_as_xyz
  1  'x, y, z'
loop_
 _atom_site_type_symbol
 _atom_site_label
 _atom_site_symmetry_multiplicity
 _atom_site_fract_x
 _atom_site_fract_y
 _atom_site_fract_z
 _atom_site_occupancy
  Pa  Pa0  1  0.248936  0.748937  0.500000  1
  Pa  Pa1  1  0.999150  0.999150  0.999999  1
  Zn  Zn2  1  0.624760  0.377771  0.748434  1
  Zn  Zn3  1  0.125418  0.374117  0.745651  1
  Zn  Zn4  1  0.628466  0.379766  0.254348  1
  Zn  Zn5  1  0.629337  0.876326  0.251567  1
  Zn  Zn6  1  0.177266  0.095403  0.669406  1
  Zn  Zn7  1  0.756056  0.928993  0.586464  1
  Zn  Zn8  1  0.342530  0.169592  0.413536  1
  Zn  Zn9  1  0.425997  0.507860  0.330594  1
  Zn  Zn10  1  0.909743  0.822724  0.327235  1
  Zn  Zn11  1  0.495489  0.582509  0.672765  1
  Zn  Zn12  1  0.072527  0.245947  0.411597  1
  Zn  Zn13  1  0.834349  0.660930  0.588403  1
  Zn  Zn14  1  0.065703  0.647965  0.827089  1
  Zn  Zn15  1  0.494203  0.817788  0.914776  1
  Zn  Zn16  1  0.903012  0.579427  0.085224  1
  Zn  Zn17  1  0.820877  0.238615  0.172912  1
  Zn  Zn18  1  0.343650  0.931578  0.178146  1
  Zn  Zn19  1  0.753432  0.165503  0.821853  1
  Ag  Ag20  1  0.417275  0.089580  0.913160  1
  Ag  Ag21  1  0.176420  0.504115  0.086840  1
  Ag  Ag22  1  0.506342  0.506342  0.000000  1
  Ag  Ag23  1  0.749060  0.249061  0.500000  1
