# generated using pymatgen
data_La5Pr3(CdPd)2
_symmetry_space_group_name_H-M   'P 1'
_cell_length_a   10.17864376
_cell_length_b   10.17864386
_cell_length_c   10.17864300
_cell_angle_alpha   59.99999953
_cell_angle_beta   59.99999921
_cell_angle_gamma   60.00000167
_symmetry_Int_Tables_number   1
_chemical_formula_structural   La5Pr3(CdPd)2
_chemical_formula_sum   'La10 Pr6 Cd4 Pd4'
_cell_volume   745.68381989
_cell_formula_units_Z   2
loop_
 _symmetry_equiv_pos_site_id
 _symmetry_equiv_pos_as_xyz
  1  'x, y, z'
loop_
 _atom_site_type_symbol
 _atom_site_label
 _atom_site_symmetry_multiplicity
 _atom_site_fract_x
 _atom_site_fract_y
 _atom_site_fract_z
 _atom_site_occupancy
  La  La0  1  0.350639  0.350639  0.350639  1
  La  La1  1  0.350639  0.350639  0.948083  1
  La  La2  1  0.350639  0.948083  0.350639  1
  La  La3  1  0.948083  0.350639  0.350639  1
  La  La4  1  0.806375  0.193625  0.193625  1
  La  La5  1  0.193625  0.806375  0.806375  1
  La  La6  1  0.193625  0.806375  0.193625  1
  La  La7  1  0.806375  0.193625  0.806375  1
  La  La8  1  0.193625  0.193625  0.806375  1
  La  La9  1  0.806375  0.806375  0.193625  1
  Pr  Pr10  1  0.934565  0.565435  0.565435  1
  Pr  Pr11  1  0.565435  0.934565  0.934565  1
  Pr  Pr12  1  0.565435  0.934565  0.565435  1
  Pr  Pr13  1  0.934565  0.565435  0.934565  1
  Pr  Pr14  1  0.565435  0.565435  0.934565  1
  Pr  Pr15  1  0.934565  0.934565  0.565435  1
  Cd  Cd16  1  0.579692  0.579692  0.579692  1
  Cd  Cd17  1  0.579692  0.579692  0.260922  1
  Cd  Cd18  1  0.579692  0.260922  0.579692  1
  Cd  Cd19  1  0.260922  0.579692  0.579692  1
  Pd  Pd20  1  0.143007  0.143007  0.143007  1
  Pd  Pd21  1  0.143007  0.143007  0.570978  1
  Pd  Pd22  1  0.143007  0.570978  0.143007  1
  Pd  Pd23  1  0.570978  0.143007  0.143007  1
