# generated using pymatgen
data_Cs2Tb9NdRh2Br17
_symmetry_space_group_name_H-M   'P 1'
_cell_length_a   9.40099455
_cell_length_b   10.96568942
_cell_length_c   10.96573300
_cell_angle_alpha   107.98857095
_cell_angle_beta   93.68327279
_cell_angle_gamma   93.68318803
_symmetry_Int_Tables_number   1
_chemical_formula_structural   Cs2Tb9NdRh2Br17
_chemical_formula_sum   'Cs2 Tb9 Nd1 Rh2 Br17'
_cell_volume   1068.74282052
_cell_formula_units_Z   1
loop_
 _symmetry_equiv_pos_site_id
 _symmetry_equiv_pos_as_xyz
  1  'x, y, z'
loop_
 _atom_site_type_symbol
 _atom_site_label
 _atom_site_symmetry_multiplicity
 _atom_site_fract_x
 _atom_site_fract_y
 _atom_site_fract_z
 _atom_site_occupancy
  Cs  Cs0  1  0.000238  0.823320  0.176580  1
  Cs  Cs1  1  0.000227  0.176590  0.823334  1
  Tb  Tb2  1  0.437606  0.169656  0.169663  1
  Tb  Tb3  1  0.573512  0.511803  0.203467  1
  Tb  Tb4  1  0.825104  0.293298  0.293292  1
  Tb  Tb5  1  0.309486  0.436956  0.436951  1
  Tb  Tb6  1  0.425786  0.796435  0.485768  1
  Tb  Tb7  1  0.573517  0.203471  0.511795  1
  Tb  Tb8  1  0.691259  0.563350  0.563356  1
  Tb  Tb9  1  0.174597  0.706916  0.706921  1
  Tb  Tb10  1  0.425796  0.485763  0.796435  1
  Nd  Nd11  1  0.563717  0.835041  0.835045  1
  Rh  Rh12  1  0.568736  0.361484  0.361484  1
  Rh  Rh13  1  0.431550  0.639005  0.639005  1
  Br  Br14  1  0.577115  0.678989  0.023030  1
  Br  Br15  1  0.711706  0.069715  0.069716  1
  Br  Br16  1  0.853831  0.447933  0.121840  1
  Br  Br17  1  0.132854  0.210163  0.210164  1
  Br  Br18  1  0.285457  0.605246  0.253833  1
  Br  Br19  1  0.421908  0.979510  0.314018  1
  Br  Br20  1  0.713444  0.745589  0.394372  1
  Br  Br21  1  0.853815  0.121853  0.447914  1
  Br  Br22  1  0.000010  0.500193  0.500197  1
  Br  Br23  1  0.146625  0.878275  0.551093  1
  Br  Br24  1  0.285439  0.253818  0.605280  1
  Br  Br25  1  0.577127  0.023072  0.679000  1
  Br  Br26  1  0.713436  0.394402  0.745563  1
  Br  Br27  1  0.874100  0.788187  0.788193  1
  Br  Br28  1  0.146623  0.551082  0.878287  1
  Br  Br29  1  0.283456  0.934863  0.934863  1
  Br  Br30  1  0.421923  0.314023  0.979539  1
