# generated using pymatgen
data_Na3Rh(SO4)3
_symmetry_space_group_name_H-M   'P 1'
_cell_length_a   8.46099134
_cell_length_b   8.46099090
_cell_length_c   8.46099194
_cell_angle_alpha   108.09366053
_cell_angle_beta   108.09365585
_cell_angle_gamma   108.09365136
_symmetry_Int_Tables_number   1
_chemical_formula_structural   Na3Rh(SO4)3
_chemical_formula_sum   'Na6 Rh2 S6 O24'
_cell_volume   488.61005103
_cell_formula_units_Z   2
loop_
 _symmetry_equiv_pos_site_id
 _symmetry_equiv_pos_as_xyz
  1  'x, y, z'
loop_
 _atom_site_type_symbol
 _atom_site_label
 _atom_site_symmetry_multiplicity
 _atom_site_fract_x
 _atom_site_fract_y
 _atom_site_fract_z
 _atom_site_occupancy
  Na  Na0  1  0.621515  0.767874  0.147273  1
  Na  Na1  1  0.147273  0.621515  0.767874  1
  Na  Na2  1  0.767874  0.147273  0.621515  1
  Na  Na3  1  0.378485  0.232126  0.852727  1
  Na  Na4  1  0.852727  0.378485  0.232126  1
  Na  Na5  1  0.232126  0.852727  0.378485  1
  Rh  Rh6  1  0.000000  0.000000  0.000000  1
  Rh  Rh7  1  0.500000  0.500000  0.500000  1
  S  S8  1  0.903696  0.763228  0.555425  1
  S  S9  1  0.555425  0.903696  0.763228  1
  S  S10  1  0.763228  0.555425  0.903696  1
  S  S11  1  0.096304  0.236772  0.444575  1
  S  S12  1  0.444575  0.096304  0.236772  1
  S  S13  1  0.236772  0.444575  0.096304  1
  O  O14  1  0.758652  0.575519  0.511188  1
  O  O15  1  0.511188  0.758652  0.575519  1
  O  O16  1  0.575519  0.511188  0.758652  1
  O  O17  1  0.241348  0.424481  0.488812  1
  O  O18  1  0.488812  0.241348  0.424481  1
  O  O19  1  0.424481  0.488812  0.241348  1
  O  O20  1  0.821394  0.870238  0.485446  1
  O  O21  1  0.485446  0.821394  0.870238  1
  O  O22  1  0.870238  0.485446  0.821394  1
  O  O23  1  0.178606  0.129762  0.514554  1
  O  O24  1  0.514554  0.178606  0.129762  1
  O  O25  1  0.129762  0.514554  0.178606  1
  O  O26  1  0.025460  0.714640  0.477799  1
  O  O27  1  0.477799  0.025460  0.714640  1
  O  O28  1  0.714640  0.477799  0.025460  1
  O  O29  1  0.974540  0.285360  0.522201  1
  O  O30  1  0.522201  0.974540  0.285360  1
  O  O31  1  0.285360  0.522201  0.974540  1
  O  O32  1  0.029515  0.868552  0.766348  1
  O  O33  1  0.766348  0.029515  0.868552  1
  O  O34  1  0.868552  0.766348  0.029515  1
  O  O35  1  0.970485  0.131448  0.233652  1
  O  O36  1  0.233652  0.970485  0.131448  1
  O  O37  1  0.131448  0.233652  0.970485  1
