# generated using pymatgen
data_La8Yb5Ho7Pt16
_symmetry_space_group_name_H-M   'P 1'
_cell_length_a   7.70262702
_cell_length_b   7.82777070
_cell_length_c   14.88501400
_cell_angle_alpha   90.03223531
_cell_angle_beta   89.99572288
_cell_angle_gamma   90.04543487
_symmetry_Int_Tables_number   1
_chemical_formula_structural   La8Yb5Ho7Pt16
_chemical_formula_sum   'La8 Yb5 Ho7 Pt16'
_cell_volume   897.48253329
_cell_formula_units_Z   1
loop_
 _symmetry_equiv_pos_site_id
 _symmetry_equiv_pos_as_xyz
  1  'x, y, z'
loop_
 _atom_site_type_symbol
 _atom_site_label
 _atom_site_symmetry_multiplicity
 _atom_site_fract_x
 _atom_site_fract_y
 _atom_site_fract_z
 _atom_site_occupancy
  La  La0  1  0.494020  0.321925  0.900808  1
  La  La1  1  0.992774  0.177976  0.600062  1
  La  La2  1  0.507456  0.678106  0.400817  1
  La  La3  1  0.007164  0.820014  0.097284  1
  La  La4  1  0.506328  0.678375  0.098794  1
  La  La5  1  0.007417  0.821347  0.401019  1
  La  La6  1  0.492578  0.321419  0.599971  1
  La  La7  1  0.992603  0.179448  0.901032  1
  Yb  Yb8  1  0.840259  0.667199  0.876888  1
  Yb  Yb9  1  0.171868  0.498865  0.750723  1
  Yb  Yb10  1  0.675790  0.000403  0.750898  1
  Yb  Yb11  1  0.825810  0.503093  0.249711  1
  Yb  Yb12  1  0.325369  0.996307  0.249953  1
  Ho  Ho13  1  0.341017  0.833824  0.875634  1
  Ho  Ho14  1  0.841158  0.667051  0.623767  1
  Ho  Ho15  1  0.658917  0.167187  0.376197  1
  Ho  Ho16  1  0.158868  0.331647  0.124402  1
  Ho  Ho17  1  0.659425  0.167880  0.124082  1
  Ho  Ho18  1  0.158601  0.332337  0.376175  1
  Ho  Ho19  1  0.340729  0.832045  0.624047  1
  Pt  Pt20  1  0.319038  0.039519  0.039869  1
  Pt  Pt21  1  0.821735  0.459035  0.459995  1
  Pt  Pt22  1  0.677928  0.958091  0.539517  1
  Pt  Pt23  1  0.185636  0.539342  0.962407  1
  Pt  Pt24  1  0.674603  0.968971  0.960202  1
  Pt  Pt25  1  0.177195  0.540635  0.539616  1
  Pt  Pt26  1  0.322378  0.041429  0.460476  1
  Pt  Pt27  1  0.825602  0.456948  0.042299  1
  Pt  Pt28  1  0.538792  0.627553  0.748241  1
  Pt  Pt29  1  0.045283  0.873432  0.746473  1
  Pt  Pt30  1  0.457452  0.371023  0.250309  1
  Pt  Pt31  1  0.957736  0.127474  0.250355  1
  Pt  Pt32  1  0.301662  0.135143  0.750826  1
  Pt  Pt33  1  0.796404  0.365322  0.747683  1
  Pt  Pt34  1  0.700109  0.866766  0.249757  1
  Pt  Pt35  1  0.200297  0.632868  0.249709  1
