# generated using pymatgen
data_CeY2Lu2(FeB3)2
_symmetry_space_group_name_H-M   'P 1'
_cell_length_a   5.41400516
_cell_length_b   5.41400524
_cell_length_c   7.93249214
_cell_angle_alpha   70.04665016
_cell_angle_beta   70.04663918
_cell_angle_gamma   59.99999994
_symmetry_Int_Tables_number   1
_chemical_formula_structural   CeY2Lu2(FeB3)2
_chemical_formula_sum   'Ce1 Y2 Lu2 Fe2 B6'
_cell_volume   185.06987186
_cell_formula_units_Z   1
loop_
 _symmetry_equiv_pos_site_id
 _symmetry_equiv_pos_as_xyz
  1  'x, y, z'
loop_
 _atom_site_type_symbol
 _atom_site_label
 _atom_site_symmetry_multiplicity
 _atom_site_fract_x
 _atom_site_fract_y
 _atom_site_fract_z
 _atom_site_occupancy
  Ce  Ce0  1  0.000000  0.000000  0.000000  1
  Y  Y1  1  0.587268  0.587268  0.238199  1
  Y  Y2  1  0.412732  0.412732  0.761801  1
  Lu  Lu3  1  0.749018  0.749018  0.752948  1
  Lu  Lu4  1  0.250982  0.250982  0.247052  1
  Fe  Fe5  1  0.890048  0.890048  0.329854  1
  Fe  Fe6  1  0.109952  0.109952  0.670146  1
  B  B7  1  0.500000  0.167071  0.500000  1
  B  B8  1  0.832929  0.500000  0.500000  1
  B  B9  1  0.167071  0.832929  0.500000  1
  B  B10  1  0.167071  0.500000  0.500000  1
  B  B11  1  0.832929  0.167071  0.500000  1
  B  B12  1  0.500000  0.832929  0.500000  1
