# generated using pymatgen
data_Y2Ni17H3
_symmetry_space_group_name_H-M   'P 1'
_cell_length_a   6.27634425
_cell_length_b   6.27634397
_cell_length_c   6.27634504
_cell_angle_alpha   83.43590245
_cell_angle_beta   83.43590089
_cell_angle_gamma   83.43589173
_symmetry_Int_Tables_number   1
_chemical_formula_structural   Y2Ni17H3
_chemical_formula_sum   'Y2 Ni17 H3'
_cell_volume   242.72258408
_cell_formula_units_Z   1
loop_
 _symmetry_equiv_pos_site_id
 _symmetry_equiv_pos_as_xyz
  1  'x, y, z'
loop_
 _atom_site_type_symbol
 _atom_site_label
 _atom_site_symmetry_multiplicity
 _atom_site_fract_x
 _atom_site_fract_y
 _atom_site_fract_z
 _atom_site_occupancy
  Y  Y0  1  0.659096  0.659096  0.659096  1
  Y  Y1  1  0.340904  0.340904  0.340904  1
  Ni  Ni2  1  0.000000  0.000000  0.500000  1
  Ni  Ni3  1  0.000000  0.500000  0.000000  1
  Ni  Ni4  1  0.500000  0.000000  0.000000  1
  Ni  Ni5  1  0.289639  0.710361  0.000000  1
  Ni  Ni6  1  0.710361  0.000000  0.289639  1
  Ni  Ni7  1  0.000000  0.289639  0.710361  1
  Ni  Ni8  1  0.289639  0.000000  0.710361  1
  Ni  Ni9  1  0.000000  0.710361  0.289639  1
  Ni  Ni10  1  0.710361  0.289639  0.000000  1
  Ni  Ni11  1  0.346114  0.346114  0.849452  1
  Ni  Ni12  1  0.346114  0.849452  0.346114  1
  Ni  Ni13  1  0.849452  0.346114  0.346114  1
  Ni  Ni14  1  0.653886  0.653886  0.150548  1
  Ni  Ni15  1  0.653886  0.150548  0.653886  1
  Ni  Ni16  1  0.150548  0.653886  0.653886  1
  Ni  Ni17  1  0.901085  0.901085  0.901085  1
  Ni  Ni18  1  0.098915  0.098915  0.098915  1
  H  H19  1  0.500000  0.500000  0.000000  1
  H  H20  1  0.500000  0.000000  0.500000  1
  H  H21  1  0.000000  0.500000  0.500000  1
