# generated using pymatgen
data_Ca12Np3Ga12Sn5O48
_symmetry_space_group_name_H-M   'P 1'
_cell_length_a   11.10970199
_cell_length_b   11.12942927
_cell_length_c   11.10970219
_cell_angle_alpha   109.50719478
_cell_angle_beta   109.43522607
_cell_angle_gamma   109.50719350
_symmetry_Int_Tables_number   1
_chemical_formula_structural   Ca12Np3Ga12Sn5O48
_chemical_formula_sum   'Ca12 Np3 Ga12 Sn5 O48'
_cell_volume   1056.97036671
_cell_formula_units_Z   1
loop_
 _symmetry_equiv_pos_site_id
 _symmetry_equiv_pos_as_xyz
  1  'x, y, z'
loop_
 _atom_site_type_symbol
 _atom_site_label
 _atom_site_symmetry_multiplicity
 _atom_site_fract_x
 _atom_site_fract_y
 _atom_site_fract_z
 _atom_site_occupancy
  Ca  Ca0  1  0.250646  0.371847  0.122385  1
  Ca  Ca1  1  0.749354  0.628153  0.877615  1
  Ca  Ca2  1  0.755313  0.125961  0.382116  1
  Ca  Ca3  1  0.117884  0.243845  0.373197  1
  Ca  Ca4  1  0.377615  0.749462  0.128261  1
  Ca  Ca5  1  0.244687  0.874039  0.617884  1
  Ca  Ca6  1  0.882116  0.756155  0.626803  1
  Ca  Ca7  1  0.622385  0.250538  0.871739  1
  Ca  Ca8  1  0.371739  0.121201  0.249354  1
  Ca  Ca9  1  0.628261  0.878799  0.750646  1
  Ca  Ca10  1  0.126803  0.370648  0.744687  1
  Ca  Ca11  1  0.873197  0.629352  0.255313  1
  Np  Np12  1  0.500000  0.000000  0.000000  1
  Np  Np13  1  0.500000  0.500000  0.500000  1
  Np  Np14  1  0.000000  0.500000  0.000000  1
  Ga  Ga15  1  0.250827  0.629999  0.380085  1
  Ga  Ga16  1  0.749173  0.370001  0.619915  1
  Ga  Ga17  1  0.756501  0.873961  0.127884  1
  Ga  Ga18  1  0.372116  0.246076  0.628616  1
  Ga  Ga19  1  0.627884  0.753924  0.371384  1
  Ga  Ga20  1  0.243499  0.126039  0.872116  1
  Ga  Ga21  1  0.119915  0.749914  0.870742  1
  Ga  Ga22  1  0.880085  0.250086  0.129258  1
  Ga  Ga23  1  0.629258  0.379172  0.249173  1
  Ga  Ga24  1  0.370742  0.620828  0.750827  1
  Ga  Ga25  1  0.871384  0.117460  0.743499  1
  Ga  Ga26  1  0.128616  0.882540  0.256501  1
  Sn  Sn27  1  0.000000  0.000000  0.000000  1
  Sn  Sn28  1  0.500000  0.000000  0.500000  1
  Sn  Sn29  1  0.000000  0.500000  0.500000  1
  Sn  Sn30  1  0.500000  0.500000  0.000000  1
  Sn  Sn31  1  0.000000  0.000000  0.500000  1
  O  O32  1  0.478457  0.376086  0.293464  1
  O  O33  1  0.521543  0.623914  0.706536  1
  O  O34  1  0.582858  0.184801  0.205192  1
  O  O35  1  0.919540  0.123295  0.600081  1
  O  O36  1  0.294808  0.479609  0.377666  1
  O  O37  1  0.317699  0.916757  0.295371  1
  O  O38  1  0.417142  0.815199  0.794808  1
  O  O39  1  0.080460  0.876705  0.399919  1
  O  O40  1  0.705192  0.520391  0.622334  1
  O  O41  1  0.682301  0.083243  0.704629  1
  O  O42  1  0.018284  0.315654  0.898325  1
  O  O43  1  0.206536  0.582622  0.184993  1
  O  O44  1  0.123574  0.025114  0.205926  1
  O  O45  1  0.981716  0.684346  0.101675  1
  O  O46  1  0.793464  0.417378  0.815007  1
  O  O47  1  0.876426  0.974886  0.794074  1
  O  O48  1  0.601675  0.917329  0.119959  1
  O  O49  1  0.181384  0.475715  0.597741  1
  O  O50  1  0.398325  0.082671  0.880041  1
  O  O51  1  0.818616  0.524285  0.402259  1
  O  O52  1  0.899919  0.023214  0.319459  1
  O  O53  1  0.377062  0.583069  0.902753  1
  O  O54  1  0.100081  0.976786  0.680541  1
  O  O55  1  0.622938  0.416931  0.097247  1
  O  O56  1  0.380041  0.297371  0.481716  1
  O  O57  1  0.582352  0.901539  0.376426  1
  O  O58  1  0.619959  0.702629  0.518284  1
  O  O59  1  0.417648  0.098461  0.623574  1
  O  O60  1  0.122334  0.601944  0.917142  1
  O  O61  1  0.025690  0.206006  0.122938  1
  O  O62  1  0.877666  0.398056  0.082858  1
  O  O63  1  0.974310  0.793994  0.877062  1
  O  O64  1  0.315007  0.897629  0.021543  1
  O  O65  1  0.916358  0.294331  0.318616  1
  O  O66  1  0.684993  0.102371  0.978457  1
  O  O67  1  0.083642  0.705669  0.681384  1
  O  O68  1  0.180541  0.203755  0.580460  1
  O  O69  1  0.477672  0.599058  0.182301  1
  O  O70  1  0.819459  0.796245  0.419540  1
  O  O71  1  0.522328  0.400942  0.817699  1
  O  O72  1  0.294074  0.319187  0.917648  1
  O  O73  1  0.705926  0.680813  0.082352  1
  O  O74  1  0.204629  0.121386  0.022328  1
  O  O75  1  0.795371  0.878614  0.977672  1
  O  O76  1  0.902259  0.377973  0.583642  1
  O  O77  1  0.097741  0.622027  0.416358  1
  O  O78  1  0.597247  0.180316  0.474310  1
  O  O79  1  0.402753  0.819684  0.525690  1
