# generated using pymatgen
data_Pr5Sn2BiS
_symmetry_space_group_name_H-M   'P 1'
_cell_length_a   9.51512498
_cell_length_b   9.54126896
_cell_length_c   6.91059000
_cell_angle_alpha   90.00000000
_cell_angle_beta   90.00000000
_cell_angle_gamma   120.09094107
_symmetry_Int_Tables_number   1
_chemical_formula_structural   Pr5Sn2BiS
_chemical_formula_sum   'Pr10 Sn4 Bi2 S2'
_cell_volume   542.83480413
_cell_formula_units_Z   2
loop_
 _symmetry_equiv_pos_site_id
 _symmetry_equiv_pos_as_xyz
  1  'x, y, z'
loop_
 _atom_site_type_symbol
 _atom_site_label
 _atom_site_symmetry_multiplicity
 _atom_site_fract_x
 _atom_site_fract_y
 _atom_site_fract_z
 _atom_site_occupancy
  Pr  Pr0  1  0.669989  0.335830  0.002584  1
  Pr  Pr1  1  0.330011  0.665842  0.002584  1
  Pr  Pr2  1  0.330011  0.665842  0.497416  1
  Pr  Pr3  1  0.669989  0.335830  0.497416  1
  Pr  Pr4  1  0.758261  0.754361  0.750000  1
  Pr  Pr5  1  0.241739  0.996099  0.750000  1
  Pr  Pr6  1  0.000000  0.246280  0.750000  1
  Pr  Pr7  1  0.244817  0.244215  0.250000  1
  Pr  Pr8  1  0.755183  0.999399  0.250000  1
  Pr  Pr9  1  0.000000  0.754516  0.250000  1
  Sn  Sn10  1  0.000000  0.603356  0.750000  1
  Sn  Sn11  1  0.603807  0.604212  0.250000  1
  Sn  Sn12  1  0.396193  0.000404  0.250000  1
  Sn  Sn13  1  0.000000  0.396336  0.250000  1
  Bi  Bi14  1  0.395780  0.395809  0.750000  1
  Bi  Bi15  1  0.604220  0.000029  0.750000  1
  S  S16  1  0.000000  0.000820  0.999530  1
  S  S17  1  0.000000  0.000820  0.500470  1
