# generated using pymatgen
data_YbPb2(ClO)2
_symmetry_space_group_name_H-M   'P 1'
_cell_length_a   5.88754500
_cell_length_b   10.07207200
_cell_length_c   11.43949700
_cell_angle_alpha   90.00000000
_cell_angle_beta   90.00000000
_cell_angle_gamma   90.00000000
_symmetry_Int_Tables_number   1
_chemical_formula_structural   YbPb2(ClO)2
_chemical_formula_sum   'Yb4 Pb8 Cl8 O8'
_cell_volume   678.35962273
_cell_formula_units_Z   4
loop_
 _symmetry_equiv_pos_site_id
 _symmetry_equiv_pos_as_xyz
  1  'x, y, z'
loop_
 _atom_site_type_symbol
 _atom_site_label
 _atom_site_symmetry_multiplicity
 _atom_site_fract_x
 _atom_site_fract_y
 _atom_site_fract_z
 _atom_site_occupancy
  Yb  Yb0  1  0.250000  0.051040  0.073714  1
  Yb  Yb1  1  0.750000  0.948960  0.926286  1
  Yb  Yb2  1  0.750000  0.551040  0.426286  1
  Yb  Yb3  1  0.250000  0.448960  0.573714  1
  Pb  Pb4  1  0.250000  0.361238  0.281304  1
  Pb  Pb5  1  0.750000  0.638762  0.718696  1
  Pb  Pb6  1  0.750000  0.861238  0.218696  1
  Pb  Pb7  1  0.250000  0.138762  0.781304  1
  Pb  Pb8  1  0.250000  0.788351  0.555900  1
  Pb  Pb9  1  0.750000  0.211649  0.444100  1
  Pb  Pb10  1  0.750000  0.288351  0.944100  1
  Pb  Pb11  1  0.250000  0.711649  0.055900  1
  Cl  Cl12  1  0.250000  0.076392  0.323344  1
  Cl  Cl13  1  0.750000  0.923608  0.676656  1
  Cl  Cl14  1  0.750000  0.576392  0.176656  1
  Cl  Cl15  1  0.250000  0.423608  0.823344  1
  Cl  Cl16  1  0.250000  0.822656  0.819619  1
  Cl  Cl17  1  0.750000  0.177344  0.180381  1
  Cl  Cl18  1  0.750000  0.322656  0.680381  1
  Cl  Cl19  1  0.250000  0.677344  0.319619  1
  O  O20  1  0.001428  0.379807  0.426860  1
  O  O21  1  0.501428  0.620193  0.573140  1
  O  O22  1  0.998572  0.879807  0.073140  1
  O  O23  1  0.498572  0.120193  0.926860  1
  O  O24  1  0.998572  0.620193  0.573140  1
  O  O25  1  0.498572  0.379807  0.426860  1
  O  O26  1  0.001428  0.120193  0.926860  1
  O  O27  1  0.501428  0.879807  0.073140  1
