# generated using pymatgen
data_Ac3AlSn6
_symmetry_space_group_name_H-M   'P 1'
_cell_length_a   9.62037440
_cell_length_b   9.62037534
_cell_length_c   13.71943500
_cell_angle_alpha   90.00000000
_cell_angle_beta   90.00000000
_cell_angle_gamma   150.66195967
_symmetry_Int_Tables_number   1
_chemical_formula_structural   Ac3AlSn6
_chemical_formula_sum   'Ac6 Al2 Sn12'
_cell_volume   622.13126453
_cell_formula_units_Z   2
loop_
 _symmetry_equiv_pos_site_id
 _symmetry_equiv_pos_as_xyz
  1  'x, y, z'
loop_
 _atom_site_type_symbol
 _atom_site_label
 _atom_site_symmetry_multiplicity
 _atom_site_fract_x
 _atom_site_fract_y
 _atom_site_fract_z
 _atom_site_occupancy
  Ac  Ac0  1  0.606310  0.393690  0.250000  1
  Ac  Ac1  1  0.393690  0.606310  0.750000  1
  Ac  Ac2  1  0.395874  0.604126  0.412482  1
  Ac  Ac3  1  0.604126  0.395874  0.587518  1
  Ac  Ac4  1  0.395874  0.604126  0.087518  1
  Ac  Ac5  1  0.604126  0.395874  0.912482  1
  Al  Al6  1  0.816594  0.183406  0.250000  1
  Al  Al7  1  0.183406  0.816594  0.750000  1
  Sn  Sn8  1  0.942226  0.057774  0.922447  1
  Sn  Sn9  1  0.057774  0.942226  0.077553  1
  Sn  Sn10  1  0.942226  0.057774  0.577553  1
  Sn  Sn11  1  0.057774  0.942226  0.422447  1
  Sn  Sn12  1  0.964508  0.035492  0.250000  1
  Sn  Sn13  1  0.035492  0.964508  0.750000  1
  Sn  Sn14  1  0.747856  0.252145  0.429514  1
  Sn  Sn15  1  0.252145  0.747855  0.570486  1
  Sn  Sn16  1  0.747856  0.252145  0.070486  1
  Sn  Sn17  1  0.252145  0.747855  0.929514  1
  Sn  Sn18  1  0.240159  0.759841  0.250000  1
  Sn  Sn19  1  0.759841  0.240159  0.750000  1
