# generated using pymatgen
data_YEr2Fe8Co
_symmetry_space_group_name_H-M   'P 1'
_cell_length_a   8.61567769
_cell_length_b   8.61567915
_cell_length_c   8.61567744
_cell_angle_alpha   34.35896171
_cell_angle_beta   34.35896062
_cell_angle_gamma   34.35896189
_symmetry_Int_Tables_number   1
_chemical_formula_structural   YEr2Fe8Co
_chemical_formula_sum   'Y1 Er2 Fe8 Co1'
_cell_volume   181.68829699
_cell_formula_units_Z   1
loop_
 _symmetry_equiv_pos_site_id
 _symmetry_equiv_pos_as_xyz
  1  'x, y, z'
loop_
 _atom_site_type_symbol
 _atom_site_label
 _atom_site_symmetry_multiplicity
 _atom_site_fract_x
 _atom_site_fract_y
 _atom_site_fract_z
 _atom_site_occupancy
  Y  Y0  1  0.000000  0.000000  0.000000  1
  Er  Er1  1  0.142001  0.142001  0.142001  1
  Er  Er2  1  0.857999  0.857999  0.857999  1
  Fe  Fe3  1  0.418034  0.418034  0.917979  1
  Fe  Fe4  1  0.917979  0.418034  0.418034  1
  Fe  Fe5  1  0.581966  0.082021  0.581966  1
  Fe  Fe6  1  0.581966  0.581966  0.082021  1
  Fe  Fe7  1  0.418034  0.917979  0.418034  1
  Fe  Fe8  1  0.082021  0.581966  0.581966  1
  Fe  Fe9  1  0.332792  0.332792  0.332792  1
  Fe  Fe10  1  0.667208  0.667208  0.667208  1
  Co  Co11  1  0.500000  0.500000  0.500000  1
