# generated using pymatgen
data_Sr10InSi4Bi
_symmetry_space_group_name_H-M   'P 1'
_cell_length_a   8.19300000
_cell_length_b   8.19300000
_cell_length_c   16.51806800
_cell_angle_alpha   90.00000000
_cell_angle_beta   90.00000000
_cell_angle_gamma   90.00000000
_symmetry_Int_Tables_number   1
_chemical_formula_structural   Sr10InSi4Bi
_chemical_formula_sum   'Sr20 In2 Si8 Bi2'
_cell_volume   1108.77942750
_cell_formula_units_Z   2
loop_
 _symmetry_equiv_pos_site_id
 _symmetry_equiv_pos_as_xyz
  1  'x, y, z'
loop_
 _atom_site_type_symbol
 _atom_site_label
 _atom_site_symmetry_multiplicity
 _atom_site_fract_x
 _atom_site_fract_y
 _atom_site_fract_z
 _atom_site_occupancy
  Sr  Sr0  1  0.317574  0.673982  0.116325  1
  Sr  Sr1  1  0.173982  0.182426  0.116325  1
  Sr  Sr2  1  0.500000  0.000000  0.734787  1
  Sr  Sr3  1  0.332979  0.677695  0.386343  1
  Sr  Sr4  1  0.673982  0.682426  0.883675  1
  Sr  Sr5  1  0.177695  0.167021  0.386343  1
  Sr  Sr6  1  0.667021  0.322305  0.386343  1
  Sr  Sr7  1  0.167021  0.822305  0.613657  1
  Sr  Sr8  1  0.326018  0.317574  0.883675  1
  Sr  Sr9  1  0.182426  0.826018  0.883675  1
  Sr  Sr10  1  0.500000  0.000000  0.248436  1
  Sr  Sr11  1  0.832979  0.177695  0.613657  1
  Sr  Sr12  1  0.322305  0.332979  0.613657  1
  Sr  Sr13  1  0.822305  0.832979  0.386343  1
  Sr  Sr14  1  0.817574  0.173982  0.883675  1
  Sr  Sr15  1  0.826018  0.817574  0.116325  1
  Sr  Sr16  1  0.000000  0.500000  0.265213  1
  Sr  Sr17  1  0.000000  0.500000  0.751564  1
  Sr  Sr18  1  0.682426  0.326018  0.116325  1
  Sr  Sr19  1  0.677695  0.667021  0.613657  1
  In  In20  1  0.500000  0.000000  0.504517  1
  In  In21  1  0.000000  0.500000  0.495483  1
  Si  Si22  1  0.108782  0.108416  0.753761  1
  Si  Si23  1  0.391584  0.608782  0.753761  1
  Si  Si24  1  0.608782  0.608416  0.246239  1
  Si  Si25  1  0.108416  0.891218  0.246239  1
  Si  Si26  1  0.608416  0.391218  0.753761  1
  Si  Si27  1  0.891218  0.891584  0.753761  1
  Si  Si28  1  0.391218  0.391584  0.246239  1
  Si  Si29  1  0.891584  0.108782  0.246239  1
  Bi  Bi30  1  0.000000  0.500000  0.995157  1
  Bi  Bi31  1  0.500000  0.000000  0.004843  1
