# generated using pymatgen
data_Er2ThSn3Ir2Ru
_symmetry_space_group_name_H-M   'P 1'
_cell_length_a   7.53950202
_cell_length_b   7.53950214
_cell_length_c   3.93709900
_cell_angle_alpha   90.00000000
_cell_angle_beta   90.00000000
_cell_angle_gamma   119.36127614
_symmetry_Int_Tables_number   1
_chemical_formula_structural   Er2ThSn3Ir2Ru
_chemical_formula_sum   'Er2 Th1 Sn3 Ir2 Ru1'
_cell_volume   195.05257049
_cell_formula_units_Z   1
loop_
 _symmetry_equiv_pos_site_id
 _symmetry_equiv_pos_as_xyz
  1  'x, y, z'
loop_
 _atom_site_type_symbol
 _atom_site_label
 _atom_site_symmetry_multiplicity
 _atom_site_fract_x
 _atom_site_fract_y
 _atom_site_fract_z
 _atom_site_occupancy
  Er  Er0  1  0.593584  0.999001  0.500000  1
  Er  Er1  1  0.999001  0.593584  0.500000  1
  Th  Th2  1  0.412585  0.412585  0.500000  1
  Sn  Sn3  1  0.755292  0.755292  0.000000  1
  Sn  Sn4  1  0.255923  0.987949  0.000000  1
  Sn  Sn5  1  0.987949  0.255923  0.000000  1
  Ir  Ir6  1  0.655918  0.333393  0.000000  1
  Ir  Ir7  1  0.333393  0.655918  0.000000  1
  Ru  Ru8  1  0.006356  0.006356  0.500000  1
