# generated using pymatgen
data_Cs5La(PSe3)4
_symmetry_space_group_name_H-M   'P 1'
_cell_length_a   14.24338700
_cell_length_b   14.24338700
_cell_length_c   7.76650400
_cell_angle_alpha   90.00000000
_cell_angle_beta   90.00000000
_cell_angle_gamma   90.00000000
_symmetry_Int_Tables_number   1
_chemical_formula_structural   Cs5La(PSe3)4
_chemical_formula_sum   'Cs10 La2 P8 Se24'
_cell_volume   1575.62230125
_cell_formula_units_Z   2
loop_
 _symmetry_equiv_pos_site_id
 _symmetry_equiv_pos_as_xyz
  1  'x, y, z'
loop_
 _atom_site_type_symbol
 _atom_site_label
 _atom_site_symmetry_multiplicity
 _atom_site_fract_x
 _atom_site_fract_y
 _atom_site_fract_z
 _atom_site_occupancy
  Cs  Cs0  1  0.000000  0.000000  0.500000  1
  Cs  Cs1  1  0.000000  0.000000  0.000000  1
  Cs  Cs2  1  0.319858  0.343036  0.500000  1
  Cs  Cs3  1  0.680142  0.656964  0.500000  1
  Cs  Cs4  1  0.656964  0.319858  0.000000  1
  Cs  Cs5  1  0.343036  0.680142  0.000000  1
  Cs  Cs6  1  0.317110  0.971649  0.500000  1
  Cs  Cs7  1  0.682890  0.028351  0.500000  1
  Cs  Cs8  1  0.028351  0.317110  0.000000  1
  Cs  Cs9  1  0.971649  0.682890  0.000000  1
  La  La10  1  0.000000  0.500000  0.500000  1
  La  La11  1  0.500000  0.000000  0.000000  1
  P  P12  1  0.209011  0.613947  0.500000  1
  P  P13  1  0.790989  0.386053  0.500000  1
  P  P14  1  0.386053  0.209011  0.000000  1
  P  P15  1  0.613947  0.790989  0.000000  1
  P  P16  1  0.119888  0.749485  0.500000  1
  P  P17  1  0.880112  0.250515  0.500000  1
  P  P18  1  0.250515  0.119888  0.000000  1
  P  P19  1  0.749485  0.880112  0.000000  1
  Se  Se20  1  0.154913  0.823653  0.262187  1
  Se  Se21  1  0.845087  0.176347  0.262187  1
  Se  Se22  1  0.176347  0.154913  0.762187  1
  Se  Se23  1  0.823653  0.845087  0.762187  1
  Se  Se24  1  0.845087  0.176347  0.737813  1
  Se  Se25  1  0.154913  0.823653  0.737813  1
  Se  Se26  1  0.823653  0.845087  0.237813  1
  Se  Se27  1  0.176347  0.154913  0.237813  1
  Se  Se28  1  0.031434  0.294593  0.500000  1
  Se  Se29  1  0.968566  0.705407  0.500000  1
  Se  Se30  1  0.705407  0.031434  0.000000  1
  Se  Se31  1  0.294593  0.968566  0.000000  1
  Se  Se32  1  0.356809  0.644004  0.500000  1
  Se  Se33  1  0.643191  0.355996  0.500000  1
  Se  Se34  1  0.355996  0.356809  0.000000  1
  Se  Se35  1  0.644004  0.643191  0.000000  1
  Se  Se36  1  0.163342  0.535760  0.262420  1
  Se  Se37  1  0.836658  0.464240  0.262420  1
  Se  Se38  1  0.464240  0.163342  0.762420  1
  Se  Se39  1  0.535760  0.836658  0.762420  1
  Se  Se40  1  0.836658  0.464240  0.737580  1
  Se  Se41  1  0.163342  0.535760  0.737580  1
  Se  Se42  1  0.535760  0.836658  0.237580  1
  Se  Se43  1  0.464240  0.163342  0.237580  1
