# generated using pymatgen
data_Ca6ReMoHN6
_symmetry_space_group_name_H-M   'P 1'
_cell_length_a   6.15527485
_cell_length_b   6.15527549
_cell_length_c   6.15527624
_cell_angle_alpha   95.71459998
_cell_angle_beta   95.71459454
_cell_angle_gamma   95.71460525
_symmetry_Int_Tables_number   1
_chemical_formula_structural   Ca6ReMoHN6
_chemical_formula_sum   'Ca6 Re1 Mo1 H1 N6'
_cell_volume   229.47912801
_cell_formula_units_Z   1
loop_
 _symmetry_equiv_pos_site_id
 _symmetry_equiv_pos_as_xyz
  1  'x, y, z'
loop_
 _atom_site_type_symbol
 _atom_site_label
 _atom_site_symmetry_multiplicity
 _atom_site_fract_x
 _atom_site_fract_y
 _atom_site_fract_z
 _atom_site_occupancy
  Ca  Ca0  1  0.631220  0.117963  0.790313  1
  Ca  Ca1  1  0.117963  0.790313  0.631220  1
  Ca  Ca2  1  0.790313  0.631220  0.117963  1
  Ca  Ca3  1  0.370178  0.880562  0.209655  1
  Ca  Ca4  1  0.880562  0.209655  0.370178  1
  Ca  Ca5  1  0.209655  0.370178  0.880562  1
  Re  Re6  1  0.371477  0.371477  0.371477  1
  Mo  Mo7  1  0.624211  0.624211  0.624211  1
  H  H8  1  0.000049  0.000049  0.000049  1
  N  N9  1  0.736119  0.863880  0.469504  1
  N  N10  1  0.863880  0.469504  0.736119  1
  N  N11  1  0.469504  0.736119  0.863880  1
  N  N12  1  0.265576  0.138504  0.530789  1
  N  N13  1  0.138504  0.530789  0.265576  1
  N  N14  1  0.530789  0.265576  0.138504  1
