# generated using pymatgen
data_Sc20Si9As6Se
_symmetry_space_group_name_H-M   'P 1'
_cell_length_a   7.11986924
_cell_length_b   7.15828326
_cell_length_c   13.70480089
_cell_angle_alpha   89.94961269
_cell_angle_beta   89.66428697
_cell_angle_gamma   90.13145161
_symmetry_Int_Tables_number   1
_chemical_formula_structural   Sc20Si9As6Se
_chemical_formula_sum   'Sc20 Si9 As6 Se1'
_cell_volume   698.46533443
_cell_formula_units_Z   1
loop_
 _symmetry_equiv_pos_site_id
 _symmetry_equiv_pos_as_xyz
  1  'x, y, z'
loop_
 _atom_site_type_symbol
 _atom_site_label
 _atom_site_symmetry_multiplicity
 _atom_site_fract_x
 _atom_site_fract_y
 _atom_site_fract_z
 _atom_site_occupancy
  Sc  Sc0  1  0.233357  0.996601  0.750115  1
  Sc  Sc1  1  0.766371  0.003134  0.249523  1
  Sc  Sc2  1  0.266987  0.500902  0.247803  1
  Sc  Sc3  1  0.733490  0.499599  0.748405  1
  Sc  Sc4  1  0.067300  0.668437  0.612961  1
  Sc  Sc5  1  0.933273  0.331371  0.387375  1
  Sc  Sc6  1  0.433084  0.170988  0.386918  1
  Sc  Sc7  1  0.942955  0.331871  0.111600  1
  Sc  Sc8  1  0.567136  0.828948  0.613124  1
  Sc  Sc9  1  0.068624  0.669312  0.888190  1
  Sc  Sc10  1  0.555632  0.826906  0.889919  1
  Sc  Sc11  1  0.432309  0.173514  0.112714  1
  Sc  Sc12  1  0.406023  0.332366  0.617425  1
  Sc  Sc13  1  0.594641  0.667035  0.382343  1
  Sc  Sc14  1  0.093860  0.834538  0.382671  1
  Sc  Sc15  1  0.595980  0.668190  0.119310  1
  Sc  Sc16  1  0.904626  0.164363  0.618255  1
  Sc  Sc17  1  0.400073  0.331970  0.882660  1
  Sc  Sc18  1  0.905464  0.162345  0.881843  1
  Sc  Sc19  1  0.097847  0.833111  0.117794  1
  Si  Si20  1  0.108371  0.376097  0.750064  1
  Si  Si21  1  0.891465  0.623419  0.250165  1
  Si  Si22  1  0.390862  0.879760  0.250572  1
  Si  Si23  1  0.608253  0.120096  0.751143  1
  Si  Si24  1  0.361233  0.626569  0.750214  1
  Si  Si25  1  0.641568  0.372917  0.249547  1
  Si  Si26  1  0.139388  0.129897  0.250011  1
  Si  Si27  1  0.858815  0.868748  0.751387  1
  Si  Si28  1  0.264959  0.515603  0.045364  1
  As  As29  1  0.241422  0.008013  0.547305  1
  As  As30  1  0.757723  0.992327  0.452833  1
  As  As31  1  0.258995  0.508882  0.452549  1
  As  As32  1  0.757531  0.990953  0.046176  1
  As  As33  1  0.742286  0.490909  0.547020  1
  As  As34  1  0.236345  0.011564  0.952892  1
  Se  Se35  1  0.741752  0.488748  0.951810  1
