# generated using pymatgen
data_Tb5CoTe2
_symmetry_space_group_name_H-M   'P 1'
_cell_length_a   8.02418600
_cell_length_b   8.53755700
_cell_length_c   12.53661000
_cell_angle_alpha   90.00000000
_cell_angle_beta   90.00000000
_cell_angle_gamma   90.00000000
_symmetry_Int_Tables_number   1
_chemical_formula_structural   Tb5CoTe2
_chemical_formula_sum   'Tb20 Co4 Te8'
_cell_volume   858.84485619
_cell_formula_units_Z   4
loop_
 _symmetry_equiv_pos_site_id
 _symmetry_equiv_pos_as_xyz
  1  'x, y, z'
loop_
 _atom_site_type_symbol
 _atom_site_label
 _atom_site_symmetry_multiplicity
 _atom_site_fract_x
 _atom_site_fract_y
 _atom_site_fract_z
 _atom_site_occupancy
  Tb  Tb0  1  0.151678  0.750000  0.196564  1
  Tb  Tb1  1  0.651678  0.250000  0.303436  1
  Tb  Tb2  1  0.848322  0.250000  0.803436  1
  Tb  Tb3  1  0.348322  0.750000  0.696564  1
  Tb  Tb4  1  0.452569  0.750000  0.000412  1
  Tb  Tb5  1  0.952569  0.250000  0.499588  1
  Tb  Tb6  1  0.547431  0.250000  0.999588  1
  Tb  Tb7  1  0.047431  0.750000  0.500412  1
  Tb  Tb8  1  0.619491  0.750000  0.310209  1
  Tb  Tb9  1  0.119491  0.250000  0.189791  1
  Tb  Tb10  1  0.380509  0.250000  0.689791  1
  Tb  Tb11  1  0.880509  0.750000  0.810209  1
  Tb  Tb12  1  0.823614  0.958812  0.067342  1
  Tb  Tb13  1  0.323614  0.041188  0.432658  1
  Tb  Tb14  1  0.176386  0.458812  0.932658  1
  Tb  Tb15  1  0.676386  0.541188  0.567342  1
  Tb  Tb16  1  0.176386  0.041188  0.932658  1
  Tb  Tb17  1  0.676386  0.958812  0.567342  1
  Tb  Tb18  1  0.823614  0.541188  0.067342  1
  Tb  Tb19  1  0.323614  0.458812  0.432658  1
  Co  Co20  1  0.425621  0.750000  0.488457  1
  Co  Co21  1  0.925621  0.250000  0.011543  1
  Co  Co22  1  0.574379  0.250000  0.511543  1
  Co  Co23  1  0.074379  0.750000  0.988457  1
  Te  Te24  1  0.930900  0.989238  0.324117  1
  Te  Te25  1  0.430900  0.010762  0.175883  1
  Te  Te26  1  0.069100  0.489238  0.675883  1
  Te  Te27  1  0.569100  0.510762  0.824117  1
  Te  Te28  1  0.069100  0.010762  0.675883  1
  Te  Te29  1  0.569100  0.989238  0.824117  1
  Te  Te30  1  0.930900  0.510762  0.324117  1
  Te  Te31  1  0.430900  0.489238  0.175883  1
