# generated using pymatgen
data_Eu2Re3B4C
_symmetry_space_group_name_H-M   'P 1'
_cell_length_a   5.74774992
_cell_length_b   5.74775019
_cell_length_c   8.11433266
_cell_angle_alpha   57.11679454
_cell_angle_beta   57.11679435
_cell_angle_gamma   41.93872537
_symmetry_Int_Tables_number   1
_chemical_formula_structural   Eu2Re3B4C
_chemical_formula_sum   'Eu2 Re3 B4 C1'
_cell_volume   145.76388491
_cell_formula_units_Z   1
loop_
 _symmetry_equiv_pos_site_id
 _symmetry_equiv_pos_as_xyz
  1  'x, y, z'
loop_
 _atom_site_type_symbol
 _atom_site_label
 _atom_site_symmetry_multiplicity
 _atom_site_fract_x
 _atom_site_fract_y
 _atom_site_fract_z
 _atom_site_occupancy
  Eu  Eu0  1  0.386465  0.936076  0.240015  1
  Eu  Eu1  1  0.063924  0.613535  0.759985  1
  Re  Re2  1  0.867840  0.393542  0.593752  1
  Re  Re3  1  0.990091  0.009909  0.000000  1
  Re  Re4  1  0.606458  0.132160  0.406248  1
  B  B5  1  0.084651  0.639326  0.311947  1
  B  B6  1  0.518190  0.536482  0.880096  1
  B  B7  1  0.360674  0.915349  0.688053  1
  B  B8  1  0.463518  0.481810  0.119904  1
  C  C9  1  0.723190  0.276810  0.500000  1
