# generated using pymatgen
data_Ho3Tm7In8Pt3Rh
_symmetry_space_group_name_H-M   'P 1'
_cell_length_a   3.59042600
_cell_length_b   8.10000804
_cell_length_c   18.14578200
_cell_angle_alpha   89.99389800
_cell_angle_beta   90.00000000
_cell_angle_gamma   90.00000000
_symmetry_Int_Tables_number   1
_chemical_formula_structural   Ho3Tm7In8Pt3Rh
_chemical_formula_sum   'Ho3 Tm7 In8 Pt3 Rh1'
_cell_volume   527.72432945
_cell_formula_units_Z   1
loop_
 _symmetry_equiv_pos_site_id
 _symmetry_equiv_pos_as_xyz
  1  'x, y, z'
loop_
 _atom_site_type_symbol
 _atom_site_label
 _atom_site_symmetry_multiplicity
 _atom_site_fract_x
 _atom_site_fract_y
 _atom_site_fract_z
 _atom_site_occupancy
  Ho  Ho0  1  0.000000  0.749298  0.278836  1
  Ho  Ho1  1  0.000000  0.999716  0.000111  1
  Ho  Ho2  1  0.000000  0.500526  0.499584  1
  Tm  Tm3  1  0.000000  0.113964  0.412173  1
  Tm  Tm4  1  0.000000  0.883465  0.584875  1
  Tm  Tm5  1  0.000000  0.383861  0.915055  1
  Tm  Tm6  1  0.000000  0.616204  0.086245  1
  Tm  Tm7  1  0.000000  0.237848  0.222247  1
  Tm  Tm8  1  0.000000  0.758540  0.779186  1
  Tm  Tm9  1  0.000000  0.257944  0.721170  1
  In  In10  1  0.500000  0.421819  0.351271  1
  In  In11  1  0.500000  0.577070  0.648638  1
  In  In12  1  0.500000  0.076768  0.851515  1
  In  In13  1  0.500000  0.926958  0.149413  1
  In  In14  1  0.500000  0.291729  0.067192  1
  In  In15  1  0.500000  0.707723  0.933669  1
  In  In16  1  0.500000  0.207849  0.566216  1
  In  In17  1  0.500000  0.792726  0.431428  1
  Pt  Pt18  1  0.500000  0.976124  0.696059  1
  Pt  Pt19  1  0.500000  0.476323  0.803772  1
  Pt  Pt20  1  0.500000  0.520802  0.196571  1
  Rh  Rh21  1  0.500000  0.022741  0.304773  1
