# generated using pymatgen
data_Ta4VSe8
_symmetry_space_group_name_H-M   'P 1'
_cell_length_a   6.94536500
_cell_length_b   6.94536516
_cell_length_c   12.94306100
_cell_angle_alpha   90.00000000
_cell_angle_beta   90.00000000
_cell_angle_gamma   119.99999448
_symmetry_Int_Tables_number   1
_chemical_formula_structural   Ta4VSe8
_chemical_formula_sum   'Ta8 V2 Se16'
_cell_volume   540.70179590
_cell_formula_units_Z   2
loop_
 _symmetry_equiv_pos_site_id
 _symmetry_equiv_pos_as_xyz
  1  'x, y, z'
loop_
 _atom_site_type_symbol
 _atom_site_label
 _atom_site_symmetry_multiplicity
 _atom_site_fract_x
 _atom_site_fract_y
 _atom_site_fract_z
 _atom_site_occupancy
  Ta  Ta0  1  0.000000  0.000000  0.250000  1
  Ta  Ta1  1  0.000000  0.000000  0.750000  1
  Ta  Ta2  1  0.507606  0.015213  0.250000  1
  Ta  Ta3  1  0.492394  0.984787  0.750000  1
  Ta  Ta4  1  0.984787  0.492394  0.250000  1
  Ta  Ta5  1  0.015213  0.507606  0.750000  1
  Ta  Ta6  1  0.507606  0.492394  0.250000  1
  Ta  Ta7  1  0.492394  0.507606  0.750000  1
  V  V8  1  0.000000  0.000000  0.000000  1
  V  V9  1  0.000000  0.000000  0.500000  1
  Se  Se10  1  0.333333  0.666667  0.615944  1
  Se  Se11  1  0.666667  0.333333  0.384056  1
  Se  Se12  1  0.666667  0.333333  0.115944  1
  Se  Se13  1  0.333333  0.666667  0.884056  1
  Se  Se14  1  0.168062  0.336124  0.121199  1
  Se  Se15  1  0.831938  0.663876  0.878801  1
  Se  Se16  1  0.663876  0.831938  0.121199  1
  Se  Se17  1  0.831938  0.663876  0.621199  1
  Se  Se18  1  0.336124  0.168062  0.878801  1
  Se  Se19  1  0.168062  0.336124  0.378801  1
  Se  Se20  1  0.168062  0.831938  0.121199  1
  Se  Se21  1  0.336124  0.168062  0.621199  1
  Se  Se22  1  0.831938  0.168062  0.878801  1
  Se  Se23  1  0.663876  0.831938  0.378801  1
  Se  Se24  1  0.831938  0.168062  0.621199  1
  Se  Se25  1  0.168062  0.831938  0.378801  1
