# generated using pymatgen
data_Tb4Sn6Ir3Rh4
_symmetry_space_group_name_H-M   'P 1'
_cell_length_a   7.62483509
_cell_length_b   7.62483627
_cell_length_c   7.62985400
_cell_angle_alpha   109.48454661
_cell_angle_beta   109.48454974
_cell_angle_gamma   109.45788512
_symmetry_Int_Tables_number   1
_chemical_formula_structural   Tb4Sn6Ir3Rh4
_chemical_formula_sum   'Tb4 Sn6 Ir3 Rh4'
_cell_volume   341.41600857
_cell_formula_units_Z   1
loop_
 _symmetry_equiv_pos_site_id
 _symmetry_equiv_pos_as_xyz
  1  'x, y, z'
loop_
 _atom_site_type_symbol
 _atom_site_label
 _atom_site_symmetry_multiplicity
 _atom_site_fract_x
 _atom_site_fract_y
 _atom_site_fract_z
 _atom_site_occupancy
  Tb  Tb0  1  0.000000  0.000000  0.500000  1
  Tb  Tb1  1  0.003212  0.501606  0.001606  1
  Tb  Tb2  1  0.498394  0.996788  0.998394  1
  Tb  Tb3  1  0.498394  0.501606  0.500000  1
  Sn  Sn4  1  0.685425  0.684107  0.999870  1
  Sn  Sn5  1  0.315893  0.001318  0.315764  1
  Sn  Sn6  1  0.998682  0.314575  0.314446  1
  Sn  Sn7  1  0.315893  0.314575  0.000130  1
  Sn  Sn8  1  0.685425  0.001318  0.685554  1
  Sn  Sn9  1  0.998682  0.684107  0.684236  1
  Ir  Ir10  1  0.250108  0.500216  0.750108  1
  Ir  Ir11  1  0.250108  0.749892  0.500000  1
  Ir  Ir12  1  0.499784  0.749892  0.249892  1
  Rh  Rh13  1  0.750086  0.249914  0.500000  1
  Rh  Rh14  1  0.750086  0.500173  0.250086  1
  Rh  Rh15  1  0.499827  0.249914  0.749914  1
  Rh  Rh16  1  0.000000  0.000000  0.000000  1
