# generated using pymatgen
data_Sc2Co6Si7Ru6
_symmetry_space_group_name_H-M   'P 1'
_cell_length_a   9.26563400
_cell_length_b   9.26563276
_cell_length_c   3.74424200
_cell_angle_alpha   90.00000000
_cell_angle_beta   90.00000000
_cell_angle_gamma   120.00000441
_symmetry_Int_Tables_number   1
_chemical_formula_structural   Sc2Co6Si7Ru6
_chemical_formula_sum   'Sc2 Co6 Si7 Ru6'
_cell_volume   278.38430559
_cell_formula_units_Z   1
loop_
 _symmetry_equiv_pos_site_id
 _symmetry_equiv_pos_as_xyz
  1  'x, y, z'
loop_
 _atom_site_type_symbol
 _atom_site_label
 _atom_site_symmetry_multiplicity
 _atom_site_fract_x
 _atom_site_fract_y
 _atom_site_fract_z
 _atom_site_occupancy
  Sc  Sc0  1  0.666667  0.333333  0.000000  1
  Sc  Sc1  1  0.000000  0.000000  0.500000  1
  Co  Co2  1  0.759323  0.034640  0.000000  1
  Co  Co3  1  0.965360  0.724683  0.000000  1
  Co  Co4  1  0.275317  0.240677  0.000000  1
  Co  Co5  1  0.485690  0.542298  0.000000  1
  Co  Co6  1  0.457702  0.943393  0.000000  1
  Co  Co7  1  0.056607  0.514310  0.000000  1
  Si  Si8  1  0.744667  0.783907  0.000000  1
  Si  Si9  1  0.216093  0.960760  0.000000  1
  Si  Si10  1  0.039240  0.255333  0.000000  1
  Si  Si11  1  0.445758  0.382579  0.500000  1
  Si  Si12  1  0.617421  0.063178  0.500000  1
  Si  Si13  1  0.936822  0.554242  0.500000  1
  Si  Si14  1  0.333333  0.666667  0.000000  1
  Ru  Ru15  1  0.721903  0.614895  0.500000  1
  Ru  Ru16  1  0.385105  0.107008  0.500000  1
  Ru  Ru17  1  0.892992  0.278097  0.500000  1
  Ru  Ru18  1  0.544618  0.779247  0.500000  1
  Ru  Ru19  1  0.220753  0.765373  0.500000  1
  Ru  Ru20  1  0.234627  0.455382  0.500000  1
