# generated using pymatgen
data_Zr(Nb3As2)2
_symmetry_space_group_name_H-M   'P 1'
_cell_length_a   7.95908189
_cell_length_b   7.95908287
_cell_length_c   14.44777838
_cell_angle_alpha   75.90907830
_cell_angle_beta   75.90907669
_cell_angle_gamma   26.00835336
_symmetry_Int_Tables_number   1
_chemical_formula_structural   Zr(Nb3As2)2
_chemical_formula_sum   'Zr2 Nb12 As8'
_cell_volume   388.59710883
_cell_formula_units_Z   2
loop_
 _symmetry_equiv_pos_site_id
 _symmetry_equiv_pos_as_xyz
  1  'x, y, z'
loop_
 _atom_site_type_symbol
 _atom_site_label
 _atom_site_symmetry_multiplicity
 _atom_site_fract_x
 _atom_site_fract_y
 _atom_site_fract_z
 _atom_site_occupancy
  Zr  Zr0  1  0.176898  0.176898  0.453610  1
  Zr  Zr1  1  0.823102  0.823102  0.546390  1
  Nb  Nb2  1  0.000000  0.000000  0.000000  1
  Nb  Nb3  1  0.500000  0.500000  0.500000  1
  Nb  Nb4  1  0.430386  0.430386  0.171703  1
  Nb  Nb5  1  0.569614  0.569614  0.828297  1
  Nb  Nb6  1  0.193383  0.193383  0.696456  1
  Nb  Nb7  1  0.806617  0.806617  0.303544  1
  Nb  Nb8  1  0.212438  0.212438  0.197130  1
  Nb  Nb9  1  0.787562  0.787562  0.802870  1
  Nb  Nb10  1  0.333039  0.333039  0.970143  1
  Nb  Nb11  1  0.666961  0.666961  0.029857  1
  Nb  Nb12  1  0.000749  0.000749  0.334476  1
  Nb  Nb13  1  0.999251  0.999251  0.665524  1
  As  As14  1  0.173007  0.173007  0.892549  1
  As  As15  1  0.826993  0.826993  0.107451  1
  As  As16  1  0.372336  0.372336  0.398556  1
  As  As17  1  0.627664  0.627664  0.601444  1
  As  As18  1  0.371614  0.371614  0.670483  1
  As  As19  1  0.628386  0.628386  0.329517  1
  As  As20  1  0.063416  0.063416  0.150099  1
  As  As21  1  0.936584  0.936584  0.849901  1
