# generated using pymatgen
data_BaLu2(SeO3)4
_symmetry_space_group_name_H-M   'P 1'
_cell_length_a   7.86583796
_cell_length_b   5.77241700
_cell_length_c   7.70405109
_cell_angle_alpha   90.00000000
_cell_angle_beta   91.56838857
_cell_angle_gamma   90.00000000
_symmetry_Int_Tables_number   1
_chemical_formula_structural   BaLu2(SeO3)4
_chemical_formula_sum   'Ba1 Lu2 Se4 O12'
_cell_volume   349.67059715
_cell_formula_units_Z   1
loop_
 _symmetry_equiv_pos_site_id
 _symmetry_equiv_pos_as_xyz
  1  'x, y, z'
loop_
 _atom_site_type_symbol
 _atom_site_label
 _atom_site_symmetry_multiplicity
 _atom_site_fract_x
 _atom_site_fract_y
 _atom_site_fract_z
 _atom_site_occupancy
  Ba  Ba0  1  0.500001  0.500000  0.500001  1
  Lu  Lu1  1  0.499999  0.000000  0.999999  1
  Lu  Lu2  1  0.000000  0.500000  0.500000  1
  Se  Se3  1  0.720505  0.500000  0.098469  1
  Se  Se4  1  0.123091  0.000000  0.296559  1
  Se  Se5  1  0.876909  0.000000  0.703440  1
  Se  Se6  1  0.279495  0.500000  0.901531  1
  O  O7  1  0.262006  0.000000  0.131373  1
  O  O8  1  0.598056  0.275377  0.178237  1
  O  O9  1  0.598056  0.724623  0.178237  1
  O  O10  1  0.891946  0.500000  0.239583  1
  O  O11  1  0.191534  0.235109  0.422187  1
  O  O12  1  0.191534  0.764893  0.422187  1
  O  O13  1  0.808466  0.235109  0.577813  1
  O  O14  1  0.808466  0.764893  0.577813  1
  O  O15  1  0.108056  0.500000  0.760418  1
  O  O16  1  0.401944  0.275377  0.821763  1
  O  O17  1  0.401944  0.724623  0.821763  1
  O  O18  1  0.737994  0.000000  0.868627  1
