# generated using pymatgen
data_Th3Cu2(Si2Ir)2
_symmetry_space_group_name_H-M   'P 1'
_cell_length_a   4.13008049
_cell_length_b   4.09858228
_cell_length_c   12.55669635
_cell_angle_alpha   99.39285496
_cell_angle_beta   99.46571077
_cell_angle_gamma   90.00000753
_symmetry_Int_Tables_number   1
_chemical_formula_structural   Th3Cu2(Si2Ir)2
_chemical_formula_sum   'Th3 Cu2 Si4 Ir2'
_cell_volume   206.76939171
_cell_formula_units_Z   1
loop_
 _symmetry_equiv_pos_site_id
 _symmetry_equiv_pos_as_xyz
  1  'x, y, z'
loop_
 _atom_site_type_symbol
 _atom_site_label
 _atom_site_symmetry_multiplicity
 _atom_site_fract_x
 _atom_site_fract_y
 _atom_site_fract_z
 _atom_site_occupancy
  Th  Th0  1  0.853436  0.353436  0.706874  1
  Th  Th1  1  0.146564  0.646564  0.293126  1
  Th  Th2  1  0.000000  0.000000  0.000000  1
  Cu  Cu3  1  0.596530  0.096530  0.193061  1
  Cu  Cu4  1  0.403470  0.903470  0.806939  1
  Si  Si5  1  0.450931  0.450931  0.901863  1
  Si  Si6  1  0.549069  0.549069  0.098137  1
  Si  Si7  1  0.694722  0.194722  0.389444  1
  Si  Si8  1  0.305278  0.805278  0.610556  1
  Ir  Ir9  1  0.249247  0.249247  0.498494  1
  Ir  Ir10  1  0.750753  0.750753  0.501506  1
