# generated using pymatgen
data_Tm12Ru3Rh
_symmetry_space_group_name_H-M   'P 1'
_cell_length_a   6.23238340
_cell_length_b   7.23829848
_cell_length_c   9.03285700
_cell_angle_alpha   90.00000000
_cell_angle_beta   90.00000000
_cell_angle_gamma   90.04156905
_symmetry_Int_Tables_number   1
_chemical_formula_structural   Tm12Ru3Rh
_chemical_formula_sum   'Tm12 Ru3 Rh1'
_cell_volume   407.48879492
_cell_formula_units_Z   1
loop_
 _symmetry_equiv_pos_site_id
 _symmetry_equiv_pos_as_xyz
  1  'x, y, z'
loop_
 _atom_site_type_symbol
 _atom_site_label
 _atom_site_symmetry_multiplicity
 _atom_site_fract_x
 _atom_site_fract_y
 _atom_site_fract_z
 _atom_site_occupancy
  Tm  Tm0  1  0.632805  0.038826  0.250000  1
  Tm  Tm1  1  0.367732  0.959366  0.750000  1
  Tm  Tm2  1  0.132361  0.459720  0.750000  1
  Tm  Tm3  1  0.868449  0.541038  0.250000  1
  Tm  Tm4  1  0.167775  0.174877  0.062751  1
  Tm  Tm5  1  0.830247  0.823848  0.935981  1
  Tm  Tm6  1  0.671750  0.323307  0.934161  1
  Tm  Tm7  1  0.830247  0.823848  0.564019  1
  Tm  Tm8  1  0.329811  0.678280  0.062556  1
  Tm  Tm9  1  0.167775  0.174877  0.437249  1
  Tm  Tm10  1  0.329811  0.678280  0.437444  1
  Tm  Tm11  1  0.671750  0.323307  0.565839  1
  Ru  Ru12  1  0.537666  0.614759  0.750000  1
  Ru  Ru13  1  0.962484  0.115696  0.750000  1
  Ru  Ru14  1  0.039428  0.884855  0.250000  1
  Rh  Rh15  1  0.459908  0.385115  0.250000  1
