# generated using pymatgen
data_Tc2AsP2
_symmetry_space_group_name_H-M   'P 1'
_cell_length_a   6.30787083
_cell_length_b   6.48818223
_cell_length_c   7.92168003
_cell_angle_alpha   94.88027770
_cell_angle_beta   101.43339962
_cell_angle_gamma   104.03652926
_symmetry_Int_Tables_number   1
_chemical_formula_structural   Tc2AsP2
_chemical_formula_sum   'Tc8 As4 P8'
_cell_volume   305.24816081
_cell_formula_units_Z   4
loop_
 _symmetry_equiv_pos_site_id
 _symmetry_equiv_pos_as_xyz
  1  'x, y, z'
loop_
 _atom_site_type_symbol
 _atom_site_label
 _atom_site_symmetry_multiplicity
 _atom_site_fract_x
 _atom_site_fract_y
 _atom_site_fract_z
 _atom_site_occupancy
  Tc  Tc0  1  0.902106  0.420968  0.158738  1
  Tc  Tc1  1  0.097894  0.579032  0.841262  1
  Tc  Tc2  1  0.387156  0.422146  0.156147  1
  Tc  Tc3  1  0.612844  0.577854  0.843853  1
  Tc  Tc4  1  0.541089  0.862687  0.368947  1
  Tc  Tc5  1  0.458911  0.137313  0.631053  1
  Tc  Tc6  1  0.076732  0.868548  0.373676  1
  Tc  Tc7  1  0.923268  0.131452  0.626324  1
  As  As8  1  0.538882  0.193055  0.960523  1
  As  As9  1  0.461118  0.806945  0.039477  1
  As  As10  1  0.035973  0.190474  0.955307  1
  As  As11  1  0.964027  0.809526  0.044693  1
  P  P12  1  0.735955  0.576182  0.367273  1
  P  P13  1  0.264045  0.423818  0.632727  1
  P  P14  1  0.234884  0.563853  0.381770  1
  P  P15  1  0.765116  0.436147  0.618230  1
  P  P16  1  0.863046  0.137253  0.323818  1
  P  P17  1  0.136954  0.862747  0.676182  1
  P  P18  1  0.371480  0.149802  0.327275  1
  P  P19  1  0.628520  0.850198  0.672725  1
