# generated using pymatgen
data_La16In5HgIr2
_symmetry_space_group_name_H-M   'P 1'
_cell_length_a   10.94642000
_cell_length_b   10.93850688
_cell_length_c   7.43429700
_cell_angle_alpha   90.01458780
_cell_angle_beta   90.00000000
_cell_angle_gamma   120.02393340
_symmetry_Int_Tables_number   1
_chemical_formula_structural   La16In5HgIr2
_chemical_formula_sum   'La16 In5 Hg1 Ir2'
_cell_volume   770.71867590
_cell_formula_units_Z   1
loop_
 _symmetry_equiv_pos_site_id
 _symmetry_equiv_pos_as_xyz
  1  'x, y, z'
loop_
 _atom_site_type_symbol
 _atom_site_label
 _atom_site_symmetry_multiplicity
 _atom_site_fract_x
 _atom_site_fract_y
 _atom_site_fract_z
 _atom_site_occupancy
  La  La0  1  0.535206  0.070412  0.516586  1
  La  La1  1  0.926289  0.468530  0.515728  1
  La  La2  1  0.542242  0.468530  0.515728  1
  La  La3  1  0.463908  0.927817  0.012731  1
  La  La4  1  0.074202  0.533103  0.016849  1
  La  La5  1  0.458900  0.533103  0.016849  1
  La  La6  1  0.176523  0.353047  0.729409  1
  La  La7  1  0.652066  0.821894  0.735413  1
  La  La8  1  0.169828  0.821894  0.735413  1
  La  La9  1  0.823970  0.647940  0.218189  1
  La  La10  1  0.353535  0.175176  0.235709  1
  La  La11  1  0.821641  0.175176  0.235709  1
  La  La12  1  0.667769  0.335537  0.901363  1
  La  La13  1  0.333863  0.667727  0.404892  1
  La  La14  1  0.998841  0.997683  0.518300  1
  La  La15  1  0.003326  0.006653  0.020146  1
  In  In16  1  0.328676  0.164431  0.770590  1
  In  In17  1  0.835755  0.164431  0.770590  1
  In  In18  1  0.163233  0.326468  0.274652  1
  In  In19  1  0.672093  0.834938  0.271584  1
  In  In20  1  0.162846  0.834938  0.271584  1
  Hg  Hg21  1  0.834224  0.668449  0.773565  1
  Ir  Ir22  1  0.667020  0.334039  0.297210  1
  Ir  Ir23  1  0.334040  0.668081  0.796899  1
