# generated using pymatgen
data_NdYHo(Si3Pd10)2
_symmetry_space_group_name_H-M   'P 1'
_cell_length_a   8.73606456
_cell_length_b   8.73606548
_cell_length_c   8.73606400
_cell_angle_alpha   60.00000559
_cell_angle_beta   60.00000212
_cell_angle_gamma   60.00000269
_symmetry_Int_Tables_number   1
_chemical_formula_structural   NdYHo(Si3Pd10)2
_chemical_formula_sum   'Nd1 Y1 Ho1 Si6 Pd20'
_cell_volume   471.44665481
_cell_formula_units_Z   1
loop_
 _symmetry_equiv_pos_site_id
 _symmetry_equiv_pos_as_xyz
  1  'x, y, z'
loop_
 _atom_site_type_symbol
 _atom_site_label
 _atom_site_symmetry_multiplicity
 _atom_site_fract_x
 _atom_site_fract_y
 _atom_site_fract_z
 _atom_site_occupancy
  Nd  Nd0  1  0.250000  0.250000  0.250000  1
  Y  Y1  1  0.750000  0.750000  0.750000  1
  Ho  Ho2  1  0.000000  0.000000  0.000000  1
  Si  Si3  1  0.733130  0.266870  0.266870  1
  Si  Si4  1  0.266870  0.733130  0.733130  1
  Si  Si5  1  0.266870  0.733130  0.266870  1
  Si  Si6  1  0.733130  0.266870  0.733130  1
  Si  Si7  1  0.266870  0.266870  0.733130  1
  Si  Si8  1  0.733130  0.733130  0.266870  1
  Pd  Pd9  1  0.385334  0.385334  0.385334  1
  Pd  Pd10  1  0.616338  0.616338  0.616338  1
  Pd  Pd11  1  0.385334  0.385334  0.844000  1
  Pd  Pd12  1  0.385334  0.844000  0.385334  1
  Pd  Pd13  1  0.616338  0.616338  0.150985  1
  Pd  Pd14  1  0.616338  0.150985  0.616338  1
  Pd  Pd15  1  0.844000  0.385334  0.385334  1
  Pd  Pd16  1  0.150985  0.616338  0.616338  1
  Pd  Pd17  1  0.345437  0.999683  0.999683  1
  Pd  Pd18  1  0.655198  0.999683  0.999683  1
  Pd  Pd19  1  0.999683  0.345437  0.655198  1
  Pd  Pd20  1  0.999683  0.655198  0.345437  1
  Pd  Pd21  1  0.999683  0.345437  0.999683  1
  Pd  Pd22  1  0.655198  0.999683  0.345437  1
  Pd  Pd23  1  0.999683  0.655198  0.999683  1
  Pd  Pd24  1  0.345437  0.999683  0.655198  1
  Pd  Pd25  1  0.999683  0.999683  0.345437  1
  Pd  Pd26  1  0.999683  0.999683  0.655198  1
  Pd  Pd27  1  0.655198  0.345437  0.999683  1
  Pd  Pd28  1  0.345437  0.655198  0.999683  1
