# generated using pymatgen
data_Lu8Ta12Si15B
_symmetry_space_group_name_H-M   'P 1'
_cell_length_a   6.75644779
_cell_length_b   6.95035954
_cell_length_c   13.23394500
_cell_angle_alpha   90.00000000
_cell_angle_beta   90.00000000
_cell_angle_gamma   89.55243589
_symmetry_Int_Tables_number   1
_chemical_formula_structural   Lu8Ta12Si15B
_chemical_formula_sum   'Lu8 Ta12 Si15 B1'
_cell_volume   621.44367393
_cell_formula_units_Z   1
loop_
 _symmetry_equiv_pos_site_id
 _symmetry_equiv_pos_as_xyz
  1  'x, y, z'
loop_
 _atom_site_type_symbol
 _atom_site_label
 _atom_site_symmetry_multiplicity
 _atom_site_fract_x
 _atom_site_fract_y
 _atom_site_fract_z
 _atom_site_occupancy
  Lu  Lu0  1  0.501938  0.666777  0.596995  1
  Lu  Lu1  1  0.003624  0.826524  0.901989  1
  Lu  Lu2  1  0.499344  0.328841  0.095041  1
  Lu  Lu3  1  0.998651  0.171861  0.405498  1
  Lu  Lu4  1  0.499344  0.328841  0.404959  1
  Lu  Lu5  1  0.998651  0.171861  0.094502  1
  Lu  Lu6  1  0.501938  0.666777  0.903005  1
  Lu  Lu7  1  0.003624  0.826524  0.598011  1
  Ta  Ta8  1  0.649071  0.188136  0.629914  1
  Ta  Ta9  1  0.172405  0.326613  0.872103  1
  Ta  Ta10  1  0.339037  0.824296  0.124475  1
  Ta  Ta11  1  0.837807  0.675647  0.375657  1
  Ta  Ta12  1  0.339037  0.824296  0.375525  1
  Ta  Ta13  1  0.837807  0.675647  0.124343  1
  Ta  Ta14  1  0.649071  0.188136  0.870086  1
  Ta  Ta15  1  0.172405  0.326613  0.627897  1
  Ta  Ta16  1  0.830571  0.490466  0.750000  1
  Ta  Ta17  1  0.336931  0.009701  0.750000  1
  Ta  Ta18  1  0.163171  0.509444  0.250000  1
  Ta  Ta19  1  0.663076  0.993134  0.250000  1
  Si  Si20  1  0.665970  0.967292  0.462683  1
  Si  Si21  1  0.167484  0.535286  0.039009  1
  Si  Si22  1  0.333432  0.032566  0.959534  1
  Si  Si23  1  0.836140  0.464421  0.541467  1
  Si  Si24  1  0.333432  0.032566  0.540466  1
  Si  Si25  1  0.836140  0.464421  0.958533  1
  Si  Si26  1  0.665970  0.967292  0.037317  1
  Si  Si27  1  0.167484  0.535286  0.460991  1
  Si  Si28  1  0.957319  0.121498  0.750000  1
  Si  Si29  1  0.542764  0.620377  0.250000  1
  Si  Si30  1  0.041062  0.881884  0.250000  1
  Si  Si31  1  0.703708  0.869692  0.750000  1
  Si  Si32  1  0.214909  0.620500  0.750000  1
  Si  Si33  1  0.294849  0.132595  0.250000  1
  Si  Si34  1  0.796731  0.368248  0.250000  1
  B  B35  1  0.445103  0.365938  0.750000  1
