# generated using pymatgen
data_Tb2Ho3Rh2
_symmetry_space_group_name_H-M   'P 1'
_cell_length_a   6.42423881
_cell_length_b   7.14370708
_cell_length_c   8.66717100
_cell_angle_alpha   96.95528347
_cell_angle_beta   111.75308990
_cell_angle_gamma   89.99999521
_symmetry_Int_Tables_number   1
_chemical_formula_structural   Tb2Ho3Rh2
_chemical_formula_sum   'Tb4 Ho6 Rh4'
_cell_volume   366.28325006
_cell_formula_units_Z   2
loop_
 _symmetry_equiv_pos_site_id
 _symmetry_equiv_pos_as_xyz
  1  'x, y, z'
loop_
 _atom_site_type_symbol
 _atom_site_label
 _atom_site_symmetry_multiplicity
 _atom_site_fract_x
 _atom_site_fract_y
 _atom_site_fract_z
 _atom_site_occupancy
  Tb  Tb0  1  0.979751  0.918139  0.189367  1
  Tb  Tb1  1  0.790383  0.581861  0.810633  1
  Tb  Tb2  1  0.020249  0.081861  0.810633  1
  Tb  Tb3  1  0.209617  0.418139  0.189367  1
  Ho  Ho4  1  0.645226  0.813104  0.436741  1
  Ho  Ho5  1  0.208485  0.686896  0.563259  1
  Ho  Ho6  1  0.354774  0.186896  0.563259  1
  Ho  Ho7  1  0.791515  0.313104  0.436741  1
  Ho  Ho8  1  0.423309  0.750000  0.000000  1
  Ho  Ho9  1  0.576691  0.250000  0.000000  1
  Rh  Rh10  1  0.816302  0.574105  0.222508  1
  Rh  Rh11  1  0.593794  0.925895  0.777492  1
  Rh  Rh12  1  0.183698  0.425895  0.777492  1
  Rh  Rh13  1  0.406206  0.074105  0.222508  1
