# generated using pymatgen
data_DyEr2Hg5
_symmetry_space_group_name_H-M   'P 1'
_cell_length_a   6.35674114
_cell_length_b   6.35674038
_cell_length_c   10.14983800
_cell_angle_alpha   90.00000000
_cell_angle_beta   90.00000000
_cell_angle_gamma   105.09128270
_symmetry_Int_Tables_number   1
_chemical_formula_structural   DyEr2Hg5
_chemical_formula_sum   'Dy2 Er4 Hg10'
_cell_volume   395.99153478
_cell_formula_units_Z   2
loop_
 _symmetry_equiv_pos_site_id
 _symmetry_equiv_pos_as_xyz
  1  'x, y, z'
loop_
 _atom_site_type_symbol
 _atom_site_label
 _atom_site_symmetry_multiplicity
 _atom_site_fract_x
 _atom_site_fract_y
 _atom_site_fract_z
 _atom_site_occupancy
  Dy  Dy0  1  0.212477  0.787523  0.500000  1
  Dy  Dy1  1  0.212477  0.787523  0.000000  1
  Er  Er2  1  0.583304  0.581275  0.250000  1
  Er  Er3  1  0.418725  0.416696  0.750000  1
  Er  Er4  1  0.786595  0.213405  0.500000  1
  Er  Er5  1  0.786595  0.213405  0.000000  1
  Hg  Hg6  1  0.980568  0.980373  0.250000  1
  Hg  Hg7  1  0.019627  0.019432  0.750000  1
  Hg  Hg8  1  0.295994  0.296973  0.032490  1
  Hg  Hg9  1  0.703027  0.704006  0.967510  1
  Hg  Hg10  1  0.295994  0.296973  0.467510  1
  Hg  Hg11  1  0.703027  0.704006  0.532490  1
  Hg  Hg12  1  0.488832  0.046341  0.250000  1
  Hg  Hg13  1  0.953659  0.511168  0.750000  1
  Hg  Hg14  1  0.515083  0.955984  0.750000  1
  Hg  Hg15  1  0.044016  0.484917  0.250000  1
