# generated using pymatgen
data_HoTaFe(CoP)3
_symmetry_space_group_name_H-M   'P 1'
_cell_length_a   3.67153000
_cell_length_b   10.52198400
_cell_length_c   12.03615300
_cell_angle_alpha   90.00000000
_cell_angle_beta   90.00000000
_cell_angle_gamma   90.00000000
_symmetry_Int_Tables_number   1
_chemical_formula_structural   HoTaFe(CoP)3
_chemical_formula_sum   'Ho4 Ta4 Fe4 Co12 P12'
_cell_volume   464.97801373
_cell_formula_units_Z   4
loop_
 _symmetry_equiv_pos_site_id
 _symmetry_equiv_pos_as_xyz
  1  'x, y, z'
loop_
 _atom_site_type_symbol
 _atom_site_label
 _atom_site_symmetry_multiplicity
 _atom_site_fract_x
 _atom_site_fract_y
 _atom_site_fract_z
 _atom_site_occupancy
  Ho  Ho0  1  0.250000  0.583315  0.707885  1
  Ho  Ho1  1  0.250000  0.916685  0.207885  1
  Ho  Ho2  1  0.750000  0.416685  0.292115  1
  Ho  Ho3  1  0.750000  0.083315  0.792115  1
  Ta  Ta4  1  0.250000  0.702594  0.991413  1
  Ta  Ta5  1  0.250000  0.797406  0.491413  1
  Ta  Ta6  1  0.750000  0.297406  0.008587  1
  Ta  Ta7  1  0.750000  0.202594  0.508587  1
  Fe  Fe8  1  0.250000  0.462626  0.932223  1
  Fe  Fe9  1  0.250000  0.037374  0.432223  1
  Fe  Fe10  1  0.750000  0.537374  0.067777  1
  Fe  Fe11  1  0.750000  0.962626  0.567777  1
  Co  Co12  1  0.250000  0.406645  0.488938  1
  Co  Co13  1  0.250000  0.093355  0.988938  1
  Co  Co14  1  0.750000  0.593355  0.511062  1
  Co  Co15  1  0.750000  0.906645  0.011062  1
  Co  Co16  1  0.250000  0.223494  0.173316  1
  Co  Co17  1  0.250000  0.276506  0.673316  1
  Co  Co18  1  0.750000  0.776506  0.826684  1
  Co  Co19  1  0.750000  0.723494  0.326684  1
  Co  Co20  1  0.250000  0.884401  0.703630  1
  Co  Co21  1  0.250000  0.615599  0.203630  1
  Co  Co22  1  0.750000  0.115599  0.296370  1
  Co  Co23  1  0.750000  0.384401  0.796370  1
  P  P24  1  0.250000  0.426097  0.115034  1
  P  P25  1  0.250000  0.073903  0.615034  1
  P  P26  1  0.750000  0.573903  0.884966  1
  P  P27  1  0.750000  0.926097  0.384966  1
  P  P28  1  0.250000  0.270714  0.857720  1
  P  P29  1  0.250000  0.229286  0.357720  1
  P  P30  1  0.750000  0.729286  0.142280  1
  P  P31  1  0.750000  0.770714  0.642280  1
  P  P32  1  0.250000  0.589439  0.389388  1
  P  P33  1  0.250000  0.910561  0.889388  1
  P  P34  1  0.750000  0.410561  0.610612  1
  P  P35  1  0.750000  0.089439  0.110612  1
