# generated using pymatgen
data_LiSn(PSe3)2
_symmetry_space_group_name_H-M   'P 1'
_cell_length_a   6.58623975
_cell_length_b   6.58623900
_cell_length_c   7.71871171
_cell_angle_alpha   82.03769751
_cell_angle_beta   82.03769470
_cell_angle_gamma   119.97639869
_symmetry_Int_Tables_number   1
_chemical_formula_structural   LiSn(PSe3)2
_chemical_formula_sum   'Li1 Sn1 P2 Se6'
_cell_volume   278.69267970
_cell_formula_units_Z   1
loop_
 _symmetry_equiv_pos_site_id
 _symmetry_equiv_pos_as_xyz
  1  'x, y, z'
loop_
 _atom_site_type_symbol
 _atom_site_label
 _atom_site_symmetry_multiplicity
 _atom_site_fract_x
 _atom_site_fract_y
 _atom_site_fract_z
 _atom_site_occupancy
  Li  Li0  1  0.332901  0.667099  0.000000  1
  Sn  Sn1  1  0.666431  0.333569  0.000000  1
  P  P2  1  0.049378  0.049069  0.847945  1
  P  P3  1  0.950931  0.950622  0.152055  1
  Se  Se4  1  0.092162  0.406023  0.762395  1
  Se  Se5  1  0.390782  0.061049  0.763098  1
  Se  Se6  1  0.938950  0.609218  0.236902  1
  Se  Se7  1  0.593977  0.907838  0.237605  1
  Se  Se8  1  0.236679  0.252190  0.236990  1
  Se  Se9  1  0.747810  0.763321  0.763010  1
