# generated using pymatgen
data_Pr4Te3I3N
_symmetry_space_group_name_H-M   'P 1'
_cell_length_a   10.37989600
_cell_length_b   10.37992805
_cell_length_c   7.67268600
_cell_angle_alpha   90.00011592
_cell_angle_beta   89.99998896
_cell_angle_gamma   120.00011458
_symmetry_Int_Tables_number   1
_chemical_formula_structural   Pr4Te3I3N
_chemical_formula_sum   'Pr8 Te6 I6 N2'
_cell_volume   715.92066887
_cell_formula_units_Z   2
loop_
 _symmetry_equiv_pos_site_id
 _symmetry_equiv_pos_as_xyz
  1  'x, y, z'
loop_
 _atom_site_type_symbol
 _atom_site_label
 _atom_site_symmetry_multiplicity
 _atom_site_fract_x
 _atom_site_fract_y
 _atom_site_fract_z
 _atom_site_occupancy
  Pr  Pr0  1  0.210728  0.421458  0.237430  1
  Pr  Pr1  1  0.210731  0.789271  0.237428  1
  Pr  Pr2  1  0.578542  0.789272  0.237428  1
  Pr  Pr3  1  0.666667  0.333333  0.318047  1
  Pr  Pr4  1  0.421456  0.210727  0.737430  1
  Pr  Pr5  1  0.789270  0.210727  0.737431  1
  Pr  Pr6  1  0.789272  0.578543  0.737430  1
  Pr  Pr7  1  0.333333  0.666668  0.818046  1
  Te  Te8  1  0.532793  0.467209  0.037832  1
  Te  Te9  1  0.934415  0.467208  0.037831  1
  Te  Te10  1  0.532793  0.065587  0.037833  1
  Te  Te11  1  0.065585  0.532792  0.537831  1
  Te  Te12  1  0.467207  0.532793  0.537833  1
  Te  Te13  1  0.467206  0.934412  0.537835  1
  I  I14  1  0.868847  0.737694  0.358388  1
  I  I15  1  0.262307  0.131154  0.358388  1
  I  I16  1  0.868846  0.131154  0.358387  1
  I  I17  1  0.131152  0.262305  0.858388  1
  I  I18  1  0.131153  0.868848  0.858389  1
  I  I19  1  0.737694  0.868847  0.858388  1
  N  N20  1  0.333333  0.666666  0.133464  1
  N  N21  1  0.666667  0.333333  0.633463  1
