# generated using pymatgen
data_ZrTa4(NbCl9)2
_symmetry_space_group_name_H-M   'P 1'
_cell_length_a   10.07909721
_cell_length_b   10.08761337
_cell_length_c   10.07417970
_cell_angle_alpha   56.13295713
_cell_angle_beta   56.24541465
_cell_angle_gamma   56.14395883
_symmetry_Int_Tables_number   1
_chemical_formula_structural   ZrTa4(NbCl9)2
_chemical_formula_sum   'Zr1 Ta4 Nb2 Cl18'
_cell_volume   660.13020316
_cell_formula_units_Z   1
loop_
 _symmetry_equiv_pos_site_id
 _symmetry_equiv_pos_as_xyz
  1  'x, y, z'
loop_
 _atom_site_type_symbol
 _atom_site_label
 _atom_site_symmetry_multiplicity
 _atom_site_fract_x
 _atom_site_fract_y
 _atom_site_fract_z
 _atom_site_occupancy
  Zr  Zr0  1  0.999984  0.000133  0.999923  1
  Ta  Ta1  1  0.407064  0.306590  0.647465  1
  Ta  Ta2  1  0.352577  0.593307  0.693204  1
  Ta  Ta3  1  0.694182  0.351842  0.593491  1
  Ta  Ta4  1  0.306270  0.648293  0.405853  1
  Nb  Nb5  1  0.648596  0.406607  0.305099  1
  Nb  Nb6  1  0.593684  0.694643  0.351226  1
  Cl  Cl7  1  0.563469  0.156723  0.448052  1
  Cl  Cl8  1  0.219198  0.375416  0.909711  1
  Cl  Cl9  1  0.911220  0.217529  0.378225  1
  Cl  Cl10  1  0.371524  0.910998  0.218694  1
  Cl  Cl11  1  0.781888  0.626204  0.087132  1
  Cl  Cl12  1  0.090275  0.780781  0.624219  1
  Cl  Cl13  1  0.720118  0.962028  0.150362  1
  Cl  Cl14  1  0.959503  0.150380  0.718458  1
  Cl  Cl15  1  0.152076  0.718607  0.958409  1
  Cl  Cl16  1  0.281070  0.041874  0.848199  1
  Cl  Cl17  1  0.040260  0.847427  0.282060  1
  Cl  Cl18  1  0.851676  0.279983  0.037606  1
  Cl  Cl19  1  0.555255  0.433899  0.842060  1
  Cl  Cl20  1  0.158447  0.445584  0.565031  1
  Cl  Cl21  1  0.441444  0.567822  0.158189  1
  Cl  Cl22  1  0.432481  0.841334  0.558078  1
  Cl  Cl23  1  0.843174  0.551683  0.437305  1
  Cl  Cl24  1  0.624567  0.090312  0.781949  1
