# generated using pymatgen
data_HoTm5Fe4(Co7P6)2
_symmetry_space_group_name_H-M   'P 1'
_cell_length_a   3.68263000
_cell_length_b   10.54110600
_cell_length_c   12.06697500
_cell_angle_alpha   90.00000000
_cell_angle_beta   90.00000000
_cell_angle_gamma   90.00000000
_symmetry_Int_Tables_number   1
_chemical_formula_structural   HoTm5Fe4(Co7P6)2
_chemical_formula_sum   'Ho1 Tm5 Fe4 Co14 P12'
_cell_volume   468.42782033
_cell_formula_units_Z   1
loop_
 _symmetry_equiv_pos_site_id
 _symmetry_equiv_pos_as_xyz
  1  'x, y, z'
loop_
 _atom_site_type_symbol
 _atom_site_label
 _atom_site_symmetry_multiplicity
 _atom_site_fract_x
 _atom_site_fract_y
 _atom_site_fract_z
 _atom_site_occupancy
  Ho  Ho0  1  0.000000  0.500000  0.522915  1
  Tm  Tm1  1  0.500000  0.000000  0.477082  1
  Tm  Tm2  1  0.500000  0.819442  0.204033  1
  Tm  Tm3  1  0.500000  0.180558  0.204033  1
  Tm  Tm4  1  0.000000  0.680705  0.796126  1
  Tm  Tm5  1  0.000000  0.319295  0.796126  1
  Fe  Fe6  1  0.500000  0.500000  0.156175  1
  Fe  Fe7  1  0.000000  0.000000  0.843509  1
  Fe  Fe8  1  0.000000  0.500000  0.988576  1
  Fe  Fe9  1  0.500000  0.000000  0.011502  1
  Co  Co10  1  0.500000  0.500000  0.701702  1
  Co  Co11  1  0.000000  0.000000  0.298942  1
  Co  Co12  1  0.500000  0.331633  0.994170  1
  Co  Co13  1  0.500000  0.668367  0.994170  1
  Co  Co14  1  0.000000  0.168245  0.005857  1
  Co  Co15  1  0.000000  0.831755  0.005857  1
  Co  Co16  1  0.500000  0.296319  0.430395  1
  Co  Co17  1  0.500000  0.703681  0.430395  1
  Co  Co18  1  0.000000  0.202791  0.569504  1
  Co  Co19  1  0.000000  0.797209  0.569504  1
  Co  Co20  1  0.500000  0.878571  0.709035  1
  Co  Co21  1  0.500000  0.121429  0.709035  1
  Co  Co22  1  0.000000  0.621721  0.290796  1
  Co  Co23  1  0.000000  0.378279  0.290796  1
  P  P24  1  0.500000  0.500000  0.883826  1
  P  P25  1  0.000000  0.000000  0.116369  1
  P  P26  1  0.500000  0.500000  0.342501  1
  P  P27  1  0.000000  0.000000  0.656746  1
  P  P28  1  0.500000  0.310692  0.617351  1
  P  P29  1  0.500000  0.689308  0.617351  1
  P  P30  1  0.000000  0.188710  0.382883  1
  P  P31  1  0.000000  0.811290  0.382883  1
  P  P32  1  0.500000  0.847230  0.892703  1
  P  P33  1  0.500000  0.152770  0.892703  1
  P  P34  1  0.000000  0.652869  0.107223  1
  P  P35  1  0.000000  0.347131  0.107223  1
