# generated using pymatgen
data_Tb19Er(InBi)8
_symmetry_space_group_name_H-M   'P 1'
_cell_length_a   8.20656200
_cell_length_b   8.24288439
_cell_length_c   15.70147300
_cell_angle_alpha   90.00000000
_cell_angle_beta   90.00000000
_cell_angle_gamma   90.01759282
_symmetry_Int_Tables_number   1
_chemical_formula_structural   Tb19Er(InBi)8
_chemical_formula_sum   'Tb19 Er1 In8 Bi8'
_cell_volume   1062.13773827
_cell_formula_units_Z   1
loop_
 _symmetry_equiv_pos_site_id
 _symmetry_equiv_pos_as_xyz
  1  'x, y, z'
loop_
 _atom_site_type_symbol
 _atom_site_label
 _atom_site_symmetry_multiplicity
 _atom_site_fract_x
 _atom_site_fract_y
 _atom_site_fract_z
 _atom_site_occupancy
  Tb  Tb0  1  0.391392  0.835620  0.878388  1
  Tb  Tb1  1  0.891834  0.663996  0.621572  1
  Tb  Tb2  1  0.608234  0.164215  0.378489  1
  Tb  Tb3  1  0.108377  0.335861  0.121222  1
  Tb  Tb4  1  0.608234  0.164215  0.121511  1
  Tb  Tb5  1  0.108377  0.335861  0.378778  1
  Tb  Tb6  1  0.391392  0.835620  0.621612  1
  Tb  Tb7  1  0.891834  0.663996  0.878428  1
  Tb  Tb8  1  0.550107  0.326663  0.891865  1
  Tb  Tb9  1  0.050524  0.173932  0.608266  1
  Tb  Tb10  1  0.449754  0.673667  0.392070  1
  Tb  Tb11  1  0.949960  0.826375  0.108193  1
  Tb  Tb12  1  0.449754  0.673667  0.107930  1
  Tb  Tb13  1  0.949960  0.826375  0.391807  1
  Tb  Tb14  1  0.550107  0.326663  0.608135  1
  Tb  Tb15  1  0.050524  0.173932  0.891734  1
  Tb  Tb16  1  0.722899  0.000742  0.750000  1
  Tb  Tb17  1  0.777286  0.500614  0.250000  1
  Tb  Tb18  1  0.277020  0.999427  0.250000  1
  Er  Er19  1  0.223062  0.499400  0.750000  1
  In  In20  1  0.590984  0.618249  0.750000  1
  In  In21  1  0.092380  0.879758  0.750000  1
  In  In22  1  0.407391  0.381022  0.250000  1
  In  In23  1  0.907700  0.119241  0.250000  1
  In  In24  1  0.348544  0.137707  0.750000  1
  In  In25  1  0.850362  0.364033  0.750000  1
  In  In26  1  0.650956  0.863518  0.250000  1
  In  In27  1  0.151195  0.636266  0.250000  1
  Bi  Bi28  1  0.270252  0.020341  0.043488  1
  Bi  Bi29  1  0.770040  0.479631  0.456442  1
  Bi  Bi30  1  0.729885  0.979596  0.543526  1
  Bi  Bi31  1  0.229751  0.520115  0.955770  1
  Bi  Bi32  1  0.729885  0.979596  0.956474  1
  Bi  Bi33  1  0.229751  0.520115  0.544230  1
  Bi  Bi34  1  0.270252  0.020341  0.456512  1
  Bi  Bi35  1  0.770040  0.479631  0.043558  1
