# generated using pymatgen
data_Dy2Ho2TmRu2
_symmetry_space_group_name_H-M   'P 1'
_cell_length_a   6.33010461
_cell_length_b   7.23037433
_cell_length_c   8.44610474
_cell_angle_alpha   96.68080155
_cell_angle_beta   112.00795525
_cell_angle_gamma   89.99999736
_symmetry_Int_Tables_number   1
_chemical_formula_structural   Dy2Ho2TmRu2
_chemical_formula_sum   'Dy4 Ho4 Tm2 Ru4'
_cell_volume   355.56851999
_cell_formula_units_Z   2
loop_
 _symmetry_equiv_pos_site_id
 _symmetry_equiv_pos_as_xyz
  1  'x, y, z'
loop_
 _atom_site_type_symbol
 _atom_site_label
 _atom_site_symmetry_multiplicity
 _atom_site_fract_x
 _atom_site_fract_y
 _atom_site_fract_z
 _atom_site_occupancy
  Dy  Dy0  1  0.790542  0.083876  0.813671  1
  Dy  Dy1  1  0.976871  0.416124  0.186329  1
  Dy  Dy2  1  0.209458  0.916124  0.186329  1
  Dy  Dy3  1  0.023129  0.583876  0.813671  1
  Ho  Ho4  1  0.206007  0.185024  0.566501  1
  Ho  Ho5  1  0.639506  0.314976  0.433499  1
  Ho  Ho6  1  0.793993  0.814976  0.433499  1
  Ho  Ho7  1  0.360494  0.685024  0.566501  1
  Tm  Tm8  1  0.421185  0.250000  0.000000  1
  Tm  Tm9  1  0.578815  0.750000  0.000000  1
  Ru  Ru10  1  0.602030  0.424394  0.780734  1
  Ru  Ru11  1  0.821295  0.075606  0.219266  1
  Ru  Ru12  1  0.397970  0.575606  0.219266  1
  Ru  Ru13  1  0.178705  0.924394  0.780734  1
