# generated using pymatgen
data_NdDy5C2Br7
_symmetry_space_group_name_H-M   'P 1'
_cell_length_a   10.56488532
_cell_length_b   10.56488586
_cell_length_c   11.99229784
_cell_angle_alpha   57.51702457
_cell_angle_beta   57.51702328
_cell_angle_gamma   20.89218570
_symmetry_Int_Tables_number   1
_chemical_formula_structural   NdDy5C2Br7
_chemical_formula_sum   'Nd1 Dy5 C2 Br7'
_cell_volume   399.87576294
_cell_formula_units_Z   1
loop_
 _symmetry_equiv_pos_site_id
 _symmetry_equiv_pos_as_xyz
  1  'x, y, z'
loop_
 _atom_site_type_symbol
 _atom_site_label
 _atom_site_symmetry_multiplicity
 _atom_site_fract_x
 _atom_site_fract_y
 _atom_site_fract_z
 _atom_site_occupancy
  Nd  Nd0  1  0.228990  0.228990  0.842551  1
  Dy  Dy1  1  0.312810  0.312810  0.366014  1
  Dy  Dy2  1  0.131858  0.131858  0.442110  1
  Dy  Dy3  1  0.867730  0.867730  0.558525  1
  Dy  Dy4  1  0.687931  0.687931  0.634105  1
  Dy  Dy5  1  0.769479  0.769479  0.165158  1
  C  C6  1  0.280726  0.280726  0.601364  1
  C  C7  1  0.720397  0.720397  0.393097  1
  Br  Br8  1  0.163830  0.163830  0.168395  1
  Br  Br9  1  0.843280  0.843280  0.830480  1
  Br  Br10  1  0.060304  0.060304  0.715848  1
  Br  Br11  1  0.940058  0.940058  0.282229  1
  Br  Br12  1  0.500904  0.500904  0.498385  1
  Br  Br13  1  0.387803  0.387803  0.070524  1
  Br  Br14  1  0.603900  0.603900  0.931214  1
