# generated using pymatgen
data_Y8Ti11Si16Ag
_symmetry_space_group_name_H-M   'P 1'
_cell_length_a   7.07780533
_cell_length_b   7.07780509
_cell_length_c   12.92775407
_cell_angle_alpha   90.07191257
_cell_angle_beta   89.92808925
_cell_angle_gamma   89.62553653
_symmetry_Int_Tables_number   1
_chemical_formula_structural   Y8Ti11Si16Ag
_chemical_formula_sum   'Y8 Ti11 Si16 Ag1'
_cell_volume   647.60520336
_cell_formula_units_Z   1
loop_
 _symmetry_equiv_pos_site_id
 _symmetry_equiv_pos_as_xyz
  1  'x, y, z'
loop_
 _atom_site_type_symbol
 _atom_site_label
 _atom_site_symmetry_multiplicity
 _atom_site_fract_x
 _atom_site_fract_y
 _atom_site_fract_z
 _atom_site_occupancy
  Y  Y0  1  0.340877  0.002349  0.466600  1
  Y  Y1  1  0.497743  0.840258  0.716697  1
  Y  Y2  1  0.500991  0.158239  0.214545  1
  Y  Y3  1  0.840258  0.497743  0.283303  1
  Y  Y4  1  0.158239  0.500991  0.785455  1
  Y  Y5  1  0.656413  0.000669  0.968307  1
  Y  Y6  1  0.002349  0.340877  0.533400  1
  Y  Y7  1  0.000669  0.656413  0.031693  1
  Ti  Ti8  1  0.173892  0.826584  0.250052  1
  Ti  Ti9  1  0.826584  0.173892  0.749948  1
  Ti  Ti10  1  0.672902  0.672902  0.500000  1
  Ti  Ti11  1  0.148086  0.008179  0.876946  1
  Ti  Ti12  1  0.494722  0.650750  0.123581  1
  Ti  Ti13  1  0.508251  0.350289  0.625263  1
  Ti  Ti14  1  0.650750  0.494722  0.876419  1
  Ti  Ti15  1  0.350289  0.508251  0.374737  1
  Ti  Ti16  1  0.849627  0.991752  0.374652  1
  Ti  Ti17  1  0.008179  0.148086  0.123054  1
  Ti  Ti18  1  0.991752  0.849627  0.625348  1
  Si  Si19  1  0.202120  0.131902  0.684570  1
  Si  Si20  1  0.373894  0.718735  0.929559  1
  Si  Si21  1  0.630954  0.294556  0.432949  1
  Si  Si22  1  0.718735  0.373894  0.070441  1
  Si  Si23  1  0.294556  0.630954  0.567051  1
  Si  Si24  1  0.797496  0.868213  0.183046  1
  Si  Si25  1  0.131902  0.202120  0.315430  1
  Si  Si26  1  0.868213  0.797496  0.816954  1
  Si  Si27  1  0.285730  0.938041  0.066180  1
  Si  Si28  1  0.546688  0.791009  0.314458  1
  Si  Si29  1  0.455555  0.207861  0.808715  1
  Si  Si30  1  0.791009  0.546688  0.685542  1
  Si  Si31  1  0.207861  0.455555  0.191285  1
  Si  Si32  1  0.709268  0.047680  0.564299  1
  Si  Si33  1  0.938041  0.285730  0.933820  1
  Si  Si34  1  0.047680  0.709268  0.435701  1
  Ag  Ag35  1  0.327724  0.327724  0.000000  1
