# generated using pymatgen
data_Dy4NiHg
_symmetry_space_group_name_H-M   'P 1'
_cell_length_a   9.48980594
_cell_length_b   9.48980587
_cell_length_c   9.48980600
_cell_angle_alpha   59.99999954
_cell_angle_beta   59.99999978
_cell_angle_gamma   59.99999961
_symmetry_Int_Tables_number   1
_chemical_formula_structural   Dy4NiHg
_chemical_formula_sum   'Dy16 Ni4 Hg4'
_cell_volume   604.30611995
_cell_formula_units_Z   4
loop_
 _symmetry_equiv_pos_site_id
 _symmetry_equiv_pos_as_xyz
  1  'x, y, z'
loop_
 _atom_site_type_symbol
 _atom_site_label
 _atom_site_symmetry_multiplicity
 _atom_site_fract_x
 _atom_site_fract_y
 _atom_site_fract_z
 _atom_site_occupancy
  Dy  Dy0  1  0.599849  0.599849  0.599849  1
  Dy  Dy1  1  0.599849  0.599849  0.200455  1
  Dy  Dy2  1  0.599849  0.200455  0.599849  1
  Dy  Dy3  1  0.200455  0.599849  0.599849  1
  Dy  Dy4  1  0.060866  0.439134  0.439134  1
  Dy  Dy5  1  0.439134  0.060866  0.060866  1
  Dy  Dy6  1  0.439134  0.060866  0.439134  1
  Dy  Dy7  1  0.060866  0.439134  0.060866  1
  Dy  Dy8  1  0.439134  0.439134  0.060866  1
  Dy  Dy9  1  0.060866  0.060866  0.439134  1
  Dy  Dy10  1  0.186654  0.813346  0.813346  1
  Dy  Dy11  1  0.813346  0.186654  0.186654  1
  Dy  Dy12  1  0.813346  0.186654  0.813346  1
  Dy  Dy13  1  0.186654  0.813346  0.186654  1
  Dy  Dy14  1  0.813346  0.813346  0.186654  1
  Dy  Dy15  1  0.186654  0.186654  0.813346  1
  Ni  Ni16  1  0.392624  0.392624  0.392624  1
  Ni  Ni17  1  0.392624  0.392624  0.822129  1
  Ni  Ni18  1  0.392624  0.822129  0.392624  1
  Ni  Ni19  1  0.822129  0.392624  0.392624  1
  Hg  Hg20  1  0.834830  0.834830  0.834830  1
  Hg  Hg21  1  0.834830  0.834830  0.495510  1
  Hg  Hg22  1  0.834830  0.495510  0.834830  1
  Hg  Hg23  1  0.495510  0.834830  0.834830  1
