# generated using pymatgen
data_Yb10Ga2Cu3Os
_symmetry_space_group_name_H-M   'P 1'
_cell_length_a   8.83083740
_cell_length_b   8.83083735
_cell_length_c   8.80662045
_cell_angle_alpha   128.61507574
_cell_angle_beta   128.61506971
_cell_angle_gamma   75.83308500
_symmetry_Int_Tables_number   1
_chemical_formula_structural   Yb10Ga2Cu3Os
_chemical_formula_sum   'Yb10 Ga2 Cu3 Os1'
_cell_volume   407.33424169
_cell_formula_units_Z   1
loop_
 _symmetry_equiv_pos_site_id
 _symmetry_equiv_pos_as_xyz
  1  'x, y, z'
loop_
 _atom_site_type_symbol
 _atom_site_label
 _atom_site_symmetry_multiplicity
 _atom_site_fract_x
 _atom_site_fract_y
 _atom_site_fract_z
 _atom_site_occupancy
  Yb  Yb0  1  0.491711  0.502446  0.994157  1
  Yb  Yb1  1  0.002446  0.991711  0.994157  1
  Yb  Yb2  1  0.531074  0.031074  0.841833  1
  Yb  Yb3  1  0.183108  0.683108  0.141642  1
  Yb  Yb4  1  0.032483  0.198621  0.510083  1
  Yb  Yb5  1  0.698621  0.532483  0.510083  1
  Yb  Yb6  1  0.458535  0.958535  0.141642  1
  Yb  Yb7  1  0.810759  0.310759  0.841833  1
  Yb  Yb8  1  0.977599  0.811461  0.510083  1
  Yb  Yb9  1  0.311461  0.477599  0.510083  1
  Ga  Ga10  1  0.252366  0.252366  0.004733  1
  Ga  Ga11  1  0.752366  0.752366  0.004733  1
  Cu  Cu12  1  0.881876  0.381876  0.263750  1
  Cu  Cu13  1  0.614468  0.884231  0.498701  1
  Cu  Cu14  1  0.384231  0.114468  0.498701  1
  Os  Os15  1  0.116893  0.616893  0.733787  1
