# generated using pymatgen
data_Eu2MgIr2
_symmetry_space_group_name_H-M   'P 1'
_cell_length_a   5.76873187
_cell_length_b   5.76873096
_cell_length_c   5.76873222
_cell_angle_alpha   135.21676858
_cell_angle_beta   118.42135154
_cell_angle_gamma   79.29636176
_symmetry_Int_Tables_number   1
_chemical_formula_structural   Eu2MgIr2
_chemical_formula_sum   'Eu2 Mg1 Ir2'
_cell_volume   115.29228520
_cell_formula_units_Z   1
loop_
 _symmetry_equiv_pos_site_id
 _symmetry_equiv_pos_as_xyz
  1  'x, y, z'
loop_
 _atom_site_type_symbol
 _atom_site_label
 _atom_site_symmetry_multiplicity
 _atom_site_fract_x
 _atom_site_fract_y
 _atom_site_fract_z
 _atom_site_occupancy
  Eu  Eu0  1  0.703520  0.203519  0.500001  1
  Eu  Eu1  1  0.296481  0.796481  0.500000  1
  Mg  Mg2  1  0.000000  0.000000  0.000000  1
  Ir  Ir3  1  0.720599  0.500000  0.220599  1
  Ir  Ir4  1  0.279402  0.500000  0.779402  1
