# generated using pymatgen
data_Ba4CrFeO8
_symmetry_space_group_name_H-M   'P 1'
_cell_length_a   7.73215600
_cell_length_b   6.05227400
_cell_length_c   10.72070400
_cell_angle_alpha   90.00000000
_cell_angle_beta   90.00000000
_cell_angle_gamma   90.00000000
_symmetry_Int_Tables_number   1
_chemical_formula_structural   Ba4CrFeO8
_chemical_formula_sum   'Ba8 Cr2 Fe2 O16'
_cell_volume   501.69814365
_cell_formula_units_Z   2
loop_
 _symmetry_equiv_pos_site_id
 _symmetry_equiv_pos_as_xyz
  1  'x, y, z'
loop_
 _atom_site_type_symbol
 _atom_site_label
 _atom_site_symmetry_multiplicity
 _atom_site_fract_x
 _atom_site_fract_y
 _atom_site_fract_z
 _atom_site_occupancy
  Ba  Ba0  1  0.151707  0.250001  0.091070  1
  Ba  Ba1  1  0.506611  0.750000  0.195349  1
  Ba  Ba2  1  0.006609  0.750000  0.304652  1
  Ba  Ba3  1  0.651706  0.250001  0.408930  1
  Ba  Ba4  1  0.345825  0.750000  0.555763  1
  Ba  Ba5  1  0.996087  0.250001  0.692318  1
  Ba  Ba6  1  0.496088  0.250001  0.807683  1
  Ba  Ba7  1  0.845824  0.750000  0.944237  1
  Cr  Cr8  1  0.777131  0.750000  0.580239  1
  Cr  Cr9  1  0.277132  0.750000  0.919762  1
  Fe  Fe10  1  0.720029  0.250001  0.074947  1
  Fe  Fe11  1  0.220030  0.250001  0.425053  1
  O  O12  1  0.192211  0.750000  0.070848  1
  O  O13  1  0.476313  0.250001  0.067780  1
  O  O14  1  0.813791  0.995338  0.152126  1
  O  O15  1  0.813791  0.504664  0.152126  1
  O  O16  1  0.313791  0.995338  0.347874  1
  O  O17  1  0.313791  0.504664  0.347874  1
  O  O18  1  0.976313  0.250001  0.432220  1
  O  O19  1  0.692211  0.750000  0.429152  1
  O  O20  1  0.317256  0.250001  0.589691  1
  O  O21  1  0.998964  0.750000  0.591659  1
  O  O22  1  0.695142  0.512592  0.645814  1
  O  O23  1  0.695142  0.987408  0.645814  1
  O  O24  1  0.195142  0.512592  0.854188  1
  O  O25  1  0.195142  0.987408  0.854188  1
  O  O26  1  0.498965  0.750000  0.908341  1
  O  O27  1  0.817258  0.250001  0.910309  1
