# generated using pymatgen
data_La11Pr8NdSi16
_symmetry_space_group_name_H-M   'P 1'
_cell_length_a   7.99315362
_cell_length_b   7.99315399
_cell_length_c   15.36093602
_cell_angle_alpha   89.97561713
_cell_angle_beta   90.02438426
_cell_angle_gamma   89.95409711
_symmetry_Int_Tables_number   1
_chemical_formula_structural   La11Pr8NdSi16
_chemical_formula_sum   'La11 Pr8 Nd1 Si16'
_cell_volume   981.41750896
_cell_formula_units_Z   1
loop_
 _symmetry_equiv_pos_site_id
 _symmetry_equiv_pos_as_xyz
  1  'x, y, z'
loop_
 _atom_site_type_symbol
 _atom_site_label
 _atom_site_symmetry_multiplicity
 _atom_site_fract_x
 _atom_site_fract_y
 _atom_site_fract_z
 _atom_site_occupancy
  La  La0  1  0.308990  0.308990  0.000000  1
  La  La1  1  0.190939  0.809490  0.249781  1
  La  La2  1  0.809490  0.190939  0.750219  1
  La  La3  1  0.375929  0.012597  0.448878  1
  La  La4  1  0.488345  0.875850  0.698969  1
  La  La5  1  0.512016  0.123715  0.198884  1
  La  La6  1  0.875850  0.488345  0.301031  1
  La  La7  1  0.123715  0.512016  0.801116  1
  La  La8  1  0.623690  0.987870  0.949065  1
  La  La9  1  0.012597  0.375929  0.551122  1
  La  La10  1  0.987870  0.623690  0.050935  1
  Pr  Pr11  1  0.127617  0.983727  0.875987  1
  Pr  Pr12  1  0.516595  0.627433  0.126218  1
  Pr  Pr13  1  0.483749  0.372391  0.626047  1
  Pr  Pr14  1  0.627433  0.516595  0.873782  1
  Pr  Pr15  1  0.372391  0.483749  0.373953  1
  Pr  Pr16  1  0.872056  0.016742  0.375968  1
  Pr  Pr17  1  0.983727  0.127617  0.124013  1
  Pr  Pr18  1  0.016742  0.872056  0.624032  1
  Nd  Nd19  1  0.689991  0.689991  0.500000  1
  Si  Si20  1  0.198727  0.167090  0.700792  1
  Si  Si21  1  0.333210  0.698555  0.950678  1
  Si  Si22  1  0.667269  0.302874  0.451254  1
  Si  Si23  1  0.698555  0.333210  0.049322  1
  Si  Si24  1  0.302874  0.667269  0.548746  1
  Si  Si25  1  0.801453  0.832991  0.201099  1
  Si  Si26  1  0.167090  0.198727  0.299208  1
  Si  Si27  1  0.832991  0.801453  0.798901  1
  Si  Si28  1  0.288838  0.920758  0.058707  1
  Si  Si29  1  0.579811  0.787999  0.310004  1
  Si  Si30  1  0.420839  0.211156  0.808715  1
  Si  Si31  1  0.787999  0.579811  0.689996  1
  Si  Si32  1  0.211156  0.420839  0.191285  1
  Si  Si33  1  0.711286  0.077412  0.558580  1
  Si  Si34  1  0.920758  0.288838  0.941293  1
  Si  Si35  1  0.077412  0.711286  0.441420  1
