# generated using pymatgen
data_TbHo2Pa(Ni2Sn)2
_symmetry_space_group_name_H-M   'P 1'
_cell_length_a   7.47066659
_cell_length_b   7.47066707
_cell_length_c   3.56239600
_cell_angle_alpha   90.00000000
_cell_angle_beta   90.00000000
_cell_angle_gamma   92.08561816
_symmetry_Int_Tables_number   1
_chemical_formula_structural   TbHo2Pa(Ni2Sn)2
_chemical_formula_sum   'Tb1 Ho2 Pa1 Ni4 Sn2'
_cell_volume   198.68868824
_cell_formula_units_Z   1
loop_
 _symmetry_equiv_pos_site_id
 _symmetry_equiv_pos_as_xyz
  1  'x, y, z'
loop_
 _atom_site_type_symbol
 _atom_site_label
 _atom_site_symmetry_multiplicity
 _atom_site_fract_x
 _atom_site_fract_y
 _atom_site_fract_z
 _atom_site_occupancy
  Tb  Tb0  1  0.325072  0.825072  0.500000  1
  Ho  Ho1  1  0.170763  0.326971  0.500000  1
  Ho  Ho2  1  0.826971  0.670763  0.500000  1
  Pa  Pa3  1  0.672175  0.172175  0.500000  1
  Ni  Ni4  1  0.863232  0.363232  0.000000  1
  Ni  Ni5  1  0.113586  0.613586  0.000000  1
  Ni  Ni6  1  0.396977  0.133811  0.000000  1
  Ni  Ni7  1  0.633811  0.896977  0.000000  1
  Sn  Sn8  1  0.492314  0.505098  0.000000  1
  Sn  Sn9  1  0.005098  0.992314  0.000000  1
