# generated using pymatgen
data_RbSb(PSe3)2
_symmetry_space_group_name_H-M   'P 1'
_cell_length_a   8.29346200
_cell_length_b   7.14161986
_cell_length_c   10.44954851
_cell_angle_alpha   88.50417528
_cell_angle_beta   90.00000000
_cell_angle_gamma   90.00000000
_symmetry_Int_Tables_number   1
_chemical_formula_structural   RbSb(PSe3)2
_chemical_formula_sum   'Rb2 Sb2 P4 Se12'
_cell_volume   618.70281926
_cell_formula_units_Z   2
loop_
 _symmetry_equiv_pos_site_id
 _symmetry_equiv_pos_as_xyz
  1  'x, y, z'
loop_
 _atom_site_type_symbol
 _atom_site_label
 _atom_site_symmetry_multiplicity
 _atom_site_fract_x
 _atom_site_fract_y
 _atom_site_fract_z
 _atom_site_occupancy
  Rb  Rb0  1  0.446537  0.694956  0.492430  1
  Rb  Rb1  1  0.946537  0.305044  0.507570  1
  Sb  Sb2  1  0.734689  0.816157  0.015671  1
  Sb  Sb3  1  0.234689  0.183843  0.984329  1
  P  P4  1  0.937031  0.791215  0.295865  1
  P  P5  1  0.645448  0.302576  0.831065  1
  P  P6  1  0.145448  0.697424  0.168935  1
  P  P7  1  0.437031  0.208785  0.704135  1
  Se  Se8  1  0.363057  0.945803  0.811440  1
  Se  Se9  1  0.027462  0.669005  0.973582  1
  Se  Se10  1  0.247671  0.416541  0.741567  1
  Se  Se11  1  0.527462  0.330995  0.026418  1
  Se  Se12  1  0.837739  0.083188  0.829056  1
  Se  Se13  1  0.337739  0.916812  0.170944  1
  Se  Se14  1  0.747671  0.583459  0.258433  1
  Se  Se15  1  0.863057  0.054197  0.188560  1
  Se  Se16  1  0.518129  0.181991  0.510509  1
  Se  Se17  1  0.735389  0.570828  0.755286  1
  Se  Se18  1  0.018129  0.818009  0.489491  1
  Se  Se19  1  0.235389  0.429172  0.244714  1
