# generated using pymatgen
data_Li4Nd3YPd4
_symmetry_space_group_name_H-M   'P 1'
_cell_length_a   4.09419700
_cell_length_b   7.23015269
_cell_length_c   8.79169600
_cell_angle_alpha   89.80081578
_cell_angle_beta   90.00000000
_cell_angle_gamma   90.00000000
_symmetry_Int_Tables_number   1
_chemical_formula_structural   Li4Nd3YPd4
_chemical_formula_sum   'Li4 Nd3 Y1 Pd4'
_cell_volume   260.24730630
_cell_formula_units_Z   1
loop_
 _symmetry_equiv_pos_site_id
 _symmetry_equiv_pos_as_xyz
  1  'x, y, z'
loop_
 _atom_site_type_symbol
 _atom_site_label
 _atom_site_symmetry_multiplicity
 _atom_site_fract_x
 _atom_site_fract_y
 _atom_site_fract_z
 _atom_site_occupancy
  Li  Li0  1  0.750000  0.378398  0.051000  1
  Li  Li1  1  0.250000  0.620824  0.945297  1
  Li  Li2  1  0.750000  0.875132  0.448968  1
  Li  Li3  1  0.250000  0.127483  0.553947  1
  Nd  Nd4  1  0.250000  0.050482  0.180484  1
  Nd  Nd5  1  0.750000  0.950940  0.816357  1
  Nd  Nd6  1  0.250000  0.549986  0.322954  1
  Y  Y7  1  0.750000  0.448693  0.680197  1
  Pd  Pd8  1  0.250000  0.738077  0.629475  1
  Pd  Pd9  1  0.750000  0.254607  0.376620  1
  Pd  Pd10  1  0.250000  0.251042  0.868287  1
  Pd  Pd11  1  0.750000  0.754337  0.126413  1
