# generated using pymatgen
data_Dy3ErAl2(B2Rh5)2
_symmetry_space_group_name_H-M   'P 1'
_cell_length_a   9.49909211
_cell_length_b   9.49909211
_cell_length_c   3.18605300
_cell_angle_alpha   90.00000000
_cell_angle_beta   90.00000000
_cell_angle_gamma   90.09273154
_symmetry_Int_Tables_number   1
_chemical_formula_structural   Dy3ErAl2(B2Rh5)2
_chemical_formula_sum   'Dy3 Er1 Al2 B4 Rh10'
_cell_volume   287.48595024
_cell_formula_units_Z   1
loop_
 _symmetry_equiv_pos_site_id
 _symmetry_equiv_pos_as_xyz
  1  'x, y, z'
loop_
 _atom_site_type_symbol
 _atom_site_label
 _atom_site_symmetry_multiplicity
 _atom_site_fract_x
 _atom_site_fract_y
 _atom_site_fract_z
 _atom_site_occupancy
  Dy  Dy0  1  0.825302  0.325302  0.000000  1
  Dy  Dy1  1  0.324958  0.174896  0.000000  1
  Dy  Dy2  1  0.674896  0.824958  0.000000  1
  Er  Er3  1  0.174879  0.674879  0.000000  1
  Al  Al4  1  0.000045  0.999951  0.000000  1
  Al  Al5  1  0.499951  0.500045  0.000000  1
  B  B6  1  0.621728  0.121728  0.000000  1
  B  B7  1  0.121954  0.378865  0.000000  1
  B  B8  1  0.878865  0.621954  0.000000  1
  B  B9  1  0.377525  0.877525  0.000000  1
  Rh  Rh10  1  0.070482  0.218896  0.500000  1
  Rh  Rh11  1  0.218220  0.928491  0.500000  1
  Rh  Rh12  1  0.781317  0.070390  0.500000  1
  Rh  Rh13  1  0.930479  0.781252  0.500000  1
  Rh  Rh14  1  0.428491  0.718220  0.500000  1
  Rh  Rh15  1  0.570390  0.281317  0.500000  1
  Rh  Rh16  1  0.718896  0.570482  0.500000  1
  Rh  Rh17  1  0.281252  0.430479  0.500000  1
  Rh  Rh18  1  0.499719  0.999719  0.500000  1
  Rh  Rh19  1  0.000650  0.500650  0.500000  1
