# generated using pymatgen
data_Sr2HoTh(NiAs)4
_symmetry_space_group_name_H-M   'P 1'
_cell_length_a   4.10800300
_cell_length_b   4.10800329
_cell_length_c   16.77826400
_cell_angle_alpha   90.00000000
_cell_angle_beta   90.00000000
_cell_angle_gamma   120.00000574
_symmetry_Int_Tables_number   1
_chemical_formula_structural   Sr2HoTh(NiAs)4
_chemical_formula_sum   'Sr2 Ho1 Th1 Ni4 As4'
_cell_volume   245.21055749
_cell_formula_units_Z   1
loop_
 _symmetry_equiv_pos_site_id
 _symmetry_equiv_pos_as_xyz
  1  'x, y, z'
loop_
 _atom_site_type_symbol
 _atom_site_label
 _atom_site_symmetry_multiplicity
 _atom_site_fract_x
 _atom_site_fract_y
 _atom_site_fract_z
 _atom_site_occupancy
  Sr  Sr0  1  0.000000  0.000000  0.254510  1
  Sr  Sr1  1  0.000000  0.000000  0.745490  1
  Ho  Ho2  1  0.000000  0.000000  0.500000  1
  Th  Th3  1  0.000000  0.000000  0.000000  1
  Ni  Ni4  1  0.333333  0.666667  0.110853  1
  Ni  Ni5  1  0.666667  0.333333  0.889147  1
  Ni  Ni6  1  0.666667  0.333333  0.611100  1
  Ni  Ni7  1  0.333333  0.666667  0.388900  1
  As  As8  1  0.333333  0.666667  0.612974  1
  As  As9  1  0.666667  0.333333  0.387026  1
  As  As10  1  0.666667  0.333333  0.121447  1
  As  As11  1  0.333333  0.666667  0.878553  1
