# generated using pymatgen
data_Ta12Cr3Os9C4
_symmetry_space_group_name_H-M   'P 1'
_cell_length_a   8.36312017
_cell_length_b   8.36312103
_cell_length_c   8.36312100
_cell_angle_alpha   59.13479648
_cell_angle_beta   59.13479383
_cell_angle_gamma   59.13479230
_symmetry_Int_Tables_number   1
_chemical_formula_structural   Ta12Cr3Os9C4
_chemical_formula_sum   'Ta12 Cr3 Os9 C4'
_cell_volume   405.45268420
_cell_formula_units_Z   1
loop_
 _symmetry_equiv_pos_site_id
 _symmetry_equiv_pos_as_xyz
  1  'x, y, z'
loop_
 _atom_site_type_symbol
 _atom_site_label
 _atom_site_symmetry_multiplicity
 _atom_site_fract_x
 _atom_site_fract_y
 _atom_site_fract_z
 _atom_site_occupancy
  Ta  Ta0  1  0.807828  0.807828  0.193389  1
  Ta  Ta1  1  0.191480  0.191480  0.808391  1
  Ta  Ta2  1  0.807828  0.193389  0.807828  1
  Ta  Ta3  1  0.191480  0.808391  0.191480  1
  Ta  Ta4  1  0.193389  0.807828  0.807828  1
  Ta  Ta5  1  0.808391  0.191480  0.191480  1
  Ta  Ta6  1  0.442172  0.442172  0.056611  1
  Ta  Ta7  1  0.058520  0.058520  0.441609  1
  Ta  Ta8  1  0.442172  0.056611  0.442172  1
  Ta  Ta9  1  0.058520  0.441609  0.058520  1
  Ta  Ta10  1  0.056611  0.442172  0.442172  1
  Ta  Ta11  1  0.441609  0.058520  0.058520  1
  Cr  Cr12  1  0.125000  0.625000  0.625000  1
  Cr  Cr13  1  0.625000  0.125000  0.625000  1
  Cr  Cr14  1  0.625000  0.625000  0.125000  1
  Os  Os15  1  0.625000  0.625000  0.625000  1
  Os  Os16  1  0.745675  0.413945  0.413945  1
  Os  Os17  1  0.413945  0.745675  0.413945  1
  Os  Os18  1  0.413945  0.413945  0.745675  1
  Os  Os19  1  0.416796  0.416796  0.416796  1
  Os  Os20  1  0.504325  0.836055  0.836055  1
  Os  Os21  1  0.836055  0.504325  0.836055  1
  Os  Os22  1  0.836055  0.836055  0.504325  1
  Os  Os23  1  0.833204  0.833204  0.833204  1
  C  C24  1  0.625000  0.125000  0.125000  1
  C  C25  1  0.125000  0.625000  0.125000  1
  C  C26  1  0.125000  0.125000  0.625000  1
  C  C27  1  0.125000  0.125000  0.125000  1
