# generated using pymatgen
data_Th3Al2SnIr3
_symmetry_space_group_name_H-M   'P 1'
_cell_length_a   7.43413500
_cell_length_b   7.34434382
_cell_length_c   4.12809600
_cell_angle_alpha   90.00000000
_cell_angle_beta   90.00000000
_cell_angle_gamma   120.40525569
_symmetry_Int_Tables_number   1
_chemical_formula_structural   Th3Al2SnIr3
_chemical_formula_sum   'Th3 Al2 Sn1 Ir3'
_cell_volume   194.39086095
_cell_formula_units_Z   1
loop_
 _symmetry_equiv_pos_site_id
 _symmetry_equiv_pos_as_xyz
  1  'x, y, z'
loop_
 _atom_site_type_symbol
 _atom_site_label
 _atom_site_symmetry_multiplicity
 _atom_site_fract_x
 _atom_site_fract_y
 _atom_site_fract_z
 _atom_site_occupancy
  Th  Th0  1  0.410153  0.000000  0.500000  1
  Th  Th1  1  0.003274  0.422843  0.500000  1
  Th  Th2  1  0.580431  0.577157  0.500000  1
  Al  Al3  1  0.002198  0.765795  0.000000  1
  Al  Al4  1  0.236402  0.234205  0.000000  1
  Sn  Sn5  1  0.761513  0.000000  0.000000  1
  Ir  Ir6  1  0.321090  0.656754  0.000000  1
  Ir  Ir7  1  0.664337  0.343246  0.000000  1
  Ir  Ir8  1  0.020602  0.000000  0.500000  1
