# generated using pymatgen
data_Ca2Sb(AsRh2)6
_symmetry_space_group_name_H-M   'P 1'
_cell_length_a   10.08304500
_cell_length_b   10.08304465
_cell_length_c   3.94298400
_cell_angle_alpha   90.00000000
_cell_angle_beta   90.00000000
_cell_angle_gamma   119.99999787
_symmetry_Int_Tables_number   1
_chemical_formula_structural   Ca2Sb(AsRh2)6
_chemical_formula_sum   'Ca2 Sb1 As6 Rh12'
_cell_volume   347.16749156
_cell_formula_units_Z   1
loop_
 _symmetry_equiv_pos_site_id
 _symmetry_equiv_pos_as_xyz
  1  'x, y, z'
loop_
 _atom_site_type_symbol
 _atom_site_label
 _atom_site_symmetry_multiplicity
 _atom_site_fract_x
 _atom_site_fract_y
 _atom_site_fract_z
 _atom_site_occupancy
  Ca  Ca0  1  0.333333  0.666667  0.247783  1
  Ca  Ca1  1  0.666667  0.333333  0.752217  1
  Sb  Sb2  1  0.000000  0.000000  0.500000  1
  As  As3  1  0.406631  0.117050  0.252369  1
  As  As4  1  0.710419  0.593369  0.252369  1
  As  As5  1  0.882950  0.289581  0.252369  1
  As  As6  1  0.593369  0.882950  0.747631  1
  As  As7  1  0.289581  0.406631  0.747631  1
  As  As8  1  0.117050  0.710419  0.747631  1
  Rh  Rh9  1  0.445688  0.383751  0.251314  1
  Rh  Rh10  1  0.938063  0.554312  0.251314  1
  Rh  Rh11  1  0.616249  0.061937  0.251314  1
  Rh  Rh12  1  0.554312  0.616249  0.748686  1
  Rh  Rh13  1  0.061937  0.445688  0.748686  1
  Rh  Rh14  1  0.383751  0.938063  0.748686  1
  Rh  Rh15  1  0.155161  0.880489  0.241961  1
  Rh  Rh16  1  0.725328  0.844839  0.241961  1
  Rh  Rh17  1  0.119511  0.274672  0.241961  1
  Rh  Rh18  1  0.844839  0.119511  0.758039  1
  Rh  Rh19  1  0.274672  0.155161  0.758039  1
  Rh  Rh20  1  0.880489  0.725328  0.758039  1
