# generated using pymatgen
data_Pr(Sn2Ir)2
_symmetry_space_group_name_H-M   'P 1'
_cell_length_a   4.53468900
_cell_length_b   7.29194100
_cell_length_c   18.67992400
_cell_angle_alpha   90.00000000
_cell_angle_beta   90.00000000
_cell_angle_gamma   90.00000000
_symmetry_Int_Tables_number   1
_chemical_formula_structural   Pr(Sn2Ir)2
_chemical_formula_sum   'Pr4 Sn16 Ir8'
_cell_volume   617.68315603
_cell_formula_units_Z   4
loop_
 _symmetry_equiv_pos_site_id
 _symmetry_equiv_pos_as_xyz
  1  'x, y, z'
loop_
 _atom_site_type_symbol
 _atom_site_label
 _atom_site_symmetry_multiplicity
 _atom_site_fract_x
 _atom_site_fract_y
 _atom_site_fract_z
 _atom_site_occupancy
  Pr  Pr0  1  0.250000  0.998025  0.857654  1
  Pr  Pr1  1  0.250000  0.501975  0.357654  1
  Pr  Pr2  1  0.750000  0.001975  0.142346  1
  Pr  Pr3  1  0.750000  0.498025  0.642346  1
  Sn  Sn4  1  0.250000  0.302402  0.182186  1
  Sn  Sn5  1  0.250000  0.197598  0.682186  1
  Sn  Sn6  1  0.750000  0.697598  0.817814  1
  Sn  Sn7  1  0.750000  0.802402  0.317814  1
  Sn  Sn8  1  0.250000  0.722474  0.194337  1
  Sn  Sn9  1  0.250000  0.777526  0.694337  1
  Sn  Sn10  1  0.750000  0.277526  0.805663  1
  Sn  Sn11  1  0.750000  0.222474  0.305663  1
  Sn  Sn12  1  0.250000  0.865796  0.031987  1
  Sn  Sn13  1  0.250000  0.634204  0.531987  1
  Sn  Sn14  1  0.750000  0.134204  0.968013  1
  Sn  Sn15  1  0.750000  0.365796  0.468013  1
  Sn  Sn16  1  0.250000  0.520540  0.932360  1
  Sn  Sn17  1  0.250000  0.979460  0.432360  1
  Sn  Sn18  1  0.750000  0.479460  0.067640  1
  Sn  Sn19  1  0.750000  0.020540  0.567640  1
  Ir  Ir20  1  0.250000  0.250798  0.034848  1
  Ir  Ir21  1  0.250000  0.249202  0.534848  1
  Ir  Ir22  1  0.750000  0.749202  0.965152  1
  Ir  Ir23  1  0.750000  0.750798  0.465152  1
  Ir  Ir24  1  0.250000  0.017530  0.286219  1
  Ir  Ir25  1  0.250000  0.482470  0.786219  1
  Ir  Ir26  1  0.750000  0.982470  0.713781  1
  Ir  Ir27  1  0.750000  0.517530  0.213781  1
