# generated using pymatgen
data_Hf(S4I)4
_symmetry_space_group_name_H-M   'P 1'
_cell_length_a   16.64986301
_cell_length_b   13.46835991
_cell_length_c   13.19292003
_cell_angle_alpha   77.28276273
_cell_angle_beta   52.09897412
_cell_angle_gamma   50.61826228
_symmetry_Int_Tables_number   1
_chemical_formula_structural   Hf(S4I)4
_chemical_formula_sum   'Hf2 S32 I8'
_cell_volume   1733.18881966
_cell_formula_units_Z   2
loop_
 _symmetry_equiv_pos_site_id
 _symmetry_equiv_pos_as_xyz
  1  'x, y, z'
loop_
 _atom_site_type_symbol
 _atom_site_label
 _atom_site_symmetry_multiplicity
 _atom_site_fract_x
 _atom_site_fract_y
 _atom_site_fract_z
 _atom_site_occupancy
  Hf  Hf0  1  0.248430  0.251570  0.251570  1
  Hf  Hf1  1  0.998430  0.001570  0.001570  1
  S  S2  1  0.522617  0.476178  0.254250  1
  S  S3  1  0.327256  0.869743  0.165379  1
  S  S4  1  0.746956  0.254250  0.476178  1
  S  S5  1  0.802893  0.538201  0.334397  1
  S  S6  1  0.637622  0.165379  0.869743  1
  S  S7  1  0.179419  0.317045  0.651892  1
  S  S8  1  0.594805  0.920377  0.586678  1
  S  S9  1  0.332115  0.810330  0.320742  1
  S  S10  1  0.637215  0.652640  0.344530  1
  S  S11  1  0.324510  0.334397  0.538201  1
  S  S12  1  0.711799  0.447107  0.925490  1
  S  S13  1  0.773822  0.727383  0.503044  1
  S  S14  1  0.329623  0.655195  0.351860  1
  S  S15  1  0.905470  0.884385  0.612785  1
  S  S16  1  0.598108  0.398357  0.070581  1
  S  S17  1  0.898140  0.586678  0.920377  1
  S  S18  1  0.258402  0.542113  0.730810  1
  S  S19  1  0.707887  0.991598  0.781325  1
  S  S20  1  0.439670  0.917885  0.713186  1
  S  S21  1  0.380257  0.922744  0.612378  1
  S  S22  1  0.365615  0.344530  0.652640  1
  S  S23  1  0.932955  0.070581  0.398357  1
  S  S24  1  0.084621  0.612378  0.922744  1
  S  S25  1  0.536814  0.320742  0.810330  1
  S  S26  1  0.519190  0.781325  0.991598  1
  S  S27  1  0.915603  0.925490  0.447107  1
  S  S28  1  0.663322  0.351860  0.655195  1
  S  S29  1  0.851643  0.651892  0.317045  1
  S  S30  1  0.929258  0.713186  0.917885  1
  S  S31  1  0.597360  0.612785  0.884385  1
  S  S32  1  0.468675  0.730810  0.542113  1
  S  S33  1  0.995750  0.503044  0.727383  1
  I  I34  1  0.212627  0.783899  0.977809  1
  I  I35  1  0.968605  0.214941  0.035075  1
  I  I36  1  0.025664  0.977809  0.783899  1
  I  I37  1  0.781379  0.035075  0.214941  1
  I  I38  1  0.466101  0.037373  0.224336  1
  I  I39  1  0.272191  0.224336  0.037373  1
  I  I40  1  0.214925  0.468621  0.281395  1
  I  I41  1  0.035059  0.281395  0.468621  1
