# generated using pymatgen
data_Lu10Zn3Bi2Ir
_symmetry_space_group_name_H-M   'P 1'
_cell_length_a   8.47894926
_cell_length_b   8.47894859
_cell_length_c   8.55406277
_cell_angle_alpha   124.57143731
_cell_angle_beta   124.57143877
_cell_angle_gamma   81.66734383
_symmetry_Int_Tables_number   1
_chemical_formula_structural   Lu10Zn3Bi2Ir
_chemical_formula_sum   'Lu10 Zn3 Bi2 Ir1'
_cell_volume   402.49536478
_cell_formula_units_Z   1
loop_
 _symmetry_equiv_pos_site_id
 _symmetry_equiv_pos_as_xyz
  1  'x, y, z'
loop_
 _atom_site_type_symbol
 _atom_site_label
 _atom_site_symmetry_multiplicity
 _atom_site_fract_x
 _atom_site_fract_y
 _atom_site_fract_z
 _atom_site_occupancy
  Lu  Lu0  1  0.007923  0.001800  0.009723  1
  Lu  Lu1  1  0.498200  0.492077  0.990277  1
  Lu  Lu2  1  0.782923  0.294257  0.796913  1
  Lu  Lu3  1  0.205743  0.717077  0.203087  1
  Lu  Lu4  1  0.486009  0.997344  0.203087  1
  Lu  Lu5  1  0.304197  0.470708  0.500000  1
  Lu  Lu6  1  0.029292  0.195803  0.500000  1
  Lu  Lu7  1  0.502656  0.013991  0.796913  1
  Lu  Lu8  1  0.707260  0.515442  0.500000  1
  Lu  Lu9  1  0.984558  0.792740  0.500000  1
  Zn  Zn10  1  0.137703  0.639724  0.777428  1
  Zn  Zn11  1  0.860276  0.362297  0.222572  1
  Zn  Zn12  1  0.638064  0.861936  0.500000  1
  Bi  Bi13  1  0.244247  0.255753  0.000000  1
  Bi  Bi14  1  0.744247  0.755753  0.000000  1
  Ir  Ir15  1  0.366704  0.133296  0.500000  1
