# generated using pymatgen
data_Pr8SmYPb8
_symmetry_space_group_name_H-M   'P 1'
_cell_length_a   8.40452100
_cell_length_b   8.52220400
_cell_length_c   16.26206000
_cell_angle_alpha   90.00000000
_cell_angle_beta   90.00000000
_cell_angle_gamma   90.00000000
_symmetry_Int_Tables_number   1
_chemical_formula_structural   Pr8SmYPb8
_chemical_formula_sum   'Pr16 Sm2 Y2 Pb16'
_cell_volume   1164.77073838
_cell_formula_units_Z   2
loop_
 _symmetry_equiv_pos_site_id
 _symmetry_equiv_pos_as_xyz
  1  'x, y, z'
loop_
 _atom_site_type_symbol
 _atom_site_label
 _atom_site_symmetry_multiplicity
 _atom_site_fract_x
 _atom_site_fract_y
 _atom_site_fract_z
 _atom_site_occupancy
  Pr  Pr0  1  0.468558  0.822072  0.400172  1
  Pr  Pr1  1  0.031442  0.322072  0.900172  1
  Pr  Pr2  1  0.031442  0.322072  0.599828  1
  Pr  Pr3  1  0.875958  0.841516  0.880397  1
  Pr  Pr4  1  0.468558  0.822072  0.099828  1
  Pr  Pr5  1  0.375854  0.658593  0.880260  1
  Pr  Pr6  1  0.624042  0.341516  0.119603  1
  Pr  Pr7  1  0.624042  0.341516  0.380397  1
  Pr  Pr8  1  0.531542  0.178087  0.599773  1
  Pr  Pr9  1  0.375854  0.658593  0.619740  1
  Pr  Pr10  1  0.531542  0.178087  0.900227  1
  Pr  Pr11  1  0.968458  0.678087  0.400227  1
  Pr  Pr12  1  0.968458  0.678087  0.099773  1
  Pr  Pr13  1  0.124146  0.158593  0.119740  1
  Pr  Pr14  1  0.875958  0.841516  0.619603  1
  Pr  Pr15  1  0.124146  0.158593  0.380260  1
  Sm  Sm16  1  0.793025  0.003206  0.250000  1
  Sm  Sm17  1  0.706975  0.503206  0.750000  1
  Y  Y18  1  0.292555  0.496862  0.250000  1
  Y  Y19  1  0.207445  0.996862  0.750000  1
  Pb  Pb20  1  0.841200  0.152168  0.750000  1
  Pb  Pb21  1  0.717013  0.531729  0.544854  1
  Pb  Pb22  1  0.929188  0.377232  0.250000  1
  Pb  Pb23  1  0.217247  0.967902  0.955041  1
  Pb  Pb24  1  0.282753  0.467902  0.044959  1
  Pb  Pb25  1  0.570812  0.877232  0.750000  1
  Pb  Pb26  1  0.341709  0.347031  0.750000  1
  Pb  Pb27  1  0.071432  0.623705  0.750000  1
  Pb  Pb28  1  0.782987  0.031729  0.455146  1
  Pb  Pb29  1  0.282753  0.467902  0.455041  1
  Pb  Pb30  1  0.158291  0.847031  0.250000  1
  Pb  Pb31  1  0.217247  0.967902  0.544959  1
  Pb  Pb32  1  0.782987  0.031729  0.044854  1
  Pb  Pb33  1  0.658800  0.652168  0.250000  1
  Pb  Pb34  1  0.717013  0.531729  0.955146  1
  Pb  Pb35  1  0.428568  0.123705  0.250000  1
