# generated using pymatgen
data_Ca2Nd2Fe3NiO12
_symmetry_space_group_name_H-M   'P 1'
_cell_length_a   5.41590015
_cell_length_b   5.53744694
_cell_length_c   7.72652042
_cell_angle_alpha   90.19409333
_cell_angle_beta   89.79065783
_cell_angle_gamma   90.07056735
_symmetry_Int_Tables_number   1
_chemical_formula_structural   Ca2Nd2Fe3NiO12
_chemical_formula_sum   'Ca2 Nd2 Fe3 Ni1 O12'
_cell_volume   231.71730524
_cell_formula_units_Z   1
loop_
 _symmetry_equiv_pos_site_id
 _symmetry_equiv_pos_as_xyz
  1  'x, y, z'
loop_
 _atom_site_type_symbol
 _atom_site_label
 _atom_site_symmetry_multiplicity
 _atom_site_fract_x
 _atom_site_fract_y
 _atom_site_fract_z
 _atom_site_occupancy
  Ca  Ca0  1  0.990548  0.043769  0.744568  1
  Ca  Ca1  1  0.009452  0.956231  0.255432  1
  Nd  Nd2  1  0.512065  0.550461  0.746817  1
  Nd  Nd3  1  0.487935  0.449539  0.253183  1
  Fe  Fe4  1  0.500000  0.000000  0.000000  1
  Fe  Fe5  1  0.000000  0.500000  0.000000  1
  Fe  Fe6  1  0.000000  0.500000  0.500000  1
  Ni  Ni7  1  0.500000  0.000000  0.500000  1
  O  O8  1  0.215620  0.211612  0.049671  1
  O  O9  1  0.206667  0.221689  0.454945  1
  O  O10  1  0.709095  0.298302  0.962794  1
  O  O11  1  0.793333  0.778311  0.545055  1
  O  O12  1  0.286227  0.700452  0.466303  1
  O  O13  1  0.784380  0.788388  0.950329  1
  O  O14  1  0.422086  0.987127  0.756102  1
  O  O15  1  0.922765  0.526255  0.245936  1
  O  O16  1  0.077235  0.473745  0.754064  1
  O  O17  1  0.713773  0.299548  0.533697  1
  O  O18  1  0.290905  0.701698  0.037206  1
  O  O19  1  0.577914  0.012873  0.243898  1
