# generated using pymatgen
data_Nb4Ir2PdS12
_symmetry_space_group_name_H-M   'P 1'
_cell_length_a   7.19731822
_cell_length_b   7.19731797
_cell_length_c   18.68872500
_cell_angle_alpha   69.86946364
_cell_angle_beta   69.86946435
_cell_angle_gamma   26.68392977
_symmetry_Int_Tables_number   1
_chemical_formula_structural   Nb4Ir2PdS12
_chemical_formula_sum   'Nb4 Ir2 Pd1 S12'
_cell_volume   406.64056447
_cell_formula_units_Z   1
loop_
 _symmetry_equiv_pos_site_id
 _symmetry_equiv_pos_as_xyz
  1  'x, y, z'
loop_
 _atom_site_type_symbol
 _atom_site_label
 _atom_site_symmetry_multiplicity
 _atom_site_fract_x
 _atom_site_fract_y
 _atom_site_fract_z
 _atom_site_occupancy
  Nb  Nb0  1  0.745423  0.745423  0.588868  1
  Nb  Nb1  1  0.254577  0.254577  0.411132  1
  Nb  Nb2  1  0.620444  0.620444  0.851076  1
  Nb  Nb3  1  0.379556  0.379556  0.148924  1
  Ir  Ir4  1  0.770289  0.770289  0.282259  1
  Ir  Ir5  1  0.229711  0.229711  0.717741  1
  Pd  Pd6  1  0.000000  0.000000  0.000000  1
  S  S7  1  0.861577  0.861577  0.450203  1
  S  S8  1  0.021044  0.021044  0.118731  1
  S  S9  1  0.802912  0.802912  0.770535  1
  S  S10  1  0.392803  0.392803  0.282675  1
  S  S11  1  0.175609  0.175609  0.928463  1
  S  S12  1  0.607197  0.607197  0.717325  1
  S  S13  1  0.138423  0.138423  0.549797  1
  S  S14  1  0.824391  0.824391  0.071537  1
  S  S15  1  0.369703  0.369703  0.600608  1
  S  S16  1  0.978956  0.978956  0.881269  1
  S  S17  1  0.197088  0.197088  0.229465  1
  S  S18  1  0.630297  0.630297  0.399392  1
