# generated using pymatgen
data_Rb8Tb3Lu3BBr20
_symmetry_space_group_name_H-M   'P 1'
_cell_length_a   12.14128245
_cell_length_b   12.23828561
_cell_length_c   12.24062494
_cell_angle_alpha   59.87210889
_cell_angle_beta   60.06947368
_cell_angle_gamma   60.44493626
_symmetry_Int_Tables_number   1
_chemical_formula_structural   Rb8Tb3Lu3BBr20
_chemical_formula_sum   'Rb8 Tb3 Lu3 B1 Br20'
_cell_volume   1289.78442326
_cell_formula_units_Z   1
loop_
 _symmetry_equiv_pos_site_id
 _symmetry_equiv_pos_as_xyz
  1  'x, y, z'
loop_
 _atom_site_type_symbol
 _atom_site_label
 _atom_site_symmetry_multiplicity
 _atom_site_fract_x
 _atom_site_fract_y
 _atom_site_fract_z
 _atom_site_occupancy
  Rb  Rb0  1  0.359585  0.360300  0.359240  1
  Rb  Rb1  1  0.640484  0.639169  0.641092  1
  Rb  Rb2  1  0.360193  0.359959  0.921144  1
  Rb  Rb3  1  0.358525  0.921851  0.359808  1
  Rb  Rb4  1  0.640202  0.639917  0.078627  1
  Rb  Rb5  1  0.641519  0.078320  0.640295  1
  Rb  Rb6  1  0.920596  0.359123  0.360697  1
  Rb  Rb7  1  0.079248  0.640525  0.639847  1
  Tb  Tb8  1  0.849300  0.152150  0.149452  1
  Tb  Tb9  1  0.150433  0.848196  0.850239  1
  Tb  Tb10  1  0.150357  0.846576  0.152416  1
  Lu  Lu11  1  0.852209  0.150747  0.850169  1
  Lu  Lu12  1  0.146584  0.152303  0.849070  1
  Lu  Lu13  1  0.852214  0.848916  0.149712  1
  B  B14  1  0.999635  0.001126  0.999131  1
  Br  Br15  1  0.326653  0.005049  0.994645  1
  Br  Br16  1  0.676453  0.999633  0.000507  1
  Br  Br17  1  0.000931  0.327002  0.671558  1
  Br  Br18  1  0.993927  0.669967  0.331647  1
  Br  Br19  1  0.006712  0.328540  0.995087  1
  Br  Br20  1  0.671924  0.994933  0.326367  1
  Br  Br21  1  0.992599  0.672163  0.004285  1
  Br  Br22  1  0.327474  0.005597  0.672993  1
  Br  Br23  1  0.001121  0.999706  0.331075  1
  Br  Br24  1  0.994207  0.004999  0.673047  1
  Br  Br25  1  0.669897  0.327215  0.995964  1
  Br  Br26  1  0.334310  0.668640  0.999198  1
  Br  Br27  1  0.679142  0.321105  0.319069  1
  Br  Br28  1  0.319266  0.680761  0.679139  1
  Br  Br29  1  0.320870  0.678946  0.321045  1
  Br  Br30  1  0.685252  0.314403  0.685579  1
  Br  Br31  1  0.314530  0.316164  0.683717  1
  Br  Br32  1  0.683524  0.686033  0.314065  1
  Br  Br33  1  0.250443  0.249394  0.249905  1
  Br  Br34  1  0.749681  0.750569  0.750170  1
