# generated using pymatgen
data_TbDy9(InSb)3
_symmetry_space_group_name_H-M   'P 1'
_cell_length_a   8.97603900
_cell_length_b   8.96037083
_cell_length_c   6.56380900
_cell_angle_alpha   90.00173287
_cell_angle_beta   90.00082343
_cell_angle_gamma   120.14233609
_symmetry_Int_Tables_number   1
_chemical_formula_structural   TbDy9(InSb)3
_chemical_formula_sum   'Tb1 Dy9 In3 Sb3'
_cell_volume   456.53344152
_cell_formula_units_Z   1
loop_
 _symmetry_equiv_pos_site_id
 _symmetry_equiv_pos_as_xyz
  1  'x, y, z'
loop_
 _atom_site_type_symbol
 _atom_site_label
 _atom_site_symmetry_multiplicity
 _atom_site_fract_x
 _atom_site_fract_y
 _atom_site_fract_z
 _atom_site_occupancy
  Tb  Tb0  1  0.329631  0.665963  0.499271  1
  Dy  Dy1  1  0.329534  0.665463  0.001110  1
  Dy  Dy2  1  0.665022  0.333876  0.499767  1
  Dy  Dy3  1  0.664310  0.333554  0.000192  1
  Dy  Dy4  1  0.761982  0.999853  0.750219  1
  Dy  Dy5  1  0.764524  0.761376  0.250150  1
  Dy  Dy6  1  0.003457  0.238442  0.249629  1
  Dy  Dy7  1  0.001608  0.763450  0.749985  1
  Dy  Dy8  1  0.239299  0.235477  0.749597  1
  Dy  Dy9  1  0.238515  0.001019  0.249870  1
  In  In10  1  0.397993  0.000443  0.750299  1
  In  In11  1  0.396979  0.399052  0.249714  1
  In  In12  1  0.997943  0.601743  0.249842  1
  Sb  Sb13  1  0.996571  0.391333  0.750337  1
  Sb  Sb14  1  0.605627  0.608485  0.750234  1
  Sb  Sb15  1  0.607000  0.000471  0.249783  1
