# generated using pymatgen
data_HoTm3(InGa2)2
_symmetry_space_group_name_H-M   'P 1'
_cell_length_a   7.16320203
_cell_length_b   7.16320203
_cell_length_c   4.39699500
_cell_angle_alpha   90.00000000
_cell_angle_beta   90.00000000
_cell_angle_gamma   89.78146139
_symmetry_Int_Tables_number   1
_chemical_formula_structural   HoTm3(InGa2)2
_chemical_formula_sum   'Ho1 Tm3 In2 Ga4'
_cell_volume   225.61460629
_cell_formula_units_Z   1
loop_
 _symmetry_equiv_pos_site_id
 _symmetry_equiv_pos_as_xyz
  1  'x, y, z'
loop_
 _atom_site_type_symbol
 _atom_site_label
 _atom_site_symmetry_multiplicity
 _atom_site_fract_x
 _atom_site_fract_y
 _atom_site_fract_z
 _atom_site_occupancy
  Ho  Ho0  1  0.672117  0.172117  0.500000  1
  Tm  Tm1  1  0.327572  0.827572  0.500000  1
  Tm  Tm2  1  0.828285  0.672072  0.500000  1
  Tm  Tm3  1  0.172072  0.328285  0.500000  1
  In  In4  1  0.000182  0.999769  0.000000  1
  In  In5  1  0.499769  0.500182  0.000000  1
  Ga  Ga6  1  0.126658  0.626658  0.000000  1
  Ga  Ga7  1  0.626359  0.872791  0.000000  1
  Ga  Ga8  1  0.372791  0.126359  0.000000  1
  Ga  Ga9  1  0.874195  0.374195  0.000000  1
