# generated using pymatgen
data_Ca9SmSi6F
_symmetry_space_group_name_H-M   'P 1'
_cell_length_a   9.10222656
_cell_length_b   9.07998973
_cell_length_c   9.10017504
_cell_angle_alpha   130.18668804
_cell_angle_beta   130.25151865
_cell_angle_gamma   72.97958533
_symmetry_Int_Tables_number   1
_chemical_formula_structural   Ca9SmSi6F
_chemical_formula_sum   'Ca9 Sm1 Si6 F1'
_cell_volume   428.45326301
_cell_formula_units_Z   1
loop_
 _symmetry_equiv_pos_site_id
 _symmetry_equiv_pos_as_xyz
  1  'x, y, z'
loop_
 _atom_site_type_symbol
 _atom_site_label
 _atom_site_symmetry_multiplicity
 _atom_site_fract_x
 _atom_site_fract_y
 _atom_site_fract_z
 _atom_site_occupancy
  Ca  Ca0  1  0.432542  0.773327  0.000000  1
  Ca  Ca1  1  0.932413  0.931609  0.645077  1
  Ca  Ca2  1  0.287334  0.286531  0.354922  1
  Ca  Ca3  1  0.711478  0.066393  0.000000  1
  Ca  Ca4  1  0.067964  0.712466  0.000001  1
  Ca  Ca5  1  0.565807  0.565575  0.337071  1
  Ca  Ca6  1  0.228734  0.228501  0.662928  1
  Ca  Ca7  1  0.253106  0.753012  0.504575  1
  Ca  Ca8  1  0.748529  0.248437  0.495425  1
  Sm  Sm9  1  0.779516  0.433227  0.000000  1
  Si  Si10  1  0.995791  0.499274  0.491090  1
  Si  Si11  1  0.504702  0.008184  0.508911  1
  Si  Si12  1  0.129707  0.361238  0.000000  1
  Si  Si13  1  0.359536  0.135612  0.000000  1
  Si  Si14  1  0.865347  0.860512  0.225716  1
  Si  Si15  1  0.639632  0.634797  0.774284  1
  F  F16  1  0.497861  0.501302  0.000000  1
