# generated using pymatgen
data_Er13Pa3(CdCo)4
_symmetry_space_group_name_H-M   'P 1'
_cell_length_a   9.39203023
_cell_length_b   9.45280322
_cell_length_c   9.45280200
_cell_angle_alpha   59.99999726
_cell_angle_beta   59.78571643
_cell_angle_gamma   59.78571078
_symmetry_Int_Tables_number   1
_chemical_formula_structural   Er13Pa3(CdCo)4
_chemical_formula_sum   'Er13 Pa3 Cd4 Co4'
_cell_volume   591.49541235
_cell_formula_units_Z   1
loop_
 _symmetry_equiv_pos_site_id
 _symmetry_equiv_pos_as_xyz
  1  'x, y, z'
loop_
 _atom_site_type_symbol
 _atom_site_label
 _atom_site_symmetry_multiplicity
 _atom_site_fract_x
 _atom_site_fract_y
 _atom_site_fract_z
 _atom_site_occupancy
  Er  Er0  1  0.952315  0.349228  0.349228  1
  Er  Er1  1  0.809245  0.189033  0.189033  1
  Er  Er2  1  0.189471  0.811499  0.811499  1
  Er  Er3  1  0.189471  0.811499  0.187532  1
  Er  Er4  1  0.809245  0.189033  0.812689  1
  Er  Er5  1  0.189471  0.187532  0.811499  1
  Er  Er6  1  0.809245  0.812689  0.189033  1
  Er  Er7  1  0.936602  0.565173  0.565173  1
  Er  Er8  1  0.560950  0.937810  0.937810  1
  Er  Er9  1  0.560950  0.937810  0.563430  1
  Er  Er10  1  0.936602  0.565173  0.933052  1
  Er  Er11  1  0.560950  0.563430  0.937810  1
  Er  Er12  1  0.936602  0.933052  0.565173  1
  Pa  Pa13  1  0.335349  0.343897  0.343897  1
  Pa  Pa14  1  0.335349  0.343897  0.976857  1
  Pa  Pa15  1  0.335349  0.976857  0.343897  1
  Cd  Cd16  1  0.580635  0.582003  0.582003  1
  Cd  Cd17  1  0.580635  0.582003  0.255356  1
  Cd  Cd18  1  0.580635  0.255356  0.582003  1
  Cd  Cd19  1  0.256927  0.581024  0.581024  1
  Co  Co20  1  0.166851  0.137328  0.137328  1
  Co  Co21  1  0.166851  0.137328  0.558491  1
  Co  Co22  1  0.166851  0.558491  0.137328  1
  Co  Co23  1  0.553450  0.148850  0.148850  1
