# generated using pymatgen
data_Sm4Co13As12Ru7
_symmetry_space_group_name_H-M   'P 1'
_cell_length_a   3.89188300
_cell_length_b   10.93502134
_cell_length_c   12.39405042
_cell_angle_alpha   90.03921222
_cell_angle_beta   90.00000000
_cell_angle_gamma   90.00000000
_symmetry_Int_Tables_number   1
_chemical_formula_structural   Sm4Co13As12Ru7
_chemical_formula_sum   'Sm4 Co13 As12 Ru7'
_cell_volume   527.46368895
_cell_formula_units_Z   1
loop_
 _symmetry_equiv_pos_site_id
 _symmetry_equiv_pos_as_xyz
  1  'x, y, z'
loop_
 _atom_site_type_symbol
 _atom_site_label
 _atom_site_symmetry_multiplicity
 _atom_site_fract_x
 _atom_site_fract_y
 _atom_site_fract_z
 _atom_site_occupancy
  Sm  Sm0  1  0.250000  0.585767  0.706079  1
  Sm  Sm1  1  0.250000  0.913905  0.203440  1
  Sm  Sm2  1  0.750000  0.414625  0.294081  1
  Sm  Sm3  1  0.750000  0.084269  0.795027  1
  Co  Co4  1  0.750000  0.902746  0.011005  1
  Co  Co5  1  0.250000  0.220330  0.177364  1
  Co  Co6  1  0.250000  0.279095  0.678114  1
  Co  Co7  1  0.750000  0.782020  0.825050  1
  Co  Co8  1  0.750000  0.720797  0.320678  1
  Co  Co9  1  0.250000  0.884503  0.697925  1
  Co  Co10  1  0.250000  0.616239  0.196941  1
  Co  Co11  1  0.750000  0.114012  0.301560  1
  Co  Co12  1  0.750000  0.383870  0.802648  1
  Co  Co13  1  0.250000  0.467021  0.932832  1
  Co  Co14  1  0.250000  0.033424  0.432314  1
  Co  Co15  1  0.750000  0.534584  0.067670  1
  Co  Co16  1  0.750000  0.966227  0.566287  1
  As  As17  1  0.250000  0.419788  0.112488  1
  As  As18  1  0.250000  0.080281  0.612887  1
  As  As19  1  0.750000  0.581096  0.887414  1
  As  As20  1  0.750000  0.918929  0.386248  1
  As  As21  1  0.250000  0.273748  0.867271  1
  As  As22  1  0.250000  0.225627  0.366132  1
  As  As23  1  0.750000  0.729086  0.130620  1
  As  As24  1  0.750000  0.774870  0.634966  1
  As  As25  1  0.250000  0.601535  0.385146  1
  As  As26  1  0.250000  0.898709  0.887854  1
  As  As27  1  0.750000  0.398990  0.614613  1
  As  As28  1  0.750000  0.098468  0.113390  1
  Ru  Ru29  1  0.250000  0.709599  0.989726  1
  Ru  Ru30  1  0.250000  0.794712  0.485984  1
  Ru  Ru31  1  0.750000  0.291759  0.012745  1
  Ru  Ru32  1  0.750000  0.205696  0.513742  1
  Ru  Ru33  1  0.250000  0.403390  0.487590  1
  Ru  Ru34  1  0.250000  0.092679  0.989736  1
  Ru  Ru35  1  0.750000  0.597606  0.512433  1
