# generated using pymatgen
data_La5Ge2Rh
_symmetry_space_group_name_H-M   'P 1'
_cell_length_a   8.18611400
_cell_length_b   9.01571900
_cell_length_c   12.63445900
_cell_angle_alpha   90.00000000
_cell_angle_beta   90.00000000
_cell_angle_gamma   90.00000000
_symmetry_Int_Tables_number   1
_chemical_formula_structural   La5Ge2Rh
_chemical_formula_sum   'La20 Ge8 Rh4'
_cell_volume   932.46986625
_cell_formula_units_Z   4
loop_
 _symmetry_equiv_pos_site_id
 _symmetry_equiv_pos_as_xyz
  1  'x, y, z'
loop_
 _atom_site_type_symbol
 _atom_site_label
 _atom_site_symmetry_multiplicity
 _atom_site_fract_x
 _atom_site_fract_y
 _atom_site_fract_z
 _atom_site_occupancy
  La  La0  1  0.681930  0.466486  0.073430  1
  La  La1  1  0.181930  0.533514  0.426570  1
  La  La2  1  0.318070  0.966486  0.926570  1
  La  La3  1  0.818070  0.033514  0.573430  1
  La  La4  1  0.318070  0.533514  0.926570  1
  La  La5  1  0.818070  0.466486  0.573430  1
  La  La6  1  0.681930  0.033514  0.073430  1
  La  La7  1  0.181930  0.966486  0.426570  1
  La  La8  1  0.958055  0.750000  0.000516  1
  La  La9  1  0.458055  0.250000  0.499484  1
  La  La10  1  0.041945  0.250000  0.999484  1
  La  La11  1  0.541945  0.750000  0.500516  1
  La  La12  1  0.355705  0.750000  0.205544  1
  La  La13  1  0.855705  0.250000  0.294456  1
  La  La14  1  0.644295  0.250000  0.794456  1
  La  La15  1  0.144295  0.750000  0.705544  1
  La  La16  1  0.834466  0.750000  0.284546  1
  La  La17  1  0.334466  0.250000  0.215454  1
  La  La18  1  0.165534  0.250000  0.715454  1
  La  La19  1  0.665534  0.750000  0.784546  1
  Ge  Ge20  1  0.563477  0.495308  0.328978  1
  Ge  Ge21  1  0.063477  0.504692  0.171022  1
  Ge  Ge22  1  0.436523  0.995308  0.671022  1
  Ge  Ge23  1  0.936523  0.004692  0.828978  1
  Ge  Ge24  1  0.436523  0.504692  0.671022  1
  Ge  Ge25  1  0.936523  0.495308  0.828978  1
  Ge  Ge26  1  0.563477  0.004692  0.328978  1
  Ge  Ge27  1  0.063477  0.995308  0.171022  1
  Rh  Rh28  1  0.578122  0.750000  0.016243  1
  Rh  Rh29  1  0.078122  0.250000  0.483757  1
  Rh  Rh30  1  0.421878  0.250000  0.983757  1
  Rh  Rh31  1  0.921878  0.750000  0.516243  1
