# generated using pymatgen
data_Ru3Rh3W2
_symmetry_space_group_name_H-M   'P 1'
_cell_length_a   5.51140700
_cell_length_b   5.51140684
_cell_length_c   4.39376300
_cell_angle_alpha   90.00000000
_cell_angle_beta   90.00000000
_cell_angle_gamma   120.00000696
_symmetry_Int_Tables_number   1
_chemical_formula_structural   Ru3Rh3W2
_chemical_formula_sum   'Ru3 Rh3 W2'
_cell_volume   115.58252639
_cell_formula_units_Z   1
loop_
 _symmetry_equiv_pos_site_id
 _symmetry_equiv_pos_as_xyz
  1  'x, y, z'
loop_
 _atom_site_type_symbol
 _atom_site_label
 _atom_site_symmetry_multiplicity
 _atom_site_fract_x
 _atom_site_fract_y
 _atom_site_fract_z
 _atom_site_occupancy
  Ru  Ru0  1  0.834957  0.669915  0.750000  1
  Ru  Ru1  1  0.330085  0.165043  0.750000  1
  Ru  Ru2  1  0.834957  0.165043  0.750000  1
  Rh  Rh3  1  0.166556  0.333111  0.250000  1
  Rh  Rh4  1  0.666889  0.833444  0.250000  1
  Rh  Rh5  1  0.166556  0.833444  0.250000  1
  W  W6  1  0.333333  0.666667  0.750000  1
  W  W7  1  0.666667  0.333333  0.250000  1
