# generated using pymatgen
data_Li2Tb3DyAs4
_symmetry_space_group_name_H-M   'P 1'
_cell_length_a   4.18730400
_cell_length_b   4.18730481
_cell_length_c   14.22943800
_cell_angle_alpha   90.00000000
_cell_angle_beta   90.00000000
_cell_angle_gamma   120.00000937
_symmetry_Int_Tables_number   1
_chemical_formula_structural   Li2Tb3DyAs4
_chemical_formula_sum   'Li2 Tb3 Dy1 As4'
_cell_volume   216.06648500
_cell_formula_units_Z   1
loop_
 _symmetry_equiv_pos_site_id
 _symmetry_equiv_pos_as_xyz
  1  'x, y, z'
loop_
 _atom_site_type_symbol
 _atom_site_label
 _atom_site_symmetry_multiplicity
 _atom_site_fract_x
 _atom_site_fract_y
 _atom_site_fract_z
 _atom_site_occupancy
  Li  Li0  1  0.000000  0.000000  0.249895  1
  Li  Li1  1  0.000000  0.000000  0.749973  1
  Tb  Tb2  1  0.333333  0.666667  0.389325  1
  Tb  Tb3  1  0.666667  0.333333  0.610613  1
  Tb  Tb4  1  0.666667  0.333333  0.889382  1
  Dy  Dy5  1  0.333333  0.666667  0.110565  1
  As  As6  1  0.000000  0.000000  0.499994  1
  As  As7  1  0.000000  0.000000  0.000489  1
  As  As8  1  0.333333  0.666667  0.750055  1
  As  As9  1  0.666667  0.333333  0.249709  1
