# generated using pymatgen
data_Tb3Th(Al8Pd3)3
_symmetry_space_group_name_H-M   'P 1'
_cell_length_a   7.58097170
_cell_length_b   7.59023081
_cell_length_c   13.20950645
_cell_angle_alpha   84.56710507
_cell_angle_beta   100.98260637
_cell_angle_gamma   119.80521168
_symmetry_Int_Tables_number   1
_chemical_formula_structural   Tb3Th(Al8Pd3)3
_chemical_formula_sum   'Tb3 Th1 Al24 Pd9'
_cell_volume   647.46807938
_cell_formula_units_Z   1
loop_
 _symmetry_equiv_pos_site_id
 _symmetry_equiv_pos_as_xyz
  1  'x, y, z'
loop_
 _atom_site_type_symbol
 _atom_site_label
 _atom_site_symmetry_multiplicity
 _atom_site_fract_x
 _atom_site_fract_y
 _atom_site_fract_z
 _atom_site_occupancy
  Tb  Tb0  1  0.562662  0.168881  0.192465  1
  Tb  Tb1  1  0.768497  0.501667  0.808197  1
  Tb  Tb2  1  0.231621  0.497942  0.192560  1
  Th  Th3  1  0.438164  0.831842  0.807827  1
  Al  Al4  1  0.482206  0.169328  0.947037  1
  Al  Al5  1  0.518917  0.833599  0.057977  1
  Al  Al6  1  0.020647  0.166383  0.560210  1
  Al  Al7  1  0.978423  0.833607  0.437671  1
  Al  Al8  1  0.353658  0.833447  0.557255  1
  Al  Al9  1  0.646224  0.167483  0.439926  1
  Al  Al10  1  0.616917  0.834554  0.330031  1
  Al  Al11  1  0.381838  0.168912  0.666981  1
  Al  Al12  1  0.052230  0.489016  0.667162  1
  Al  Al13  1  0.943275  0.507092  0.329968  1
  Al  Al14  1  0.734271  0.840758  0.665714  1
  Al  Al15  1  0.268679  0.159557  0.331181  1
  Al  Al16  1  0.145728  0.496798  0.947294  1
  Al  Al17  1  0.852163  0.499488  0.055828  1
  Al  Al18  1  0.821018  0.833058  0.957626  1
  Al  Al19  1  0.183400  0.167486  0.047227  1
  Al  Al20  1  0.312808  0.499694  0.439993  1
  Al  Al21  1  0.686793  0.499692  0.558920  1
  Al  Al22  1  0.102512  0.835877  0.184017  1
  Al  Al23  1  0.901293  0.167026  0.816226  1
  Al  Al24  1  0.306415  0.365935  0.814749  1
  Al  Al25  1  0.692868  0.630201  0.185742  1
  Al  Al26  1  0.100145  0.959584  0.816223  1
  Al  Al27  1  0.897790  0.041567  0.184537  1
  Pd  Pd28  1  0.387612  0.508217  0.637737  1
  Pd  Pd29  1  0.612067  0.492776  0.362124  1
  Pd  Pd30  1  0.171726  0.828302  0.999795  1
  Pd  Pd31  1  0.827803  0.170684  0.000329  1
  Pd  Pd32  1  0.294724  0.833202  0.361933  1
  Pd  Pd33  1  0.704488  0.165779  0.637636  1
  Pd  Pd34  1  0.048200  0.825162  0.637747  1
  Pd  Pd35  1  0.952560  0.174798  0.362118  1
  Pd  Pd36  1  0.499658  0.500606  0.000036  1
