# generated using pymatgen
data_Th2AsPd14
_symmetry_space_group_name_H-M   'P 1'
_cell_length_a   9.07072300
_cell_length_b   9.07072300
_cell_length_c   7.11825800
_cell_angle_alpha   90.00000000
_cell_angle_beta   90.00000000
_cell_angle_gamma   90.00000000
_symmetry_Int_Tables_number   1
_chemical_formula_structural   Th2AsPd14
_chemical_formula_sum   'Th4 As2 Pd28'
_cell_volume   585.67614378
_cell_formula_units_Z   2
loop_
 _symmetry_equiv_pos_site_id
 _symmetry_equiv_pos_as_xyz
  1  'x, y, z'
loop_
 _atom_site_type_symbol
 _atom_site_label
 _atom_site_symmetry_multiplicity
 _atom_site_fract_x
 _atom_site_fract_y
 _atom_site_fract_z
 _atom_site_occupancy
  Th  Th0  1  0.500000  0.000000  0.931416  1
  Th  Th1  1  0.000000  0.500000  0.068584  1
  Th  Th2  1  0.000000  0.000000  0.500000  1
  Th  Th3  1  0.500000  0.500000  0.500000  1
  As  As4  1  0.500000  0.000000  0.444157  1
  As  As5  1  0.000000  0.500000  0.555843  1
  Pd  Pd6  1  0.332705  0.832705  0.619832  1
  Pd  Pd7  1  0.332705  0.167295  0.619832  1
  Pd  Pd8  1  0.667295  0.832705  0.619832  1
  Pd  Pd9  1  0.667295  0.167295  0.619832  1
  Pd  Pd10  1  0.167295  0.667295  0.380168  1
  Pd  Pd11  1  0.167295  0.332705  0.380168  1
  Pd  Pd12  1  0.832705  0.667295  0.380168  1
  Pd  Pd13  1  0.832705  0.332705  0.380168  1
  Pd  Pd14  1  0.500000  0.766471  0.253200  1
  Pd  Pd15  1  0.500000  0.233529  0.253200  1
  Pd  Pd16  1  0.266471  0.000000  0.253200  1
  Pd  Pd17  1  0.733529  0.000000  0.253200  1
  Pd  Pd18  1  0.000000  0.733529  0.746800  1
  Pd  Pd19  1  0.000000  0.266471  0.746800  1
  Pd  Pd20  1  0.233529  0.500000  0.746800  1
  Pd  Pd21  1  0.766471  0.500000  0.746800  1
  Pd  Pd22  1  0.500000  0.349081  0.852941  1
  Pd  Pd23  1  0.500000  0.650919  0.852941  1
  Pd  Pd24  1  0.849081  0.000000  0.852941  1
  Pd  Pd25  1  0.150919  0.000000  0.852941  1
  Pd  Pd26  1  0.000000  0.150919  0.147059  1
  Pd  Pd27  1  0.000000  0.849081  0.147059  1
  Pd  Pd28  1  0.650919  0.500000  0.147059  1
  Pd  Pd29  1  0.349081  0.500000  0.147059  1
  Pd  Pd30  1  0.250000  0.750000  0.000000  1
  Pd  Pd31  1  0.250000  0.250000  0.000000  1
  Pd  Pd32  1  0.750000  0.750000  0.000000  1
  Pd  Pd33  1  0.750000  0.250000  0.000000  1
