# generated using pymatgen
data_Ce2Er(SnIr)3
_symmetry_space_group_name_H-M   'P 1'
_cell_length_a   7.48253335
_cell_length_b   7.48253373
_cell_length_c   4.03733700
_cell_angle_alpha   90.00000000
_cell_angle_beta   90.00000000
_cell_angle_gamma   120.26727224
_symmetry_Int_Tables_number   1
_chemical_formula_structural   Ce2Er(SnIr)3
_chemical_formula_sum   'Ce2 Er1 Sn3 Ir3'
_cell_volume   195.23020916
_cell_formula_units_Z   1
loop_
 _symmetry_equiv_pos_site_id
 _symmetry_equiv_pos_as_xyz
  1  'x, y, z'
loop_
 _atom_site_type_symbol
 _atom_site_label
 _atom_site_symmetry_multiplicity
 _atom_site_fract_x
 _atom_site_fract_y
 _atom_site_fract_z
 _atom_site_occupancy
  Ce  Ce0  1  0.586129  0.998957  0.000000  1
  Ce  Ce1  1  0.998957  0.586129  0.000000  1
  Er  Er2  1  0.406638  0.406638  0.000000  1
  Sn  Sn3  1  0.005661  0.255771  0.500000  1
  Sn  Sn4  1  0.740503  0.740503  0.500000  1
  Sn  Sn5  1  0.255771  0.005661  0.500000  1
  Ir  Ir6  1  0.000183  0.000183  0.000000  1
  Ir  Ir7  1  0.673490  0.332668  0.500000  1
  Ir  Ir8  1  0.332668  0.673490  0.500000  1
