# generated using pymatgen
data_Ho12InCo4Os
_symmetry_space_group_name_H-M   'P 1'
_cell_length_a   8.28064277
_cell_length_b   8.27981790
_cell_length_c   8.28064268
_cell_angle_alpha   111.54343359
_cell_angle_beta   110.41367573
_cell_angle_gamma   106.50281804
_symmetry_Int_Tables_number   1
_chemical_formula_structural   Ho12InCo4Os
_chemical_formula_sum   'Ho12 In1 Co4 Os1'
_cell_volume   436.10500366
_cell_formula_units_Z   1
loop_
 _symmetry_equiv_pos_site_id
 _symmetry_equiv_pos_as_xyz
  1  'x, y, z'
loop_
 _atom_site_type_symbol
 _atom_site_label
 _atom_site_symmetry_multiplicity
 _atom_site_fract_x
 _atom_site_fract_y
 _atom_site_fract_z
 _atom_site_occupancy
  Ho  Ho0  1  0.314404  0.621016  0.306611  1
  Ho  Ho1  1  0.685596  0.378984  0.693389  1
  Ho  Ho2  1  0.314433  0.007841  0.693408  1
  Ho  Ho3  1  0.685567  0.992159  0.306592  1
  Ho  Ho4  1  0.182355  0.283164  0.465502  1
  Ho  Ho5  1  0.817645  0.716836  0.534498  1
  Ho  Ho6  1  0.182338  0.716836  0.899190  1
  Ho  Ho7  1  0.817662  0.283164  0.100810  1
  Ho  Ho8  1  0.411311  0.218024  0.193292  1
  Ho  Ho9  1  0.588689  0.781976  0.806708  1
  Ho  Ho10  1  0.024731  0.218024  0.806713  1
  Ho  Ho11  1  0.975269  0.781976  0.193287  1
  In  In12  1  0.500000  0.500000  0.000000  1
  Co  Co13  1  0.111175  0.611172  0.499997  1
  Co  Co14  1  0.888825  0.388828  0.500003  1
  Co  Co15  1  0.377562  0.000000  0.377562  1
  Co  Co16  1  0.622438  0.000000  0.622438  1
  Os  Os17  1  0.000000  0.000000  0.000000  1
