# generated using pymatgen
data_Pr17Nd3Si15Ni
_symmetry_space_group_name_H-M   'P 1'
_cell_length_a   7.92500665
_cell_length_b   7.92526124
_cell_length_c   15.25890500
_cell_angle_alpha   90.22045731
_cell_angle_beta   89.92037156
_cell_angle_gamma   90.02204551
_symmetry_Int_Tables_number   1
_chemical_formula_structural   Pr17Nd3Si15Ni
_chemical_formula_sum   'Pr17 Nd3 Si15 Ni1'
_cell_volume   958.36937163
_cell_formula_units_Z   1
loop_
 _symmetry_equiv_pos_site_id
 _symmetry_equiv_pos_as_xyz
  1  'x, y, z'
loop_
 _atom_site_type_symbol
 _atom_site_label
 _atom_site_symmetry_multiplicity
 _atom_site_fract_x
 _atom_site_fract_y
 _atom_site_fract_z
 _atom_site_occupancy
  Pr  Pr0  1  0.694621  0.687831  0.500524  1
  Pr  Pr1  1  0.375563  0.010187  0.447261  1
  Pr  Pr2  1  0.490198  0.873873  0.698681  1
  Pr  Pr3  1  0.510666  0.123470  0.197145  1
  Pr  Pr4  1  0.876620  0.488084  0.300672  1
  Pr  Pr5  1  0.122059  0.510629  0.799922  1
  Pr  Pr6  1  0.625408  0.988896  0.947963  1
  Pr  Pr7  1  0.004596  0.378012  0.551782  1
  Pr  Pr8  1  0.988514  0.625720  0.051787  1
  Pr  Pr9  1  0.134544  0.985062  0.874248  1
  Pr  Pr10  1  0.517211  0.629695  0.126330  1
  Pr  Pr11  1  0.469851  0.363084  0.628667  1
  Pr  Pr12  1  0.627075  0.516420  0.873055  1
  Pr  Pr13  1  0.372190  0.483026  0.372965  1
  Pr  Pr14  1  0.873382  0.021273  0.377108  1
  Pr  Pr15  1  0.981786  0.126020  0.123745  1
  Pr  Pr16  1  0.025077  0.881172  0.625461  1
  Nd  Nd17  1  0.305273  0.306022  0.997959  1
  Nd  Nd18  1  0.191594  0.807996  0.249572  1
  Nd  Nd19  1  0.815088  0.187566  0.750352  1
  Si  Si20  1  0.332798  0.694232  0.951354  1
  Si  Si21  1  0.663023  0.304246  0.453059  1
  Si  Si22  1  0.696156  0.334420  0.048710  1
  Si  Si23  1  0.304667  0.669791  0.548024  1
  Si  Si24  1  0.806634  0.831947  0.203557  1
  Si  Si25  1  0.168597  0.195869  0.297304  1
  Si  Si26  1  0.834062  0.803950  0.797983  1
  Si  Si27  1  0.287853  0.921791  0.059627  1
  Si  Si28  1  0.579372  0.787105  0.310158  1
  Si  Si29  1  0.424164  0.207796  0.810491  1
  Si  Si30  1  0.785597  0.579021  0.690135  1
  Si  Si31  1  0.212366  0.422215  0.189241  1
  Si  Si32  1  0.707033  0.076718  0.560000  1
  Si  Si33  1  0.920423  0.287529  0.940684  1
  Si  Si34  1  0.080099  0.715618  0.440528  1
  Ni  Ni35  1  0.195843  0.173717  0.703945  1
