# generated using pymatgen
data_Zr4Mn4Si3Ge
_symmetry_space_group_name_H-M   'P 1'
_cell_length_a   3.70969200
_cell_length_b   6.62292969
_cell_length_c   7.70066979
_cell_angle_alpha   89.85952568
_cell_angle_beta   90.00000000
_cell_angle_gamma   90.00000000
_symmetry_Int_Tables_number   1
_chemical_formula_structural   Zr4Mn4Si3Ge
_chemical_formula_sum   'Zr4 Mn4 Si3 Ge1'
_cell_volume   189.19741298
_cell_formula_units_Z   1
loop_
 _symmetry_equiv_pos_site_id
 _symmetry_equiv_pos_as_xyz
  1  'x, y, z'
loop_
 _atom_site_type_symbol
 _atom_site_label
 _atom_site_symmetry_multiplicity
 _atom_site_fract_x
 _atom_site_fract_y
 _atom_site_fract_z
 _atom_site_occupancy
  Zr  Zr0  1  0.000000  0.531970  0.680891  1
  Zr  Zr1  1  0.000000  0.022805  0.822118  1
  Zr  Zr2  1  0.500000  0.475495  0.317387  1
  Zr  Zr3  1  0.500000  0.974434  0.179413  1
  Mn  Mn4  1  0.000000  0.638902  0.065157  1
  Mn  Mn5  1  0.000000  0.135258  0.429665  1
  Mn  Mn6  1  0.500000  0.363619  0.939352  1
  Mn  Mn7  1  0.500000  0.855909  0.564461  1
  Si  Si8  1  0.000000  0.273681  0.121018  1
  Si  Si9  1  0.000000  0.772785  0.377847  1
  Si  Si10  1  0.500000  0.726263  0.880779  1
  Ge  Ge11  1  0.500000  0.228877  0.621913  1
