# generated using pymatgen
data_Tb2Er3SiBi2
_symmetry_space_group_name_H-M   'P 1'
_cell_length_a   8.03202200
_cell_length_b   9.12600400
_cell_length_c   12.09508300
_cell_angle_alpha   90.00000000
_cell_angle_beta   90.00000000
_cell_angle_gamma   90.00000000
_symmetry_Int_Tables_number   1
_chemical_formula_structural   Tb2Er3SiBi2
_chemical_formula_sum   'Tb8 Er12 Si4 Bi8'
_cell_volume   886.57278789
_cell_formula_units_Z   4
loop_
 _symmetry_equiv_pos_site_id
 _symmetry_equiv_pos_as_xyz
  1  'x, y, z'
loop_
 _atom_site_type_symbol
 _atom_site_label
 _atom_site_symmetry_multiplicity
 _atom_site_fract_x
 _atom_site_fract_y
 _atom_site_fract_z
 _atom_site_occupancy
  Tb  Tb0  1  0.659860  0.750000  0.712206  1
  Tb  Tb1  1  0.340140  0.250000  0.287794  1
  Tb  Tb2  1  0.159860  0.250000  0.787794  1
  Tb  Tb3  1  0.840140  0.750000  0.212206  1
  Tb  Tb4  1  0.136725  0.750000  0.795674  1
  Tb  Tb5  1  0.863275  0.250000  0.204326  1
  Tb  Tb6  1  0.636725  0.250000  0.704326  1
  Tb  Tb7  1  0.363275  0.750000  0.295674  1
  Er  Er8  1  0.541503  0.750000  0.000052  1
  Er  Er9  1  0.458497  0.250000  0.999948  1
  Er  Er10  1  0.041503  0.250000  0.499948  1
  Er  Er11  1  0.958497  0.750000  0.500052  1
  Er  Er12  1  0.820148  0.447369  0.935168  1
  Er  Er13  1  0.179852  0.552631  0.064832  1
  Er  Er14  1  0.320148  0.552631  0.564832  1
  Er  Er15  1  0.179852  0.947369  0.064832  1
  Er  Er16  1  0.679852  0.447369  0.435168  1
  Er  Er17  1  0.820148  0.052631  0.935168  1
  Er  Er18  1  0.679852  0.052631  0.435168  1
  Er  Er19  1  0.320148  0.947369  0.564832  1
  Si  Si20  1  0.914397  0.750000  0.979819  1
  Si  Si21  1  0.085603  0.250000  0.020181  1
  Si  Si22  1  0.414397  0.250000  0.520181  1
  Si  Si23  1  0.585603  0.750000  0.479819  1
  Bi  Bi24  1  0.929392  0.009308  0.671438  1
  Bi  Bi25  1  0.070608  0.990692  0.328562  1
  Bi  Bi26  1  0.429392  0.990692  0.828562  1
  Bi  Bi27  1  0.070608  0.509308  0.328562  1
  Bi  Bi28  1  0.570608  0.009308  0.171438  1
  Bi  Bi29  1  0.929392  0.490692  0.671438  1
  Bi  Bi30  1  0.570608  0.490692  0.171438  1
  Bi  Bi31  1  0.429392  0.509308  0.828562  1
