# generated using pymatgen
data_La2ZnSiNi8
_symmetry_space_group_name_H-M   'P 1'
_cell_length_a   4.93698007
_cell_length_b   4.93698129
_cell_length_c   8.04903100
_cell_angle_alpha   90.00000000
_cell_angle_beta   90.00000000
_cell_angle_gamma   116.93885186
_symmetry_Int_Tables_number   1
_chemical_formula_structural   La2ZnSiNi8
_chemical_formula_sum   'La2 Zn1 Si1 Ni8'
_cell_volume   174.89733419
_cell_formula_units_Z   1
loop_
 _symmetry_equiv_pos_site_id
 _symmetry_equiv_pos_as_xyz
  1  'x, y, z'
loop_
 _atom_site_type_symbol
 _atom_site_label
 _atom_site_symmetry_multiplicity
 _atom_site_fract_x
 _atom_site_fract_y
 _atom_site_fract_z
 _atom_site_occupancy
  La  La0  1  0.000000  0.000000  0.748710  1
  La  La1  1  0.000000  0.000000  0.251290  1
  Zn  Zn2  1  0.500000  0.500000  0.000000  1
  Si  Si3  1  0.500000  0.500000  0.500000  1
  Ni  Ni4  1  0.664587  0.335413  0.747002  1
  Ni  Ni5  1  0.664587  0.335413  0.252998  1
  Ni  Ni6  1  0.335413  0.664587  0.747002  1
  Ni  Ni7  1  0.500000  0.000000  0.500000  1
  Ni  Ni8  1  0.000000  0.500000  0.000000  1
  Ni  Ni9  1  0.500000  0.000000  0.000000  1
  Ni  Ni10  1  0.335413  0.664587  0.252998  1
  Ni  Ni11  1  0.000000  0.500000  0.500000  1
