# generated using pymatgen
data_Tb16InHg3Ru3Rh
_symmetry_space_group_name_H-M   'P 1'
_cell_length_a   9.60829561
_cell_length_b   9.64818651
_cell_length_c   9.64818600
_cell_angle_alpha   60.00000176
_cell_angle_beta   59.86256885
_cell_angle_gamma   59.86256984
_symmetry_Int_Tables_number   1
_chemical_formula_structural   Tb16InHg3Ru3Rh
_chemical_formula_sum   'Tb16 In1 Hg3 Ru3 Rh1'
_cell_volume   631.12799901
_cell_formula_units_Z   1
loop_
 _symmetry_equiv_pos_site_id
 _symmetry_equiv_pos_as_xyz
  1  'x, y, z'
loop_
 _atom_site_type_symbol
 _atom_site_label
 _atom_site_symmetry_multiplicity
 _atom_site_fract_x
 _atom_site_fract_y
 _atom_site_fract_z
 _atom_site_occupancy
  Tb  Tb0  1  0.809885  0.808313  0.190901  1
  Tb  Tb1  1  0.809885  0.190901  0.808313  1
  Tb  Tb2  1  0.188260  0.190977  0.810381  1
  Tb  Tb3  1  0.651770  0.048337  0.649947  1
  Tb  Tb4  1  0.064055  0.058483  0.438732  1
  Tb  Tb5  1  0.442784  0.435699  0.060758  1
  Tb  Tb6  1  0.651770  0.649947  0.649947  1
  Tb  Tb7  1  0.809885  0.190901  0.190901  1
  Tb  Tb8  1  0.188260  0.810381  0.810381  1
  Tb  Tb9  1  0.049802  0.650066  0.650066  1
  Tb  Tb10  1  0.442784  0.060758  0.060758  1
  Tb  Tb11  1  0.442784  0.060758  0.435699  1
  Tb  Tb12  1  0.064055  0.438732  0.058483  1
  Tb  Tb13  1  0.651770  0.649947  0.048337  1
  Tb  Tb14  1  0.188260  0.810381  0.190977  1
  Tb  Tb15  1  0.064055  0.438732  0.438732  1
  In  In16  1  0.737781  0.420739  0.420739  1
  Hg  Hg17  1  0.415365  0.416017  0.416017  1
  Hg  Hg18  1  0.415365  0.416017  0.752599  1
  Hg  Hg19  1  0.415365  0.752599  0.416017  1
  Ru  Ru20  1  0.857471  0.421355  0.860588  1
  Ru  Ru21  1  0.857471  0.860588  0.860588  1
  Ru  Ru22  1  0.857471  0.860588  0.421355  1
  Rh  Rh23  1  0.423646  0.858785  0.858785  1
