# generated using pymatgen
data_NaFe2(P6Ir)2
_symmetry_space_group_name_H-M   'P 1'
_cell_length_a   6.86068232
_cell_length_b   6.90445030
_cell_length_c   6.90445049
_cell_angle_alpha   109.69057888
_cell_angle_beta   109.43510729
_cell_angle_gamma   109.54521170
_symmetry_Int_Tables_number   1
_chemical_formula_structural   NaFe2(P6Ir)2
_chemical_formula_sum   'Na1 Fe2 P12 Ir2'
_cell_volume   250.96640676
_cell_formula_units_Z   1
loop_
 _symmetry_equiv_pos_site_id
 _symmetry_equiv_pos_as_xyz
  1  'x, y, z'
loop_
 _atom_site_type_symbol
 _atom_site_label
 _atom_site_symmetry_multiplicity
 _atom_site_fract_x
 _atom_site_fract_y
 _atom_site_fract_z
 _atom_site_occupancy
  Na  Na0  1  0.000000  0.000000  0.000000  1
  Fe  Fe1  1  0.000000  0.500000  0.000000  1
  Fe  Fe2  1  0.000000  0.000000  0.500000  1
  P  P3  1  0.133503  0.789069  0.634799  1
  P  P4  1  0.133503  0.498704  0.344434  1
  P  P5  1  0.866497  0.501296  0.655566  1
  P  P6  1  0.344324  0.133473  0.498739  1
  P  P7  1  0.799567  0.651388  0.148178  1
  P  P8  1  0.866497  0.210931  0.365201  1
  P  P9  1  0.655676  0.154415  0.789148  1
  P  P10  1  0.499879  0.638756  0.861123  1
  P  P11  1  0.655676  0.866527  0.501261  1
  P  P12  1  0.500121  0.361244  0.138877  1
  P  P13  1  0.344324  0.845585  0.210852  1
  P  P14  1  0.200433  0.348612  0.851822  1
  Ir  Ir15  1  0.500000  0.000000  0.000000  1
  Ir  Ir16  1  0.500000  0.500000  0.500000  1
