# generated using pymatgen
data_Zr5CoAs3
_symmetry_space_group_name_H-M   'P 1'
_cell_length_a   3.74421200
_cell_length_b   10.52911400
_cell_length_c   17.65883300
_cell_angle_alpha   90.00000000
_cell_angle_beta   90.00000000
_cell_angle_gamma   90.00000000
_symmetry_Int_Tables_number   1
_chemical_formula_structural   Zr5CoAs3
_chemical_formula_sum   'Zr20 Co4 As12'
_cell_volume   696.16832298
_cell_formula_units_Z   4
loop_
 _symmetry_equiv_pos_site_id
 _symmetry_equiv_pos_as_xyz
  1  'x, y, z'
loop_
 _atom_site_type_symbol
 _atom_site_label
 _atom_site_symmetry_multiplicity
 _atom_site_fract_x
 _atom_site_fract_y
 _atom_site_fract_z
 _atom_site_occupancy
  Zr  Zr0  1  0.250000  0.121538  0.476769  1
  Zr  Zr1  1  0.750000  0.878462  0.523231  1
  Zr  Zr2  1  0.750000  0.621538  0.023231  1
  Zr  Zr3  1  0.250000  0.378462  0.976769  1
  Zr  Zr4  1  0.250000  0.057912  0.076827  1
  Zr  Zr5  1  0.750000  0.942088  0.923173  1
  Zr  Zr6  1  0.750000  0.557912  0.423173  1
  Zr  Zr7  1  0.250000  0.442088  0.576827  1
  Zr  Zr8  1  0.250000  0.485815  0.274417  1
  Zr  Zr9  1  0.750000  0.514185  0.725583  1
  Zr  Zr10  1  0.750000  0.985815  0.225583  1
  Zr  Zr11  1  0.250000  0.014185  0.774417  1
  Zr  Zr12  1  0.250000  0.814160  0.368388  1
  Zr  Zr13  1  0.750000  0.185840  0.631612  1
  Zr  Zr14  1  0.750000  0.314160  0.131612  1
  Zr  Zr15  1  0.250000  0.685840  0.868388  1
  Zr  Zr16  1  0.250000  0.756708  0.166380  1
  Zr  Zr17  1  0.750000  0.243292  0.833620  1
  Zr  Zr18  1  0.750000  0.256708  0.333620  1
  Zr  Zr19  1  0.250000  0.743292  0.666380  1
  Co  Co20  1  0.250000  0.368134  0.408238  1
  Co  Co21  1  0.750000  0.631866  0.591762  1
  Co  Co22  1  0.750000  0.868134  0.091762  1
  Co  Co23  1  0.250000  0.131866  0.908238  1
  As  As24  1  0.250000  0.812661  0.008578  1
  As  As25  1  0.750000  0.187339  0.991422  1
  As  As26  1  0.750000  0.312661  0.491422  1
  As  As27  1  0.250000  0.687339  0.508578  1
  As  As28  1  0.250000  0.506253  0.117388  1
  As  As29  1  0.750000  0.493747  0.882612  1
  As  As30  1  0.750000  0.006253  0.382612  1
  As  As31  1  0.250000  0.993747  0.617388  1
  As  As32  1  0.250000  0.186931  0.219284  1
  As  As33  1  0.750000  0.813069  0.780716  1
  As  As34  1  0.750000  0.686931  0.280716  1
  As  As35  1  0.250000  0.313069  0.719284  1
