# generated using pymatgen
data_Ce2PrHo(SnRu)4
_symmetry_space_group_name_H-M   'P 1'
_cell_length_a   6.27444791
_cell_length_b   6.27444810
_cell_length_c   10.21387284
_cell_angle_alpha   78.09217375
_cell_angle_beta   78.09217233
_cell_angle_gamma   45.07997901
_symmetry_Int_Tables_number   1
_chemical_formula_structural   Ce2PrHo(SnRu)4
_chemical_formula_sum   'Ce2 Pr1 Ho1 Sn4 Ru4'
_cell_volume   277.53291380
_cell_formula_units_Z   1
loop_
 _symmetry_equiv_pos_site_id
 _symmetry_equiv_pos_as_xyz
  1  'x, y, z'
loop_
 _atom_site_type_symbol
 _atom_site_label
 _atom_site_symmetry_multiplicity
 _atom_site_fract_x
 _atom_site_fract_y
 _atom_site_fract_z
 _atom_site_occupancy
  Ce  Ce0  1  0.861827  0.861827  0.912220  1
  Ce  Ce1  1  0.140950  0.140950  0.085581  1
  Pr  Pr2  1  0.876579  0.876579  0.407597  1
  Ho  Ho3  1  0.121340  0.121340  0.595614  1
  Sn  Sn4  1  0.424294  0.424294  0.156134  1
  Sn  Sn5  1  0.405965  0.405965  0.648490  1
  Sn  Sn6  1  0.576289  0.576289  0.840870  1
  Sn  Sn7  1  0.594383  0.594383  0.356713  1
  Ru  Ru8  1  0.814924  0.814924  0.146640  1
  Ru  Ru9  1  0.194922  0.194922  0.305477  1
  Ru  Ru10  1  0.183603  0.183603  0.848771  1
  Ru  Ru11  1  0.804923  0.804923  0.695890  1
