# generated using pymatgen
data_Tb4P7Ir8
_symmetry_space_group_name_H-M   'P 1'
_cell_length_a   3.95568200
_cell_length_b   12.69410538
_cell_length_c   13.13670425
_cell_angle_alpha   99.09319764
_cell_angle_beta   90.00000000
_cell_angle_gamma   90.00000000
_symmetry_Int_Tables_number   1
_chemical_formula_structural   Tb4P7Ir8
_chemical_formula_sum   'Tb8 P14 Ir16'
_cell_volume   651.35438950
_cell_formula_units_Z   2
loop_
 _symmetry_equiv_pos_site_id
 _symmetry_equiv_pos_as_xyz
  1  'x, y, z'
loop_
 _atom_site_type_symbol
 _atom_site_label
 _atom_site_symmetry_multiplicity
 _atom_site_fract_x
 _atom_site_fract_y
 _atom_site_fract_z
 _atom_site_occupancy
  Tb  Tb0  1  0.750000  0.208942  0.561787  1
  Tb  Tb1  1  0.250000  0.791058  0.438213  1
  Tb  Tb2  1  0.750000  0.520002  0.705902  1
  Tb  Tb3  1  0.250000  0.479998  0.294098  1
  Tb  Tb4  1  0.750000  0.279501  0.897821  1
  Tb  Tb5  1  0.250000  0.720499  0.102179  1
  Tb  Tb6  1  0.750000  0.102527  0.210041  1
  Tb  Tb7  1  0.250000  0.897473  0.789959  1
  P  P8  1  0.750000  0.741722  0.920002  1
  P  P9  1  0.250000  0.258278  0.079998  1
  P  P10  1  0.750000  0.906846  0.588513  1
  P  P11  1  0.250000  0.093154  0.411487  1
  P  P12  1  0.750000  0.527595  0.129196  1
  P  P13  1  0.250000  0.472405  0.870804  1
  P  P14  1  0.750000  0.843797  0.282168  1
  P  P15  1  0.250000  0.156203  0.717832  1
  P  P16  1  0.750000  0.607799  0.433536  1
  P  P17  1  0.250000  0.392201  0.566464  1
  P  P18  1  0.750000  0.312344  0.310833  1
  P  P19  1  0.250000  0.687656  0.689167  1
  P  P20  1  0.750000  0.051904  0.899837  1
  P  P21  1  0.250000  0.948096  0.100163  1
  Ir  Ir22  1  0.750000  0.341646  0.141944  1
  Ir  Ir23  1  0.250000  0.658354  0.858056  1
  Ir  Ir24  1  0.750000  0.729084  0.605047  1
  Ir  Ir25  1  0.250000  0.270916  0.394953  1
  Ir  Ir26  1  0.750000  0.914989  0.002335  1
  Ir  Ir27  1  0.250000  0.085011  0.997665  1
  Ir  Ir28  1  0.750000  0.422022  0.475751  1
  Ir  Ir29  1  0.250000  0.577978  0.524249  1
  Ir  Ir30  1  0.750000  0.060048  0.727505  1
  Ir  Ir31  1  0.250000  0.939952  0.272495  1
  Ir  Ir32  1  0.750000  0.554551  0.954860  1
  Ir  Ir33  1  0.250000  0.445449  0.045140  1
  Ir  Ir34  1  0.750000  0.662971  0.268807  1
  Ir  Ir35  1  0.250000  0.337029  0.731193  1
  Ir  Ir36  1  0.750000  0.991040  0.423808  1
  Ir  Ir37  1  0.250000  0.008960  0.576192  1
