# generated using pymatgen
data_Nd6Zn(SiS7)2
_symmetry_space_group_name_H-M   'P 1'
_cell_length_a   10.20387400
_cell_length_b   10.20387305
_cell_length_c   5.73660300
_cell_angle_alpha   90.00000000
_cell_angle_beta   90.00000000
_cell_angle_gamma   120.00000309
_symmetry_Int_Tables_number   1
_chemical_formula_structural   Nd6Zn(SiS7)2
_chemical_formula_sum   'Nd6 Zn1 Si2 S14'
_cell_volume   517.26792305
_cell_formula_units_Z   1
loop_
 _symmetry_equiv_pos_site_id
 _symmetry_equiv_pos_as_xyz
  1  'x, y, z'
loop_
 _atom_site_type_symbol
 _atom_site_label
 _atom_site_symmetry_multiplicity
 _atom_site_fract_x
 _atom_site_fract_y
 _atom_site_fract_z
 _atom_site_occupancy
  Nd  Nd0  1  0.310556  0.100769  0.749967  1
  Nd  Nd1  1  0.790212  0.689444  0.749967  1
  Nd  Nd2  1  0.899231  0.209788  0.749967  1
  Nd  Nd3  1  0.023230  0.565725  0.247956  1
  Nd  Nd4  1  0.542495  0.976770  0.247956  1
  Nd  Nd5  1  0.434275  0.457505  0.247956  1
  Zn  Zn6  1  0.666667  0.333333  0.508888  1
  Si  Si7  1  0.000000  0.000000  0.164265  1
  Si  Si8  1  0.333333  0.666667  0.659485  1
  S  S9  1  0.000000  0.000000  0.531151  1
  S  S10  1  0.333333  0.666667  0.027013  1
  S  S11  1  0.420317  0.173387  0.276763  1
  S  S12  1  0.753070  0.579683  0.276763  1
  S  S13  1  0.826613  0.246930  0.276763  1
  S  S14  1  0.913977  0.496323  0.754518  1
  S  S15  1  0.582346  0.086023  0.754518  1
  S  S16  1  0.503677  0.417654  0.754518  1
  S  S17  1  0.143981  0.220811  0.019486  1
  S  S18  1  0.076829  0.856019  0.019486  1
  S  S19  1  0.779189  0.923171  0.019486  1
  S  S20  1  0.189808  0.445713  0.515718  1
  S  S21  1  0.255905  0.810192  0.515718  1
  S  S22  1  0.554287  0.744095  0.515718  1
