# generated using pymatgen
data_Th6Mg2Cd21Sb
_symmetry_space_group_name_H-M   'P 1'
_cell_length_a   10.13124345
_cell_length_b   10.13124302
_cell_length_c   10.09928600
_cell_angle_alpha   60.10428228
_cell_angle_beta   60.10428365
_cell_angle_gamma   60.35574860
_symmetry_Int_Tables_number   1
_chemical_formula_structural   Th6Mg2Cd21Sb
_chemical_formula_sum   'Th6 Mg2 Cd21 Sb1'
_cell_volume   736.10818544
_cell_formula_units_Z   1
loop_
 _symmetry_equiv_pos_site_id
 _symmetry_equiv_pos_as_xyz
  1  'x, y, z'
loop_
 _atom_site_type_symbol
 _atom_site_label
 _atom_site_symmetry_multiplicity
 _atom_site_fract_x
 _atom_site_fract_y
 _atom_site_fract_z
 _atom_site_occupancy
  Th  Th0  1  0.782254  0.782254  0.217746  1
  Th  Th1  1  0.217084  0.782916  0.216942  1
  Th  Th2  1  0.782916  0.217084  0.216942  1
  Th  Th3  1  0.217746  0.217746  0.782254  1
  Th  Th4  1  0.782916  0.217084  0.783058  1
  Th  Th5  1  0.217084  0.782916  0.783058  1
  Mg  Mg6  1  0.500000  0.500000  0.000000  1
  Mg  Mg7  1  0.500000  0.500000  0.500000  1
  Cd  Cd8  1  0.837120  0.837120  0.487302  1
  Cd  Cd9  1  0.834931  0.485635  0.839717  1
  Cd  Cd10  1  0.485635  0.834931  0.839717  1
  Cd  Cd11  1  0.837120  0.837120  0.838458  1
  Cd  Cd12  1  0.162880  0.162880  0.512698  1
  Cd  Cd13  1  0.165069  0.514365  0.160283  1
  Cd  Cd14  1  0.514365  0.165069  0.160283  1
  Cd  Cd15  1  0.162880  0.162880  0.161542  1
  Cd  Cd16  1  0.621072  0.621072  0.133216  1
  Cd  Cd17  1  0.620473  0.133602  0.622962  1
  Cd  Cd18  1  0.133602  0.620473  0.622962  1
  Cd  Cd19  1  0.621072  0.621072  0.624638  1
  Cd  Cd20  1  0.378928  0.378928  0.866784  1
  Cd  Cd21  1  0.379527  0.866398  0.377038  1
  Cd  Cd22  1  0.866398  0.379527  0.377038  1
  Cd  Cd23  1  0.378928  0.378928  0.375362  1
  Cd  Cd24  1  0.000000  0.000000  0.500000  1
  Cd  Cd25  1  0.500000  0.000000  0.500000  1
  Cd  Cd26  1  0.000000  0.500000  0.500000  1
  Cd  Cd27  1  0.000000  0.500000  0.000000  1
  Cd  Cd28  1  0.500000  0.000000  0.000000  1
  Sb  Sb29  1  0.000000  0.000000  0.000000  1
