# generated using pymatgen
data_Ho3ThGa12Os
_symmetry_space_group_name_H-M   'P 1'
_cell_length_a   7.54369028
_cell_length_b   7.54368971
_cell_length_c   7.44954400
_cell_angle_alpha   109.21860397
_cell_angle_beta   109.21860244
_cell_angle_gamma   109.72264331
_symmetry_Int_Tables_number   1
_chemical_formula_structural   Ho3ThGa12Os
_chemical_formula_sum   'Ho3 Th1 Ga12 Os1'
_cell_volume   327.35576860
_cell_formula_units_Z   1
loop_
 _symmetry_equiv_pos_site_id
 _symmetry_equiv_pos_as_xyz
  1  'x, y, z'
loop_
 _atom_site_type_symbol
 _atom_site_label
 _atom_site_symmetry_multiplicity
 _atom_site_fract_x
 _atom_site_fract_y
 _atom_site_fract_z
 _atom_site_occupancy
  Ho  Ho0  1  0.000000  0.500000  0.000000  1
  Ho  Ho1  1  0.500000  0.000000  0.000000  1
  Ho  Ho2  1  0.500000  0.500000  0.500000  1
  Th  Th3  1  0.000000  0.000000  0.500000  1
  Ga  Ga4  1  0.748105  0.251895  0.500000  1
  Ga  Ga5  1  0.748105  0.496209  0.248105  1
  Ga  Ga6  1  0.503791  0.251895  0.751895  1
  Ga  Ga7  1  0.251895  0.503791  0.751895  1
  Ga  Ga8  1  0.251895  0.748105  0.500000  1
  Ga  Ga9  1  0.496209  0.748105  0.248105  1
  Ga  Ga10  1  0.706264  0.706264  0.996735  1
  Ga  Ga11  1  0.293736  0.000000  0.290472  1
  Ga  Ga12  1  0.000000  0.293736  0.290472  1
  Ga  Ga13  1  0.293736  0.293736  0.003265  1
  Ga  Ga14  1  0.706264  0.000000  0.709528  1
  Ga  Ga15  1  0.000000  0.706264  0.709528  1
  Os  Os16  1  0.000000  0.000000  0.000000  1
