# generated using pymatgen
data_Er12TcNi4Sn
_symmetry_space_group_name_H-M   'P 1'
_cell_length_a   8.24740957
_cell_length_b   8.24740772
_cell_length_c   8.24740975
_cell_angle_alpha   112.13971510
_cell_angle_beta   109.67561181
_cell_angle_gamma   106.64488855
_symmetry_Int_Tables_number   1
_chemical_formula_structural   Er12TcNi4Sn
_chemical_formula_sum   'Er12 Tc1 Ni4 Sn1'
_cell_volume   430.85437973
_cell_formula_units_Z   1
loop_
 _symmetry_equiv_pos_site_id
 _symmetry_equiv_pos_as_xyz
  1  'x, y, z'
loop_
 _atom_site_type_symbol
 _atom_site_label
 _atom_site_symmetry_multiplicity
 _atom_site_fract_x
 _atom_site_fract_y
 _atom_site_fract_z
 _atom_site_occupancy
  Er  Er0  1  0.320046  0.124969  0.804921  1
  Er  Er1  1  0.679954  0.484876  0.804921  1
  Er  Er2  1  0.412373  0.720473  0.691900  1
  Er  Er3  1  0.587627  0.279527  0.308100  1
  Er  Er4  1  0.971427  0.279527  0.691900  1
  Er  Er5  1  0.028573  0.720473  0.308100  1
  Er  Er6  1  0.320046  0.515124  0.195079  1
  Er  Er7  1  0.679954  0.875031  0.195079  1
  Er  Er8  1  0.181272  0.783502  0.964774  1
  Er  Er9  1  0.818728  0.783502  0.602231  1
  Er  Er10  1  0.181272  0.216498  0.397769  1
  Er  Er11  1  0.818728  0.216498  0.035226  1
  Tc  Tc12  1  0.000000  0.500000  0.500000  1
  Ni  Ni13  1  0.878801  0.878801  0.000000  1
  Ni  Ni14  1  0.121199  0.121199  0.000000  1
  Ni  Ni15  1  0.641450  0.500000  0.141450  1
  Ni  Ni16  1  0.358550  0.500000  0.858550  1
  Sn  Sn17  1  0.500000  0.000000  0.500000  1
