# generated using pymatgen
data_YTa6TlBr18
_symmetry_space_group_name_H-M   'P 1'
_cell_length_a   10.69889082
_cell_length_b   10.69888993
_cell_length_c   10.69889100
_cell_angle_alpha   55.65004395
_cell_angle_beta   55.65004072
_cell_angle_gamma   55.65004959
_symmetry_Int_Tables_number   1
_chemical_formula_structural   YTa6TlBr18
_chemical_formula_sum   'Y1 Ta6 Tl1 Br18'
_cell_volume   778.56263198
_cell_formula_units_Z   1
loop_
 _symmetry_equiv_pos_site_id
 _symmetry_equiv_pos_as_xyz
  1  'x, y, z'
loop_
 _atom_site_type_symbol
 _atom_site_label
 _atom_site_symmetry_multiplicity
 _atom_site_fract_x
 _atom_site_fract_y
 _atom_site_fract_z
 _atom_site_occupancy
  Y  Y0  1  0.498578  0.498578  0.498578  1
  Ta  Ta1  1  0.811968  0.141353  0.915281  1
  Ta  Ta2  1  0.915281  0.811968  0.141353  1
  Ta  Ta3  1  0.141353  0.915281  0.811968  1
  Ta  Ta4  1  0.189020  0.859136  0.084008  1
  Ta  Ta5  1  0.084008  0.189020  0.859136  1
  Ta  Ta6  1  0.859136  0.084008  0.189020  1
  Tl  Tl7  1  0.220861  0.220861  0.220861  1
  Br  Br8  1  0.867525  0.411783  0.723071  1
  Br  Br9  1  0.723071  0.867525  0.411783  1
  Br  Br10  1  0.411783  0.723071  0.867525  1
  Br  Br11  1  0.131760  0.588261  0.279062  1
  Br  Br12  1  0.279062  0.131760  0.588261  1
  Br  Br13  1  0.588261  0.279062  0.131760  1
  Br  Br14  1  0.536677  0.339156  0.804001  1
  Br  Br15  1  0.804001  0.536677  0.339156  1
  Br  Br16  1  0.339156  0.804001  0.536677  1
  Br  Br17  1  0.460591  0.662746  0.197581  1
  Br  Br18  1  0.197581  0.460591  0.662746  1
  Br  Br19  1  0.662746  0.197581  0.460591  1
  Br  Br20  1  0.661060  0.940183  0.069149  1
  Br  Br21  1  0.069149  0.661060  0.940183  1
  Br  Br22  1  0.940183  0.069149  0.661060  1
  Br  Br23  1  0.341522  0.059301  0.927508  1
  Br  Br24  1  0.927508  0.341522  0.059301  1
  Br  Br25  1  0.059301  0.927508  0.341522  1
