# generated using pymatgen
data_HfGa11(IrRu)6
_symmetry_space_group_name_H-M   'P 1'
_cell_length_a   4.31093200
_cell_length_b   6.13636001
_cell_length_c   12.98489602
_cell_angle_alpha   89.99402385
_cell_angle_beta   90.00059244
_cell_angle_gamma   89.99989083
_symmetry_Int_Tables_number   1
_chemical_formula_structural   HfGa11(IrRu)6
_chemical_formula_sum   'Hf1 Ga11 Ir6 Ru6'
_cell_volume   343.49504538
_cell_formula_units_Z   1
loop_
 _symmetry_equiv_pos_site_id
 _symmetry_equiv_pos_as_xyz
  1  'x, y, z'
loop_
 _atom_site_type_symbol
 _atom_site_label
 _atom_site_symmetry_multiplicity
 _atom_site_fract_x
 _atom_site_fract_y
 _atom_site_fract_z
 _atom_site_occupancy
  Hf  Hf0  1  0.499997  0.249515  0.999990  1
  Ga  Ga1  1  0.499999  0.749090  0.000015  1
  Ga  Ga2  1  0.000030  0.249511  0.164936  1
  Ga  Ga3  1  0.000044  0.749831  0.170838  1
  Ga  Ga4  1  0.500042  0.250753  0.334245  1
  Ga  Ga5  1  0.500040  0.750226  0.338846  1
  Ga  Ga6  1  0.999998  0.249878  0.500021  1
  Ga  Ga7  1  0.999999  0.750507  0.500009  1
  Ga  Ga8  1  0.499959  0.250798  0.665731  1
  Ga  Ga9  1  0.499960  0.750181  0.661171  1
  Ga  Ga10  1  0.999973  0.249551  0.835056  1
  Ga  Ga11  1  0.999958  0.749801  0.829150  1
  Ir  Ir12  1  0.000000  0.986453  0.999998  1
  Ir  Ir13  1  0.500043  0.504819  0.170996  1
  Ir  Ir14  1  0.000036  0.003542  0.333156  1
  Ir  Ir15  1  0.500001  0.497790  0.500002  1
  Ir  Ir16  1  0.999965  0.003569  0.666846  1
  Ir  Ir17  1  0.499954  0.504780  0.829009  1
  Ru  Ru18  1  0.000010  0.514464  0.999997  1
  Ru  Ru19  1  0.500055  0.993067  0.171351  1
  Ru  Ru20  1  0.000023  0.498664  0.333547  1
  Ru  Ru21  1  0.499996  0.001457  0.500004  1
  Ru  Ru22  1  0.999968  0.498697  0.666441  1
  Ru  Ru23  1  0.499953  0.993059  0.828644  1
