# generated using pymatgen
data_Sm6CoAs5P7Rh17
_symmetry_space_group_name_H-M   'P 1'
_cell_length_a   3.96381800
_cell_length_b   11.35493524
_cell_length_c   13.12175213
_cell_angle_alpha   89.66071916
_cell_angle_beta   90.00000000
_cell_angle_gamma   90.00000000
_symmetry_Int_Tables_number   1
_chemical_formula_structural   Sm6CoAs5P7Rh17
_chemical_formula_sum   'Sm6 Co1 As5 P7 Rh17'
_cell_volume   590.58523147
_cell_formula_units_Z   1
loop_
 _symmetry_equiv_pos_site_id
 _symmetry_equiv_pos_as_xyz
  1  'x, y, z'
loop_
 _atom_site_type_symbol
 _atom_site_label
 _atom_site_symmetry_multiplicity
 _atom_site_fract_x
 _atom_site_fract_y
 _atom_site_fract_z
 _atom_site_occupancy
  Sm  Sm0  1  0.000000  0.501575  0.515485  1
  Sm  Sm1  1  0.500000  0.997399  0.477612  1
  Sm  Sm2  1  0.500000  0.813209  0.204756  1
  Sm  Sm3  1  0.500000  0.180952  0.202324  1
  Sm  Sm4  1  0.000000  0.686386  0.797941  1
  Sm  Sm5  1  0.000000  0.314945  0.799101  1
  Co  Co6  1  0.500000  0.998343  0.031179  1
  As  As7  1  0.500000  0.317901  0.618356  1
  As  As8  1  0.500000  0.682658  0.617800  1
  As  As9  1  0.000000  0.184294  0.378302  1
  As  As10  1  0.500000  0.859281  0.894987  1
  As  As11  1  0.500000  0.141375  0.894899  1
  P  P12  1  0.500000  0.499300  0.887307  1
  P  P13  1  0.000000  0.997625  0.120145  1
  P  P14  1  0.500000  0.501621  0.345331  1
  P  P15  1  0.000000  0.001518  0.648609  1
  P  P16  1  0.000000  0.811437  0.379700  1
  P  P17  1  0.000000  0.651912  0.107433  1
  P  P18  1  0.000000  0.341311  0.105025  1
  Rh  Rh19  1  0.500000  0.513593  0.168976  1
  Rh  Rh20  1  0.000000  0.995457  0.826670  1
  Rh  Rh21  1  0.500000  0.499968  0.714760  1
  Rh  Rh22  1  0.000000  0.991783  0.294758  1
  Rh  Rh23  1  0.000000  0.499882  0.985986  1
  Rh  Rh24  1  0.500000  0.334090  0.002710  1
  Rh  Rh25  1  0.500000  0.666751  0.994681  1
  Rh  Rh26  1  0.000000  0.159454  0.010784  1
  Rh  Rh27  1  0.000000  0.836042  0.014163  1
  Rh  Rh28  1  0.500000  0.307478  0.426496  1
  Rh  Rh29  1  0.500000  0.707216  0.425913  1
  Rh  Rh30  1  0.000000  0.200635  0.567036  1
  Rh  Rh31  1  0.000000  0.803908  0.562393  1
  Rh  Rh32  1  0.500000  0.878437  0.703041  1
  Rh  Rh33  1  0.500000  0.119701  0.705000  1
  Rh  Rh34  1  0.000000  0.624203  0.289824  1
  Rh  Rh35  1  0.000000  0.378359  0.280512  1
