# generated using pymatgen
data_Eu2Lu2ReB12Ru
_symmetry_space_group_name_H-M   'P 1'
_cell_length_a   3.65381500
_cell_length_b   9.17203656
_cell_length_c   11.60756438
_cell_angle_alpha   89.82605622
_cell_angle_beta   90.00000000
_cell_angle_gamma   90.00000000
_symmetry_Int_Tables_number   1
_chemical_formula_structural   Eu2Lu2ReB12Ru
_chemical_formula_sum   'Eu4 Lu4 Re2 B24 Ru2'
_cell_volume   389.00163916
_cell_formula_units_Z   2
loop_
 _symmetry_equiv_pos_site_id
 _symmetry_equiv_pos_as_xyz
  1  'x, y, z'
loop_
 _atom_site_type_symbol
 _atom_site_label
 _atom_site_symmetry_multiplicity
 _atom_site_fract_x
 _atom_site_fract_y
 _atom_site_fract_z
 _atom_site_occupancy
  Eu  Eu0  1  0.000000  0.323240  0.415520  1
  Eu  Eu1  1  0.000000  0.676760  0.584480  1
  Eu  Eu2  1  0.000000  0.822975  0.085036  1
  Eu  Eu3  1  0.000000  0.177025  0.914964  1
  Lu  Lu4  1  0.000000  0.943713  0.369511  1
  Lu  Lu5  1  0.000000  0.056287  0.630489  1
  Lu  Lu6  1  0.000000  0.442472  0.130714  1
  Lu  Lu7  1  0.000000  0.557528  0.869286  1
  Re  Re8  1  0.000000  0.640548  0.317954  1
  Re  Re9  1  0.000000  0.359452  0.682046  1
  B  B10  1  0.500000  0.554765  0.431310  1
  B  B11  1  0.500000  0.445235  0.568690  1
  B  B12  1  0.500000  0.055609  0.069520  1
  B  B13  1  0.500000  0.944391  0.930480  1
  B  B14  1  0.500000  0.751414  0.416898  1
  B  B15  1  0.500000  0.248586  0.583102  1
  B  B16  1  0.500000  0.250338  0.084059  1
  B  B17  1  0.500000  0.749662  0.915941  1
  B  B18  1  0.500000  0.793902  0.264512  1
  B  B19  1  0.500000  0.206098  0.735488  1
  B  B20  1  0.500000  0.292264  0.234997  1
  B  B21  1  0.500000  0.707736  0.765003  1
  B  B22  1  0.500000  0.630417  0.183728  1
  B  B23  1  0.500000  0.369583  0.816272  1
  B  B24  1  0.500000  0.130522  0.315003  1
  B  B25  1  0.500000  0.869478  0.684997  1
  B  B26  1  0.500000  0.984324  0.213177  1
  B  B27  1  0.500000  0.015676  0.786823  1
  B  B28  1  0.500000  0.482414  0.286496  1
  B  B29  1  0.500000  0.517586  0.713504  1
  B  B30  1  0.500000  0.596244  0.026106  1
  B  B31  1  0.500000  0.403756  0.973894  1
  B  B32  1  0.500000  0.096482  0.473852  1
  B  B33  1  0.500000  0.903518  0.526148  1
  Ru  Ru34  1  0.000000  0.140862  0.181926  1
  Ru  Ru35  1  0.000000  0.859138  0.818074  1
