# generated using pymatgen
data_Nb5Fe(B2Ru5)2
_symmetry_space_group_name_H-M   'P 1'
_cell_length_a   9.39619800
_cell_length_b   9.39619800
_cell_length_c   3.01608400
_cell_angle_alpha   90.00000000
_cell_angle_beta   90.00000000
_cell_angle_gamma   90.00000000
_symmetry_Int_Tables_number   1
_chemical_formula_structural   Nb5Fe(B2Ru5)2
_chemical_formula_sum   'Nb5 Fe1 B4 Ru10'
_cell_volume   266.28564339
_cell_formula_units_Z   1
loop_
 _symmetry_equiv_pos_site_id
 _symmetry_equiv_pos_as_xyz
  1  'x, y, z'
loop_
 _atom_site_type_symbol
 _atom_site_label
 _atom_site_symmetry_multiplicity
 _atom_site_fract_x
 _atom_site_fract_y
 _atom_site_fract_z
 _atom_site_occupancy
  Nb  Nb0  1  0.820890  0.674389  0.000000  1
  Nb  Nb1  1  0.179110  0.325611  0.000000  1
  Nb  Nb2  1  0.325611  0.820890  0.000000  1
  Nb  Nb3  1  0.674389  0.179110  0.000000  1
  Nb  Nb4  1  0.000000  0.000000  0.000000  1
  Fe  Fe5  1  0.500000  0.500000  0.000000  1
  B  B6  1  0.617104  0.870897  0.000000  1
  B  B7  1  0.382896  0.129103  0.000000  1
  B  B8  1  0.129103  0.617104  0.000000  1
  B  B9  1  0.870897  0.382896  0.000000  1
  Ru  Ru10  1  0.500000  0.000000  0.500000  1
  Ru  Ru11  1  0.000000  0.500000  0.500000  1
  Ru  Ru12  1  0.568648  0.713762  0.500000  1
  Ru  Ru13  1  0.431352  0.286238  0.500000  1
  Ru  Ru14  1  0.072711  0.780052  0.500000  1
  Ru  Ru15  1  0.927289  0.219948  0.500000  1
  Ru  Ru16  1  0.286238  0.568648  0.500000  1
  Ru  Ru17  1  0.713762  0.431352  0.500000  1
  Ru  Ru18  1  0.219948  0.072711  0.500000  1
  Ru  Ru19  1  0.780052  0.927289  0.500000  1
