# generated using pymatgen
data_Ti2GaPd3
_symmetry_space_group_name_H-M   'P 1'
_cell_length_a   4.83533295
_cell_length_b   4.87343549
_cell_length_c   4.66084000
_cell_angle_alpha   90.00000000
_cell_angle_beta   90.00000000
_cell_angle_gamma   121.41785961
_symmetry_Int_Tables_number   1
_chemical_formula_structural   Ti2GaPd3
_chemical_formula_sum   'Ti2 Ga1 Pd3'
_cell_volume   93.72868218
_cell_formula_units_Z   1
loop_
 _symmetry_equiv_pos_site_id
 _symmetry_equiv_pos_as_xyz
  1  'x, y, z'
loop_
 _atom_site_type_symbol
 _atom_site_label
 _atom_site_symmetry_multiplicity
 _atom_site_fract_x
 _atom_site_fract_y
 _atom_site_fract_z
 _atom_site_occupancy
  Ti  Ti0  1  0.781470  0.766330  0.250000  1
  Ti  Ti1  1  0.223957  0.242125  0.750000  1
  Ga  Ga2  1  0.459337  0.101055  0.250000  1
  Pd  Pd3  1  0.124384  0.435969  0.250000  1
  Pd  Pd4  1  0.542785  0.892887  0.750000  1
  Pd  Pd5  1  0.868068  0.561634  0.750000  1
