# generated using pymatgen
data_Tb2Y3CoBi2
_symmetry_space_group_name_H-M   'P 1'
_cell_length_a   8.07339800
_cell_length_b   8.82973200
_cell_length_c   12.46204100
_cell_angle_alpha   90.00000000
_cell_angle_beta   90.00000000
_cell_angle_gamma   90.00000000
_symmetry_Int_Tables_number   1
_chemical_formula_structural   Tb2Y3CoBi2
_chemical_formula_sum   'Tb8 Y12 Co4 Bi8'
_cell_volume   888.36831534
_cell_formula_units_Z   4
loop_
 _symmetry_equiv_pos_site_id
 _symmetry_equiv_pos_as_xyz
  1  'x, y, z'
loop_
 _atom_site_type_symbol
 _atom_site_label
 _atom_site_symmetry_multiplicity
 _atom_site_fract_x
 _atom_site_fract_y
 _atom_site_fract_z
 _atom_site_occupancy
  Tb  Tb0  1  0.676969  0.034032  0.562957  1
  Tb  Tb1  1  0.323031  0.965968  0.437043  1
  Tb  Tb2  1  0.176969  0.965968  0.937043  1
  Tb  Tb3  1  0.323031  0.534032  0.437043  1
  Tb  Tb4  1  0.823031  0.034032  0.062957  1
  Tb  Tb5  1  0.676969  0.465968  0.562957  1
  Tb  Tb6  1  0.823031  0.465968  0.062957  1
  Tb  Tb7  1  0.176969  0.534032  0.937043  1
  Y  Y8  1  0.847602  0.750000  0.801040  1
  Y  Y9  1  0.152398  0.250000  0.198960  1
  Y  Y10  1  0.347602  0.250000  0.698960  1
  Y  Y11  1  0.652398  0.750000  0.301040  1
  Y  Y12  1  0.378735  0.750000  0.691168  1
  Y  Y13  1  0.621265  0.250000  0.308832  1
  Y  Y14  1  0.878735  0.250000  0.808832  1
  Y  Y15  1  0.121265  0.750000  0.191168  1
  Y  Y16  1  0.955593  0.750000  0.502112  1
  Y  Y17  1  0.044407  0.250000  0.497888  1
  Y  Y18  1  0.455593  0.250000  0.997888  1
  Y  Y19  1  0.544407  0.750000  0.002112  1
  Co  Co20  1  0.559089  0.750000  0.508418  1
  Co  Co21  1  0.440911  0.250000  0.491582  1
  Co  Co22  1  0.059089  0.250000  0.991582  1
  Co  Co23  1  0.940911  0.750000  0.008418  1
  Bi  Bi24  1  0.570927  0.492234  0.825580  1
  Bi  Bi25  1  0.429073  0.507766  0.174420  1
  Bi  Bi26  1  0.070927  0.507766  0.674420  1
  Bi  Bi27  1  0.429073  0.992234  0.174420  1
  Bi  Bi28  1  0.929073  0.492234  0.325580  1
  Bi  Bi29  1  0.570927  0.007766  0.825580  1
  Bi  Bi30  1  0.929073  0.007766  0.325580  1
  Bi  Bi31  1  0.070927  0.992234  0.674420  1
