# generated using pymatgen
data_Y8Be3Si12Au
_symmetry_space_group_name_H-M   'P 1'
_cell_length_a   7.95263500
_cell_length_b   7.95263530
_cell_length_c   8.13532400
_cell_angle_alpha   90.00000000
_cell_angle_beta   90.00000000
_cell_angle_gamma   120.00000289
_symmetry_Int_Tables_number   1
_chemical_formula_structural   Y8Be3Si12Au
_chemical_formula_sum   'Y8 Be3 Si12 Au1'
_cell_volume   445.58195030
_cell_formula_units_Z   1
loop_
 _symmetry_equiv_pos_site_id
 _symmetry_equiv_pos_as_xyz
  1  'x, y, z'
loop_
 _atom_site_type_symbol
 _atom_site_label
 _atom_site_symmetry_multiplicity
 _atom_site_fract_x
 _atom_site_fract_y
 _atom_site_fract_z
 _atom_site_occupancy
  Y  Y0  1  0.000000  0.000000  0.248054  1
  Y  Y1  1  0.000000  0.000000  0.751760  1
  Y  Y2  1  0.005528  0.502763  0.246544  1
  Y  Y3  1  0.497237  0.502763  0.246544  1
  Y  Y4  1  0.497661  0.995324  0.753436  1
  Y  Y5  1  0.497237  0.994472  0.246544  1
  Y  Y6  1  0.497661  0.502339  0.753436  1
  Y  Y7  1  0.004676  0.502339  0.753436  1
  Be  Be8  1  0.333333  0.666667  0.999063  1
  Be  Be9  1  0.333333  0.666667  0.500299  1
  Be  Be10  1  0.666667  0.333333  0.001819  1
  Si  Si11  1  0.173329  0.346658  0.999817  1
  Si  Si12  1  0.653342  0.826671  0.999817  1
  Si  Si13  1  0.173852  0.347706  0.500416  1
  Si  Si14  1  0.344274  0.172138  0.000035  1
  Si  Si15  1  0.173329  0.826671  0.999817  1
  Si  Si16  1  0.652294  0.826148  0.500416  1
  Si  Si17  1  0.827862  0.655726  0.000035  1
  Si  Si18  1  0.323816  0.161908  0.499581  1
  Si  Si19  1  0.173852  0.826148  0.500416  1
  Si  Si20  1  0.838092  0.676184  0.499581  1
  Si  Si21  1  0.827862  0.172138  0.000035  1
  Si  Si22  1  0.838092  0.161908  0.499581  1
  Au  Au23  1  0.666667  0.333333  0.499517  1
