# generated using pymatgen
data_Eu3BiO7
_symmetry_space_group_name_H-M   'P 1'
_cell_length_a   6.70742700
_cell_length_b   6.70742716
_cell_length_c   7.89239000
_cell_angle_alpha   90.00000000
_cell_angle_beta   90.00000000
_cell_angle_gamma   110.14150083
_symmetry_Int_Tables_number   1
_chemical_formula_structural   Eu3BiO7
_chemical_formula_sum   'Eu6 Bi2 O14'
_cell_volume   333.36069583
_cell_formula_units_Z   2
loop_
 _symmetry_equiv_pos_site_id
 _symmetry_equiv_pos_as_xyz
  1  'x, y, z'
loop_
 _atom_site_type_symbol
 _atom_site_label
 _atom_site_symmetry_multiplicity
 _atom_site_fract_x
 _atom_site_fract_y
 _atom_site_fract_z
 _atom_site_occupancy
  Eu  Eu0  1  0.001696  0.472567  0.748925  1
  Eu  Eu1  1  0.998304  0.527433  0.248925  1
  Eu  Eu2  1  0.527433  0.998304  0.751075  1
  Eu  Eu3  1  0.472567  0.001696  0.251075  1
  Eu  Eu4  1  0.501196  0.501196  0.500000  1
  Eu  Eu5  1  0.498804  0.498804  0.000000  1
  Bi  Bi6  1  0.999078  0.999078  0.500000  1
  Bi  Bi7  1  0.000922  0.000922  0.000000  1
  O  O8  1  0.637789  0.362211  0.750000  1
  O  O9  1  0.362211  0.637789  0.250000  1
  O  O10  1  0.921532  0.078468  0.750000  1
  O  O11  1  0.078468  0.921532  0.250000  1
  O  O12  1  0.915861  0.663877  0.528004  1
  O  O13  1  0.084139  0.336123  0.028004  1
  O  O14  1  0.336123  0.084139  0.971996  1
  O  O15  1  0.663877  0.915861  0.471996  1
  O  O16  1  0.370594  0.629406  0.750000  1
  O  O17  1  0.629406  0.370594  0.250000  1
  O  O18  1  0.920507  0.666975  0.969592  1
  O  O19  1  0.079493  0.333025  0.469592  1
  O  O20  1  0.333025  0.079493  0.530408  1
  O  O21  1  0.666975  0.920507  0.030408  1
