# generated using pymatgen
data_Y9Ho(SiBi)4
_symmetry_space_group_name_H-M   'P 1'
_cell_length_a   8.67051902
_cell_length_b   8.67051851
_cell_length_c   7.93573000
_cell_angle_alpha   89.99994510
_cell_angle_beta   89.99995190
_cell_angle_gamma   125.61785729
_symmetry_Int_Tables_number   1
_chemical_formula_structural   Y9Ho(SiBi)4
_chemical_formula_sum   'Y9 Ho1 Si4 Bi4'
_cell_volume   484.98072539
_cell_formula_units_Z   1
loop_
 _symmetry_equiv_pos_site_id
 _symmetry_equiv_pos_as_xyz
  1  'x, y, z'
loop_
 _atom_site_type_symbol
 _atom_site_label
 _atom_site_symmetry_multiplicity
 _atom_site_fract_x
 _atom_site_fract_y
 _atom_site_fract_z
 _atom_site_occupancy
  Y  Y0  1  0.043415  0.287338  0.335188  1
  Y  Y1  1  0.956585  0.712662  0.664812  1
  Y  Y2  1  0.456803  0.212881  0.834988  1
  Y  Y3  1  0.787119  0.543197  0.165012  1
  Y  Y4  1  0.543197  0.787119  0.165012  1
  Y  Y5  1  0.212881  0.456803  0.834988  1
  Y  Y6  1  0.712662  0.956585  0.664812  1
  Y  Y7  1  0.287338  0.043415  0.335188  1
  Y  Y8  1  0.000000  0.000000  0.000000  1
  Ho  Ho9  1  0.500000  0.500000  0.500000  1
  Si  Si10  1  0.366340  0.366340  0.132850  1
  Si  Si11  1  0.633660  0.633660  0.867150  1
  Si  Si12  1  0.134027  0.134027  0.632486  1
  Si  Si13  1  0.865973  0.865973  0.367514  1
  Bi  Bi14  1  0.792349  0.207651  0.000000  1
  Bi  Bi15  1  0.207651  0.792349  0.000000  1
  Bi  Bi16  1  0.707480  0.292520  0.500000  1
  Bi  Bi17  1  0.292520  0.707480  0.500000  1
