# generated using pymatgen
data_UTcAg2F12
_symmetry_space_group_name_H-M   'P 1'
_cell_length_a   5.19185445
_cell_length_b   5.19185445
_cell_length_c   9.56895200
_cell_angle_alpha   90.00000000
_cell_angle_beta   90.00000000
_cell_angle_gamma   93.75044794
_symmetry_Int_Tables_number   1
_chemical_formula_structural   UTcAg2F12
_chemical_formula_sum   'U1 Tc1 Ag2 F12'
_cell_volume   257.38208585
_cell_formula_units_Z   1
loop_
 _symmetry_equiv_pos_site_id
 _symmetry_equiv_pos_as_xyz
  1  'x, y, z'
loop_
 _atom_site_type_symbol
 _atom_site_label
 _atom_site_symmetry_multiplicity
 _atom_site_fract_x
 _atom_site_fract_y
 _atom_site_fract_z
 _atom_site_occupancy
  U  U0  1  0.000000  0.000000  0.500000  1
  Tc  Tc1  1  0.000000  0.000000  0.000000  1
  Ag  Ag2  1  0.500000  0.500000  0.203597  1
  Ag  Ag3  1  0.500000  0.500000  0.796403  1
  F  F4  1  0.276154  0.276154  0.000000  1
  F  F5  1  0.723846  0.723846  0.000000  1
  F  F6  1  0.730049  0.269951  0.500000  1
  F  F7  1  0.269951  0.730049  0.500000  1
  F  F8  1  0.213046  0.213046  0.351180  1
  F  F9  1  0.786954  0.786954  0.648820  1
  F  F10  1  0.786954  0.786954  0.351180  1
  F  F11  1  0.819220  0.180780  0.858812  1
  F  F12  1  0.819220  0.180780  0.141188  1
  F  F13  1  0.213046  0.213046  0.648820  1
  F  F14  1  0.180780  0.819220  0.141188  1
  F  F15  1  0.180780  0.819220  0.858812  1
