# generated using pymatgen
data_SrY7(Si3Pt)4
_symmetry_space_group_name_H-M   'P 1'
_cell_length_a   8.16802417
_cell_length_b   8.16802545
_cell_length_c   8.29828800
_cell_angle_alpha   90.00000000
_cell_angle_beta   90.00000000
_cell_angle_gamma   119.93876262
_symmetry_Int_Tables_number   1
_chemical_formula_structural   SrY7(Si3Pt)4
_chemical_formula_sum   'Sr1 Y7 Si12 Pt4'
_cell_volume   479.75652530
_cell_formula_units_Z   1
loop_
 _symmetry_equiv_pos_site_id
 _symmetry_equiv_pos_as_xyz
  1  'x, y, z'
loop_
 _atom_site_type_symbol
 _atom_site_label
 _atom_site_symmetry_multiplicity
 _atom_site_fract_x
 _atom_site_fract_y
 _atom_site_fract_z
 _atom_site_occupancy
  Sr  Sr0  1  0.499588  0.500412  0.250000  1
  Y  Y1  1  0.000037  0.999963  0.250000  1
  Y  Y2  1  0.999966  0.000034  0.750000  1
  Y  Y3  1  0.000445  0.500255  0.250000  1
  Y  Y4  1  0.500349  0.000633  0.750000  1
  Y  Y5  1  0.499745  0.999555  0.250000  1
  Y  Y6  1  0.500301  0.499699  0.750000  1
  Y  Y7  1  0.999367  0.499651  0.750000  1
  Si  Si8  1  0.164885  0.331460  0.994417  1
  Si  Si9  1  0.668540  0.835115  0.994417  1
  Si  Si10  1  0.164885  0.331460  0.505583  1
  Si  Si11  1  0.331484  0.164885  0.995393  1
  Si  Si12  1  0.164645  0.835355  0.999678  1
  Si  Si13  1  0.668540  0.835115  0.505583  1
  Si  Si14  1  0.835115  0.668516  0.995393  1
  Si  Si15  1  0.331484  0.164885  0.504607  1
  Si  Si16  1  0.164645  0.835355  0.500322  1
  Si  Si17  1  0.835115  0.668516  0.504607  1
  Si  Si18  1  0.835401  0.164599  0.000609  1
  Si  Si19  1  0.835401  0.164599  0.499391  1
  Pt  Pt20  1  0.331415  0.668585  0.990459  1
  Pt  Pt21  1  0.331415  0.668585  0.509541  1
  Pt  Pt22  1  0.668617  0.331383  0.991896  1
  Pt  Pt23  1  0.668617  0.331383  0.508104  1
