# generated using pymatgen
data_Eu2MgReN4
_symmetry_space_group_name_H-M   'P 1'
_cell_length_a   9.73212058
_cell_length_b   9.46048278
_cell_length_c   7.48367600
_cell_angle_alpha   68.97933563
_cell_angle_beta   65.14812060
_cell_angle_gamma   45.87254951
_symmetry_Int_Tables_number   1
_chemical_formula_structural   Eu2MgReN4
_chemical_formula_sum   'Eu8 Mg4 Re4 N16'
_cell_volume   446.46274049
_cell_formula_units_Z   4
loop_
 _symmetry_equiv_pos_site_id
 _symmetry_equiv_pos_as_xyz
  1  'x, y, z'
loop_
 _atom_site_type_symbol
 _atom_site_label
 _atom_site_symmetry_multiplicity
 _atom_site_fract_x
 _atom_site_fract_y
 _atom_site_fract_z
 _atom_site_occupancy
  Eu  Eu0  1  0.572657  0.927343  0.927343  1
  Eu  Eu1  1  0.927343  0.572657  0.572657  1
  Eu  Eu2  1  0.322657  0.677343  0.677343  1
  Eu  Eu3  1  0.110667  0.110667  0.889333  1
  Eu  Eu4  1  0.139333  0.139333  0.360667  1
  Eu  Eu5  1  0.360667  0.360667  0.139333  1
  Eu  Eu6  1  0.677343  0.322657  0.322657  1
  Eu  Eu7  1  0.889333  0.889333  0.110667  1
  Mg  Mg8  1  0.327879  0.327879  0.672121  1
  Mg  Mg9  1  0.922121  0.922121  0.577879  1
  Mg  Mg10  1  0.672121  0.672121  0.327879  1
  Mg  Mg11  1  0.577879  0.577879  0.922121  1
  Re  Re12  1  0.502577  0.997423  0.502577  1
  Re  Re13  1  0.997423  0.502577  0.997423  1
  Re  Re14  1  0.747423  0.252577  0.747423  1
  Re  Re15  1  0.252577  0.747423  0.252577  1
  N  N16  1  0.967259  0.715449  0.821501  1
  N  N17  1  0.700239  0.269618  0.015907  1
  N  N18  1  0.715449  0.967259  0.495793  1
  N  N19  1  0.495793  0.821501  0.715449  1
  N  N20  1  0.282741  0.534551  0.428499  1
  N  N21  1  0.754207  0.428499  0.534551  1
  N  N22  1  0.015907  0.014236  0.700239  1
  N  N23  1  0.549761  0.980382  0.234093  1
  N  N24  1  0.428499  0.754207  0.282741  1
  N  N25  1  0.980382  0.549761  0.235764  1
  N  N26  1  0.269618  0.700239  0.014236  1
  N  N27  1  0.821501  0.495793  0.967259  1
  N  N28  1  0.235764  0.234093  0.980382  1
  N  N29  1  0.534551  0.282741  0.754207  1
  N  N30  1  0.234093  0.235764  0.549761  1
  N  N31  1  0.014236  0.015907  0.269618  1
