# generated using pymatgen
data_Tm8Ta11Si16Mo
_symmetry_space_group_name_H-M   'P 1'
_cell_length_a   6.80166968
_cell_length_b   6.99653382
_cell_length_c   13.26053114
_cell_angle_alpha   90.02482400
_cell_angle_beta   89.95991284
_cell_angle_gamma   89.95085333
_symmetry_Int_Tables_number   1
_chemical_formula_structural   Tm8Ta11Si16Mo
_chemical_formula_sum   'Tm8 Ta11 Si16 Mo1'
_cell_volume   631.04319404
_cell_formula_units_Z   1
loop_
 _symmetry_equiv_pos_site_id
 _symmetry_equiv_pos_as_xyz
  1  'x, y, z'
loop_
 _atom_site_type_symbol
 _atom_site_label
 _atom_site_symmetry_multiplicity
 _atom_site_fract_x
 _atom_site_fract_y
 _atom_site_fract_z
 _atom_site_occupancy
  Tm  Tm0  1  0.502446  0.328410  0.095308  1
  Tm  Tm1  1  0.000886  0.172339  0.404724  1
  Tm  Tm2  1  0.497502  0.672757  0.594963  1
  Tm  Tm3  1  0.998420  0.828733  0.904616  1
  Tm  Tm4  1  0.498014  0.671641  0.904234  1
  Tm  Tm5  1  0.998857  0.828120  0.595303  1
  Tm  Tm6  1  0.501899  0.328179  0.405889  1
  Tm  Tm7  1  0.002153  0.172303  0.095474  1
  Ta  Ta8  1  0.837839  0.326223  0.624684  1
  Ta  Ta9  1  0.337180  0.174314  0.873556  1
  Ta  Ta10  1  0.163852  0.673886  0.125459  1
  Ta  Ta11  1  0.661924  0.826949  0.375172  1
  Ta  Ta12  1  0.166152  0.674044  0.376066  1
  Ta  Ta13  1  0.663971  0.826008  0.125505  1
  Ta  Ta14  1  0.836044  0.325798  0.873249  1
  Ta  Ta15  1  0.660952  0.008652  0.748976  1
  Ta  Ta16  1  0.160154  0.491402  0.749559  1
  Ta  Ta17  1  0.339100  0.992848  0.250384  1
  Ta  Ta18  1  0.838858  0.508179  0.250305  1
  Si  Si19  1  0.662250  0.036664  0.542068  1
  Si  Si20  1  0.164888  0.464301  0.958654  1
  Si  Si21  1  0.334996  0.964859  0.041062  1
  Si  Si22  1  0.835299  0.536095  0.458880  1
  Si  Si23  1  0.333293  0.965778  0.460892  1
  Si  Si24  1  0.834732  0.535482  0.040664  1
  Si  Si25  1  0.664885  0.035668  0.959179  1
  Si  Si26  1  0.166675  0.459877  0.542329  1
  Si  Si27  1  0.537484  0.378463  0.747562  1
  Si  Si28  1  0.041791  0.120304  0.748952  1
  Si  Si29  1  0.461305  0.619519  0.250197  1
  Si  Si30  1  0.960901  0.879390  0.250548  1
  Si  Si31  1  0.793668  0.631914  0.749747  1
  Si  Si32  1  0.295975  0.868719  0.749774  1
  Si  Si33  1  0.205576  0.368137  0.250499  1
  Si  Si34  1  0.704548  0.132723  0.249945  1
  Mo  Mo35  1  0.335532  0.171321  0.625616  1
