# generated using pymatgen
data_Yb2B8OsRu
_symmetry_space_group_name_H-M   'P 1'
_cell_length_a   3.54064000
_cell_length_b   5.94428804
_cell_length_c   11.50885602
_cell_angle_alpha   90.06789561
_cell_angle_beta   90.00000000
_cell_angle_gamma   90.00000000
_symmetry_Int_Tables_number   1
_chemical_formula_structural   Yb2B8OsRu
_chemical_formula_sum   'Yb4 B16 Os2 Ru2'
_cell_volume   242.22193511
_cell_formula_units_Z   2
loop_
 _symmetry_equiv_pos_site_id
 _symmetry_equiv_pos_as_xyz
  1  'x, y, z'
loop_
 _atom_site_type_symbol
 _atom_site_label
 _atom_site_symmetry_multiplicity
 _atom_site_fract_x
 _atom_site_fract_y
 _atom_site_fract_z
 _atom_site_occupancy
  Yb  Yb0  1  0.000000  0.129485  0.650979  1
  Yb  Yb1  1  0.000000  0.870515  0.349021  1
  Yb  Yb2  1  0.000000  0.629126  0.850524  1
  Yb  Yb3  1  0.000000  0.370874  0.149476  1
  B  B4  1  0.500000  0.475254  0.692059  1
  B  B5  1  0.500000  0.524746  0.307941  1
  B  B6  1  0.500000  0.976532  0.807964  1
  B  B7  1  0.500000  0.023468  0.192036  1
  B  B8  1  0.500000  0.285917  0.815232  1
  B  B9  1  0.500000  0.714083  0.184768  1
  B  B10  1  0.500000  0.786775  0.685162  1
  B  B11  1  0.500000  0.213225  0.314838  1
  B  B12  1  0.500000  0.364497  0.968712  1
  B  B13  1  0.500000  0.635503  0.031288  1
  B  B14  1  0.500000  0.863941  0.530798  1
  B  B15  1  0.500000  0.136059  0.469202  1
  B  B16  1  0.500000  0.386561  0.547437  1
  B  B17  1  0.500000  0.613439  0.452563  1
  B  B18  1  0.500000  0.887237  0.952743  1
  B  B19  1  0.500000  0.112763  0.047257  1
  Os  Os20  1  0.000000  0.635242  0.587973  1
  Os  Os21  1  0.000000  0.364758  0.412027  1
  Ru  Ru22  1  0.000000  0.135414  0.912290  1
  Ru  Ru23  1  0.000000  0.864586  0.087710  1
