# generated using pymatgen
data_Y12Al4Si4IrRh7
_symmetry_space_group_name_H-M   'P 1'
_cell_length_a   5.58126660
_cell_length_b   7.92259828
_cell_length_c   13.31529076
_cell_angle_alpha   89.96176626
_cell_angle_beta   89.99438613
_cell_angle_gamma   90.05266100
_symmetry_Int_Tables_number   1
_chemical_formula_structural   Y12Al4Si4IrRh7
_chemical_formula_sum   'Y12 Al4 Si4 Ir1 Rh7'
_cell_volume   588.77691661
_cell_formula_units_Z   1
loop_
 _symmetry_equiv_pos_site_id
 _symmetry_equiv_pos_as_xyz
  1  'x, y, z'
loop_
 _atom_site_type_symbol
 _atom_site_label
 _atom_site_symmetry_multiplicity
 _atom_site_fract_x
 _atom_site_fract_y
 _atom_site_fract_z
 _atom_site_occupancy
  Y  Y0  1  0.142441  0.601912  0.103998  1
  Y  Y1  1  0.143182  0.897444  0.896051  1
  Y  Y2  1  0.856989  0.102813  0.396105  1
  Y  Y3  1  0.857253  0.397709  0.603597  1
  Y  Y4  1  0.857110  0.397418  0.896820  1
  Y  Y5  1  0.856503  0.104419  0.103715  1
  Y  Y6  1  0.142746  0.896980  0.603657  1
  Y  Y7  1  0.142832  0.602542  0.396262  1
  Y  Y8  1  0.368423  0.245676  0.249469  1
  Y  Y9  1  0.367430  0.255820  0.750102  1
  Y  Y10  1  0.631114  0.743484  0.249282  1
  Y  Y11  1  0.632134  0.755760  0.749800  1
  Al  Al12  1  0.380041  0.250055  0.000031  1
  Al  Al13  1  0.621698  0.749863  0.499952  1
  Al  Al14  1  0.621360  0.749518  0.000624  1
  Al  Al15  1  0.378134  0.250161  0.499855  1
  Si  Si16  1  0.862251  0.391060  0.250548  1
  Si  Si17  1  0.862367  0.109292  0.750077  1
  Si  Si18  1  0.137938  0.890784  0.250159  1
  Si  Si19  1  0.137434  0.609626  0.750100  1
  Ir  Ir20  1  0.645233  0.469383  0.093894  1
  Rh  Rh21  1  0.643079  0.027321  0.905998  1
  Rh  Rh22  1  0.356150  0.971176  0.406623  1
  Rh  Rh23  1  0.356489  0.528996  0.593891  1
  Rh  Rh24  1  0.356742  0.529835  0.906012  1
  Rh  Rh25  1  0.355477  0.971297  0.093625  1
  Rh  Rh26  1  0.643763  0.028912  0.593527  1
  Rh  Rh27  1  0.643687  0.470746  0.406228  1
