# generated using pymatgen
data_Er8Tm4InCo4Os
_symmetry_space_group_name_H-M   'P 1'
_cell_length_a   8.20981785
_cell_length_b   8.20961956
_cell_length_c   8.20981812
_cell_angle_alpha   111.53336295
_cell_angle_beta   110.70140337
_cell_angle_gamma   106.22886132
_symmetry_Int_Tables_number   1
_chemical_formula_structural   Er8Tm4InCo4Os
_chemical_formula_sum   'Er8 Tm4 In1 Co4 Os1'
_cell_volume   424.91476146
_cell_formula_units_Z   1
loop_
 _symmetry_equiv_pos_site_id
 _symmetry_equiv_pos_as_xyz
  1  'x, y, z'
loop_
 _atom_site_type_symbol
 _atom_site_label
 _atom_site_symmetry_multiplicity
 _atom_site_fract_x
 _atom_site_fract_y
 _atom_site_fract_z
 _atom_site_occupancy
  Er  Er0  1  0.416693  0.222544  0.194154  1
  Er  Er1  1  0.583307  0.777456  0.805846  1
  Er  Er2  1  0.028390  0.222544  0.805852  1
  Er  Er3  1  0.971610  0.777456  0.194148  1
  Er  Er4  1  0.181893  0.278929  0.460807  1
  Er  Er5  1  0.818107  0.721071  0.539193  1
  Er  Er6  1  0.181879  0.721071  0.902963  1
  Er  Er7  1  0.818121  0.278929  0.097037  1
  Tm  Tm8  1  0.315105  0.621876  0.306770  1
  Tm  Tm9  1  0.684895  0.378124  0.693230  1
  Tm  Tm10  1  0.315151  0.008401  0.693251  1
  Tm  Tm11  1  0.684849  0.991599  0.306749  1
  In  In12  1  0.500000  0.500000  0.000000  1
  Co  Co13  1  0.375462  0.000000  0.375462  1
  Co  Co14  1  0.624538  0.000000  0.624538  1
  Co  Co15  1  0.111835  0.611832  0.499997  1
  Co  Co16  1  0.888165  0.388168  0.500003  1
  Os  Os17  1  0.000000  0.000000  0.000000  1
