# generated using pymatgen
data_HoBeNi3B
_symmetry_space_group_name_H-M   'P 1'
_cell_length_a   4.98168107
_cell_length_b   4.98082351
_cell_length_c   6.56521300
_cell_angle_alpha   90.00000000
_cell_angle_beta   90.00000000
_cell_angle_gamma   120.00323607
_symmetry_Int_Tables_number   1
_chemical_formula_structural   HoBeNi3B
_chemical_formula_sum   'Ho2 Be2 Ni6 B2'
_cell_volume   141.07250027
_cell_formula_units_Z   2
loop_
 _symmetry_equiv_pos_site_id
 _symmetry_equiv_pos_as_xyz
  1  'x, y, z'
loop_
 _atom_site_type_symbol
 _atom_site_label
 _atom_site_symmetry_multiplicity
 _atom_site_fract_x
 _atom_site_fract_y
 _atom_site_fract_z
 _atom_site_occupancy
  Ho  Ho0  1  0.999981  0.000003  0.000000  1
  Ho  Ho1  1  0.999986  0.000000  0.500000  1
  Be  Be2  1  0.333511  0.666942  0.000000  1
  Be  Be3  1  0.666450  0.333059  0.000000  1
  Ni  Ni4  1  0.499984  0.999999  0.276503  1
  Ni  Ni5  1  0.499984  0.500001  0.276483  1
  Ni  Ni6  1  0.999983  0.499999  0.276445  1
  Ni  Ni7  1  0.499984  0.999999  0.723497  1
  Ni  Ni8  1  0.499984  0.500001  0.723516  1
  Ni  Ni9  1  0.999983  0.499999  0.723554  1
  B  B10  1  0.333298  0.666652  0.500000  1
  B  B11  1  0.666671  0.333344  0.500000  1
