# generated using pymatgen
data_Dy4HoTmGa10
_symmetry_space_group_name_H-M   'P 1'
_cell_length_a   6.09645100
_cell_length_b   9.61371300
_cell_length_c   11.55879700
_cell_angle_alpha   90.00000000
_cell_angle_beta   90.00000000
_cell_angle_gamma   90.00000000
_symmetry_Int_Tables_number   1
_chemical_formula_structural   Dy4HoTmGa10
_chemical_formula_sum   'Dy8 Ho2 Tm2 Ga20'
_cell_volume   677.45566222
_cell_formula_units_Z   2
loop_
 _symmetry_equiv_pos_site_id
 _symmetry_equiv_pos_as_xyz
  1  'x, y, z'
loop_
 _atom_site_type_symbol
 _atom_site_label
 _atom_site_symmetry_multiplicity
 _atom_site_fract_x
 _atom_site_fract_y
 _atom_site_fract_z
 _atom_site_occupancy
  Dy  Dy0  1  0.891314  0.509252  0.351218  1
  Dy  Dy1  1  0.608686  0.990748  0.851218  1
  Dy  Dy2  1  0.109181  0.009887  0.648592  1
  Dy  Dy3  1  0.390819  0.490113  0.148592  1
  Dy  Dy4  1  0.109181  0.490113  0.648592  1
  Dy  Dy5  1  0.390819  0.009887  0.148592  1
  Dy  Dy6  1  0.891314  0.990748  0.351218  1
  Dy  Dy7  1  0.608686  0.509252  0.851218  1
  Ho  Ho8  1  0.848437  0.750000  0.074634  1
  Ho  Ho9  1  0.651563  0.750000  0.574634  1
  Tm  Tm10  1  0.151819  0.250000  0.925122  1
  Tm  Tm11  1  0.348181  0.250000  0.425122  1
  Ga  Ga12  1  0.876097  0.053829  0.089683  1
  Ga  Ga13  1  0.623903  0.446171  0.589683  1
  Ga  Ga14  1  0.123929  0.552724  0.910322  1
  Ga  Ga15  1  0.376071  0.947276  0.410322  1
  Ga  Ga16  1  0.123929  0.947276  0.910322  1
  Ga  Ga17  1  0.376071  0.552724  0.410322  1
  Ga  Ga18  1  0.876097  0.446171  0.089683  1
  Ga  Ga19  1  0.623903  0.053829  0.589683  1
  Ga  Ga20  1  0.171521  0.750000  0.252043  1
  Ga  Ga21  1  0.328479  0.750000  0.752043  1
  Ga  Ga22  1  0.829730  0.250000  0.748276  1
  Ga  Ga23  1  0.670270  0.250000  0.248276  1
  Ga  Ga24  1  0.372723  0.750000  0.004024  1
  Ga  Ga25  1  0.127277  0.750000  0.504024  1
  Ga  Ga26  1  0.625816  0.250000  0.995833  1
  Ga  Ga27  1  0.874184  0.250000  0.495833  1
  Ga  Ga28  1  0.601347  0.750000  0.299656  1
  Ga  Ga29  1  0.898653  0.750000  0.799656  1
  Ga  Ga30  1  0.398227  0.250000  0.700784  1
  Ga  Ga31  1  0.101773  0.250000  0.200784  1
