# generated using pymatgen
data_Tm3Al8Si4Os3Ru
_symmetry_space_group_name_H-M   'P 1'
_cell_length_a   8.63718800
_cell_length_b   8.65626555
_cell_length_c   9.35743100
_cell_angle_alpha   90.00000000
_cell_angle_beta   90.00000000
_cell_angle_gamma   119.92712228
_symmetry_Int_Tables_number   1
_chemical_formula_structural   Tm3Al8Si4Os3Ru
_chemical_formula_sum   'Tm6 Al16 Si8 Os6 Ru2'
_cell_volume   606.32946135
_cell_formula_units_Z   2
loop_
 _symmetry_equiv_pos_site_id
 _symmetry_equiv_pos_as_xyz
  1  'x, y, z'
loop_
 _atom_site_type_symbol
 _atom_site_label
 _atom_site_symmetry_multiplicity
 _atom_site_fract_x
 _atom_site_fract_y
 _atom_site_fract_z
 _atom_site_occupancy
  Tm  Tm0  1  0.806989  0.196511  0.750000  1
  Tm  Tm1  1  0.193011  0.803489  0.250000  1
  Tm  Tm2  1  0.389523  0.196511  0.750000  1
  Tm  Tm3  1  0.610477  0.803489  0.250000  1
  Tm  Tm4  1  0.804437  0.608875  0.750000  1
  Tm  Tm5  1  0.195563  0.391125  0.250000  1
  Al  Al6  1  0.835650  0.163135  0.420181  1
  Al  Al7  1  0.164350  0.836865  0.579819  1
  Al  Al8  1  0.327484  0.163135  0.420181  1
  Al  Al9  1  0.164350  0.836865  0.920181  1
  Al  Al10  1  0.672516  0.836865  0.579819  1
  Al  Al11  1  0.835650  0.163135  0.079819  1
  Al  Al12  1  0.836324  0.672648  0.420768  1
  Al  Al13  1  0.672516  0.836865  0.920181  1
  Al  Al14  1  0.163676  0.327352  0.579232  1
  Al  Al15  1  0.327484  0.163135  0.079819  1
  Al  Al16  1  0.163676  0.327352  0.920768  1
  Al  Al17  1  0.836324  0.672648  0.079232  1
  Al  Al18  1  0.435067  0.870136  0.750000  1
  Al  Al19  1  0.564933  0.129864  0.250000  1
  Al  Al20  1  0.999688  0.999376  0.750000  1
  Al  Al21  1  0.000312  0.000624  0.250000  1
  Si  Si22  1  0.665154  0.330307  0.959278  1
  Si  Si23  1  0.334846  0.669693  0.040722  1
  Si  Si24  1  0.334846  0.669693  0.459278  1
  Si  Si25  1  0.665154  0.330307  0.540722  1
  Si  Si26  1  0.436003  0.560223  0.750000  1
  Si  Si27  1  0.563997  0.439777  0.250000  1
  Si  Si28  1  0.124218  0.560223  0.750000  1
  Si  Si29  1  0.875782  0.439777  0.250000  1
  Os  Os30  1  0.500000  0.500000  0.000000  1
  Os  Os31  1  0.000000  0.500000  0.000000  1
  Os  Os32  1  0.500000  0.500000  0.500000  1
  Os  Os33  1  0.500000  0.000000  0.000000  1
  Os  Os34  1  0.000000  0.500000  0.500000  1
  Os  Os35  1  0.500000  0.000000  0.500000  1
  Ru  Ru36  1  0.000000  0.000000  0.000000  1
  Ru  Ru37  1  0.000000  0.000000  0.500000  1
