# generated using pymatgen
data_Er2UTcRu2
_symmetry_space_group_name_H-M   'P 1'
_cell_length_a   5.81043378
_cell_length_b   5.81043431
_cell_length_c   8.04680000
_cell_angle_alpha   90.00000000
_cell_angle_beta   90.00000000
_cell_angle_gamma   120.44482980
_symmetry_Int_Tables_number   1
_chemical_formula_structural   Er2UTcRu2
_chemical_formula_sum   'Er4 U2 Tc2 Ru4'
_cell_volume   234.21073919
_cell_formula_units_Z   2
loop_
 _symmetry_equiv_pos_site_id
 _symmetry_equiv_pos_as_xyz
  1  'x, y, z'
loop_
 _atom_site_type_symbol
 _atom_site_label
 _atom_site_symmetry_multiplicity
 _atom_site_fract_x
 _atom_site_fract_y
 _atom_site_fract_z
 _atom_site_occupancy
  Er  Er0  1  0.333362  0.666638  0.439598  1
  Er  Er1  1  0.667027  0.332973  0.557311  1
  Er  Er2  1  0.667027  0.332973  0.942689  1
  Er  Er3  1  0.333362  0.666638  0.060402  1
  U  U4  1  0.998299  0.001701  0.499530  1
  U  U5  1  0.998299  0.001701  0.000470  1
  Tc  Tc6  1  0.164054  0.325697  0.750000  1
  Tc  Tc7  1  0.674303  0.835946  0.750000  1
  Ru  Ru8  1  0.833737  0.166263  0.250000  1
  Ru  Ru9  1  0.832027  0.666076  0.250000  1
  Ru  Ru10  1  0.333924  0.167973  0.250000  1
  Ru  Ru11  1  0.164577  0.835423  0.750000  1
