# generated using pymatgen
data_Er3Tm(ZnRh)4
_symmetry_space_group_name_H-M   'P 1'
_cell_length_a   4.03745000
_cell_length_b   6.89769103
_cell_length_c   8.05215804
_cell_angle_alpha   89.98899244
_cell_angle_beta   90.00000000
_cell_angle_gamma   90.00000000
_symmetry_Int_Tables_number   1
_chemical_formula_structural   Er3Tm(ZnRh)4
_chemical_formula_sum   'Er3 Tm1 Zn4 Rh4'
_cell_volume   224.24521060
_cell_formula_units_Z   1
loop_
 _symmetry_equiv_pos_site_id
 _symmetry_equiv_pos_as_xyz
  1  'x, y, z'
loop_
 _atom_site_type_symbol
 _atom_site_label
 _atom_site_symmetry_multiplicity
 _atom_site_fract_x
 _atom_site_fract_y
 _atom_site_fract_z
 _atom_site_occupancy
  Er  Er0  1  0.250000  0.535727  0.184027  1
  Er  Er1  1  0.750000  0.464312  0.815960  1
  Er  Er2  1  0.750000  0.964343  0.683848  1
  Tm  Tm3  1  0.250000  0.035690  0.316090  1
  Zn  Zn4  1  0.250000  0.638956  0.564919  1
  Zn  Zn5  1  0.750000  0.360958  0.434936  1
  Zn  Zn6  1  0.750000  0.861246  0.065137  1
  Zn  Zn7  1  0.250000  0.138858  0.935135  1
  Rh  Rh8  1  0.250000  0.755279  0.878328  1
  Rh  Rh9  1  0.750000  0.244414  0.121929  1
  Rh  Rh10  1  0.750000  0.745043  0.378215  1
  Rh  Rh11  1  0.250000  0.255175  0.621477  1
