# generated using pymatgen
data_LaPr5Ir11Rh7
_symmetry_space_group_name_H-M   'P 1'
_cell_length_a   5.38284700
_cell_length_b   5.38895339
_cell_length_c   17.74816602
_cell_angle_alpha   90.03187412
_cell_angle_beta   90.00000000
_cell_angle_gamma   119.96250498
_symmetry_Int_Tables_number   1
_chemical_formula_structural   LaPr5Ir11Rh7
_chemical_formula_sum   'La1 Pr5 Ir11 Rh7'
_cell_volume   446.03039112
_cell_formula_units_Z   1
loop_
 _symmetry_equiv_pos_site_id
 _symmetry_equiv_pos_as_xyz
  1  'x, y, z'
loop_
 _atom_site_type_symbol
 _atom_site_label
 _atom_site_symmetry_multiplicity
 _atom_site_fract_x
 _atom_site_fract_y
 _atom_site_fract_z
 _atom_site_occupancy
  La  La0  1  0.666709  0.333418  0.249878  1
  Pr  Pr1  1  0.333348  0.666698  0.541648  1
  Pr  Pr2  1  0.666642  0.333284  0.041587  1
  Pr  Pr3  1  0.666294  0.332586  0.458042  1
  Pr  Pr4  1  0.333417  0.666835  0.958385  1
  Pr  Pr5  1  0.333370  0.666741  0.749976  1
  Ir  Ir6  1  0.166701  0.333401  0.128260  1
  Ir  Ir7  1  0.833170  0.666340  0.628044  1
  Ir  Ir8  1  0.666144  0.833203  0.127962  1
  Ir  Ir9  1  0.167059  0.833203  0.127962  1
  Ir  Ir10  1  0.833199  0.167068  0.628152  1
  Ir  Ir11  1  0.333868  0.167068  0.628152  1
  Ir  Ir12  1  0.833105  0.666209  0.871783  1
  Ir  Ir13  1  0.832969  0.166829  0.871798  1
  Ir  Ir14  1  0.333860  0.166829  0.871798  1
  Ir  Ir15  1  0.666982  0.834595  0.372105  1
  Ir  Ir16  1  0.167613  0.834595  0.372105  1
  Rh  Rh17  1  0.167276  0.334553  0.372516  1
  Rh  Rh18  1  0.999388  0.998775  0.249981  1
  Rh  Rh19  1  0.999984  0.999968  0.749959  1
  Rh  Rh20  1  0.333389  0.666778  0.250075  1
  Rh  Rh21  1  0.666700  0.333398  0.749939  1
  Rh  Rh22  1  0.000113  0.000225  0.999907  1
  Rh  Rh23  1  0.998702  0.997403  0.499988  1
