# generated using pymatgen
data_Dy5Nb2P12Ir4Rh13
_symmetry_space_group_name_H-M   'P 1'
_cell_length_a   12.65635800
_cell_length_b   12.81230169
_cell_length_c   3.94054500
_cell_angle_alpha   90.00000000
_cell_angle_beta   90.00000000
_cell_angle_gamma   119.59818340
_symmetry_Int_Tables_number   1
_chemical_formula_structural   Dy5Nb2P12Ir4Rh13
_chemical_formula_sum   'Dy5 Nb2 P12 Ir4 Rh13'
_cell_volume   555.60618845
_cell_formula_units_Z   1
loop_
 _symmetry_equiv_pos_site_id
 _symmetry_equiv_pos_as_xyz
  1  'x, y, z'
loop_
 _atom_site_type_symbol
 _atom_site_label
 _atom_site_symmetry_multiplicity
 _atom_site_fract_x
 _atom_site_fract_y
 _atom_site_fract_z
 _atom_site_occupancy
  Dy  Dy0  1  0.329958  0.660817  0.500000  1
  Dy  Dy1  1  0.669142  0.339183  0.500000  1
  Dy  Dy2  1  0.999045  0.811723  0.000000  1
  Dy  Dy3  1  0.187322  0.188277  0.000000  1
  Dy  Dy4  1  0.811306  0.000000  0.000000  1
  Nb  Nb5  1  0.997124  0.447487  0.500000  1
  Nb  Nb6  1  0.549637  0.552513  0.500000  1
  P  P7  1  0.002089  0.640536  0.500000  1
  P  P8  1  0.361552  0.359464  0.500000  1
  P  P9  1  0.638553  0.000000  0.500000  1
  P  P10  1  0.514932  0.682217  0.000000  1
  P  P11  1  0.313247  0.828133  0.000000  1
  P  P12  1  0.162463  0.480906  0.000000  1
  P  P13  1  0.485114  0.171867  0.000000  1
  P  P14  1  0.681557  0.519094  0.000000  1
  P  P15  1  0.832715  0.317783  0.000000  1
  P  P16  1  0.999551  0.175017  0.500000  1
  P  P17  1  0.824533  0.824983  0.500000  1
  P  P18  1  0.183381  0.000000  0.500000  1
  Ir  Ir19  1  0.997763  0.278361  0.000000  1
  Ir  Ir20  1  0.719401  0.721639  0.000000  1
  Ir  Ir21  1  0.287900  0.000000  0.000000  1
  Ir  Ir22  1  0.004803  0.000000  0.500000  1
  Rh  Rh23  1  0.507742  0.863548  0.000000  1
  Rh  Rh24  1  0.127045  0.643745  0.000000  1
  Rh  Rh25  1  0.353141  0.488055  0.000000  1
  Rh  Rh26  1  0.483301  0.356255  0.000000  1
  Rh  Rh27  1  0.865088  0.511945  0.000000  1
  Rh  Rh28  1  0.644195  0.136452  0.000000  1
  Rh  Rh29  1  0.456368  0.000000  0.500000  1
  Rh  Rh30  1  0.626446  0.807918  0.500000  1
  Rh  Rh31  1  0.202423  0.823054  0.500000  1
  Rh  Rh32  1  0.176792  0.370316  0.500000  1
  Rh  Rh33  1  0.379370  0.176946  0.500000  1
  Rh  Rh34  1  0.806475  0.629684  0.500000  1
  Rh  Rh35  1  0.818528  0.192082  0.500000  1
