# generated using pymatgen
data_Nd3Y5(HgRh)2
_symmetry_space_group_name_H-M   'P 1'
_cell_length_a   9.75132820
_cell_length_b   9.75132805
_cell_length_c   9.75132800
_cell_angle_alpha   60.00000015
_cell_angle_beta   60.00000068
_cell_angle_gamma   59.99999993
_symmetry_Int_Tables_number   1
_chemical_formula_structural   Nd3Y5(HgRh)2
_chemical_formula_sum   'Nd6 Y10 Hg4 Rh4'
_cell_volume   655.65640790
_cell_formula_units_Z   2
loop_
 _symmetry_equiv_pos_site_id
 _symmetry_equiv_pos_as_xyz
  1  'x, y, z'
loop_
 _atom_site_type_symbol
 _atom_site_label
 _atom_site_symmetry_multiplicity
 _atom_site_fract_x
 _atom_site_fract_y
 _atom_site_fract_z
 _atom_site_occupancy
  Nd  Nd0  1  0.189332  0.810668  0.810668  1
  Nd  Nd1  1  0.810668  0.189332  0.189332  1
  Nd  Nd2  1  0.810668  0.189332  0.810668  1
  Nd  Nd3  1  0.189332  0.810668  0.189332  1
  Nd  Nd4  1  0.810668  0.810668  0.189332  1
  Nd  Nd5  1  0.189332  0.189332  0.810668  1
  Y  Y6  1  0.600292  0.600292  0.600292  1
  Y  Y7  1  0.600292  0.600292  0.199126  1
  Y  Y8  1  0.600292  0.199126  0.600292  1
  Y  Y9  1  0.199126  0.600292  0.600292  1
  Y  Y10  1  0.062168  0.437832  0.437832  1
  Y  Y11  1  0.437832  0.062168  0.062168  1
  Y  Y12  1  0.437832  0.062168  0.437832  1
  Y  Y13  1  0.062168  0.437832  0.062168  1
  Y  Y14  1  0.437832  0.437832  0.062168  1
  Y  Y15  1  0.062168  0.062168  0.437832  1
  Hg  Hg16  1  0.833149  0.833149  0.833149  1
  Hg  Hg17  1  0.833149  0.833149  0.500553  1
  Hg  Hg18  1  0.833149  0.500553  0.833149  1
  Hg  Hg19  1  0.500553  0.833149  0.833149  1
  Rh  Rh20  1  0.392308  0.392308  0.392308  1
  Rh  Rh21  1  0.392308  0.392308  0.823076  1
  Rh  Rh22  1  0.392308  0.823076  0.392308  1
  Rh  Rh23  1  0.823076  0.392308  0.392308  1
