# generated using pymatgen
data_Li4Ca3PaPt4
_symmetry_space_group_name_H-M   'P 1'
_cell_length_a   3.92926300
_cell_length_b   7.05638167
_cell_length_c   8.46895800
_cell_angle_alpha   90.51915706
_cell_angle_beta   90.00000000
_cell_angle_gamma   90.00000000
_symmetry_Int_Tables_number   1
_chemical_formula_structural   Li4Ca3PaPt4
_chemical_formula_sum   'Li4 Ca3 Pa1 Pt4'
_cell_volume   234.80390343
_cell_formula_units_Z   1
loop_
 _symmetry_equiv_pos_site_id
 _symmetry_equiv_pos_as_xyz
  1  'x, y, z'
loop_
 _atom_site_type_symbol
 _atom_site_label
 _atom_site_symmetry_multiplicity
 _atom_site_fract_x
 _atom_site_fract_y
 _atom_site_fract_z
 _atom_site_occupancy
  Li  Li0  1  0.250000  0.116426  0.055601  1
  Li  Li1  1  0.250000  0.635183  0.439154  1
  Li  Li2  1  0.750000  0.864261  0.947455  1
  Li  Li3  1  0.750000  0.390254  0.560086  1
  Ca  Ca4  1  0.250000  0.545885  0.823034  1
  Ca  Ca5  1  0.750000  0.954463  0.312570  1
  Ca  Ca6  1  0.750000  0.448082  0.180170  1
  Pa  Pa7  1  0.250000  0.046699  0.677086  1
  Pt  Pt8  1  0.250000  0.250804  0.399162  1
  Pt  Pt9  1  0.250000  0.747091  0.123417  1
  Pt  Pt10  1  0.750000  0.773751  0.627216  1
  Pt  Pt11  1  0.750000  0.227101  0.855050  1
