# generated using pymatgen
data_VFe5Si2
_symmetry_space_group_name_H-M   'P 1'
_cell_length_a   6.86101505
_cell_length_b   6.86101545
_cell_length_c   6.86101502
_cell_angle_alpha   33.51389228
_cell_angle_beta   33.51388773
_cell_angle_gamma   33.51389269
_symmetry_Int_Tables_number   1
_chemical_formula_structural   VFe5Si2
_chemical_formula_sum   'V1 Fe5 Si2'
_cell_volume   87.69486138
_cell_formula_units_Z   1
loop_
 _symmetry_equiv_pos_site_id
 _symmetry_equiv_pos_as_xyz
  1  'x, y, z'
loop_
 _atom_site_type_symbol
 _atom_site_label
 _atom_site_symmetry_multiplicity
 _atom_site_fract_x
 _atom_site_fract_y
 _atom_site_fract_z
 _atom_site_occupancy
  V  V0  1  0.500000  0.500000  0.500000  1
  Fe  Fe1  1  0.000000  0.000000  0.000000  1
  Fe  Fe2  1  0.623613  0.623613  0.623613  1
  Fe  Fe3  1  0.126145  0.126145  0.126145  1
  Fe  Fe4  1  0.873855  0.873855  0.873855  1
  Fe  Fe5  1  0.376387  0.376387  0.376387  1
  Si  Si6  1  0.251033  0.251033  0.251033  1
  Si  Si7  1  0.748967  0.748967  0.748967  1
