# generated using pymatgen
data_Tb2TaP7Rh9W2
_symmetry_space_group_name_H-M   'P 1'
_cell_length_a   3.95716309
_cell_length_b   9.56050400
_cell_length_c   9.56875086
_cell_angle_alpha   120.12997884
_cell_angle_beta   90.00193888
_cell_angle_gamma   89.99391989
_symmetry_Int_Tables_number   1
_chemical_formula_structural   Tb2TaP7Rh9W2
_chemical_formula_sum   'Tb2 Ta1 P7 Rh9 W2'
_cell_volume   313.09800735
_cell_formula_units_Z   1
loop_
 _symmetry_equiv_pos_site_id
 _symmetry_equiv_pos_as_xyz
  1  'x, y, z'
loop_
 _atom_site_type_symbol
 _atom_site_label
 _atom_site_symmetry_multiplicity
 _atom_site_fract_x
 _atom_site_fract_y
 _atom_site_fract_z
 _atom_site_occupancy
  Tb  Tb0  1  0.261903  0.666056  0.333504  1
  Tb  Tb1  1  0.762033  0.333994  0.666861  1
  Ta  Ta2  1  0.761873  0.092873  0.874502  1
  P  P3  1  0.261844  0.998697  0.001107  1
  P  P4  1  0.761872  0.879283  0.588851  1
  P  P5  1  0.761882  0.407090  0.288938  1
  P  P6  1  0.761862  0.711884  0.118684  1
  P  P7  1  0.261948  0.117548  0.412831  1
  P  P8  1  0.261949  0.586964  0.704893  1
  P  P9  1  0.261945  0.296796  0.881905  1
  Rh  Rh10  1  0.261904  0.886022  0.159790  1
  Rh  Rh11  1  0.261872  0.838743  0.725794  1
  Rh  Rh12  1  0.261874  0.274221  0.114581  1
  Rh  Rh13  1  0.761892  0.612255  0.560187  1
  Rh  Rh14  1  0.761882  0.441415  0.054498  1
  Rh  Rh15  1  0.761919  0.946670  0.384711  1
  Rh  Rh16  1  0.261913  0.368350  0.437417  1
  Rh  Rh17  1  0.261903  0.563384  0.931875  1
  Rh  Rh18  1  0.261941  0.068733  0.629773  1
  W  W19  1  0.761898  0.127792  0.218755  1
  W  W20  1  0.761888  0.781228  0.910543  1
