# generated using pymatgen
data_Yb3Pr(Cr2C3)2
_symmetry_space_group_name_H-M   'P 1'
_cell_length_a   6.39414500
_cell_length_b   5.49298400
_cell_length_c   11.77325298
_cell_angle_alpha   66.21800502
_cell_angle_beta   90.00000000
_cell_angle_gamma   90.00000000
_symmetry_Int_Tables_number   1
_chemical_formula_structural   Yb3Pr(Cr2C3)2
_chemical_formula_sum   'Yb6 Pr2 Cr8 C12'
_cell_volume   378.39850179
_cell_formula_units_Z   2
loop_
 _symmetry_equiv_pos_site_id
 _symmetry_equiv_pos_as_xyz
  1  'x, y, z'
loop_
 _atom_site_type_symbol
 _atom_site_label
 _atom_site_symmetry_multiplicity
 _atom_site_fract_x
 _atom_site_fract_y
 _atom_site_fract_z
 _atom_site_occupancy
  Yb  Yb0  1  0.804133  0.657383  0.906854  1
  Yb  Yb1  1  0.304133  0.342617  0.593146  1
  Yb  Yb2  1  0.190338  0.325126  0.080344  1
  Yb  Yb3  1  0.690338  0.674874  0.419656  1
  Yb  Yb4  1  0.994601  0.732942  0.637784  1
  Yb  Yb5  1  0.494601  0.267058  0.862216  1
  Pr  Pr6  1  0.000713  0.288446  0.357855  1
  Pr  Pr7  1  0.500713  0.711554  0.142145  1
  Cr  Cr8  1  0.984496  0.831634  0.112785  1
  Cr  Cr9  1  0.484496  0.168366  0.387215  1
  Cr  Cr10  1  0.015804  0.168094  0.878250  1
  Cr  Cr11  1  0.515804  0.831906  0.621750  1
  Cr  Cr12  1  0.749951  0.177356  0.668484  1
  Cr  Cr13  1  0.250638  0.830124  0.335912  1
  Cr  Cr14  1  0.750638  0.169876  0.164088  1
  Cr  Cr15  1  0.249951  0.822644  0.831516  1
  C  C16  1  0.646574  0.511261  0.653757  1
  C  C17  1  0.146574  0.488739  0.846243  1
  C  C18  1  0.361102  0.493277  0.360566  1
  C  C19  1  0.861102  0.506723  0.139434  1
  C  C20  1  0.192499  0.875108  0.983216  1
  C  C21  1  0.692499  0.124892  0.516784  1
  C  C22  1  0.810190  0.124798  0.010729  1
  C  C23  1  0.310190  0.875202  0.489271  1
  C  C24  1  0.480309  0.066676  0.240904  1
  C  C25  1  0.018651  0.055949  0.739894  1
  C  C26  1  0.980309  0.933324  0.259096  1
  C  C27  1  0.518651  0.944051  0.760106  1
