# generated using pymatgen
data_Yb10IrRh3
_symmetry_space_group_name_H-M   'P 1'
_cell_length_a   8.43403677
_cell_length_b   8.42751990
_cell_length_c   7.51782567
_cell_angle_alpha   83.10230047
_cell_angle_beta   83.13229514
_cell_angle_gamma   43.98096687
_symmetry_Int_Tables_number   1
_chemical_formula_structural   Yb10IrRh3
_chemical_formula_sum   'Yb10 Ir1 Rh3'
_cell_volume   367.95238542
_cell_formula_units_Z   1
loop_
 _symmetry_equiv_pos_site_id
 _symmetry_equiv_pos_as_xyz
  1  'x, y, z'
loop_
 _atom_site_type_symbol
 _atom_site_label
 _atom_site_symmetry_multiplicity
 _atom_site_fract_x
 _atom_site_fract_y
 _atom_site_fract_z
 _atom_site_occupancy
  Yb  Yb0  1  0.029464  0.794153  0.921176  1
  Yb  Yb1  1  0.203430  0.966767  0.581512  1
  Yb  Yb2  1  0.970211  0.205859  0.081050  1
  Yb  Yb3  1  0.792085  0.031294  0.418803  1
  Yb  Yb4  1  0.366081  0.200726  0.821020  1
  Yb  Yb5  1  0.802017  0.634062  0.676480  1
  Yb  Yb6  1  0.631629  0.801313  0.178110  1
  Yb  Yb7  1  0.199323  0.366212  0.322996  1
  Yb  Yb8  1  0.574950  0.425352  0.750373  1
  Yb  Yb9  1  0.425858  0.573781  0.250538  1
  Ir  Ir10  1  0.178642  0.603328  0.580866  1
  Rh  Rh11  1  0.397393  0.825090  0.918456  1
  Rh  Rh12  1  0.826757  0.396555  0.417402  1
  Rh  Rh13  1  0.602156  0.175509  0.081220  1
