# generated using pymatgen
data_Ca4YbHo(Si3Ru)8
_symmetry_space_group_name_H-M   'P 1'
_cell_length_a   10.18395312
_cell_length_b   10.18402414
_cell_length_c   8.15914287
_cell_angle_alpha   89.96956589
_cell_angle_beta   90.03072927
_cell_angle_gamma   132.75184012
_symmetry_Int_Tables_number   1
_chemical_formula_structural   Ca4YbHo(Si3Ru)8
_chemical_formula_sum   'Ca4 Yb1 Ho1 Si24 Ru8'
_cell_volume   621.37563942
_cell_formula_units_Z   1
loop_
 _symmetry_equiv_pos_site_id
 _symmetry_equiv_pos_as_xyz
  1  'x, y, z'
loop_
 _atom_site_type_symbol
 _atom_site_label
 _atom_site_symmetry_multiplicity
 _atom_site_fract_x
 _atom_site_fract_y
 _atom_site_fract_z
 _atom_site_occupancy
  Ca  Ca0  1  0.499818  0.499875  0.500035  1
  Ca  Ca1  1  0.999901  0.999835  0.999928  1
  Ca  Ca2  1  0.999324  0.499325  0.250005  1
  Ca  Ca3  1  0.498162  0.998176  0.250007  1
  Yb  Yb4  1  0.501329  0.001332  0.750006  1
  Ho  Ho5  1  0.000250  0.500246  0.750000  1
  Si  Si6  1  0.794392  0.204824  0.499281  1
  Si  Si7  1  0.295191  0.706324  0.999320  1
  Si  Si8  1  0.206331  0.795206  0.500677  1
  Si  Si9  1  0.704835  0.294378  0.000734  1
  Si  Si10  1  0.332855  0.333685  0.832650  1
  Si  Si11  1  0.664284  0.667414  0.167343  1
  Si  Si12  1  0.167415  0.164279  0.332640  1
  Si  Si13  1  0.833662  0.832852  0.667334  1
  Si  Si14  1  0.124505  0.891427  0.729722  1
  Si  Si15  1  0.108707  0.875757  0.269626  1
  Si  Si16  1  0.607963  0.374925  0.230877  1
  Si  Si17  1  0.625332  0.392439  0.770388  1
  Si  Si18  1  0.874909  0.107928  0.269133  1
  Si  Si19  1  0.892447  0.125337  0.729633  1
  Si  Si20  1  0.391422  0.624511  0.770268  1
  Si  Si21  1  0.375755  0.608715  0.230360  1
  Si  Si22  1  0.347410  0.113419  0.507617  1
  Si  Si23  1  0.887275  0.654361  0.493353  1
  Si  Si24  1  0.386593  0.152894  0.007191  1
  Si  Si25  1  0.846235  0.613341  0.990194  1
  Si  Si26  1  0.652888  0.886582  0.492812  1
  Si  Si27  1  0.113353  0.346249  0.509813  1
  Si  Si28  1  0.613398  0.847382  0.992394  1
  Si  Si29  1  0.154357  0.387272  0.006657  1
  Ru  Ru30  1  0.671973  0.331542  0.502112  1
  Ru  Ru31  1  0.168697  0.829101  0.998024  1
  Ru  Ru32  1  0.329096  0.668712  0.501979  1
  Ru  Ru33  1  0.831564  0.171986  0.997882  1
  Ru  Ru34  1  0.126102  0.125728  0.624857  1
  Ru  Ru35  1  0.872884  0.873662  0.375081  1
  Ru  Ru36  1  0.373650  0.372870  0.124929  1
  Ru  Ru37  1  0.625735  0.626106  0.875136  1
