# generated using pymatgen
data_Y3Ho5Tl3Ir
_symmetry_space_group_name_H-M   'P 1'
_cell_length_a   10.39220200
_cell_length_b   10.39220156
_cell_length_c   7.09955200
_cell_angle_alpha   90.00000000
_cell_angle_beta   90.00000000
_cell_angle_gamma   119.99999504
_symmetry_Int_Tables_number   1
_chemical_formula_structural   Y3Ho5Tl3Ir
_chemical_formula_sum   'Y6 Ho10 Tl6 Ir2'
_cell_volume   664.01324002
_cell_formula_units_Z   2
loop_
 _symmetry_equiv_pos_site_id
 _symmetry_equiv_pos_as_xyz
  1  'x, y, z'
loop_
 _atom_site_type_symbol
 _atom_site_label
 _atom_site_symmetry_multiplicity
 _atom_site_fract_x
 _atom_site_fract_y
 _atom_site_fract_z
 _atom_site_occupancy
  Y  Y0  1  0.533914  0.067827  0.507209  1
  Y  Y1  1  0.932173  0.466086  0.507209  1
  Y  Y2  1  0.533914  0.466086  0.507209  1
  Y  Y3  1  0.466086  0.932173  0.007209  1
  Y  Y4  1  0.067827  0.533914  0.007209  1
  Y  Y5  1  0.466086  0.533914  0.007209  1
  Ho  Ho6  1  0.176165  0.352329  0.711305  1
  Ho  Ho7  1  0.647671  0.823835  0.711305  1
  Ho  Ho8  1  0.176165  0.823835  0.711305  1
  Ho  Ho9  1  0.823835  0.647671  0.211305  1
  Ho  Ho10  1  0.352329  0.176165  0.211305  1
  Ho  Ho11  1  0.823835  0.176165  0.211305  1
  Ho  Ho12  1  0.666667  0.333333  0.888388  1
  Ho  Ho13  1  0.333333  0.666667  0.388388  1
  Ho  Ho14  1  0.000000  0.000000  0.491959  1
  Ho  Ho15  1  0.000000  0.000000  0.991959  1
  Tl  Tl16  1  0.836977  0.673954  0.755281  1
  Tl  Tl17  1  0.326046  0.163023  0.755281  1
  Tl  Tl18  1  0.836977  0.163023  0.755281  1
  Tl  Tl19  1  0.163023  0.326046  0.255281  1
  Tl  Tl20  1  0.673954  0.836977  0.255281  1
  Tl  Tl21  1  0.163023  0.836977  0.255281  1
  Ir  Ir22  1  0.666667  0.333333  0.277288  1
  Ir  Ir23  1  0.333333  0.666667  0.777288  1
