# generated using pymatgen
data_Th6TcBr15
_symmetry_space_group_name_H-M   'P 1'
_cell_length_a   10.21558509
_cell_length_b   10.21558566
_cell_length_c   10.21558500
_cell_angle_alpha   109.47121933
_cell_angle_beta   109.47122045
_cell_angle_gamma   109.47121970
_symmetry_Int_Tables_number   1
_chemical_formula_structural   Th6TcBr15
_chemical_formula_sum   'Th6 Tc1 Br15'
_cell_volume   820.66871761
_cell_formula_units_Z   1
loop_
 _symmetry_equiv_pos_site_id
 _symmetry_equiv_pos_as_xyz
  1  'x, y, z'
loop_
 _atom_site_type_symbol
 _atom_site_label
 _atom_site_symmetry_multiplicity
 _atom_site_fract_x
 _atom_site_fract_y
 _atom_site_fract_z
 _atom_site_occupancy
  Th  Th0  1  0.240572  0.000000  0.240572  1
  Th  Th1  1  0.240572  0.240572  0.000000  1
  Th  Th2  1  0.759428  0.000000  0.759428  1
  Th  Th3  1  0.000000  0.240572  0.240572  1
  Th  Th4  1  0.000000  0.759428  0.759428  1
  Th  Th5  1  0.759428  0.759428  0.000000  1
  Tc  Tc6  1  0.000000  0.000000  0.000000  1
  Br  Br7  1  0.000000  0.750853  0.249147  1
  Br  Br8  1  0.249147  0.750853  0.000000  1
  Br  Br9  1  0.501707  0.750853  0.750853  1
  Br  Br10  1  0.000000  0.249147  0.750853  1
  Br  Br11  1  0.750853  0.000000  0.249147  1
  Br  Br12  1  0.249147  0.498293  0.249147  1
  Br  Br13  1  0.750853  0.249147  0.000000  1
  Br  Br14  1  0.500000  0.500000  0.000000  1
  Br  Br15  1  0.249147  0.249147  0.498293  1
  Br  Br16  1  0.750853  0.501707  0.750853  1
  Br  Br17  1  0.750853  0.750853  0.501707  1
  Br  Br18  1  0.498293  0.249147  0.249147  1
  Br  Br19  1  0.249147  0.000000  0.750853  1
  Br  Br20  1  0.000000  0.500000  0.500000  1
  Br  Br21  1  0.500000  0.000000  0.500000  1
