# generated using pymatgen
data_Cr21ReSiC6
_symmetry_space_group_name_H-M   'P 1'
_cell_length_a   7.48087906
_cell_length_b   7.48100892
_cell_length_c   7.48125702
_cell_angle_alpha   60.00475764
_cell_angle_beta   60.00543307
_cell_angle_gamma   60.00551184
_symmetry_Int_Tables_number   1
_chemical_formula_structural   Cr21ReSiC6
_chemical_formula_sum   'Cr21 Re1 Si1 C6'
_cell_volume   296.09012089
_cell_formula_units_Z   1
loop_
 _symmetry_equiv_pos_site_id
 _symmetry_equiv_pos_as_xyz
  1  'x, y, z'
loop_
 _atom_site_type_symbol
 _atom_site_label
 _atom_site_symmetry_multiplicity
 _atom_site_fract_x
 _atom_site_fract_y
 _atom_site_fract_z
 _atom_site_occupancy
  Cr  Cr0  1  0.250036  0.249983  0.249982  1
  Cr  Cr1  1  0.615403  0.615432  0.153793  1
  Cr  Cr2  1  0.615388  0.153786  0.615430  1
  Cr  Cr3  1  0.153801  0.615397  0.615402  1
  Cr  Cr4  1  0.615418  0.615417  0.615395  1
  Cr  Cr5  1  0.379463  0.379425  0.861603  1
  Cr  Cr6  1  0.379456  0.861644  0.379434  1
  Cr  Cr7  1  0.861639  0.379446  0.379458  1
  Cr  Cr8  1  0.379439  0.379441  0.379496  1
  Cr  Cr9  1  0.000416  0.000395  0.338033  1
  Cr  Cr10  1  0.661118  0.000453  0.337944  1
  Cr  Cr11  1  0.000451  0.661120  0.337979  1
  Cr  Cr12  1  0.661108  0.337886  0.000484  1
  Cr  Cr13  1  0.000463  0.338014  0.000410  1
  Cr  Cr14  1  0.000498  0.337975  0.661069  1
  Cr  Cr15  1  0.337907  0.661104  0.000497  1
  Cr  Cr16  1  0.337961  0.000512  0.661069  1
  Cr  Cr17  1  0.338048  0.000464  0.000427  1
  Cr  Cr18  1  0.000432  0.000456  0.661158  1
  Cr  Cr19  1  0.000436  0.661168  0.000468  1
  Cr  Cr20  1  0.661134  0.000468  0.000469  1
  Re  Re21  1  0.750021  0.750033  0.749994  1
  Si  Si22  1  0.999995  0.000004  0.999996  1
  C  C23  1  0.720418  0.720443  0.279549  1
  C  C24  1  0.279597  0.720376  0.279638  1
  C  C25  1  0.720363  0.279600  0.279639  1
  C  C26  1  0.279616  0.279612  0.720374  1
  C  C27  1  0.720387  0.279563  0.720419  1
  C  C28  1  0.279585  0.720384  0.720387  1
