# generated using pymatgen
data_Tb2TmIn3Ga2Pt
_symmetry_space_group_name_H-M   'P 1'
_cell_length_a   7.25652731
_cell_length_b   7.27309832
_cell_length_c   4.42544100
_cell_angle_alpha   90.00000000
_cell_angle_beta   90.00000000
_cell_angle_gamma   120.07556887
_symmetry_Int_Tables_number   1
_chemical_formula_structural   Tb2TmIn3Ga2Pt
_chemical_formula_sum   'Tb2 Tm1 In3 Ga2 Pt1'
_cell_volume   202.11766302
_cell_formula_units_Z   1
loop_
 _symmetry_equiv_pos_site_id
 _symmetry_equiv_pos_as_xyz
  1  'x, y, z'
loop_
 _atom_site_type_symbol
 _atom_site_label
 _atom_site_symmetry_multiplicity
 _atom_site_fract_x
 _atom_site_fract_y
 _atom_site_fract_z
 _atom_site_occupancy
  Tb  Tb0  1  0.408972  0.409303  0.500000  1
  Tb  Tb1  1  0.591028  0.000331  0.500000  1
  Tm  Tm2  1  0.000000  0.592524  0.500000  1
  In  In3  1  0.000000  0.251226  0.000000  1
  In  In4  1  0.749695  0.749096  0.000000  1
  In  In5  1  0.250305  0.999401  0.000000  1
  Ga  Ga6  1  0.668226  0.334346  0.000000  1
  Ga  Ga7  1  0.331774  0.666120  0.000000  1
  Pt  Pt8  1  0.000000  0.997652  0.500000  1
