# generated using pymatgen
data_La5Hg2Ir
_symmetry_space_group_name_H-M   'P 1'
_cell_length_a   8.87248200
_cell_length_b   8.83778400
_cell_length_c   12.81266600
_cell_angle_alpha   90.00000000
_cell_angle_beta   90.00000000
_cell_angle_gamma   90.00000000
_symmetry_Int_Tables_number   1
_chemical_formula_structural   La5Hg2Ir
_chemical_formula_sum   'La20 Hg8 Ir4'
_cell_volume   1004.68059715
_cell_formula_units_Z   4
loop_
 _symmetry_equiv_pos_site_id
 _symmetry_equiv_pos_as_xyz
  1  'x, y, z'
loop_
 _atom_site_type_symbol
 _atom_site_label
 _atom_site_symmetry_multiplicity
 _atom_site_fract_x
 _atom_site_fract_y
 _atom_site_fract_z
 _atom_site_occupancy
  La  La0  1  0.670856  0.750000  0.711763  1
  La  La1  1  0.329144  0.250000  0.288237  1
  La  La2  1  0.170856  0.250000  0.788237  1
  La  La3  1  0.829144  0.750000  0.211763  1
  La  La4  1  0.124591  0.750000  0.807003  1
  La  La5  1  0.875409  0.250000  0.192997  1
  La  La6  1  0.624591  0.250000  0.692997  1
  La  La7  1  0.375409  0.750000  0.307003  1
  La  La8  1  0.558213  0.750000  0.005789  1
  La  La9  1  0.441787  0.250000  0.994211  1
  La  La10  1  0.058213  0.250000  0.494211  1
  La  La11  1  0.941787  0.750000  0.505789  1
  La  La12  1  0.827609  0.459069  0.926297  1
  La  La13  1  0.172391  0.540931  0.073703  1
  La  La14  1  0.327609  0.540931  0.573703  1
  La  La15  1  0.172391  0.959069  0.073703  1
  La  La16  1  0.672391  0.459069  0.426297  1
  La  La17  1  0.827609  0.040931  0.926297  1
  La  La18  1  0.672391  0.040931  0.426297  1
  La  La19  1  0.327609  0.959069  0.573703  1
  Hg  Hg20  1  0.933761  0.022925  0.673638  1
  Hg  Hg21  1  0.066239  0.977075  0.326362  1
  Hg  Hg22  1  0.433761  0.977075  0.826362  1
  Hg  Hg23  1  0.066239  0.522925  0.326362  1
  Hg  Hg24  1  0.566239  0.022925  0.173638  1
  Hg  Hg25  1  0.933761  0.477075  0.673638  1
  Hg  Hg26  1  0.566239  0.477075  0.173638  1
  Hg  Hg27  1  0.433761  0.522925  0.826362  1
  Ir  Ir28  1  0.923115  0.750000  0.988720  1
  Ir  Ir29  1  0.076885  0.250000  0.011280  1
  Ir  Ir30  1  0.423115  0.250000  0.511280  1
  Ir  Ir31  1  0.576885  0.750000  0.488720  1
