# generated using pymatgen
data_Sr6FeCo4O15
_symmetry_space_group_name_H-M   'P 1'
_cell_length_a   6.93382158
_cell_length_b   6.93382138
_cell_length_c   6.93382094
_cell_angle_alpha   87.78243027
_cell_angle_beta   87.78243660
_cell_angle_gamma   87.78242009
_symmetry_Int_Tables_number   1
_chemical_formula_structural   Sr6FeCo4O15
_chemical_formula_sum   'Sr6 Fe1 Co4 O15'
_cell_volume   332.63323659
_cell_formula_units_Z   1
loop_
 _symmetry_equiv_pos_site_id
 _symmetry_equiv_pos_as_xyz
  1  'x, y, z'
loop_
 _atom_site_type_symbol
 _atom_site_label
 _atom_site_symmetry_multiplicity
 _atom_site_fract_x
 _atom_site_fract_y
 _atom_site_fract_z
 _atom_site_occupancy
  Sr  Sr0  1  0.500000  0.858319  0.141681  1
  Sr  Sr1  1  0.141681  0.500000  0.858319  1
  Sr  Sr2  1  0.858319  0.141681  0.500000  1
  Sr  Sr3  1  0.000000  0.673666  0.326334  1
  Sr  Sr4  1  0.326334  0.000000  0.673666  1
  Sr  Sr5  1  0.673666  0.326334  0.000000  1
  Fe  Fe6  1  0.500000  0.500000  0.500000  1
  Co  Co7  1  0.708636  0.708636  0.708636  1
  Co  Co8  1  0.291364  0.291364  0.291364  1
  Co  Co9  1  0.906437  0.906437  0.906437  1
  Co  Co10  1  0.093563  0.093563  0.093563  1
  O  O11  1  0.364842  0.545385  0.240209  1
  O  O12  1  0.240209  0.364842  0.545385  1
  O  O13  1  0.545385  0.240209  0.364842  1
  O  O14  1  0.635158  0.759791  0.454615  1
  O  O15  1  0.454615  0.635158  0.759791  1
  O  O16  1  0.759791  0.454615  0.635158  1
  O  O17  1  0.201054  0.030160  0.339753  1
  O  O18  1  0.339753  0.201054  0.030160  1
  O  O19  1  0.030160  0.339753  0.201054  1
  O  O20  1  0.798946  0.660247  0.969840  1
  O  O21  1  0.969840  0.798946  0.660247  1
  O  O22  1  0.154495  0.845505  0.000000  1
  O  O23  1  0.845505  0.000000  0.154495  1
  O  O24  1  0.000000  0.154495  0.845505  1
  O  O25  1  0.660247  0.969840  0.798946  1
