# generated using pymatgen
data_RbLuP2S7
_symmetry_space_group_name_H-M   'P 1'
_cell_length_a   6.83365777
_cell_length_b   6.83365745
_cell_length_c   6.78795270
_cell_angle_alpha   84.12414156
_cell_angle_beta   84.12414379
_cell_angle_gamma   98.27802842
_symmetry_Int_Tables_number   1
_chemical_formula_structural   RbLuP2S7
_chemical_formula_sum   'Rb1 Lu1 P2 S7'
_cell_volume   309.82279112
_cell_formula_units_Z   1
loop_
 _symmetry_equiv_pos_site_id
 _symmetry_equiv_pos_as_xyz
  1  'x, y, z'
loop_
 _atom_site_type_symbol
 _atom_site_label
 _atom_site_symmetry_multiplicity
 _atom_site_fract_x
 _atom_site_fract_y
 _atom_site_fract_z
 _atom_site_occupancy
  Rb  Rb0  1  0.079591  0.920409  0.500000  1
  Lu  Lu1  1  0.491943  0.508057  0.000000  1
  P  P2  1  0.642380  0.963412  0.086880  1
  P  P3  1  0.036588  0.357620  0.913120  1
  S  S4  1  0.959862  0.040138  0.000000  1
  S  S5  1  0.823161  0.463162  0.764323  1
  S  S6  1  0.632567  0.715189  0.283533  1
  S  S7  1  0.284811  0.367433  0.716467  1
  S  S8  1  0.520474  0.889717  0.839174  1
  S  S9  1  0.110283  0.479526  0.160826  1
  S  S10  1  0.536838  0.176839  0.235677  1
