# generated using pymatgen
data_TaBeNb2B2Ru3
_symmetry_space_group_name_H-M   'P 1'
_cell_length_a   3.19183400
_cell_length_b   9.03249600
_cell_length_c   15.69829900
_cell_angle_alpha   90.00000000
_cell_angle_beta   90.00000000
_cell_angle_gamma   90.00000000
_symmetry_Int_Tables_number   1
_chemical_formula_structural   TaBeNb2B2Ru3
_chemical_formula_sum   'Ta4 Be4 Nb8 B8 Ru12'
_cell_volume   452.58553683
_cell_formula_units_Z   4
loop_
 _symmetry_equiv_pos_site_id
 _symmetry_equiv_pos_as_xyz
  1  'x, y, z'
loop_
 _atom_site_type_symbol
 _atom_site_label
 _atom_site_symmetry_multiplicity
 _atom_site_fract_x
 _atom_site_fract_y
 _atom_site_fract_z
 _atom_site_occupancy
  Ta  Ta0  1  0.000000  0.684754  0.204010  1
  Ta  Ta1  1  0.000000  0.315246  0.795990  1
  Ta  Ta2  1  0.000000  0.184754  0.295990  1
  Ta  Ta3  1  0.000000  0.815246  0.704010  1
  Be  Be4  1  0.000000  0.609775  0.832310  1
  Be  Be5  1  0.000000  0.390225  0.167690  1
  Be  Be6  1  0.000000  0.109775  0.667690  1
  Be  Be7  1  0.000000  0.890225  0.332310  1
  Nb  Nb8  1  0.000000  0.801102  0.495109  1
  Nb  Nb9  1  0.000000  0.198898  0.504891  1
  Nb  Nb10  1  0.000000  0.301102  0.004891  1
  Nb  Nb11  1  0.000000  0.698898  0.995109  1
  Nb  Nb12  1  0.000000  0.513714  0.595129  1
  Nb  Nb13  1  0.000000  0.486286  0.404871  1
  Nb  Nb14  1  0.000000  0.013714  0.904871  1
  Nb  Nb15  1  0.000000  0.986286  0.095129  1
  B  B16  1  0.500000  0.604579  0.497140  1
  B  B17  1  0.500000  0.395421  0.502860  1
  B  B18  1  0.500000  0.104579  0.002860  1
  B  B19  1  0.500000  0.895421  0.997140  1
  B  B20  1  0.500000  0.714382  0.599263  1
  B  B21  1  0.500000  0.285618  0.400737  1
  B  B22  1  0.500000  0.214382  0.900737  1
  B  B23  1  0.500000  0.785618  0.099263  1
  Ru  Ru24  1  0.500000  0.714166  0.357279  1
  Ru  Ru25  1  0.500000  0.285834  0.642721  1
  Ru  Ru26  1  0.500000  0.214166  0.142721  1
  Ru  Ru27  1  0.500000  0.785834  0.857279  1
  Ru  Ru28  1  0.500000  0.522236  0.094464  1
  Ru  Ru29  1  0.500000  0.477764  0.905536  1
  Ru  Ru30  1  0.500000  0.022236  0.405536  1
  Ru  Ru31  1  0.500000  0.977764  0.594464  1
  Ru  Ru32  1  0.500000  0.567645  0.730641  1
  Ru  Ru33  1  0.500000  0.432355  0.269359  1
  Ru  Ru34  1  0.500000  0.067645  0.769359  1
  Ru  Ru35  1  0.500000  0.932355  0.230641  1
