# generated using pymatgen
data_Na2WF6
_symmetry_space_group_name_H-M   'P 1'
_cell_length_a   5.16889600
_cell_length_b   5.16889600
_cell_length_c   10.30632600
_cell_angle_alpha   90.00000000
_cell_angle_beta   90.00000000
_cell_angle_gamma   90.00000000
_symmetry_Int_Tables_number   1
_chemical_formula_structural   Na2WF6
_chemical_formula_sum   'Na4 W2 F12'
_cell_volume   275.35911916
_cell_formula_units_Z   2
loop_
 _symmetry_equiv_pos_site_id
 _symmetry_equiv_pos_as_xyz
  1  'x, y, z'
loop_
 _atom_site_type_symbol
 _atom_site_label
 _atom_site_symmetry_multiplicity
 _atom_site_fract_x
 _atom_site_fract_y
 _atom_site_fract_z
 _atom_site_occupancy
  Na  Na0  1  0.000000  0.000000  0.335020  1
  Na  Na1  1  0.500000  0.500000  0.835020  1
  Na  Na2  1  0.000000  0.000000  0.664980  1
  Na  Na3  1  0.500000  0.500000  0.164980  1
  W  W4  1  0.000000  0.000000  0.000000  1
  W  W5  1  0.500000  0.500000  0.500000  1
  F  F6  1  0.725878  0.725878  0.000000  1
  F  F7  1  0.774122  0.225878  0.500000  1
  F  F8  1  0.225878  0.774122  0.500000  1
  F  F9  1  0.274122  0.274122  0.000000  1
  F  F10  1  0.688242  0.688242  0.354836  1
  F  F11  1  0.311758  0.311758  0.354836  1
  F  F12  1  0.311758  0.311758  0.645164  1
  F  F13  1  0.188242  0.811758  0.145164  1
  F  F14  1  0.811758  0.188242  0.145164  1
  F  F15  1  0.811758  0.188242  0.854836  1
  F  F16  1  0.188242  0.811758  0.854836  1
  F  F17  1  0.688242  0.688242  0.645164  1
