# generated using pymatgen
data_Tb4Lu2Si24Os3Ru5
_symmetry_space_group_name_H-M   'P 1'
_cell_length_a   10.10084342
_cell_length_b   10.10084413
_cell_length_c   8.14853600
_cell_angle_alpha   89.99663617
_cell_angle_beta   89.99663904
_cell_angle_gamma   132.42553129
_symmetry_Int_Tables_number   1
_chemical_formula_structural   Tb4Lu2Si24Os3Ru5
_chemical_formula_sum   'Tb4 Lu2 Si24 Os3 Ru5'
_cell_volume   613.68051939
_cell_formula_units_Z   1
loop_
 _symmetry_equiv_pos_site_id
 _symmetry_equiv_pos_as_xyz
  1  'x, y, z'
loop_
 _atom_site_type_symbol
 _atom_site_label
 _atom_site_symmetry_multiplicity
 _atom_site_fract_x
 _atom_site_fract_y
 _atom_site_fract_z
 _atom_site_occupancy
  Tb  Tb0  1  0.501943  0.002132  0.750312  1
  Tb  Tb1  1  0.997868  0.498057  0.249688  1
  Tb  Tb2  1  0.497999  0.997634  0.249505  1
  Tb  Tb3  1  0.002366  0.502001  0.750495  1
  Lu  Lu4  1  0.500014  0.499986  0.500000  1
  Lu  Lu5  1  0.000102  0.999898  0.000000  1
  Si  Si6  1  0.795911  0.204089  0.500000  1
  Si  Si7  1  0.295685  0.704315  0.000000  1
  Si  Si8  1  0.204212  0.795788  0.500000  1
  Si  Si9  1  0.704783  0.295217  0.000000  1
  Si  Si10  1  0.331625  0.331417  0.833427  1
  Si  Si11  1  0.668583  0.668375  0.166573  1
  Si  Si12  1  0.167144  0.167342  0.331940  1
  Si  Si13  1  0.832658  0.832856  0.668060  1
  Si  Si14  1  0.120778  0.888441  0.728722  1
  Si  Si15  1  0.111559  0.879222  0.271278  1
  Si  Si16  1  0.612944  0.379753  0.227444  1
  Si  Si17  1  0.620247  0.387056  0.772556  1
  Si  Si18  1  0.878702  0.111523  0.270090  1
  Si  Si19  1  0.888477  0.121298  0.729910  1
  Si  Si20  1  0.388118  0.621257  0.772207  1
  Si  Si21  1  0.378743  0.611882  0.227793  1
  Si  Si22  1  0.344539  0.112267  0.505133  1
  Si  Si23  1  0.887733  0.655461  0.494867  1
  Si  Si24  1  0.387656  0.155719  0.003360  1
  Si  Si25  1  0.844281  0.612344  0.996640  1
  Si  Si26  1  0.655639  0.887953  0.494675  1
  Si  Si27  1  0.112047  0.344361  0.505325  1
  Si  Si28  1  0.613791  0.846007  0.995545  1
  Si  Si29  1  0.153993  0.386209  0.004455  1
  Os  Os30  1  0.668701  0.331299  0.500000  1
  Os  Os31  1  0.168639  0.831361  0.000000  1
  Os  Os32  1  0.331337  0.668663  0.500000  1
  Ru  Ru33  1  0.831270  0.168730  0.000000  1
  Ru  Ru34  1  0.127672  0.127702  0.626636  1
  Ru  Ru35  1  0.872298  0.872328  0.373364  1
  Ru  Ru36  1  0.374503  0.374560  0.128308  1
  Ru  Ru37  1  0.625440  0.625497  0.871692  1
