# generated using pymatgen
data_DyHo(FeB)8
_symmetry_space_group_name_H-M   'P 1'
_cell_length_a   6.93897500
_cell_length_b   6.93897500
_cell_length_c   3.82261900
_cell_angle_alpha   90.00000000
_cell_angle_beta   90.00000000
_cell_angle_gamma   90.00000000
_symmetry_Int_Tables_number   1
_chemical_formula_structural   DyHo(FeB)8
_chemical_formula_sum   'Dy1 Ho1 Fe8 B8'
_cell_volume   184.05671208
_cell_formula_units_Z   1
loop_
 _symmetry_equiv_pos_site_id
 _symmetry_equiv_pos_as_xyz
  1  'x, y, z'
loop_
 _atom_site_type_symbol
 _atom_site_label
 _atom_site_symmetry_multiplicity
 _atom_site_fract_x
 _atom_site_fract_y
 _atom_site_fract_z
 _atom_site_occupancy
  Dy  Dy0  1  0.000000  0.000000  0.000000  1
  Ho  Ho1  1  0.500000  0.500000  0.500000  1
  Fe  Fe2  1  0.867990  0.385011  0.109924  1
  Fe  Fe3  1  0.132010  0.614989  0.109924  1
  Fe  Fe4  1  0.884919  0.631937  0.609885  1
  Fe  Fe5  1  0.115081  0.368063  0.609885  1
  Fe  Fe6  1  0.631937  0.115081  0.390115  1
  Fe  Fe7  1  0.368063  0.884919  0.390115  1
  Fe  Fe8  1  0.614989  0.867990  0.890076  1
  Fe  Fe9  1  0.385011  0.132010  0.890076  1
  B  B10  1  0.333110  0.801081  0.892890  1
  B  B11  1  0.666890  0.198919  0.892890  1
  B  B12  1  0.301146  0.166967  0.392950  1
  B  B13  1  0.698854  0.833033  0.392950  1
  B  B14  1  0.166967  0.698854  0.607050  1
  B  B15  1  0.833033  0.301146  0.607050  1
  B  B16  1  0.198919  0.333110  0.107110  1
  B  B17  1  0.801081  0.666890  0.107110  1
