# generated using pymatgen
data_Dy2Al20FeRh3
_symmetry_space_group_name_H-M   'P 1'
_cell_length_a   6.81989070
_cell_length_b   6.82174687
_cell_length_c   9.11341753
_cell_angle_alpha   90.15865273
_cell_angle_beta   90.02955530
_cell_angle_gamma   97.20897228
_symmetry_Int_Tables_number   1
_chemical_formula_structural   Dy2Al20FeRh3
_chemical_formula_sum   'Dy2 Al20 Fe1 Rh3'
_cell_volume   420.63532444
_cell_formula_units_Z   1
loop_
 _symmetry_equiv_pos_site_id
 _symmetry_equiv_pos_as_xyz
  1  'x, y, z'
loop_
 _atom_site_type_symbol
 _atom_site_label
 _atom_site_symmetry_multiplicity
 _atom_site_fract_x
 _atom_site_fract_y
 _atom_site_fract_z
 _atom_site_occupancy
  Dy  Dy0  1  0.870104  0.126897  0.748665  1
  Dy  Dy1  1  0.129896  0.873103  0.251335  1
  Al  Al2  1  0.619806  0.371071  0.547501  1
  Al  Al3  1  0.380194  0.628929  0.452499  1
  Al  Al4  1  0.378381  0.622968  0.050449  1
  Al  Al5  1  0.621619  0.377032  0.949551  1
  Al  Al6  1  0.227675  0.218918  0.497757  1
  Al  Al7  1  0.772325  0.781082  0.502243  1
  Al  Al8  1  0.775895  0.777031  0.001053  1
  Al  Al9  1  0.224105  0.222969  0.998947  1
  Al  Al10  1  0.846039  0.154215  0.103695  1
  Al  Al11  1  0.153961  0.845785  0.896305  1
  Al  Al12  1  0.159938  0.848480  0.600406  1
  Al  Al13  1  0.840062  0.151520  0.399594  1
  Al  Al14  1  0.857629  0.590185  0.748719  1
  Al  Al15  1  0.142371  0.409815  0.251281  1
  Al  Al16  1  0.413143  0.138666  0.745077  1
  Al  Al17  1  0.586857  0.861334  0.254923  1
  Al  Al18  1  0.227086  0.479298  0.749291  1
  Al  Al19  1  0.772914  0.520702  0.250709  1
  Al  Al20  1  0.519318  0.776261  0.744100  1
  Al  Al21  1  0.480682  0.223739  0.255900  1
  Fe  Fe22  1  0.500000  0.000000  0.500000  1
  Rh  Rh23  1  0.000000  0.500000  0.500000  1
  Rh  Rh24  1  0.000000  0.500000  0.000000  1
  Rh  Rh25  1  0.500000  0.000000  0.000000  1
