# generated using pymatgen
data_Ce3Nd5AlZn7Rh8
_symmetry_space_group_name_H-M   'P 1'
_cell_length_a   3.96470800
_cell_length_b   7.42259515
_cell_length_c   16.48162820
_cell_angle_alpha   90.55858788
_cell_angle_beta   90.00000000
_cell_angle_gamma   90.00000000
_symmetry_Int_Tables_number   1
_chemical_formula_structural   Ce3Nd5AlZn7Rh8
_chemical_formula_sum   'Ce3 Nd5 Al1 Zn7 Rh8'
_cell_volume   485.00526608
_cell_formula_units_Z   1
loop_
 _symmetry_equiv_pos_site_id
 _symmetry_equiv_pos_as_xyz
  1  'x, y, z'
loop_
 _atom_site_type_symbol
 _atom_site_label
 _atom_site_symmetry_multiplicity
 _atom_site_fract_x
 _atom_site_fract_y
 _atom_site_fract_z
 _atom_site_occupancy
  Ce  Ce0  1  0.250000  0.172891  0.940361  1
  Ce  Ce1  1  0.250000  0.675149  0.560892  1
  Ce  Ce2  1  0.250000  0.053885  0.718018  1
  Nd  Nd3  1  0.750000  0.332868  0.438182  1
  Nd  Nd4  1  0.750000  0.946871  0.285404  1
  Nd  Nd5  1  0.750000  0.829959  0.060073  1
  Nd  Nd6  1  0.750000  0.447420  0.214099  1
  Nd  Nd7  1  0.250000  0.550893  0.783773  1
  Al  Al8  1  0.750000  0.010094  0.560932  1
  Zn  Zn9  1  0.250000  0.620387  0.349166  1
  Zn  Zn10  1  0.750000  0.384007  0.654761  1
  Zn  Zn11  1  0.250000  0.501125  0.058643  1
  Zn  Zn12  1  0.750000  0.504407  0.937710  1
  Zn  Zn13  1  0.250000  0.000753  0.439472  1
  Zn  Zn14  1  0.250000  0.119750  0.150457  1
  Zn  Zn15  1  0.750000  0.878951  0.848343  1
  Rh  Rh16  1  0.750000  0.752204  0.444736  1
  Rh  Rh17  1  0.250000  0.243586  0.314024  1
  Rh  Rh18  1  0.750000  0.236203  0.816820  1
  Rh  Rh19  1  0.750000  0.769814  0.675744  1
  Rh  Rh20  1  0.250000  0.230016  0.572148  1
  Rh  Rh21  1  0.250000  0.743979  0.187130  1
  Rh  Rh22  1  0.750000  0.248016  0.056305  1
  Rh  Rh23  1  0.250000  0.746772  0.932809  1
