# generated using pymatgen
data_La2Al20RuRh3
_symmetry_space_group_name_H-M   'P 1'
_cell_length_a   6.90921427
_cell_length_b   6.90523834
_cell_length_c   9.23285124
_cell_angle_alpha   90.07688899
_cell_angle_beta   90.06829571
_cell_angle_gamma   97.48216704
_symmetry_Int_Tables_number   1
_chemical_formula_structural   La2Al20RuRh3
_chemical_formula_sum   'La2 Al20 Ru1 Rh3'
_cell_volume   436.74577239
_cell_formula_units_Z   1
loop_
 _symmetry_equiv_pos_site_id
 _symmetry_equiv_pos_as_xyz
  1  'x, y, z'
loop_
 _atom_site_type_symbol
 _atom_site_label
 _atom_site_symmetry_multiplicity
 _atom_site_fract_x
 _atom_site_fract_y
 _atom_site_fract_z
 _atom_site_occupancy
  La  La0  1  0.873917  0.123708  0.750046  1
  La  La1  1  0.126083  0.876292  0.249954  1
  Al  Al2  1  0.620624  0.376348  0.548159  1
  Al  Al3  1  0.379376  0.623652  0.451841  1
  Al  Al4  1  0.378637  0.622002  0.049563  1
  Al  Al5  1  0.621363  0.377998  0.950437  1
  Al  Al6  1  0.225125  0.223557  0.499327  1
  Al  Al7  1  0.774875  0.776443  0.500673  1
  Al  Al8  1  0.774433  0.774852  0.999997  1
  Al  Al9  1  0.225567  0.225148  0.000003  1
  Al  Al10  1  0.840438  0.159773  0.104800  1
  Al  Al11  1  0.159562  0.840227  0.895200  1
  Al  Al12  1  0.160181  0.841365  0.603611  1
  Al  Al13  1  0.839819  0.158635  0.396389  1
  Al  Al14  1  0.858051  0.592236  0.749433  1
  Al  Al15  1  0.141949  0.407764  0.250567  1
  Al  Al16  1  0.408355  0.141286  0.749050  1
  Al  Al17  1  0.591645  0.858714  0.250950  1
  Al  Al18  1  0.226667  0.482003  0.749926  1
  Al  Al19  1  0.773333  0.517997  0.250074  1
  Al  Al20  1  0.517360  0.774977  0.747173  1
  Al  Al21  1  0.482640  0.225023  0.252827  1
  Ru  Ru22  1  0.500000  0.000000  0.500000  1
  Rh  Rh23  1  0.000000  0.500000  0.500000  1
  Rh  Rh24  1  0.000000  0.500000  0.000000  1
  Rh  Rh25  1  0.500000  0.000000  0.000000  1
