# generated using pymatgen
data_V3CrP2
_symmetry_space_group_name_H-M   'P 1'
_cell_length_a   3.16129300
_cell_length_b   6.35461179
_cell_length_c   11.01890744
_cell_angle_alpha   90.20281955
_cell_angle_beta   90.00000000
_cell_angle_gamma   90.00000000
_symmetry_Int_Tables_number   1
_chemical_formula_structural   V3CrP2
_chemical_formula_sum   'V9 Cr3 P6'
_cell_volume   221.35512814
_cell_formula_units_Z   3
loop_
 _symmetry_equiv_pos_site_id
 _symmetry_equiv_pos_as_xyz
  1  'x, y, z'
loop_
 _atom_site_type_symbol
 _atom_site_label
 _atom_site_symmetry_multiplicity
 _atom_site_fract_x
 _atom_site_fract_y
 _atom_site_fract_z
 _atom_site_occupancy
  V  V0  1  0.000000  0.868192  0.870405  1
  V  V1  1  0.000000  0.875604  0.129096  1
  V  V2  1  0.000000  0.369388  0.626430  1
  V  V3  1  0.500000  0.609837  0.006099  1
  V  V4  1  0.500000  0.108681  0.499931  1
  V  V5  1  0.500000  0.194001  0.202344  1
  V  V6  1  0.500000  0.680960  0.709722  1
  V  V7  1  0.500000  0.710977  0.298247  1
  V  V8  1  0.500000  0.183766  0.787777  1
  Cr  Cr9  1  0.000000  0.263244  0.002264  1
  Cr  Cr10  1  0.000000  0.760402  0.497760  1
  Cr  Cr11  1  0.000000  0.373915  0.370458  1
  P  P12  1  0.000000  0.004306  0.336780  1
  P  P13  1  0.000000  0.488612  0.838927  1
  P  P14  1  0.000000  0.497339  0.168563  1
  P  P15  1  0.000000  0.988242  0.661663  1
  P  P16  1  0.500000  0.013318  0.997587  1
  P  P17  1  0.500000  0.509011  0.495948  1
