# generated using pymatgen
data_HoTm2Zr7Pb6
_symmetry_space_group_name_H-M   'P 1'
_cell_length_a   8.78604569
_cell_length_b   8.79386254
_cell_length_c   6.01255500
_cell_angle_alpha   90.00000000
_cell_angle_beta   90.00000000
_cell_angle_gamma   120.06028258
_symmetry_Int_Tables_number   1
_chemical_formula_structural   HoTm2Zr7Pb6
_chemical_formula_sum   'Ho1 Tm2 Zr7 Pb6'
_cell_volume   402.06724345
_cell_formula_units_Z   1
loop_
 _symmetry_equiv_pos_site_id
 _symmetry_equiv_pos_as_xyz
  1  'x, y, z'
loop_
 _atom_site_type_symbol
 _atom_site_label
 _atom_site_symmetry_multiplicity
 _atom_site_fract_x
 _atom_site_fract_y
 _atom_site_fract_z
 _atom_site_occupancy
  Ho  Ho0  1  0.761623  0.758973  0.250000  1
  Tm  Tm1  1  0.002811  0.241889  0.250000  1
  Tm  Tm2  1  0.760441  0.000110  0.750000  1
  Zr  Zr3  1  0.330814  0.666899  0.501453  1
  Zr  Zr4  1  0.244696  0.000080  0.250000  1
  Zr  Zr5  1  0.663638  0.333145  0.501469  1
  Zr  Zr6  1  0.002404  0.755650  0.750000  1
  Zr  Zr7  1  0.330814  0.666899  0.998547  1
  Zr  Zr8  1  0.245907  0.243720  0.750000  1
  Zr  Zr9  1  0.663638  0.333145  0.998531  1
  Pb  Pb10  1  0.606787  0.605707  0.750000  1
  Pb  Pb11  1  0.389063  0.000035  0.750000  1
  Pb  Pb12  1  0.601674  0.000608  0.250000  1
  Pb  Pb13  1  0.000920  0.394046  0.750000  1
  Pb  Pb14  1  0.393313  0.392204  0.250000  1
  Pb  Pb15  1  0.001459  0.606890  0.250000  1
