# generated using pymatgen
data_SmTh2Sn3Hg2
_symmetry_space_group_name_H-M   'P 1'
_cell_length_a   6.56326160
_cell_length_b   6.56326151
_cell_length_c   10.37438100
_cell_angle_alpha   90.00000000
_cell_angle_beta   90.00000000
_cell_angle_gamma   102.88196784
_symmetry_Int_Tables_number   1
_chemical_formula_structural   SmTh2Sn3Hg2
_chemical_formula_sum   'Sm2 Th4 Sn6 Hg4'
_cell_volume   435.64339132
_cell_formula_units_Z   2
loop_
 _symmetry_equiv_pos_site_id
 _symmetry_equiv_pos_as_xyz
  1  'x, y, z'
loop_
 _atom_site_type_symbol
 _atom_site_label
 _atom_site_symmetry_multiplicity
 _atom_site_fract_x
 _atom_site_fract_y
 _atom_site_fract_z
 _atom_site_occupancy
  Sm  Sm0  1  0.627254  0.627254  0.250000  1
  Sm  Sm1  1  0.372746  0.372746  0.750000  1
  Th  Th2  1  0.798669  0.201331  0.000000  1
  Th  Th3  1  0.201331  0.798669  0.000000  1
  Th  Th4  1  0.201331  0.798669  0.500000  1
  Th  Th5  1  0.798669  0.201331  0.500000  1
  Sn  Sn6  1  0.070973  0.495004  0.250000  1
  Sn  Sn7  1  0.929027  0.504996  0.750000  1
  Sn  Sn8  1  0.495004  0.070973  0.250000  1
  Sn  Sn9  1  0.504996  0.929027  0.750000  1
  Sn  Sn10  1  0.014996  0.014996  0.250000  1
  Sn  Sn11  1  0.985004  0.985004  0.750000  1
  Hg  Hg12  1  0.312837  0.312837  0.038775  1
  Hg  Hg13  1  0.687163  0.687163  0.961225  1
  Hg  Hg14  1  0.687163  0.687163  0.538775  1
  Hg  Hg15  1  0.312837  0.312837  0.461225  1
