# generated using pymatgen
data_Sc6Nb2V12Si15As
_symmetry_space_group_name_H-M   'P 1'
_cell_length_a   6.60114170
_cell_length_b   6.60698631
_cell_length_c   12.22436098
_cell_angle_alpha   89.96007765
_cell_angle_beta   89.89676277
_cell_angle_gamma   90.03250544
_symmetry_Int_Tables_number   1
_chemical_formula_structural   Sc6Nb2V12Si15As
_chemical_formula_sum   'Sc6 Nb2 V12 Si15 As1'
_cell_volume   533.14795515
_cell_formula_units_Z   1
loop_
 _symmetry_equiv_pos_site_id
 _symmetry_equiv_pos_as_xyz
  1  'x, y, z'
loop_
 _atom_site_type_symbol
 _atom_site_label
 _atom_site_symmetry_multiplicity
 _atom_site_fract_x
 _atom_site_fract_y
 _atom_site_fract_z
 _atom_site_occupancy
  Sc  Sc0  1  0.161513  0.496810  0.778737  1
  Sc  Sc1  1  0.501992  0.837111  0.720289  1
  Sc  Sc2  1  0.503252  0.168043  0.222089  1
  Sc  Sc3  1  0.998835  0.336903  0.529859  1
  Sc  Sc4  1  0.665348  0.000086  0.970753  1
  Sc  Sc5  1  0.338731  0.998675  0.469178  1
  Nb  Nb6  1  0.005980  0.656745  0.030676  1
  Nb  Nb7  1  0.839969  0.507883  0.282017  1
  V  V8  1  0.331021  0.339600  0.000013  1
  V  V9  1  0.163377  0.828961  0.249840  1
  V  V10  1  0.833742  0.166797  0.751109  1
  V  V11  1  0.668725  0.666908  0.498622  1
  V  V12  1  0.998072  0.159816  0.127370  1
  V  V13  1  0.342014  0.504680  0.374232  1
  V  V14  1  0.657144  0.494758  0.878452  1
  V  V15  1  0.508230  0.341807  0.623145  1
  V  V16  1  0.490098  0.656892  0.123291  1
  V  V17  1  0.994802  0.840672  0.626847  1
  V  V18  1  0.154656  0.005980  0.874585  1
  V  V19  1  0.841243  0.990806  0.371229  1
  Si  Si20  1  0.538617  0.792835  0.314017  1
  Si  Si21  1  0.461947  0.205647  0.814365  1
  Si  Si22  1  0.794415  0.538291  0.685427  1
  Si  Si23  1  0.203292  0.458264  0.185879  1
  Si  Si24  1  0.707561  0.038237  0.564102  1
  Si  Si25  1  0.958491  0.295501  0.935050  1
  Si  Si26  1  0.040261  0.706153  0.435936  1
  Si  Si27  1  0.707746  0.375942  0.073269  1
  Si  Si28  1  0.125431  0.205705  0.321028  1
  Si  Si29  1  0.870683  0.793176  0.822266  1
  Si  Si30  1  0.204525  0.128488  0.679475  1
  Si  Si31  1  0.794587  0.865939  0.177237  1
  Si  Si32  1  0.298615  0.628748  0.569387  1
  Si  Si33  1  0.368960  0.701942  0.925485  1
  Si  Si34  1  0.631739  0.297032  0.428275  1
  As  As35  1  0.294387  0.968168  0.066472  1
