# generated using pymatgen
data_Tb3Dy9Ni5Sn
_symmetry_space_group_name_H-M   'P 1'
_cell_length_a   8.34284323
_cell_length_b   8.35553593
_cell_length_c   8.35364329
_cell_angle_alpha   107.31516892
_cell_angle_beta   109.65521419
_cell_angle_gamma   111.50939550
_symmetry_Int_Tables_number   1
_chemical_formula_structural   Tb3Dy9Ni5Sn
_chemical_formula_sum   'Tb3 Dy9 Ni5 Sn1'
_cell_volume   447.45564017
_cell_formula_units_Z   1
loop_
 _symmetry_equiv_pos_site_id
 _symmetry_equiv_pos_as_xyz
  1  'x, y, z'
loop_
 _atom_site_type_symbol
 _atom_site_label
 _atom_site_symmetry_multiplicity
 _atom_site_fract_x
 _atom_site_fract_y
 _atom_site_fract_z
 _atom_site_occupancy
  Tb  Tb0  1  0.479541  0.297107  0.182524  1
  Tb  Tb1  1  0.114905  0.297340  0.817569  1
  Tb  Tb2  1  0.885279  0.703476  0.181877  1
  Dy  Dy3  1  0.520608  0.703174  0.817420  1
  Dy  Dy4  1  0.307134  0.628340  0.321963  1
  Dy  Dy5  1  0.307064  0.985073  0.678771  1
  Dy  Dy6  1  0.693141  0.371749  0.678365  1
  Dy  Dy7  1  0.693028  0.014705  0.321420  1
  Dy  Dy8  1  0.191147  0.209206  0.400244  1
  Dy  Dy9  1  0.809372  0.791563  0.600904  1
  Dy  Dy10  1  0.191192  0.790878  0.981971  1
  Dy  Dy11  1  0.809425  0.208528  0.017922  1
  Ni  Ni12  1  0.499786  0.625620  0.124196  1
  Ni  Ni13  1  0.499439  0.375071  0.874193  1
  Ni  Ni14  1  0.367464  0.000129  0.367209  1
  Ni  Ni15  1  0.631876  0.999483  0.632922  1
  Ni  Ni16  1  0.999252  0.998530  0.000186  1
  Sn  Sn17  1  0.000346  0.500027  0.500344  1
