# generated using pymatgen
data_Ca3Dy(FeO3)4
_symmetry_space_group_name_H-M   'P 1'
_cell_length_a   5.36706965
_cell_length_b   5.50462335
_cell_length_c   7.63111400
_cell_angle_alpha   90.00000000
_cell_angle_beta   90.00000000
_cell_angle_gamma   89.78576011
_symmetry_Int_Tables_number   1
_chemical_formula_structural   Ca3Dy(FeO3)4
_chemical_formula_sum   'Ca3 Dy1 Fe4 O12'
_cell_volume   225.44974297
_cell_formula_units_Z   1
loop_
 _symmetry_equiv_pos_site_id
 _symmetry_equiv_pos_as_xyz
  1  'x, y, z'
loop_
 _atom_site_type_symbol
 _atom_site_label
 _atom_site_symmetry_multiplicity
 _atom_site_fract_x
 _atom_site_fract_y
 _atom_site_fract_z
 _atom_site_occupancy
  Ca  Ca0  1  0.489984  0.455113  0.250000  1
  Ca  Ca1  1  0.990586  0.048311  0.750000  1
  Ca  Ca2  1  0.011428  0.952318  0.250000  1
  Dy  Dy3  1  0.514012  0.559416  0.750000  1
  Fe  Fe4  1  0.499339  0.003692  0.498383  1
  Fe  Fe5  1  0.499339  0.003692  0.001617  1
  Fe  Fe6  1  0.001269  0.498228  0.001078  1
  Fe  Fe7  1  0.001269  0.498228  0.498922  1
  O  O8  1  0.204614  0.206028  0.040939  1
  O  O9  1  0.204614  0.206028  0.459061  1
  O  O10  1  0.703832  0.299586  0.950578  1
  O  O11  1  0.784381  0.783837  0.549804  1
  O  O12  1  0.294187  0.702775  0.465065  1
  O  O13  1  0.784381  0.783837  0.950196  1
  O  O14  1  0.420748  0.973847  0.750000  1
  O  O15  1  0.921812  0.522404  0.250000  1
  O  O16  1  0.095001  0.479138  0.750000  1
  O  O17  1  0.703832  0.299586  0.549422  1
  O  O18  1  0.294187  0.702775  0.034935  1
  O  O19  1  0.581184  0.021160  0.250000  1
