# generated using pymatgen
data_Zr16Co4Re3Tc
_symmetry_space_group_name_H-M   'P 1'
_cell_length_a   8.73410039
_cell_length_b   8.73409948
_cell_length_c   8.73410100
_cell_angle_alpha   59.86675782
_cell_angle_beta   59.86676128
_cell_angle_gamma   59.86675920
_symmetry_Int_Tables_number   1
_chemical_formula_structural   Zr16Co4Re3Tc
_chemical_formula_sum   'Zr16 Co4 Re3 Tc1'
_cell_volume   469.70424214
_cell_formula_units_Z   1
loop_
 _symmetry_equiv_pos_site_id
 _symmetry_equiv_pos_as_xyz
  1  'x, y, z'
loop_
 _atom_site_type_symbol
 _atom_site_label
 _atom_site_symmetry_multiplicity
 _atom_site_fract_x
 _atom_site_fract_y
 _atom_site_fract_z
 _atom_site_occupancy
  Zr  Zr0  1  0.698095  0.100461  0.100461  1
  Zr  Zr1  1  0.100461  0.698095  0.100461  1
  Zr  Zr2  1  0.100461  0.100461  0.698095  1
  Zr  Zr3  1  0.099671  0.099671  0.099671  1
  Zr  Zr4  1  0.314881  0.314881  0.687307  1
  Zr  Zr5  1  0.685880  0.685880  0.314739  1
  Zr  Zr6  1  0.314881  0.687307  0.314881  1
  Zr  Zr7  1  0.685880  0.314739  0.685880  1
  Zr  Zr8  1  0.687307  0.314881  0.314881  1
  Zr  Zr9  1  0.314739  0.685880  0.685880  1
  Zr  Zr10  1  0.953946  0.953946  0.545901  1
  Zr  Zr11  1  0.545972  0.545972  0.954105  1
  Zr  Zr12  1  0.953946  0.545901  0.953946  1
  Zr  Zr13  1  0.545972  0.954105  0.545972  1
  Zr  Zr14  1  0.545901  0.953946  0.953946  1
  Zr  Zr15  1  0.954105  0.545972  0.545972  1
  Co  Co16  1  0.330527  0.889244  0.889244  1
  Co  Co17  1  0.889244  0.330527  0.889244  1
  Co  Co18  1  0.889244  0.889244  0.330527  1
  Co  Co19  1  0.890213  0.890213  0.890213  1
  Re  Re20  1  0.006196  0.330507  0.330507  1
  Re  Re21  1  0.330507  0.006196  0.330507  1
  Re  Re22  1  0.330507  0.330507  0.006196  1
  Tc  Tc23  1  0.331457  0.331457  0.331457  1
