# generated using pymatgen
data_Tb3Lu(ScSb5)4
_symmetry_space_group_name_H-M   'P 1'
_cell_length_a   4.19983600
_cell_length_b   13.03279947
_cell_length_c   14.20744100
_cell_angle_alpha   78.85059024
_cell_angle_beta   90.00000000
_cell_angle_gamma   90.00000000
_symmetry_Int_Tables_number   1
_chemical_formula_structural   Tb3Lu(ScSb5)4
_chemical_formula_sum   'Tb3 Lu1 Sc4 Sb20'
_cell_volume   762.97588684
_cell_formula_units_Z   1
loop_
 _symmetry_equiv_pos_site_id
 _symmetry_equiv_pos_as_xyz
  1  'x, y, z'
loop_
 _atom_site_type_symbol
 _atom_site_label
 _atom_site_symmetry_multiplicity
 _atom_site_fract_x
 _atom_site_fract_y
 _atom_site_fract_z
 _atom_site_occupancy
  Tb  Tb0  1  0.750000  0.331009  0.424270  1
  Tb  Tb1  1  0.250000  0.953064  0.354170  1
  Tb  Tb2  1  0.750000  0.046001  0.645648  1
  Lu  Lu3  1  0.250000  0.669712  0.576580  1
  Sc  Sc4  1  0.250000  0.397734  0.772815  1
  Sc  Sc5  1  0.750000  0.602663  0.227841  1
  Sc  Sc6  1  0.250000  0.657176  0.858274  1
  Sc  Sc7  1  0.750000  0.342800  0.140997  1
  Sb  Sb8  1  0.250000  0.148923  0.780441  1
  Sb  Sb9  1  0.750000  0.850830  0.218941  1
  Sb  Sb10  1  0.250000  0.142151  0.482310  1
  Sb  Sb11  1  0.750000  0.854151  0.517897  1
  Sb  Sb12  1  0.250000  0.163287  0.159159  1
  Sb  Sb13  1  0.750000  0.836730  0.840605  1
  Sb  Sb14  1  0.250000  0.422430  0.974958  1
  Sb  Sb15  1  0.750000  0.577691  0.025025  1
  Sb  Sb16  1  0.750000  0.029379  0.913816  1
  Sb  Sb17  1  0.250000  0.970744  0.086161  1
  Sb  Sb18  1  0.750000  0.143324  0.313973  1
  Sb  Sb19  1  0.250000  0.855143  0.685239  1
  Sb  Sb20  1  0.750000  0.280490  0.936397  1
  Sb  Sb21  1  0.250000  0.719489  0.063967  1
  Sb  Sb22  1  0.750000  0.290376  0.659509  1
  Sb  Sb23  1  0.250000  0.710300  0.341399  1
  Sb  Sb24  1  0.750000  0.575115  0.739305  1
  Sb  Sb25  1  0.250000  0.426727  0.258264  1
  Sb  Sb26  1  0.750000  0.571514  0.445141  1
  Sb  Sb27  1  0.250000  0.431045  0.556897  1
