# generated using pymatgen
data_Tm4ScZn2Bi
_symmetry_space_group_name_H-M   'P 1'
_cell_length_a   8.43685594
_cell_length_b   8.43685583
_cell_length_c   8.43685581
_cell_angle_alpha   123.74545529
_cell_angle_beta   123.74545192
_cell_angle_gamma   83.62654455
_symmetry_Int_Tables_number   1
_chemical_formula_structural   Tm4ScZn2Bi
_chemical_formula_sum   'Tm8 Sc2 Zn4 Bi2'
_cell_volume   397.90847488
_cell_formula_units_Z   2
loop_
 _symmetry_equiv_pos_site_id
 _symmetry_equiv_pos_as_xyz
  1  'x, y, z'
loop_
 _atom_site_type_symbol
 _atom_site_label
 _atom_site_symmetry_multiplicity
 _atom_site_fract_x
 _atom_site_fract_y
 _atom_site_fract_z
 _atom_site_occupancy
  Tm  Tm0  1  0.794721  0.294721  0.806584  1
  Tm  Tm1  1  0.205279  0.705279  0.193416  1
  Tm  Tm2  1  0.488137  0.988137  0.193416  1
  Tm  Tm3  1  0.294721  0.488137  0.500000  1
  Tm  Tm4  1  0.011863  0.205279  0.500000  1
  Tm  Tm5  1  0.511863  0.011863  0.806584  1
  Tm  Tm6  1  0.705279  0.511863  0.500000  1
  Tm  Tm7  1  0.988137  0.794721  0.500000  1
  Sc  Sc8  1  0.000000  0.000000  0.000000  1
  Sc  Sc9  1  0.500000  0.500000  0.000000  1
  Zn  Zn10  1  0.140658  0.640658  0.781318  1
  Zn  Zn11  1  0.859342  0.359342  0.218682  1
  Zn  Zn12  1  0.640658  0.859342  0.500000  1
  Zn  Zn13  1  0.359342  0.140658  0.500000  1
  Bi  Bi14  1  0.250000  0.250000  0.000000  1
  Bi  Bi15  1  0.750000  0.750000  0.000000  1
