# generated using pymatgen
data_Dy10Ho2Ga2TcNi3
_symmetry_space_group_name_H-M   'P 1'
_cell_length_a   8.32281180
_cell_length_b   8.32192284
_cell_length_c   8.32281210
_cell_angle_alpha   112.77239923
_cell_angle_beta   109.82656251
_cell_angle_gamma   105.89200257
_symmetry_Int_Tables_number   1
_chemical_formula_structural   Dy10Ho2Ga2TcNi3
_chemical_formula_sum   'Dy10 Ho2 Ga2 Tc1 Ni3'
_cell_volume   442.12793629
_cell_formula_units_Z   1
loop_
 _symmetry_equiv_pos_site_id
 _symmetry_equiv_pos_as_xyz
  1  'x, y, z'
loop_
 _atom_site_type_symbol
 _atom_site_label
 _atom_site_symmetry_multiplicity
 _atom_site_fract_x
 _atom_site_fract_y
 _atom_site_fract_z
 _atom_site_occupancy
  Dy  Dy0  1  0.441892  0.247979  0.193529  1
  Dy  Dy1  1  0.572685  0.767829  0.805282  1
  Dy  Dy2  1  0.037452  0.232171  0.804855  1
  Dy  Dy3  1  0.945551  0.752021  0.193913  1
  Dy  Dy4  1  0.185354  0.280472  0.466133  1
  Dy  Dy5  1  0.825467  0.721122  0.546197  1
  Dy  Dy6  1  0.185662  0.719528  0.904882  1
  Dy  Dy7  1  0.825074  0.278878  0.104345  1
  Dy  Dy8  1  0.325144  0.637602  0.307036  1
  Dy  Dy9  1  0.669433  0.362398  0.687542  1
  Ho  Ho10  1  0.325000  0.017866  0.687338  1
  Ho  Ho11  1  0.669472  0.982134  0.307134  1
  Ga  Ga12  1  0.493778  0.500000  0.993778  1
  Ga  Ga13  1  0.016856  0.000000  0.016856  1
  Tc  Tc14  1  0.325891  0.000000  0.325891  1
  Ni  Ni15  1  0.654295  0.000000  0.654295  1
  Ni  Ni16  1  0.119570  0.619259  0.500684  1
  Ni  Ni17  1  0.881424  0.380741  0.500312  1
