# generated using pymatgen
data_NaDy6NiBr12
_symmetry_space_group_name_H-M   'P 1'
_cell_length_a   9.09823610
_cell_length_b   9.22188827
_cell_length_c   9.20892642
_cell_angle_alpha   106.85712245
_cell_angle_beta   107.06455546
_cell_angle_gamma   106.82169352
_symmetry_Int_Tables_number   1
_chemical_formula_structural   NaDy6NiBr12
_chemical_formula_sum   'Na1 Dy6 Ni1 Br12'
_cell_volume   644.96818005
_cell_formula_units_Z   1
loop_
 _symmetry_equiv_pos_site_id
 _symmetry_equiv_pos_as_xyz
  1  'x, y, z'
loop_
 _atom_site_type_symbol
 _atom_site_label
 _atom_site_symmetry_multiplicity
 _atom_site_fract_x
 _atom_site_fract_y
 _atom_site_fract_z
 _atom_site_occupancy
  Na  Na0  1  0.500000  0.500000  0.500000  1
  Dy  Dy1  1  0.107039  0.316890  0.029907  1
  Dy  Dy2  1  0.304719  0.027223  0.102107  1
  Dy  Dy3  1  0.028146  0.107790  0.317478  1
  Dy  Dy4  1  0.971855  0.892210  0.682523  1
  Dy  Dy5  1  0.695281  0.972778  0.897893  1
  Dy  Dy6  1  0.892961  0.683110  0.970093  1
  Ni  Ni7  1  0.000000  0.000000  0.000000  1
  Br  Br8  1  0.222743  0.682318  0.075216  1
  Br  Br9  1  0.451245  0.367959  0.144997  1
  Br  Br10  1  0.678884  0.073067  0.218250  1
  Br  Br11  1  0.925098  0.779889  0.318799  1
  Br  Br12  1  0.144275  0.450090  0.370041  1
  Br  Br13  1  0.370937  0.145301  0.448450  1
  Br  Br14  1  0.629063  0.854699  0.551551  1
  Br  Br15  1  0.855726  0.549910  0.629959  1
  Br  Br16  1  0.074903  0.220111  0.681202  1
  Br  Br17  1  0.321117  0.926934  0.781750  1
  Br  Br18  1  0.548755  0.632041  0.855004  1
  Br  Br19  1  0.777257  0.317682  0.924784  1
