# generated using pymatgen
data_Er8Zr12Si15Se
_symmetry_space_group_name_H-M   'P 1'
_cell_length_a   7.33176983
_cell_length_b   7.31022925
_cell_length_c   13.44819389
_cell_angle_alpha   89.87735523
_cell_angle_beta   89.58223121
_cell_angle_gamma   89.93569450
_symmetry_Int_Tables_number   1
_chemical_formula_structural   Er8Zr12Si15Se
_chemical_formula_sum   'Er8 Zr12 Si15 Se1'
_cell_volume   720.76049550
_cell_formula_units_Z   1
loop_
 _symmetry_equiv_pos_site_id
 _symmetry_equiv_pos_as_xyz
  1  'x, y, z'
loop_
 _atom_site_type_symbol
 _atom_site_label
 _atom_site_symmetry_multiplicity
 _atom_site_fract_x
 _atom_site_fract_y
 _atom_site_fract_z
 _atom_site_occupancy
  Er  Er0  1  0.346743  0.001040  0.462106  1
  Er  Er1  1  0.498599  0.846044  0.716135  1
  Er  Er2  1  0.501956  0.153303  0.213866  1
  Er  Er3  1  0.844732  0.496076  0.285494  1
  Er  Er4  1  0.153310  0.504480  0.785691  1
  Er  Er5  1  0.658459  0.992615  0.966709  1
  Er  Er6  1  0.996021  0.350391  0.532634  1
  Er  Er7  1  0.999045  0.655288  0.035895  1
  Zr  Zr8  1  0.324477  0.325680  0.999877  1
  Zr  Zr9  1  0.174485  0.824967  0.249836  1
  Zr  Zr10  1  0.822160  0.174913  0.750021  1
  Zr  Zr11  1  0.673012  0.673217  0.500237  1
  Zr  Zr12  1  0.153207  0.006311  0.872436  1
  Zr  Zr13  1  0.496466  0.647868  0.124338  1
  Zr  Zr14  1  0.503595  0.351282  0.627469  1
  Zr  Zr15  1  0.653022  0.501423  0.877417  1
  Zr  Zr16  1  0.350304  0.501909  0.375695  1
  Zr  Zr17  1  0.850408  0.997085  0.374497  1
  Zr  Zr18  1  0.003111  0.147176  0.125403  1
  Zr  Zr19  1  0.991882  0.846177  0.623176  1
  Si  Si20  1  0.359791  0.707256  0.931955  1
  Si  Si21  1  0.637644  0.294550  0.433684  1
  Si  Si22  1  0.707677  0.360554  0.068835  1
  Si  Si23  1  0.293739  0.639493  0.568225  1
  Si  Si24  1  0.793093  0.860242  0.182733  1
  Si  Si25  1  0.139329  0.205650  0.317745  1
  Si  Si26  1  0.862768  0.796319  0.816781  1
  Si  Si27  1  0.297442  0.950374  0.062141  1
  Si  Si28  1  0.549280  0.795602  0.312791  1
  Si  Si29  1  0.468233  0.205307  0.823143  1
  Si  Si30  1  0.796617  0.548697  0.686781  1
  Si  Si31  1  0.202787  0.449665  0.187423  1
  Si  Si32  1  0.700684  0.049022  0.562764  1
  Si  Si33  1  0.952549  0.297706  0.936677  1
  Si  Si34  1  0.048555  0.703314  0.435691  1
  Se  Se35  1  0.194818  0.139008  0.673697  1
