# generated using pymatgen
data_TbFeNi4P3
_symmetry_space_group_name_H-M   'P 1'
_cell_length_a   3.70594100
_cell_length_b   10.32403900
_cell_length_c   11.89678000
_cell_angle_alpha   90.00000000
_cell_angle_beta   90.00000000
_cell_angle_gamma   90.00000000
_symmetry_Int_Tables_number   1
_chemical_formula_structural   TbFeNi4P3
_chemical_formula_sum   'Tb4 Fe4 Ni16 P12'
_cell_volume   455.17412695
_cell_formula_units_Z   4
loop_
 _symmetry_equiv_pos_site_id
 _symmetry_equiv_pos_as_xyz
  1  'x, y, z'
loop_
 _atom_site_type_symbol
 _atom_site_label
 _atom_site_symmetry_multiplicity
 _atom_site_fract_x
 _atom_site_fract_y
 _atom_site_fract_z
 _atom_site_occupancy
  Tb  Tb0  1  0.250000  0.579606  0.704553  1
  Tb  Tb1  1  0.250000  0.920394  0.204553  1
  Tb  Tb2  1  0.750000  0.420394  0.295447  1
  Tb  Tb3  1  0.750000  0.079606  0.795447  1
  Fe  Fe4  1  0.250000  0.464031  0.931928  1
  Fe  Fe5  1  0.250000  0.035969  0.431928  1
  Fe  Fe6  1  0.750000  0.535969  0.068072  1
  Fe  Fe7  1  0.750000  0.964031  0.568072  1
  Ni  Ni8  1  0.250000  0.713444  0.994654  1
  Ni  Ni9  1  0.250000  0.786556  0.494654  1
  Ni  Ni10  1  0.750000  0.286556  0.005346  1
  Ni  Ni11  1  0.750000  0.213444  0.505346  1
  Ni  Ni12  1  0.250000  0.406966  0.488071  1
  Ni  Ni13  1  0.250000  0.093034  0.988071  1
  Ni  Ni14  1  0.750000  0.593034  0.511929  1
  Ni  Ni15  1  0.750000  0.906966  0.011929  1
  Ni  Ni16  1  0.250000  0.224881  0.176537  1
  Ni  Ni17  1  0.250000  0.275119  0.676537  1
  Ni  Ni18  1  0.750000  0.775119  0.823463  1
  Ni  Ni19  1  0.750000  0.724881  0.323463  1
  Ni  Ni20  1  0.250000  0.877359  0.701303  1
  Ni  Ni21  1  0.250000  0.622641  0.201303  1
  Ni  Ni22  1  0.750000  0.122641  0.298697  1
  Ni  Ni23  1  0.750000  0.377359  0.798697  1
  P  P24  1  0.250000  0.425804  0.111577  1
  P  P25  1  0.250000  0.074196  0.611577  1
  P  P26  1  0.750000  0.574196  0.888423  1
  P  P27  1  0.750000  0.925804  0.388423  1
  P  P28  1  0.250000  0.269733  0.869059  1
  P  P29  1  0.250000  0.230267  0.369059  1
  P  P30  1  0.750000  0.730267  0.130941  1
  P  P31  1  0.750000  0.769733  0.630941  1
  P  P32  1  0.250000  0.604318  0.393233  1
  P  P33  1  0.250000  0.895682  0.893233  1
  P  P34  1  0.750000  0.395682  0.606767  1
  P  P35  1  0.750000  0.104318  0.106767  1
