# generated using pymatgen
data_Ta3Mn4MoP4
_symmetry_space_group_name_H-M   'P 1'
_cell_length_a   3.64690000
_cell_length_b   6.06210859
_cell_length_c   6.98099136
_cell_angle_alpha   90.30577260
_cell_angle_beta   90.00000000
_cell_angle_gamma   90.00000000
_symmetry_Int_Tables_number   1
_chemical_formula_structural   Ta3Mn4MoP4
_chemical_formula_sum   'Ta3 Mn4 Mo1 P4'
_cell_volume   154.33288767
_cell_formula_units_Z   1
loop_
 _symmetry_equiv_pos_site_id
 _symmetry_equiv_pos_as_xyz
  1  'x, y, z'
loop_
 _atom_site_type_symbol
 _atom_site_label
 _atom_site_symmetry_multiplicity
 _atom_site_fract_x
 _atom_site_fract_y
 _atom_site_fract_z
 _atom_site_occupancy
  Ta  Ta0  1  0.250000  0.524850  0.321548  1
  Ta  Ta1  1  0.250000  0.023707  0.174810  1
  Ta  Ta2  1  0.750000  0.477475  0.679759  1
  Mn  Mn3  1  0.750000  0.349766  0.060424  1
  Mn  Mn4  1  0.250000  0.645310  0.937944  1
  Mn  Mn5  1  0.750000  0.850490  0.442150  1
  Mn  Mn6  1  0.250000  0.149324  0.557968  1
  Mo  Mo7  1  0.750000  0.977622  0.827730  1
  P  P8  1  0.250000  0.783053  0.627719  1
  P  P9  1  0.750000  0.221651  0.377067  1
  P  P10  1  0.250000  0.275470  0.875986  1
  P  P11  1  0.750000  0.721279  0.116895  1
