# generated using pymatgen
data_YEr7TcOsBr8
_symmetry_space_group_name_H-M   'P 1'
_cell_length_a   8.92430792
_cell_length_b   8.90666172
_cell_length_c   6.53455863
_cell_angle_alpha   89.54954410
_cell_angle_beta   89.48441111
_cell_angle_gamma   89.45277569
_symmetry_Int_Tables_number   1
_chemical_formula_structural   YEr7TcOsBr8
_chemical_formula_sum   'Y1 Er7 Tc1 Os1 Br8'
_cell_volume   519.34414309
_cell_formula_units_Z   1
loop_
 _symmetry_equiv_pos_site_id
 _symmetry_equiv_pos_as_xyz
  1  'x, y, z'
loop_
 _atom_site_type_symbol
 _atom_site_label
 _atom_site_symmetry_multiplicity
 _atom_site_fract_x
 _atom_site_fract_y
 _atom_site_fract_z
 _atom_site_occupancy
  Y  Y0  1  0.252361  0.899932  0.010887  1
  Er  Er1  1  0.751165  0.098903  0.989634  1
  Er  Er2  1  0.097962  0.752078  0.488627  1
  Er  Er3  1  0.901047  0.248662  0.510214  1
  Er  Er4  1  0.752644  0.903321  0.507572  1
  Er  Er5  1  0.246673  0.097610  0.490959  1
  Er  Er6  1  0.096189  0.247127  0.992029  1
  Er  Er7  1  0.902405  0.753271  0.008880  1
  Tc  Tc8  1  0.993744  0.006017  0.250256  1
  Os  Os9  1  0.004771  0.994758  0.749242  1
  Br  Br10  1  0.420498  0.816692  0.407984  1
  Br  Br11  1  0.579391  0.182763  0.594880  1
  Br  Br12  1  0.182391  0.578351  0.093603  1
  Br  Br13  1  0.817338  0.420808  0.905307  1
  Br  Br14  1  0.416229  0.192649  0.095883  1
  Br  Br15  1  0.584936  0.807286  0.903158  1
  Br  Br16  1  0.808190  0.583664  0.404335  1
  Br  Br17  1  0.192067  0.416109  0.596547  1
