# generated using pymatgen
data_CsReOF5
_symmetry_space_group_name_H-M   'P 1'
_cell_length_a   5.70157465
_cell_length_b   6.41277602
_cell_length_c   9.69209400
_cell_angle_alpha   70.99401513
_cell_angle_beta   86.89195281
_cell_angle_gamma   92.74862737
_symmetry_Int_Tables_number   1
_chemical_formula_structural   CsReOF5
_chemical_formula_sum   'Cs2 Re2 O2 F10'
_cell_volume   333.75081558
_cell_formula_units_Z   2
loop_
 _symmetry_equiv_pos_site_id
 _symmetry_equiv_pos_as_xyz
  1  'x, y, z'
loop_
 _atom_site_type_symbol
 _atom_site_label
 _atom_site_symmetry_multiplicity
 _atom_site_fract_x
 _atom_site_fract_y
 _atom_site_fract_z
 _atom_site_occupancy
  Cs  Cs0  1  0.310409  0.593912  0.740743  1
  Cs  Cs1  1  0.689591  0.406088  0.259257  1
  Re  Re2  1  0.824090  0.092004  0.739343  1
  Re  Re3  1  0.175910  0.907996  0.260657  1
  O  O4  1  0.001867  0.260787  0.593925  1
  O  O5  1  0.998133  0.739213  0.406075  1
  F  F6  1  0.535379  0.211296  0.659228  1
  F  F7  1  0.464621  0.788704  0.340772  1
  F  F8  1  0.787303  0.859428  0.652661  1
  F  F9  1  0.212697  0.140572  0.347339  1
  F  F10  1  0.073799  0.939572  0.845510  1
  F  F11  1  0.926201  0.060428  0.154490  1
  F  F12  1  0.826302  0.294284  0.849165  1
  F  F13  1  0.173698  0.705716  0.150835  1
  F  F14  1  0.616804  0.886669  0.896106  1
  F  F15  1  0.383196  0.113331  0.103894  1
