# generated using pymatgen
data_HoTmGe(PRh2)6
_symmetry_space_group_name_H-M   'P 1'
_cell_length_a   9.66355800
_cell_length_b   9.66355701
_cell_length_c   3.86090300
_cell_angle_alpha   90.00000000
_cell_angle_beta   90.00000000
_cell_angle_gamma   120.00001023
_symmetry_Int_Tables_number   1
_chemical_formula_structural   HoTmGe(PRh2)6
_chemical_formula_sum   'Ho1 Tm1 Ge1 P6 Rh12'
_cell_volume   312.24360209
_cell_formula_units_Z   1
loop_
 _symmetry_equiv_pos_site_id
 _symmetry_equiv_pos_as_xyz
  1  'x, y, z'
loop_
 _atom_site_type_symbol
 _atom_site_label
 _atom_site_symmetry_multiplicity
 _atom_site_fract_x
 _atom_site_fract_y
 _atom_site_fract_z
 _atom_site_occupancy
  Ho  Ho0  1  0.666667  0.333333  0.251461  1
  Tm  Tm1  1  0.333333  0.666667  0.748504  1
  Ge  Ge2  1  0.000000  0.000000  0.499965  1
  P  P3  1  0.404511  0.286103  0.751108  1
  P  P4  1  0.713897  0.118408  0.751108  1
  P  P5  1  0.881592  0.595489  0.751108  1
  P  P6  1  0.595288  0.713779  0.249421  1
  P  P7  1  0.286221  0.881509  0.249421  1
  P  P8  1  0.118491  0.404712  0.249421  1
  Rh  Rh9  1  0.452296  0.067899  0.749920  1
  Rh  Rh10  1  0.932101  0.384397  0.749920  1
  Rh  Rh11  1  0.615603  0.547704  0.749920  1
  Rh  Rh12  1  0.546978  0.931046  0.249692  1
  Rh  Rh13  1  0.068954  0.615932  0.249692  1
  Rh  Rh14  1  0.384068  0.453022  0.249692  1
  Rh  Rh15  1  0.155636  0.275543  0.751898  1
  Rh  Rh16  1  0.724457  0.880094  0.751898  1
  Rh  Rh17  1  0.119906  0.844364  0.751898  1
  Rh  Rh18  1  0.844485  0.724775  0.247985  1
  Rh  Rh19  1  0.275225  0.119709  0.247985  1
  Rh  Rh20  1  0.880291  0.155515  0.247985  1
