# generated using pymatgen
data_V7SbS12
_symmetry_space_group_name_H-M   'P 1'
_cell_length_a   5.54080600
_cell_length_b   5.54080585
_cell_length_c   12.45233600
_cell_angle_alpha   90.00000000
_cell_angle_beta   90.00000000
_cell_angle_gamma   120.00001285
_symmetry_Int_Tables_number   1
_chemical_formula_structural   V7SbS12
_chemical_formula_sum   'V7 Sb1 S12'
_cell_volume   331.07568263
_cell_formula_units_Z   1
loop_
 _symmetry_equiv_pos_site_id
 _symmetry_equiv_pos_as_xyz
  1  'x, y, z'
loop_
 _atom_site_type_symbol
 _atom_site_label
 _atom_site_symmetry_multiplicity
 _atom_site_fract_x
 _atom_site_fract_y
 _atom_site_fract_z
 _atom_site_occupancy
  V  V0  1  0.333333  0.666667  0.482276  1
  V  V1  1  0.666667  0.333333  0.017048  1
  V  V2  1  0.666667  0.333333  0.482952  1
  V  V3  1  0.333333  0.666667  0.017724  1
  V  V4  1  0.000000  0.000000  0.481304  1
  V  V5  1  0.000000  0.000000  0.018696  1
  V  V6  1  0.333333  0.666667  0.250000  1
  Sb  Sb7  1  0.666667  0.333333  0.750000  1
  S  S8  1  0.669637  0.665925  0.366202  1
  S  S9  1  0.334075  0.003713  0.366202  1
  S  S10  1  0.996287  0.330363  0.366202  1
  S  S11  1  0.008717  0.676267  0.900227  1
  S  S12  1  0.323733  0.991283  0.599773  1
  S  S13  1  0.323733  0.332449  0.900227  1
  S  S14  1  0.667551  0.991283  0.900227  1
  S  S15  1  0.334075  0.330363  0.133798  1
  S  S16  1  0.669637  0.003713  0.133798  1
  S  S17  1  0.667551  0.676267  0.599773  1
  S  S18  1  0.008717  0.332449  0.599773  1
  S  S19  1  0.996287  0.665925  0.133798  1
