# generated using pymatgen
data_Ho3LuIn2HgAu3
_symmetry_space_group_name_H-M   'P 1'
_cell_length_a   8.02642795
_cell_length_b   8.02642821
_cell_length_c   3.70787700
_cell_angle_alpha   90.00000000
_cell_angle_beta   90.00000000
_cell_angle_gamma   90.22518102
_symmetry_Int_Tables_number   1
_chemical_formula_structural   Ho3LuIn2HgAu3
_chemical_formula_sum   'Ho3 Lu1 In2 Hg1 Au3'
_cell_volume   238.87274617
_cell_formula_units_Z   1
loop_
 _symmetry_equiv_pos_site_id
 _symmetry_equiv_pos_as_xyz
  1  'x, y, z'
loop_
 _atom_site_type_symbol
 _atom_site_label
 _atom_site_symmetry_multiplicity
 _atom_site_fract_x
 _atom_site_fract_y
 _atom_site_fract_z
 _atom_site_occupancy
  Ho  Ho0  1  0.340316  0.840316  0.500000  1
  Ho  Ho1  1  0.164562  0.318401  0.500000  1
  Ho  Ho2  1  0.818401  0.664562  0.500000  1
  Lu  Lu3  1  0.671061  0.171061  0.500000  1
  In  In4  1  0.502515  0.497010  0.000000  1
  In  In5  1  0.997010  0.002515  0.000000  1
  Hg  Hg6  1  0.129356  0.629356  0.000000  1
  Au  Au7  1  0.869376  0.369376  0.000000  1
  Au  Au8  1  0.632016  0.875386  0.000000  1
  Au  Au9  1  0.375386  0.132016  0.000000  1
