# generated using pymatgen
data_Ho6Sc4In5Sb
_symmetry_space_group_name_H-M   'P 1'
_cell_length_a   8.83999800
_cell_length_b   8.80030171
_cell_length_c   6.25162200
_cell_angle_alpha   90.00000000
_cell_angle_beta   90.00000000
_cell_angle_gamma   120.14932816
_symmetry_Int_Tables_number   1
_chemical_formula_structural   Ho6Sc4In5Sb
_chemical_formula_sum   'Ho6 Sc4 In5 Sb1'
_cell_volume   420.54997044
_cell_formula_units_Z   1
loop_
 _symmetry_equiv_pos_site_id
 _symmetry_equiv_pos_as_xyz
  1  'x, y, z'
loop_
 _atom_site_type_symbol
 _atom_site_label
 _atom_site_symmetry_multiplicity
 _atom_site_fract_x
 _atom_site_fract_y
 _atom_site_fract_z
 _atom_site_occupancy
  Ho  Ho0  1  0.000017  0.765325  0.750000  1
  Ho  Ho1  1  0.003199  0.238145  0.250000  1
  Ho  Ho2  1  0.765055  0.761855  0.250000  1
  Ho  Ho3  1  0.760867  0.000000  0.750000  1
  Ho  Ho4  1  0.234692  0.234675  0.750000  1
  Ho  Ho5  1  0.236173  0.000000  0.250000  1
  Sc  Sc6  1  0.333954  0.668124  0.503134  1
  Sc  Sc7  1  0.665831  0.331876  0.996866  1
  Sc  Sc8  1  0.665831  0.331876  0.503134  1
  Sc  Sc9  1  0.333954  0.668124  0.996866  1
  In  In10  1  0.401041  0.000000  0.750000  1
  In  In11  1  0.407491  0.407543  0.250000  1
  In  In12  1  0.999949  0.592457  0.250000  1
  In  In13  1  0.998401  0.406434  0.750000  1
  In  In14  1  0.591968  0.593566  0.750000  1
  Sb  Sb15  1  0.601577  0.000000  0.250000  1
