# generated using pymatgen
data_Eu2Th(SnIr)3
_symmetry_space_group_name_H-M   'P 1'
_cell_length_a   7.49236163
_cell_length_b   7.68232840
_cell_length_c   4.21479500
_cell_angle_alpha   90.00000000
_cell_angle_beta   90.00000000
_cell_angle_gamma   120.84232702
_symmetry_Int_Tables_number   1
_chemical_formula_structural   Eu2Th(SnIr)3
_chemical_formula_sum   'Eu2 Th1 Sn3 Ir3'
_cell_volume   208.29053138
_cell_formula_units_Z   1
loop_
 _symmetry_equiv_pos_site_id
 _symmetry_equiv_pos_as_xyz
  1  'x, y, z'
loop_
 _atom_site_type_symbol
 _atom_site_label
 _atom_site_symmetry_multiplicity
 _atom_site_fract_x
 _atom_site_fract_y
 _atom_site_fract_z
 _atom_site_occupancy
  Eu  Eu0  1  0.410961  0.411569  0.500000  1
  Eu  Eu1  1  0.589039  0.000608  0.500000  1
  Th  Th2  1  0.000000  0.588396  0.500000  1
  Sn  Sn3  1  0.738042  0.748519  0.000000  1
  Sn  Sn4  1  0.261958  0.010475  0.000000  1
  Sn  Sn5  1  0.000000  0.239222  0.000000  1
  Ir  Ir6  1  0.695282  0.356351  0.000000  1
  Ir  Ir7  1  0.304718  0.661070  0.000000  1
  Ir  Ir8  1  0.000000  0.983790  0.500000  1
