# generated using pymatgen
data_Dy20GaSi14Hg
_symmetry_space_group_name_H-M   'P 1'
_cell_length_a   7.45151997
_cell_length_b   7.71193680
_cell_length_c   14.68694500
_cell_angle_alpha   89.83920327
_cell_angle_beta   90.24110138
_cell_angle_gamma   89.82217693
_symmetry_Int_Tables_number   1
_chemical_formula_structural   Dy20GaSi14Hg
_chemical_formula_sum   'Dy20 Ga1 Si14 Hg1'
_cell_volume   843.97996464
_cell_formula_units_Z   1
loop_
 _symmetry_equiv_pos_site_id
 _symmetry_equiv_pos_as_xyz
  1  'x, y, z'
loop_
 _atom_site_type_symbol
 _atom_site_label
 _atom_site_symmetry_multiplicity
 _atom_site_fract_x
 _atom_site_fract_y
 _atom_site_fract_z
 _atom_site_occupancy
  Dy  Dy0  1  0.651047  0.989342  0.251893  1
  Dy  Dy1  1  0.149320  0.509417  0.248645  1
  Dy  Dy2  1  0.847630  0.488298  0.749837  1
  Dy  Dy3  1  0.347668  0.011494  0.752306  1
  Dy  Dy4  1  0.972900  0.817930  0.100091  1
  Dy  Dy5  1  0.476159  0.677797  0.398242  1
  Dy  Dy6  1  0.526434  0.315067  0.901253  1
  Dy  Dy7  1  0.019056  0.187585  0.600449  1
  Dy  Dy8  1  0.029180  0.180911  0.901272  1
  Dy  Dy9  1  0.529955  0.324161  0.599941  1
  Dy  Dy10  1  0.472117  0.682483  0.100594  1
  Dy  Dy11  1  0.974205  0.816409  0.397918  1
  Dy  Dy12  1  0.678680  0.822453  0.877122  1
  Dy  Dy13  1  0.173775  0.671353  0.625162  1
  Dy  Dy14  1  0.818082  0.322319  0.123436  1
  Dy  Dy15  1  0.320295  0.178256  0.374096  1
  Dy  Dy16  1  0.321529  0.178366  0.123342  1
  Dy  Dy17  1  0.823409  0.322688  0.375789  1
  Dy  Dy18  1  0.182337  0.676647  0.878297  1
  Dy  Dy19  1  0.684161  0.825250  0.622212  1
  Ga  Ga20  1  0.847885  0.531780  0.960248  1
  Si  Si21  1  0.767695  0.627801  0.249636  1
  Si  Si22  1  0.267940  0.871049  0.248546  1
  Si  Si23  1  0.731683  0.126395  0.751772  1
  Si  Si24  1  0.233221  0.373635  0.750456  1
  Si  Si25  1  0.023680  0.104579  0.247720  1
  Si  Si26  1  0.523418  0.395459  0.250028  1
  Si  Si27  1  0.476537  0.607807  0.750547  1
  Si  Si28  1  0.975981  0.894671  0.751684  1
  Si  Si29  1  0.648075  0.029573  0.040375  1
  Si  Si30  1  0.150395  0.470595  0.459013  1
  Si  Si31  1  0.150443  0.470421  0.041722  1
  Si  Si32  1  0.662084  0.029629  0.457008  1
  Si  Si33  1  0.353787  0.969050  0.961695  1
  Si  Si34  1  0.851262  0.531461  0.537811  1
  Hg  Hg35  1  0.337971  0.967866  0.539841  1
