# generated using pymatgen
data_CsTb2DyTe5
_symmetry_space_group_name_H-M   'P 1'
_cell_length_a   4.42879000
_cell_length_b   13.38557600
_cell_length_c   23.87702700
_cell_angle_alpha   90.00000000
_cell_angle_beta   90.00000000
_cell_angle_gamma   90.00000000
_symmetry_Int_Tables_number   1
_chemical_formula_structural   CsTb2DyTe5
_chemical_formula_sum   'Cs4 Tb8 Dy4 Te20'
_cell_volume   1415.47564947
_cell_formula_units_Z   4
loop_
 _symmetry_equiv_pos_site_id
 _symmetry_equiv_pos_as_xyz
  1  'x, y, z'
loop_
 _atom_site_type_symbol
 _atom_site_label
 _atom_site_symmetry_multiplicity
 _atom_site_fract_x
 _atom_site_fract_y
 _atom_site_fract_z
 _atom_site_occupancy
  Cs  Cs0  1  0.250000  0.353921  0.089655  1
  Cs  Cs1  1  0.750000  0.646079  0.910345  1
  Cs  Cs2  1  0.750000  0.853921  0.410345  1
  Cs  Cs3  1  0.250000  0.146079  0.589655  1
  Tb  Tb4  1  0.250000  0.454390  0.697676  1
  Tb  Tb5  1  0.750000  0.545610  0.302324  1
  Tb  Tb6  1  0.750000  0.954390  0.802324  1
  Tb  Tb7  1  0.250000  0.045610  0.197676  1
  Tb  Tb8  1  0.250000  0.796624  0.674608  1
  Tb  Tb9  1  0.750000  0.203376  0.325392  1
  Tb  Tb10  1  0.750000  0.296624  0.825392  1
  Tb  Tb11  1  0.250000  0.703376  0.174608  1
  Dy  Dy12  1  0.250000  0.392231  0.444428  1
  Dy  Dy13  1  0.750000  0.607769  0.555572  1
  Dy  Dy14  1  0.750000  0.892231  0.055572  1
  Dy  Dy15  1  0.250000  0.107769  0.944428  1
  Te  Te16  1  0.250000  0.444745  0.568649  1
  Te  Te17  1  0.750000  0.555255  0.431351  1
  Te  Te18  1  0.750000  0.944745  0.931351  1
  Te  Te19  1  0.250000  0.055255  0.068649  1
  Te  Te20  1  0.250000  0.767800  0.546550  1
  Te  Te21  1  0.750000  0.232200  0.453450  1
  Te  Te22  1  0.750000  0.267800  0.953450  1
  Te  Te23  1  0.250000  0.732200  0.046550  1
  Te  Te24  1  0.250000  0.798949  0.803213  1
  Te  Te25  1  0.750000  0.201051  0.196787  1
  Te  Te26  1  0.750000  0.298949  0.696787  1
  Te  Te27  1  0.250000  0.701051  0.303213  1
  Te  Te28  1  0.250000  0.453614  0.826445  1
  Te  Te29  1  0.750000  0.546386  0.173555  1
  Te  Te30  1  0.750000  0.953614  0.673555  1
  Te  Te31  1  0.250000  0.046386  0.326445  1
  Te  Te32  1  0.250000  0.375015  0.313679  1
  Te  Te33  1  0.750000  0.624985  0.686321  1
  Te  Te34  1  0.750000  0.875015  0.186321  1
  Te  Te35  1  0.250000  0.124985  0.813679  1
