# generated using pymatgen
data_HoMn4FeP3
_symmetry_space_group_name_H-M   'P 1'
_cell_length_a   3.58828600
_cell_length_b   10.59072500
_cell_length_c   12.16167800
_cell_angle_alpha   90.00000000
_cell_angle_beta   90.00000000
_cell_angle_gamma   90.00000000
_symmetry_Int_Tables_number   1
_chemical_formula_structural   HoMn4FeP3
_chemical_formula_sum   'Ho4 Mn16 Fe4 P12'
_cell_volume   462.17477929
_cell_formula_units_Z   4
loop_
 _symmetry_equiv_pos_site_id
 _symmetry_equiv_pos_as_xyz
  1  'x, y, z'
loop_
 _atom_site_type_symbol
 _atom_site_label
 _atom_site_symmetry_multiplicity
 _atom_site_fract_x
 _atom_site_fract_y
 _atom_site_fract_z
 _atom_site_occupancy
  Ho  Ho0  1  0.250000  0.584225  0.708260  1
  Ho  Ho1  1  0.250000  0.915775  0.208260  1
  Ho  Ho2  1  0.750000  0.415775  0.291740  1
  Ho  Ho3  1  0.750000  0.084225  0.791740  1
  Mn  Mn4  1  0.250000  0.711251  0.985374  1
  Mn  Mn5  1  0.250000  0.788749  0.485374  1
  Mn  Mn6  1  0.750000  0.288749  0.014626  1
  Mn  Mn7  1  0.750000  0.211251  0.514626  1
  Mn  Mn8  1  0.250000  0.408855  0.493248  1
  Mn  Mn9  1  0.250000  0.091145  0.993248  1
  Mn  Mn10  1  0.750000  0.591145  0.506752  1
  Mn  Mn11  1  0.750000  0.908855  0.006752  1
  Mn  Mn12  1  0.250000  0.217191  0.175978  1
  Mn  Mn13  1  0.250000  0.282809  0.675978  1
  Mn  Mn14  1  0.750000  0.782809  0.824022  1
  Mn  Mn15  1  0.750000  0.717191  0.324022  1
  Mn  Mn16  1  0.250000  0.877812  0.696587  1
  Mn  Mn17  1  0.250000  0.622188  0.196587  1
  Mn  Mn18  1  0.750000  0.122188  0.303413  1
  Mn  Mn19  1  0.750000  0.377812  0.803413  1
  Fe  Fe20  1  0.250000  0.463382  0.931599  1
  Fe  Fe21  1  0.250000  0.036618  0.431599  1
  Fe  Fe22  1  0.750000  0.536618  0.068401  1
  Fe  Fe23  1  0.750000  0.963382  0.568401  1
  P  P24  1  0.250000  0.420328  0.110489  1
  P  P25  1  0.250000  0.079672  0.610489  1
  P  P26  1  0.750000  0.579672  0.889511  1
  P  P27  1  0.750000  0.920328  0.389511  1
  P  P28  1  0.250000  0.264038  0.872551  1
  P  P29  1  0.250000  0.235962  0.372551  1
  P  P30  1  0.750000  0.735962  0.127449  1
  P  P31  1  0.750000  0.764038  0.627449  1
  P  P32  1  0.250000  0.592936  0.385404  1
  P  P33  1  0.250000  0.907064  0.885404  1
  P  P34  1  0.750000  0.407064  0.614596  1
  P  P35  1  0.750000  0.092936  0.114596  1
