# generated using pymatgen
data_Co2Pt6W
_symmetry_space_group_name_H-M   'P 1'
_cell_length_a   6.18457281
_cell_length_b   6.18457277
_cell_length_c   6.12915734
_cell_angle_alpha   95.71939087
_cell_angle_beta   95.71938550
_cell_angle_gamma   143.36691970
_symmetry_Int_Tables_number   1
_chemical_formula_structural   Co2Pt6W
_chemical_formula_sum   'Co2 Pt6 W1'
_cell_volume   132.66439703
_cell_formula_units_Z   1
loop_
 _symmetry_equiv_pos_site_id
 _symmetry_equiv_pos_as_xyz
  1  'x, y, z'
loop_
 _atom_site_type_symbol
 _atom_site_label
 _atom_site_symmetry_multiplicity
 _atom_site_fract_x
 _atom_site_fract_y
 _atom_site_fract_z
 _atom_site_occupancy
  Co  Co0  1  0.338802  0.338802  0.677603  1
  Co  Co1  1  0.661198  0.661198  0.322397  1
  Pt  Pt2  1  0.657907  0.342093  0.000000  1
  Pt  Pt3  1  0.342093  0.657907  0.000000  1
  Pt  Pt4  1  0.011430  0.324499  0.335929  1
  Pt  Pt5  1  0.988570  0.675501  0.664071  1
  Pt  Pt6  1  0.675501  0.988570  0.664071  1
  Pt  Pt7  1  0.324499  0.011430  0.335929  1
  W  W8  1  0.000000  0.000000  0.000000  1
