# generated using pymatgen
data_LiPr16Tl(CdIr2)2
_symmetry_space_group_name_H-M   'P 1'
_cell_length_a   10.03182099
_cell_length_b   10.03182110
_cell_length_c   10.04414891
_cell_angle_alpha   60.13156999
_cell_angle_beta   60.13157217
_cell_angle_gamma   60.02172670
_symmetry_Int_Tables_number   1
_chemical_formula_structural   LiPr16Tl(CdIr2)2
_chemical_formula_sum   'Li1 Pr16 Tl1 Cd2 Ir4'
_cell_volume   716.29193769
_cell_formula_units_Z   1
loop_
 _symmetry_equiv_pos_site_id
 _symmetry_equiv_pos_as_xyz
  1  'x, y, z'
loop_
 _atom_site_type_symbol
 _atom_site_label
 _atom_site_symmetry_multiplicity
 _atom_site_fract_x
 _atom_site_fract_y
 _atom_site_fract_z
 _atom_site_occupancy
  Li  Li0  1  0.570491  0.570491  0.285804  1
  Pr  Pr1  1  0.347259  0.347259  0.346918  1
  Pr  Pr2  1  0.349398  0.349398  0.951969  1
  Pr  Pr3  1  0.348350  0.955952  0.348818  1
  Pr  Pr4  1  0.955952  0.348350  0.348818  1
  Pr  Pr5  1  0.811953  0.187149  0.187879  1
  Pr  Pr6  1  0.192817  0.807637  0.804941  1
  Pr  Pr7  1  0.187149  0.811953  0.187879  1
  Pr  Pr8  1  0.807637  0.192817  0.804941  1
  Pr  Pr9  1  0.191262  0.191262  0.808068  1
  Pr  Pr10  1  0.810340  0.810340  0.187351  1
  Pr  Pr11  1  0.942970  0.560565  0.560687  1
  Pr  Pr12  1  0.559514  0.939834  0.940025  1
  Pr  Pr13  1  0.560565  0.942970  0.560687  1
  Pr  Pr14  1  0.939834  0.559514  0.940025  1
  Pr  Pr15  1  0.559923  0.559923  0.942017  1
  Pr  Pr16  1  0.939957  0.939957  0.559925  1
  Tl  Tl17  1  0.582593  0.582593  0.577753  1
  Cd  Cd18  1  0.579979  0.256806  0.578565  1
  Cd  Cd19  1  0.256806  0.579979  0.578565  1
  Ir  Ir20  1  0.142282  0.142282  0.141262  1
  Ir  Ir21  1  0.143573  0.143573  0.574334  1
  Ir  Ir22  1  0.143693  0.575700  0.141385  1
  Ir  Ir23  1  0.575700  0.143693  0.141385  1
