# generated using pymatgen
data_Hf6SnAsC4
_symmetry_space_group_name_H-M   'P 1'
_cell_length_a   3.35753300
_cell_length_b   3.35753423
_cell_length_c   18.86661400
_cell_angle_alpha   90.00000000
_cell_angle_beta   90.00000000
_cell_angle_gamma   119.99999777
_symmetry_Int_Tables_number   1
_chemical_formula_structural   Hf6SnAsC4
_chemical_formula_sum   'Hf6 Sn1 As1 C4'
_cell_volume   184.18970150
_cell_formula_units_Z   1
loop_
 _symmetry_equiv_pos_site_id
 _symmetry_equiv_pos_as_xyz
  1  'x, y, z'
loop_
 _atom_site_type_symbol
 _atom_site_label
 _atom_site_symmetry_multiplicity
 _atom_site_fract_x
 _atom_site_fract_y
 _atom_site_fract_z
 _atom_site_occupancy
  Hf  Hf0  1  0.000000  0.000000  0.011256  1
  Hf  Hf1  1  0.333333  0.666667  0.145639  1
  Hf  Hf2  1  0.333333  0.666667  0.354361  1
  Hf  Hf3  1  0.000000  0.000000  0.488744  1
  Hf  Hf4  1  0.666667  0.333333  0.621787  1
  Hf  Hf5  1  0.666667  0.333333  0.878213  1
  Sn  Sn6  1  0.000000  0.000000  0.750000  1
  As  As7  1  0.000000  0.000000  0.250000  1
  C  C8  1  0.333333  0.666667  0.938696  1
  C  C9  1  0.666667  0.333333  0.083982  1
  C  C10  1  0.666667  0.333333  0.416018  1
  C  C11  1  0.333333  0.666667  0.561304  1
