# generated using pymatgen
data_Tb3Lu13MgNi4Ag3
_symmetry_space_group_name_H-M   'P 1'
_cell_length_a   9.35572155
_cell_length_b   9.35503662
_cell_length_c   9.35503509
_cell_angle_alpha   59.83858487
_cell_angle_beta   59.81843931
_cell_angle_gamma   59.81842859
_symmetry_Int_Tables_number   1
_chemical_formula_structural   Tb3Lu13MgNi4Ag3
_chemical_formula_sum   'Tb3 Lu13 Mg1 Ni4 Ag3'
_cell_volume   576.66845422
_cell_formula_units_Z   1
loop_
 _symmetry_equiv_pos_site_id
 _symmetry_equiv_pos_as_xyz
  1  'x, y, z'
loop_
 _atom_site_type_symbol
 _atom_site_label
 _atom_site_symmetry_multiplicity
 _atom_site_fract_x
 _atom_site_fract_y
 _atom_site_fract_z
 _atom_site_occupancy
  Tb  Tb0  1  0.600326  0.599520  0.202271  1
  Tb  Tb1  1  0.600326  0.202271  0.599520  1
  Tb  Tb2  1  0.190417  0.603391  0.603391  1
  Lu  Lu3  1  0.183350  0.814730  0.814730  1
  Lu  Lu4  1  0.813877  0.184853  0.184853  1
  Lu  Lu5  1  0.813723  0.185999  0.815232  1
  Lu  Lu6  1  0.181742  0.815377  0.186406  1
  Lu  Lu7  1  0.813723  0.815232  0.185999  1
  Lu  Lu8  1  0.181742  0.186406  0.815377  1
  Lu  Lu9  1  0.060054  0.438579  0.438579  1
  Lu  Lu10  1  0.435913  0.064288  0.064288  1
  Lu  Lu11  1  0.436983  0.063208  0.436182  1
  Lu  Lu12  1  0.061404  0.437670  0.062362  1
  Lu  Lu13  1  0.436983  0.436182  0.063208  1
  Lu  Lu14  1  0.061404  0.062362  0.437670  1
  Lu  Lu15  1  0.600138  0.598178  0.598178  1
  Mg  Mg16  1  0.533341  0.821132  0.821132  1
  Ni  Ni17  1  0.388195  0.393738  0.393738  1
  Ni  Ni18  1  0.391319  0.396054  0.823002  1
  Ni  Ni19  1  0.391319  0.823002  0.396054  1
  Ni  Ni20  1  0.823990  0.392617  0.392617  1
  Ag  Ag21  1  0.834369  0.834599  0.834599  1
  Ag  Ag22  1  0.832682  0.833987  0.496626  1
  Ag  Ag23  1  0.832682  0.496626  0.833987  1
