# generated using pymatgen
data_DyEr4(In2Ir)2
_symmetry_space_group_name_H-M   'P 1'
_cell_length_a   3.58117300
_cell_length_b   8.03137400
_cell_length_c   18.23572400
_cell_angle_alpha   90.00000000
_cell_angle_beta   90.00000000
_cell_angle_gamma   90.00000000
_symmetry_Int_Tables_number   1
_chemical_formula_structural   DyEr4(In2Ir)2
_chemical_formula_sum   'Dy2 Er8 In8 Ir4'
_cell_volume   524.49114732
_cell_formula_units_Z   2
loop_
 _symmetry_equiv_pos_site_id
 _symmetry_equiv_pos_as_xyz
  1  'x, y, z'
loop_
 _atom_site_type_symbol
 _atom_site_label
 _atom_site_symmetry_multiplicity
 _atom_site_fract_x
 _atom_site_fract_y
 _atom_site_fract_z
 _atom_site_occupancy
  Dy  Dy0  1  0.500000  0.500000  0.000000  1
  Dy  Dy1  1  0.500000  0.000000  0.500000  1
  Er  Er2  1  0.500000  0.381560  0.588019  1
  Er  Er3  1  0.500000  0.881560  0.911981  1
  Er  Er4  1  0.500000  0.118440  0.088019  1
  Er  Er5  1  0.500000  0.756320  0.720447  1
  Er  Er6  1  0.500000  0.256320  0.779553  1
  Er  Er7  1  0.500000  0.743680  0.220447  1
  Er  Er8  1  0.500000  0.243680  0.279553  1
  Er  Er9  1  0.500000  0.618440  0.411981  1
  In  In10  1  0.000000  0.795698  0.067211  1
  In  In11  1  0.000000  0.926940  0.349379  1
  In  In12  1  0.000000  0.073060  0.650621  1
  In  In13  1  0.000000  0.573060  0.849379  1
  In  In14  1  0.000000  0.704302  0.567211  1
  In  In15  1  0.000000  0.204302  0.932789  1
  In  In16  1  0.000000  0.295698  0.432789  1
  In  In17  1  0.000000  0.426940  0.150621  1
  Ir  Ir18  1  0.000000  0.977121  0.803602  1
  Ir  Ir19  1  0.000000  0.522879  0.303602  1
  Ir  Ir20  1  0.000000  0.477121  0.696398  1
  Ir  Ir21  1  0.000000  0.022879  0.196398  1
