# generated using pymatgen
data_Hf5Th8Sc7Sn16
_symmetry_space_group_name_H-M   'P 1'
_cell_length_a   7.88084389
_cell_length_b   7.93003647
_cell_length_c   14.89340720
_cell_angle_alpha   90.04430993
_cell_angle_beta   89.98830922
_cell_angle_gamma   90.11333337
_symmetry_Int_Tables_number   1
_chemical_formula_structural   Hf5Th8Sc7Sn16
_chemical_formula_sum   'Hf5 Th8 Sc7 Sn16'
_cell_volume   930.76701626
_cell_formula_units_Z   1
loop_
 _symmetry_equiv_pos_site_id
 _symmetry_equiv_pos_as_xyz
  1  'x, y, z'
loop_
 _atom_site_type_symbol
 _atom_site_label
 _atom_site_symmetry_multiplicity
 _atom_site_fract_x
 _atom_site_fract_y
 _atom_site_fract_z
 _atom_site_occupancy
  Hf  Hf0  1  0.349491  0.839844  0.872244  1
  Hf  Hf1  1  0.178733  0.498518  0.750587  1
  Hf  Hf2  1  0.674995  0.001921  0.751317  1
  Hf  Hf3  1  0.822721  0.503173  0.249937  1
  Hf  Hf4  1  0.322617  0.997153  0.249747  1
  Th  Th5  1  0.513653  0.325158  0.905801  1
  Th  Th6  1  0.013552  0.174334  0.595008  1
  Th  Th7  1  0.486584  0.674623  0.405810  1
  Th  Th8  1  0.985968  0.826070  0.094276  1
  Th  Th9  1  0.486231  0.675548  0.092868  1
  Th  Th10  1  0.985862  0.825490  0.405309  1
  Th  Th11  1  0.513552  0.325421  0.594811  1
  Th  Th12  1  0.014941  0.172178  0.905437  1
  Sc  Sc13  1  0.849353  0.659704  0.626943  1
  Sc  Sc14  1  0.650069  0.159327  0.373302  1
  Sc  Sc15  1  0.150777  0.339895  0.126237  1
  Sc  Sc16  1  0.650716  0.159889  0.126853  1
  Sc  Sc17  1  0.150925  0.340685  0.373303  1
  Sc  Sc18  1  0.349708  0.841534  0.626468  1
  Sc  Sc19  1  0.849425  0.659606  0.873847  1
  Sn  Sn20  1  0.314673  0.045686  0.044210  1
  Sn  Sn21  1  0.814185  0.453600  0.454450  1
  Sn  Sn22  1  0.686180  0.953631  0.546043  1
  Sn  Sn23  1  0.186592  0.546761  0.954438  1
  Sn  Sn24  1  0.683919  0.953362  0.954371  1
  Sn  Sn25  1  0.185531  0.546301  0.546105  1
  Sn  Sn26  1  0.313670  0.046477  0.454407  1
  Sn  Sn27  1  0.814763  0.454164  0.045484  1
  Sn  Sn28  1  0.543988  0.631269  0.749780  1
  Sn  Sn29  1  0.044015  0.867956  0.750471  1
  Sn  Sn30  1  0.456761  0.368506  0.249904  1
  Sn  Sn31  1  0.956691  0.131988  0.249900  1
  Sn  Sn32  1  0.317776  0.142906  0.750258  1
  Sn  Sn33  1  0.818471  0.357430  0.750616  1
  Sn  Sn34  1  0.680847  0.857241  0.249854  1
  Sn  Sn35  1  0.182065  0.642651  0.249604  1
