# generated using pymatgen
data_La4Zn4SnRh9
_symmetry_space_group_name_H-M   'P 1'
_cell_length_a   12.73317952
_cell_length_b   12.73317961
_cell_length_c   12.73318009
_cell_angle_alpha   25.56319205
_cell_angle_beta   25.56319172
_cell_angle_gamma   25.56319043
_symmetry_Int_Tables_number   1
_chemical_formula_structural   La4Zn4SnRh9
_chemical_formula_sum   'La4 Zn4 Sn1 Rh9'
_cell_volume   338.41943522
_cell_formula_units_Z   1
loop_
 _symmetry_equiv_pos_site_id
 _symmetry_equiv_pos_as_xyz
  1  'x, y, z'
loop_
 _atom_site_type_symbol
 _atom_site_label
 _atom_site_symmetry_multiplicity
 _atom_site_fract_x
 _atom_site_fract_y
 _atom_site_fract_z
 _atom_site_occupancy
  La  La0  1  0.951412  0.951412  0.951412  1
  La  La1  1  0.048588  0.048588  0.048588  1
  La  La2  1  0.856691  0.856691  0.856691  1
  La  La3  1  0.143309  0.143309  0.143309  1
  Zn  Zn4  1  0.720785  0.720785  0.720785  1
  Zn  Zn5  1  0.279215  0.279215  0.279215  1
  Zn  Zn6  1  0.611204  0.611204  0.611204  1
  Zn  Zn7  1  0.388796  0.388796  0.388796  1
  Sn  Sn8  1  0.500000  0.500000  0.500000  1
  Rh  Rh9  1  0.500000  0.500000  0.000000  1
  Rh  Rh10  1  0.000000  0.500000  0.500000  1
  Rh  Rh11  1  0.500000  0.000000  0.500000  1
  Rh  Rh12  1  0.385543  0.899890  0.385543  1
  Rh  Rh13  1  0.385543  0.385543  0.899890  1
  Rh  Rh14  1  0.899890  0.385543  0.385543  1
  Rh  Rh15  1  0.614457  0.100110  0.614457  1
  Rh  Rh16  1  0.614457  0.614457  0.100110  1
  Rh  Rh17  1  0.100110  0.614457  0.614457  1
