# generated using pymatgen
data_Tl4(Pd3Au)3
_symmetry_space_group_name_H-M   'P 1'
_cell_length_a   7.18376914
_cell_length_b   7.18376923
_cell_length_c   7.18376989
_cell_angle_alpha   107.33604982
_cell_angle_beta   107.33604363
_cell_angle_gamma   113.83154481
_symmetry_Int_Tables_number   1
_chemical_formula_structural   Tl4(Pd3Au)3
_chemical_formula_sum   'Tl4 Pd9 Au3'
_cell_volume   284.13825683
_cell_formula_units_Z   1
loop_
 _symmetry_equiv_pos_site_id
 _symmetry_equiv_pos_as_xyz
  1  'x, y, z'
loop_
 _atom_site_type_symbol
 _atom_site_label
 _atom_site_symmetry_multiplicity
 _atom_site_fract_x
 _atom_site_fract_y
 _atom_site_fract_z
 _atom_site_occupancy
  Tl  Tl0  1  0.242294  0.242294  0.484589  1
  Tl  Tl1  1  0.757706  0.757706  0.515411  1
  Tl  Tl2  1  0.242294  0.757706  0.000000  1
  Tl  Tl3  1  0.757706  0.242294  0.000000  1
  Pd  Pd4  1  0.505206  0.255569  0.249636  1
  Pd  Pd5  1  0.494794  0.744431  0.750364  1
  Pd  Pd6  1  0.005932  0.255569  0.750364  1
  Pd  Pd7  1  0.255569  0.005932  0.750364  1
  Pd  Pd8  1  0.994068  0.744431  0.249636  1
  Pd  Pd9  1  0.744431  0.994068  0.249636  1
  Pd  Pd10  1  0.255569  0.505206  0.249636  1
  Pd  Pd11  1  0.744431  0.494794  0.750364  1
  Pd  Pd12  1  0.000000  0.000000  0.000000  1
  Au  Au13  1  0.500000  0.000000  0.500000  1
  Au  Au14  1  0.000000  0.500000  0.500000  1
  Au  Au15  1  0.500000  0.500000  0.000000  1
