# generated using pymatgen
data_Ac2B4IrOs3
_symmetry_space_group_name_H-M   'P 1'
_cell_length_a   7.06617591
_cell_length_b   6.17410567
_cell_length_c   5.73117536
_cell_angle_alpha   72.70851904
_cell_angle_beta   56.53943893
_cell_angle_gamma   50.76836777
_symmetry_Int_Tables_number   1
_chemical_formula_structural   Ac2B4IrOs3
_chemical_formula_sum   'Ac2 B4 Ir1 Os3'
_cell_volume   161.06417490
_cell_formula_units_Z   1
loop_
 _symmetry_equiv_pos_site_id
 _symmetry_equiv_pos_as_xyz
  1  'x, y, z'
loop_
 _atom_site_type_symbol
 _atom_site_label
 _atom_site_symmetry_multiplicity
 _atom_site_fract_x
 _atom_site_fract_y
 _atom_site_fract_z
 _atom_site_occupancy
  Ac  Ac0  1  0.001929  0.001929  0.998071  1
  Ac  Ac1  1  0.249740  0.249740  0.250260  1
  B  B2  1  0.322744  0.671498  0.320595  1
  B  B3  1  0.671498  0.322744  0.685163  1
  B  B4  1  0.578028  0.924814  0.576649  1
  B  B5  1  0.924814  0.578028  0.920509  1
  Ir  Ir6  1  0.634750  0.634750  0.365250  1
  Os  Os7  1  0.365611  0.365611  0.634389  1
  Os  Os8  1  0.615141  0.615141  0.884859  1
  Os  Os9  1  0.885745  0.885745  0.614255  1
