# generated using pymatgen
data_EuSb12(IrOs)2
_symmetry_space_group_name_H-M   'P 1'
_cell_length_a   8.17464879
_cell_length_b   8.17464935
_cell_length_c   8.15977474
_cell_angle_alpha   109.46297578
_cell_angle_beta   109.47986879
_cell_angle_gamma   109.54455275
_symmetry_Int_Tables_number   1
_chemical_formula_structural   EuSb12(IrOs)2
_chemical_formula_sum   'Eu1 Sb12 Ir2 Os2'
_cell_volume   419.37109656
_cell_formula_units_Z   1
loop_
 _symmetry_equiv_pos_site_id
 _symmetry_equiv_pos_as_xyz
  1  'x, y, z'
loop_
 _atom_site_type_symbol
 _atom_site_label
 _atom_site_symmetry_multiplicity
 _atom_site_fract_x
 _atom_site_fract_y
 _atom_site_fract_z
 _atom_site_occupancy
  Eu  Eu0  1  0.000000  0.000000  0.000000  1
  Sb  Sb1  1  0.338954  0.157170  0.496124  1
  Sb  Sb2  1  0.341636  0.845133  0.186770  1
  Sb  Sb3  1  0.658364  0.154867  0.813230  1
  Sb  Sb4  1  0.815496  0.660716  0.157116  1
  Sb  Sb5  1  0.157586  0.496407  0.342024  1
  Sb  Sb6  1  0.503600  0.658381  0.842884  1
  Sb  Sb7  1  0.845617  0.184439  0.342024  1
  Sb  Sb8  1  0.661046  0.842830  0.503876  1
  Sb  Sb9  1  0.184504  0.339284  0.842884  1
  Sb  Sb10  1  0.154383  0.815561  0.657976  1
  Sb  Sb11  1  0.496400  0.341619  0.157116  1
  Sb  Sb12  1  0.842414  0.503593  0.657976  1
  Ir  Ir13  1  0.000000  0.500000  0.000000  1
  Ir  Ir14  1  0.500000  0.000000  0.000000  1
  Os  Os15  1  0.500000  0.500000  0.500000  1
  Os  Os16  1  0.000000  0.000000  0.500000  1
