# generated using pymatgen
data_Dy3Lu13(InIr)4
_symmetry_space_group_name_H-M   'P 1'
_cell_length_a   9.51801625
_cell_length_b   9.51759790
_cell_length_c   9.50937268
_cell_angle_alpha   60.03149746
_cell_angle_beta   59.99012406
_cell_angle_gamma   59.94138143
_symmetry_Int_Tables_number   1
_chemical_formula_structural   Dy3Lu13(InIr)4
_chemical_formula_sum   'Dy3 Lu13 In4 Ir4'
_cell_volume   608.95986326
_cell_formula_units_Z   1
loop_
 _symmetry_equiv_pos_site_id
 _symmetry_equiv_pos_as_xyz
  1  'x, y, z'
loop_
 _atom_site_type_symbol
 _atom_site_label
 _atom_site_symmetry_multiplicity
 _atom_site_fract_x
 _atom_site_fract_y
 _atom_site_fract_z
 _atom_site_occupancy
  Dy  Dy0  1  0.190626  0.809374  0.190626  1
  Dy  Dy1  1  0.812174  0.812805  0.187098  1
  Dy  Dy2  1  0.187098  0.187923  0.812174  1
  Lu  Lu3  1  0.600305  0.597151  0.597174  1
  Lu  Lu4  1  0.600187  0.599316  0.203984  1
  Lu  Lu5  1  0.597174  0.205370  0.600305  1
  Lu  Lu6  1  0.203984  0.596512  0.600187  1
  Lu  Lu7  1  0.058753  0.440196  0.440443  1
  Lu  Lu8  1  0.440443  0.060608  0.058753  1
  Lu  Lu9  1  0.440477  0.059523  0.440477  1
  Lu  Lu10  1  0.059097  0.440903  0.059097  1
  Lu  Lu11  1  0.441571  0.441008  0.057878  1
  Lu  Lu12  1  0.057878  0.059544  0.441571  1
  Lu  Lu13  1  0.192674  0.806948  0.806964  1
  Lu  Lu14  1  0.806964  0.193413  0.192674  1
  Lu  Lu15  1  0.809415  0.190585  0.809415  1
  In  In16  1  0.833497  0.833618  0.833202  1
  In  In17  1  0.832370  0.833411  0.501855  1
  In  In18  1  0.833202  0.499683  0.833497  1
  In  In19  1  0.501855  0.832364  0.832370  1
  Ir  Ir20  1  0.392703  0.390764  0.389095  1
  Ir  Ir21  1  0.391353  0.392577  0.827106  1
  Ir  Ir22  1  0.389095  0.827439  0.392703  1
  Ir  Ir23  1  0.827106  0.388965  0.391353  1
