# generated using pymatgen
data_Nb3Al2GaRu6
_symmetry_space_group_name_H-M   'P 1'
_cell_length_a   4.39441000
_cell_length_b   6.20935500
_cell_length_c   13.15966100
_cell_angle_alpha   90.00223111
_cell_angle_beta   90.00069602
_cell_angle_gamma   89.99747113
_symmetry_Int_Tables_number   1
_chemical_formula_structural   Nb3Al2GaRu6
_chemical_formula_sum   'Nb6 Al4 Ga2 Ru12'
_cell_volume   359.08045401
_cell_formula_units_Z   2
loop_
 _symmetry_equiv_pos_site_id
 _symmetry_equiv_pos_as_xyz
  1  'x, y, z'
loop_
 _atom_site_type_symbol
 _atom_site_label
 _atom_site_symmetry_multiplicity
 _atom_site_fract_x
 _atom_site_fract_y
 _atom_site_fract_z
 _atom_site_occupancy
  Nb  Nb0  1  0.000002  0.500009  0.000525  1
  Nb  Nb1  1  0.499857  0.999992  0.166147  1
  Nb  Nb2  1  0.999862  0.500006  0.332794  1
  Nb  Nb3  1  0.500001  0.999998  0.499966  1
  Nb  Nb4  1  0.000143  0.500007  0.666697  1
  Nb  Nb5  1  0.500141  0.999986  0.833877  1
  Al  Al6  1  0.999846  0.000006  0.333508  1
  Al  Al7  1  0.500005  0.499990  0.500065  1
  Al  Al8  1  0.000150  0.000014  0.666598  1
  Al  Al9  1  0.500149  0.499980  0.833179  1
  Ga  Ga10  1  0.000003  0.000018  0.999891  1
  Ga  Ga11  1  0.499836  0.499989  0.166785  1
  Ru  Ru12  1  0.500046  0.251687  0.999120  1
  Ru  Ru13  1  0.499967  0.748312  0.999120  1
  Ru  Ru14  1  0.999798  0.248291  0.167518  1
  Ru  Ru15  1  0.999885  0.751709  0.167517  1
  Ru  Ru16  1  0.499897  0.249309  0.334106  1
  Ru  Ru17  1  0.499843  0.750695  0.334103  1
  Ru  Ru18  1  0.999972  0.249675  0.499940  1
  Ru  Ru19  1  0.000025  0.750326  0.499941  1
  Ru  Ru20  1  0.500166  0.250292  0.666694  1
  Ru  Ru21  1  0.500100  0.749707  0.666693  1
  Ru  Ru22  1  0.000119  0.250708  0.832606  1
  Ru  Ru23  1  0.000192  0.749294  0.832609  1
