# generated using pymatgen
data_DyY7Al8
_symmetry_space_group_name_H-M   'P 1'
_cell_length_a   5.62998500
_cell_length_b   5.86235014
_cell_length_c   11.44599928
_cell_angle_alpha   90.02543018
_cell_angle_beta   90.00000000
_cell_angle_gamma   90.00000000
_symmetry_Int_Tables_number   1
_chemical_formula_structural   DyY7Al8
_chemical_formula_sum   'Dy1 Y7 Al8'
_cell_volume   377.77452099
_cell_formula_units_Z   1
loop_
 _symmetry_equiv_pos_site_id
 _symmetry_equiv_pos_as_xyz
  1  'x, y, z'
loop_
 _atom_site_type_symbol
 _atom_site_label
 _atom_site_symmetry_multiplicity
 _atom_site_fract_x
 _atom_site_fract_y
 _atom_site_fract_z
 _atom_site_occupancy
  Dy  Dy0  1  0.750000  0.599147  0.668067  1
  Y  Y1  1  0.750000  0.163433  0.483058  1
  Y  Y2  1  0.250000  0.836799  0.517251  1
  Y  Y3  1  0.250000  0.163161  0.017098  1
  Y  Y4  1  0.750000  0.836887  0.982803  1
  Y  Y5  1  0.750000  0.400253  0.168077  1
  Y  Y6  1  0.250000  0.599814  0.831656  1
  Y  Y7  1  0.250000  0.400308  0.331918  1
  Al  Al8  1  0.750000  0.662654  0.401578  1
  Al  Al9  1  0.250000  0.337554  0.598514  1
  Al  Al10  1  0.250000  0.662552  0.098538  1
  Al  Al11  1  0.750000  0.337440  0.901482  1
  Al  Al12  1  0.500025  0.931724  0.249984  1
  Al  Al13  1  0.999892  0.068276  0.749996  1
  Al  Al14  1  0.500108  0.068276  0.749996  1
  Al  Al15  1  0.999975  0.931724  0.249984  1
