# generated using pymatgen
data_SrCd2Ir4PbO14
_symmetry_space_group_name_H-M   'P 1'
_cell_length_a   7.33335177
_cell_length_b   7.33335102
_cell_length_c   7.38447808
_cell_angle_alpha   59.52165394
_cell_angle_beta   59.52166030
_cell_angle_gamma   59.37459799
_symmetry_Int_Tables_number   1
_chemical_formula_structural   SrCd2Ir4PbO14
_chemical_formula_sum   'Sr1 Cd2 Ir4 Pb1 O14'
_cell_volume   277.43850074
_cell_formula_units_Z   1
loop_
 _symmetry_equiv_pos_site_id
 _symmetry_equiv_pos_as_xyz
  1  'x, y, z'
loop_
 _atom_site_type_symbol
 _atom_site_label
 _atom_site_symmetry_multiplicity
 _atom_site_fract_x
 _atom_site_fract_y
 _atom_site_fract_z
 _atom_site_occupancy
  Sr  Sr0  1  0.125000  0.125000  0.125000  1
  Cd  Cd1  1  0.625000  0.125000  0.125000  1
  Cd  Cd2  1  0.125000  0.625000  0.125000  1
  Ir  Ir3  1  0.125000  0.625000  0.625000  1
  Ir  Ir4  1  0.625000  0.125000  0.625000  1
  Ir  Ir5  1  0.625000  0.625000  0.125000  1
  Ir  Ir6  1  0.625000  0.625000  0.625000  1
  Pb  Pb7  1  0.125000  0.125000  0.625000  1
  O  O8  1  0.694571  0.694571  0.307605  1
  O  O9  1  0.298568  0.298568  0.691126  1
  O  O10  1  0.710222  0.300951  0.687310  1
  O  O11  1  0.300038  0.692933  0.302955  1
  O  O12  1  0.300951  0.710222  0.687310  1
  O  O13  1  0.692933  0.300038  0.302955  1
  O  O14  1  0.555429  0.555429  0.942395  1
  O  O15  1  0.951432  0.951432  0.558874  1
  O  O16  1  0.539778  0.949049  0.562690  1
  O  O17  1  0.949962  0.557067  0.947045  1
  O  O18  1  0.949049  0.539778  0.562690  1
  O  O19  1  0.557067  0.949962  0.947045  1
  O  O20  1  0.263747  0.263747  0.251934  1
  O  O21  1  0.986253  0.986253  0.998066  1
