# generated using pymatgen
data_La13Pr3(CoHg3)2
_symmetry_space_group_name_H-M   'P 1'
_cell_length_a   10.80920776
_cell_length_b   10.80920877
_cell_length_c   7.34260843
_cell_angle_alpha   89.93750001
_cell_angle_beta   90.06250158
_cell_angle_gamma   120.17167112
_symmetry_Int_Tables_number   1
_chemical_formula_structural   La13Pr3(CoHg3)2
_chemical_formula_sum   'La13 Pr3 Co2 Hg6'
_cell_volume   741.67655269
_cell_formula_units_Z   1
loop_
 _symmetry_equiv_pos_site_id
 _symmetry_equiv_pos_as_xyz
  1  'x, y, z'
loop_
 _atom_site_type_symbol
 _atom_site_label
 _atom_site_symmetry_multiplicity
 _atom_site_fract_x
 _atom_site_fract_y
 _atom_site_fract_z
 _atom_site_occupancy
  La  La0  1  0.169227  0.830773  0.977485  1
  La  La1  1  0.339309  0.169695  0.477888  1
  La  La2  1  0.830305  0.660691  0.477888  1
  La  La3  1  0.170262  0.339758  0.978161  1
  La  La4  1  0.660242  0.829738  0.978161  1
  La  La5  1  0.831510  0.168490  0.476293  1
  La  La6  1  0.333612  0.666388  0.704017  1
  La  La7  1  0.666748  0.333252  0.204162  1
  La  La8  1  0.455782  0.544218  0.290719  1
  La  La9  1  0.910580  0.455676  0.787774  1
  La  La10  1  0.544324  0.089420  0.787774  1
  La  La11  1  0.455880  0.911848  0.288563  1
  La  La12  1  0.088152  0.544120  0.288563  1
  Pr  Pr13  1  0.542827  0.457173  0.791463  1
  Pr  Pr14  1  0.000411  0.999589  0.294409  1
  Pr  Pr15  1  0.000053  0.999947  0.795143  1
  Co  Co16  1  0.332438  0.667562  0.051846  1
  Co  Co17  1  0.668333  0.331667  0.550589  1
  Hg  Hg18  1  0.167277  0.832723  0.538462  1
  Hg  Hg19  1  0.334429  0.168326  0.036766  1
  Hg  Hg20  1  0.831674  0.665571  0.036766  1
  Hg  Hg21  1  0.167472  0.333834  0.538299  1
  Hg  Hg22  1  0.666166  0.832528  0.538299  1
  Hg  Hg23  1  0.832986  0.167014  0.036505  1
