# generated using pymatgen
data_Y3Tm(HfRh)4
_symmetry_space_group_name_H-M   'P 1'
_cell_length_a   4.57887600
_cell_length_b   7.02498938
_cell_length_c   8.26213669
_cell_angle_alpha   90.01256402
_cell_angle_beta   90.00000000
_cell_angle_gamma   90.00000000
_symmetry_Int_Tables_number   1
_chemical_formula_structural   Y3Tm(HfRh)4
_chemical_formula_sum   'Y3 Tm1 Hf4 Rh4'
_cell_volume   265.76447006
_cell_formula_units_Z   1
loop_
 _symmetry_equiv_pos_site_id
 _symmetry_equiv_pos_as_xyz
  1  'x, y, z'
loop_
 _atom_site_type_symbol
 _atom_site_label
 _atom_site_symmetry_multiplicity
 _atom_site_fract_x
 _atom_site_fract_y
 _atom_site_fract_z
 _atom_site_occupancy
  Y  Y0  1  0.250000  0.516248  0.178771  1
  Y  Y1  1  0.750000  0.483989  0.821900  1
  Y  Y2  1  0.750000  0.984123  0.677556  1
  Tm  Tm3  1  0.250000  0.017081  0.323135  1
  Hf  Hf4  1  0.250000  0.640915  0.571620  1
  Hf  Hf5  1  0.750000  0.358630  0.426126  1
  Hf  Hf6  1  0.750000  0.859727  0.075199  1
  Hf  Hf7  1  0.250000  0.139551  0.928439  1
  Rh  Rh8  1  0.250000  0.770633  0.911037  1
  Rh  Rh9  1  0.750000  0.228724  0.090475  1
  Rh  Rh10  1  0.750000  0.730613  0.409600  1
  Rh  Rh11  1  0.250000  0.269767  0.586142  1
