# generated using pymatgen
data_Li2V3Ni9As7
_symmetry_space_group_name_H-M   'P 1'
_cell_length_a   9.43453100
_cell_length_b   9.43453080
_cell_length_c   3.69016100
_cell_angle_alpha   90.00000000
_cell_angle_beta   90.00000000
_cell_angle_gamma   120.00000420
_symmetry_Int_Tables_number   1
_chemical_formula_structural   Li2V3Ni9As7
_chemical_formula_sum   'Li2 V3 Ni9 As7'
_cell_volume   284.45695083
_cell_formula_units_Z   1
loop_
 _symmetry_equiv_pos_site_id
 _symmetry_equiv_pos_as_xyz
  1  'x, y, z'
loop_
 _atom_site_type_symbol
 _atom_site_label
 _atom_site_symmetry_multiplicity
 _atom_site_fract_x
 _atom_site_fract_y
 _atom_site_fract_z
 _atom_site_occupancy
  Li  Li0  1  0.333333  0.666667  0.000000  1
  Li  Li1  1  0.000000  0.000000  0.500000  1
  V  V2  1  0.761667  0.553141  0.500000  1
  V  V3  1  0.446859  0.208525  0.500000  1
  V  V4  1  0.791475  0.238333  0.500000  1
  Ni  Ni5  1  0.281654  0.381250  0.500000  1
  Ni  Ni6  1  0.618750  0.900404  0.500000  1
  Ni  Ni7  1  0.099596  0.718346  0.500000  1
  Ni  Ni8  1  0.504343  0.453569  0.000000  1
  Ni  Ni9  1  0.546431  0.050774  0.000000  1
  Ni  Ni10  1  0.949226  0.495657  0.000000  1
  Ni  Ni11  1  0.721431  0.764990  0.000000  1
  Ni  Ni12  1  0.235010  0.956441  0.000000  1
  Ni  Ni13  1  0.043559  0.278569  0.000000  1
  As  As14  1  0.958333  0.751981  0.000000  1
  As  As15  1  0.248019  0.206352  0.000000  1
  As  As16  1  0.793648  0.041667  0.000000  1
  As  As17  1  0.666667  0.333333  0.000000  1
  As  As18  1  0.539115  0.624675  0.500000  1
  As  As19  1  0.375325  0.914440  0.500000  1
  As  As20  1  0.085560  0.460885  0.500000  1
