# generated using pymatgen
data_Y12InCo4Cu
_symmetry_space_group_name_H-M   'P 1'
_cell_length_a   8.39057887
_cell_length_b   8.39057903
_cell_length_c   8.39057887
_cell_angle_alpha   110.74331065
_cell_angle_beta   110.98414181
_cell_angle_gamma   106.72082799
_symmetry_Int_Tables_number   1
_chemical_formula_structural   Y12InCo4Cu
_chemical_formula_sum   'Y12 In1 Co4 Cu1'
_cell_volume   453.94703468
_cell_formula_units_Z   1
loop_
 _symmetry_equiv_pos_site_id
 _symmetry_equiv_pos_as_xyz
  1  'x, y, z'
loop_
 _atom_site_type_symbol
 _atom_site_label
 _atom_site_symmetry_multiplicity
 _atom_site_fract_x
 _atom_site_fract_y
 _atom_site_fract_z
 _atom_site_occupancy
  Y  Y0  1  0.416731  0.217305  0.199426  1
  Y  Y1  1  0.583269  0.782695  0.800574  1
  Y  Y2  1  0.017880  0.217305  0.800574  1
  Y  Y3  1  0.982120  0.782695  0.199426  1
  Y  Y4  1  0.186132  0.290727  0.476859  1
  Y  Y5  1  0.813868  0.709273  0.523141  1
  Y  Y6  1  0.186132  0.709273  0.895406  1
  Y  Y7  1  0.813868  0.290727  0.104594  1
  Y  Y8  1  0.314670  0.619107  0.304438  1
  Y  Y9  1  0.685330  0.380893  0.695562  1
  Y  Y10  1  0.314670  0.010233  0.695562  1
  Y  Y11  1  0.685330  0.989767  0.304438  1
  In  In12  1  0.500000  0.500000  0.000000  1
  Co  Co13  1  0.380815  0.000000  0.380815  1
  Co  Co14  1  0.619185  0.000000  0.619185  1
  Co  Co15  1  0.111045  0.611045  0.500000  1
  Co  Co16  1  0.888955  0.388955  0.500000  1
  Cu  Cu17  1  0.000000  0.000000  0.000000  1
