# generated using pymatgen
data_Er19LuBi12
_symmetry_space_group_name_H-M   'P 1'
_cell_length_a   8.19476483
_cell_length_b   9.46799910
_cell_length_c   11.94338003
_cell_angle_alpha   89.99575582
_cell_angle_beta   90.04424852
_cell_angle_gamma   90.00578392
_symmetry_Int_Tables_number   1
_chemical_formula_structural   Er19LuBi12
_chemical_formula_sum   'Er19 Lu1 Bi12'
_cell_volume   926.66299651
_cell_formula_units_Z   1
loop_
 _symmetry_equiv_pos_site_id
 _symmetry_equiv_pos_as_xyz
  1  'x, y, z'
loop_
 _atom_site_type_symbol
 _atom_site_label
 _atom_site_symmetry_multiplicity
 _atom_site_fract_x
 _atom_site_fract_y
 _atom_site_fract_z
 _atom_site_occupancy
  Er  Er0  1  0.353878  0.749585  0.216506  1
  Er  Er1  1  0.852903  0.749372  0.283103  1
  Er  Er2  1  0.646304  0.249691  0.783237  1
  Er  Er3  1  0.146503  0.249820  0.716632  1
  Er  Er4  1  0.191942  0.935395  0.440846  1
  Er  Er5  1  0.308433  0.064742  0.941122  1
  Er  Er6  1  0.807956  0.435416  0.559040  1
  Er  Er7  1  0.307724  0.435470  0.940847  1
  Er  Er8  1  0.808074  0.064646  0.559154  1
  Er  Er9  1  0.692041  0.935390  0.058966  1
  Er  Er10  1  0.191953  0.564606  0.440843  1
  Er  Er11  1  0.476168  0.249831  0.488572  1
  Er  Er12  1  0.975896  0.250010  0.011319  1
  Er  Er13  1  0.523831  0.749962  0.511258  1
  Er  Er14  1  0.023245  0.749635  0.988826  1
  Er  Er15  1  0.313740  0.249983  0.218021  1
  Er  Er16  1  0.813953  0.249984  0.282049  1
  Er  Er17  1  0.686054  0.749651  0.782202  1
  Er  Er18  1  0.186085  0.749948  0.718065  1
  Lu  Lu19  1  0.692331  0.566421  0.059134  1
  Bi  Bi20  1  0.405733  0.749520  0.957623  1
  Bi  Bi21  1  0.905579  0.750050  0.542421  1
  Bi  Bi22  1  0.595002  0.252129  0.042856  1
  Bi  Bi23  1  0.094354  0.249994  0.457486  1
  Bi  Bi24  1  0.566484  0.995906  0.325599  1
  Bi  Bi25  1  0.066189  0.503803  0.174144  1
  Bi  Bi26  1  0.433800  0.495983  0.674363  1
  Bi  Bi27  1  0.933487  0.003816  0.825853  1
  Bi  Bi28  1  0.433616  0.003804  0.674299  1
  Bi  Bi29  1  0.933751  0.495815  0.825871  1
  Bi  Bi30  1  0.566620  0.503799  0.325586  1
  Bi  Bi31  1  0.066373  0.995821  0.174155  1
