# generated using pymatgen
data_SmHo5NiIr17
_symmetry_space_group_name_H-M   'P 1'
_cell_length_a   5.26034000
_cell_length_b   5.26034080
_cell_length_c   17.41651300
_cell_angle_alpha   90.00000000
_cell_angle_beta   90.00000000
_cell_angle_gamma   119.99999495
_symmetry_Int_Tables_number   1
_chemical_formula_structural   SmHo5NiIr17
_chemical_formula_sum   'Sm1 Ho5 Ni1 Ir17'
_cell_volume   417.36839516
_cell_formula_units_Z   1
loop_
 _symmetry_equiv_pos_site_id
 _symmetry_equiv_pos_as_xyz
  1  'x, y, z'
loop_
 _atom_site_type_symbol
 _atom_site_label
 _atom_site_symmetry_multiplicity
 _atom_site_fract_x
 _atom_site_fract_y
 _atom_site_fract_z
 _atom_site_occupancy
  Sm  Sm0  1  0.666667  0.333333  0.250000  1
  Ho  Ho1  1  0.333333  0.666667  0.959091  1
  Ho  Ho2  1  0.666667  0.333333  0.041051  1
  Ho  Ho3  1  0.666667  0.333333  0.458949  1
  Ho  Ho4  1  0.333333  0.666667  0.540909  1
  Ho  Ho5  1  0.333333  0.666667  0.750000  1
  Ni  Ni6  1  0.333333  0.666667  0.250000  1
  Ir  Ir7  1  0.168937  0.831063  0.372203  1
  Ir  Ir8  1  0.168937  0.337872  0.372203  1
  Ir  Ir9  1  0.662128  0.831063  0.372203  1
  Ir  Ir10  1  0.832877  0.167123  0.625061  1
  Ir  Ir11  1  0.832877  0.665754  0.625061  1
  Ir  Ir12  1  0.334246  0.167123  0.625061  1
  Ir  Ir13  1  0.832877  0.167123  0.874939  1
  Ir  Ir14  1  0.832877  0.665754  0.874939  1
  Ir  Ir15  1  0.334246  0.167123  0.874939  1
  Ir  Ir16  1  0.168937  0.831063  0.127797  1
  Ir  Ir17  1  0.168937  0.337872  0.127797  1
  Ir  Ir18  1  0.662128  0.831063  0.127797  1
  Ir  Ir19  1  0.666667  0.333333  0.750000  1
  Ir  Ir20  1  0.000000  0.000000  0.250000  1
  Ir  Ir21  1  0.000000  0.000000  0.750000  1
  Ir  Ir22  1  0.000000  0.000000  0.497564  1
  Ir  Ir23  1  0.000000  0.000000  0.002436  1
