# generated using pymatgen
data_La5Pr5(Ir2Ru)2
_symmetry_space_group_name_H-M   'P 1'
_cell_length_a   11.33623600
_cell_length_b   11.36957600
_cell_length_c   6.68092380
_cell_angle_alpha   90.00000000
_cell_angle_beta   89.38402792
_cell_angle_gamma   90.00000000
_symmetry_Int_Tables_number   1
_chemical_formula_structural   La5Pr5(Ir2Ru)2
_chemical_formula_sum   'La10 Pr10 Ir8 Ru4'
_cell_volume   861.04246032
_cell_formula_units_Z   2
loop_
 _symmetry_equiv_pos_site_id
 _symmetry_equiv_pos_as_xyz
  1  'x, y, z'
loop_
 _atom_site_type_symbol
 _atom_site_label
 _atom_site_symmetry_multiplicity
 _atom_site_fract_x
 _atom_site_fract_y
 _atom_site_fract_z
 _atom_site_occupancy
  La  La0  1  0.294216  0.090494  0.388529  1
  La  La1  1  0.294216  0.909506  0.888529  1
  La  La2  1  0.706399  0.090209  0.890669  1
  La  La3  1  0.706399  0.909791  0.390669  1
  La  La4  1  0.591997  0.793051  0.889967  1
  La  La5  1  0.591997  0.206949  0.389967  1
  La  La6  1  0.409430  0.793628  0.390185  1
  La  La7  1  0.409430  0.206372  0.890185  1
  La  La8  1  0.204079  0.410846  0.608796  1
  La  La9  1  0.204079  0.589154  0.108796  1
  Pr  Pr10  1  0.794795  0.412644  0.111842  1
  Pr  Pr11  1  0.794795  0.587356  0.611842  1
  Pr  Pr12  1  0.909728  0.706039  0.112957  1
  Pr  Pr13  1  0.909728  0.293961  0.612957  1
  Pr  Pr14  1  0.086895  0.708002  0.612777  1
  Pr  Pr15  1  0.086895  0.291998  0.112777  1
  Pr  Pr16  1  0.999596  0.000346  0.498982  1
  Pr  Pr17  1  0.999596  0.999654  0.998982  1
  Pr  Pr18  1  0.500606  0.498986  0.000582  1
  Pr  Pr19  1  0.500606  0.501014  0.500582  1
  Ir  Ir20  1  0.846265  0.152912  0.248240  1
  Ir  Ir21  1  0.846265  0.847088  0.748240  1
  Ir  Ir22  1  0.153195  0.152346  0.746439  1
  Ir  Ir23  1  0.153195  0.847654  0.246439  1
  Ir  Ir24  1  0.653070  0.346755  0.747826  1
  Ir  Ir25  1  0.653070  0.653245  0.247826  1
  Ir  Ir26  1  0.346763  0.346286  0.250447  1
  Ir  Ir27  1  0.346763  0.653714  0.750447  1
  Ru  Ru28  1  0.499999  0.000478  0.123025  1
  Ru  Ru29  1  0.499999  0.999522  0.623025  1
  Ru  Ru30  1  0.002969  0.499688  0.878738  1
  Ru  Ru31  1  0.002969  0.500312  0.378738  1
