# generated using pymatgen
data_Mg4As6Ir(RuRh2)2
_symmetry_space_group_name_H-M   'P 1'
_cell_length_a   7.05098889
_cell_length_b   7.04661444
_cell_length_c   7.04661000
_cell_angle_alpha   109.29817249
_cell_angle_beta   109.58623328
_cell_angle_gamma   109.50404272
_symmetry_Int_Tables_number   1
_chemical_formula_structural   Mg4As6Ir(RuRh2)2
_chemical_formula_sum   'Mg4 As6 Ir1 Ru2 Rh4'
_cell_volume   269.60116592
_cell_formula_units_Z   1
loop_
 _symmetry_equiv_pos_site_id
 _symmetry_equiv_pos_as_xyz
  1  'x, y, z'
loop_
 _atom_site_type_symbol
 _atom_site_label
 _atom_site_symmetry_multiplicity
 _atom_site_fract_x
 _atom_site_fract_y
 _atom_site_fract_z
 _atom_site_occupancy
  Mg  Mg0  1  0.999110  0.999259  0.499305  1
  Mg  Mg1  1  0.500908  0.001151  0.001291  1
  Mg  Mg2  1  0.999110  0.499804  0.999851  1
  Mg  Mg3  1  0.500908  0.499616  0.499757  1
  As  As4  1  0.684517  0.687938  0.996578  1
  As  As5  1  0.308383  0.312150  0.996232  1
  As  As6  1  0.004215  0.688608  0.692411  1
  As  As7  1  0.004214  0.311804  0.315606  1
  As  As8  1  0.688222  0.999275  0.688947  1
  As  As9  1  0.310051  0.999244  0.310807  1
  Ir  Ir10  1  0.747679  0.249070  0.498608  1
  Ru  Ru11  1  0.999652  0.999598  0.000055  1
  Ru  Ru12  1  0.249507  0.499717  0.749790  1
  Rh  Rh13  1  0.501991  0.250915  0.751033  1
  Rh  Rh14  1  0.501990  0.750958  0.251077  1
  Rh  Rh15  1  0.750837  0.500484  0.250354  1
  Rh  Rh16  1  0.248706  0.750408  0.498299  1
