# generated using pymatgen
data_K2Mg2H12IrRh
_symmetry_space_group_name_H-M   'P 1'
_cell_length_a   7.30378259
_cell_length_b   7.30378259
_cell_length_c   7.30458900
_cell_angle_alpha   90.00000000
_cell_angle_beta   90.00000000
_cell_angle_gamma   89.67378671
_symmetry_Int_Tables_number   1
_chemical_formula_structural   K2Mg2H12IrRh
_chemical_formula_sum   'K4 Mg4 H24 Ir2 Rh2'
_cell_volume   389.65873906
_cell_formula_units_Z   2
loop_
 _symmetry_equiv_pos_site_id
 _symmetry_equiv_pos_as_xyz
  1  'x, y, z'
loop_
 _atom_site_type_symbol
 _atom_site_label
 _atom_site_symmetry_multiplicity
 _atom_site_fract_x
 _atom_site_fract_y
 _atom_site_fract_z
 _atom_site_occupancy
  K  K0  1  0.000000  0.000000  0.501372  1
  K  K1  1  0.000000  0.500000  0.998610  1
  K  K2  1  0.500000  0.000000  0.998610  1
  K  K3  1  0.000000  0.000000  0.999602  1
  Mg  Mg4  1  0.500000  0.500000  0.500851  1
  Mg  Mg5  1  0.000000  0.500000  0.500261  1
  Mg  Mg6  1  0.500000  0.000000  0.500261  1
  Mg  Mg7  1  0.500000  0.500000  0.003245  1
  H  H8  1  0.726294  0.726294  0.509121  1
  H  H9  1  0.273706  0.273706  0.509121  1
  H  H10  1  0.049700  0.713696  0.713745  1
  H  H11  1  0.286304  0.950300  0.713745  1
  H  H12  1  0.713696  0.049700  0.713745  1
  H  H13  1  0.950300  0.286304  0.713745  1
  H  H14  1  0.723940  0.505616  0.724844  1
  H  H15  1  0.505616  0.723940  0.724844  1
  H  H16  1  0.494384  0.276060  0.724844  1
  H  H17  1  0.276060  0.494384  0.724844  1
  H  H18  1  0.286470  0.713530  0.950876  1
  H  H19  1  0.713530  0.286470  0.950876  1
  H  H20  1  0.716746  0.716746  0.050065  1
  H  H21  1  0.283254  0.283254  0.050065  1
  H  H22  1  0.273205  0.508563  0.274032  1
  H  H23  1  0.491437  0.726795  0.274032  1
  H  H24  1  0.508563  0.273205  0.274032  1
  H  H25  1  0.726795  0.491437  0.274032  1
  H  H26  1  0.950557  0.716549  0.283479  1
  H  H27  1  0.716549  0.950557  0.283479  1
  H  H28  1  0.283451  0.049443  0.283479  1
  H  H29  1  0.049443  0.283451  0.283479  1
  H  H30  1  0.275479  0.724521  0.494979  1
  H  H31  1  0.724521  0.275479  0.494979  1
  Ir  Ir32  1  0.717763  0.717763  0.282785  1
  Ir  Ir33  1  0.282237  0.282237  0.282785  1
  Rh  Rh34  1  0.281945  0.718055  0.718568  1
  Rh  Rh35  1  0.718055  0.281945  0.718568  1
