# generated using pymatgen
data_Ba3TmTc2O9
_symmetry_space_group_name_H-M   'P 1'
_cell_length_a   5.96532700
_cell_length_b   5.96532712
_cell_length_c   14.46226200
_cell_angle_alpha   90.00000000
_cell_angle_beta   90.00000000
_cell_angle_gamma   120.00001595
_symmetry_Int_Tables_number   1
_chemical_formula_structural   Ba3TmTc2O9
_chemical_formula_sum   'Ba6 Tm2 Tc4 O18'
_cell_volume   445.69247994
_cell_formula_units_Z   2
loop_
 _symmetry_equiv_pos_site_id
 _symmetry_equiv_pos_as_xyz
  1  'x, y, z'
loop_
 _atom_site_type_symbol
 _atom_site_label
 _atom_site_symmetry_multiplicity
 _atom_site_fract_x
 _atom_site_fract_y
 _atom_site_fract_z
 _atom_site_occupancy
  Ba  Ba0  1  0.333333  0.666667  0.594966  1
  Ba  Ba1  1  0.666667  0.333333  0.094966  1
  Ba  Ba2  1  0.666667  0.333333  0.405034  1
  Ba  Ba3  1  0.333333  0.666667  0.905034  1
  Ba  Ba4  1  0.000000  0.000000  0.750000  1
  Ba  Ba5  1  0.000000  0.000000  0.250000  1
  Tm  Tm6  1  0.000000  0.000000  0.500000  1
  Tm  Tm7  1  0.000000  0.000000  0.000000  1
  Tc  Tc8  1  0.333333  0.666667  0.336511  1
  Tc  Tc9  1  0.666667  0.333333  0.836511  1
  Tc  Tc10  1  0.666667  0.333333  0.663489  1
  Tc  Tc11  1  0.333333  0.666667  0.163489  1
  O  O12  1  0.174675  0.825325  0.087661  1
  O  O13  1  0.174675  0.349351  0.087661  1
  O  O14  1  0.650649  0.825325  0.087661  1
  O  O15  1  0.349351  0.174675  0.587661  1
  O  O16  1  0.825325  0.650649  0.912339  1
  O  O17  1  0.825325  0.174675  0.587661  1
  O  O18  1  0.825325  0.650649  0.587661  1
  O  O19  1  0.174675  0.825325  0.412339  1
  O  O20  1  0.650649  0.825325  0.412339  1
  O  O21  1  0.349351  0.174675  0.912339  1
  O  O22  1  0.825325  0.174675  0.912339  1
  O  O23  1  0.174675  0.349351  0.412339  1
  O  O24  1  0.491546  0.983091  0.250000  1
  O  O25  1  0.508454  0.491546  0.750000  1
  O  O26  1  0.983091  0.491546  0.750000  1
  O  O27  1  0.016909  0.508454  0.250000  1
  O  O28  1  0.491546  0.508454  0.250000  1
  O  O29  1  0.508454  0.016909  0.750000  1
