# generated using pymatgen
data_Pr12Ir2I17
_symmetry_space_group_name_H-M   'P 1'
_cell_length_a   10.14230517
_cell_length_b   12.15278000
_cell_length_c   12.13013496
_cell_angle_alpha   93.12373258
_cell_angle_beta   104.48286502
_cell_angle_gamma   114.98473517
_symmetry_Int_Tables_number   1
_chemical_formula_structural   Pr12Ir2I17
_chemical_formula_sum   'Pr12 Ir2 I17'
_cell_volume   1290.12253197
_cell_formula_units_Z   1
loop_
 _symmetry_equiv_pos_site_id
 _symmetry_equiv_pos_as_xyz
  1  'x, y, z'
loop_
 _atom_site_type_symbol
 _atom_site_label
 _atom_site_symmetry_multiplicity
 _atom_site_fract_x
 _atom_site_fract_y
 _atom_site_fract_z
 _atom_site_occupancy
  Pr  Pr0  1  0.058532  0.512844  0.323249  1
  Pr  Pr1  1  0.988453  0.811605  0.579208  1
  Pr  Pr2  1  0.641191  0.239444  0.284368  1
  Pr  Pr3  1  0.011547  0.188395  0.420792  1
  Pr  Pr4  1  0.216969  0.663934  0.990766  1
  Pr  Pr5  1  0.263799  0.988315  0.894069  1
  Pr  Pr6  1  0.358809  0.760556  0.715632  1
  Pr  Pr7  1  0.941468  0.487156  0.676751  1
  Pr  Pr8  1  0.736201  0.011685  0.105931  1
  Pr  Pr9  1  0.154736  0.289166  0.148729  1
  Pr  Pr10  1  0.783031  0.336066  0.009234  1
  Pr  Pr11  1  0.845264  0.710834  0.851271  1
  Ir  Ir12  1  0.103225  0.738226  0.784616  1
  Ir  Ir13  1  0.896775  0.261774  0.215384  1
  I  I14  1  0.782441  0.527962  0.417767  1
  I  I15  1  0.638578  0.417347  0.758283  1
  I  I16  1  0.842746  0.895284  0.324332  1
  I  I17  1  0.325531  0.212313  0.368517  1
  I  I18  1  0.157254  0.104716  0.675668  1
  I  I19  1  0.589650  0.054585  0.841087  1
  I  I20  1  0.754173  0.182936  0.538752  1
  I  I21  1  0.549433  0.706990  0.954006  1
  I  I22  1  0.361422  0.582653  0.241717  1
  I  I23  1  0.217559  0.472038  0.582233  1
  I  I24  1  0.056337  0.362013  0.892366  1
  I  I25  1  0.450567  0.293010  0.045994  1
  I  I26  1  0.000000  0.000000  0.000000  1
  I  I27  1  0.245827  0.817064  0.461248  1
  I  I28  1  0.410350  0.945415  0.158913  1
  I  I29  1  0.674469  0.787687  0.631483  1
  I  I30  1  0.943663  0.637987  0.107634  1
