# generated using pymatgen
data_LaThRe4(SiC)2
_symmetry_space_group_name_H-M   'P 1'
_cell_length_a   5.88435590
_cell_length_b   5.88435568
_cell_length_c   7.35413000
_cell_angle_alpha   90.00000000
_cell_angle_beta   90.00000000
_cell_angle_gamma   139.49683396
_symmetry_Int_Tables_number   1
_chemical_formula_structural   LaThRe4(SiC)2
_chemical_formula_sum   'La1 Th1 Re4 Si2 C2'
_cell_volume   165.38711165
_cell_formula_units_Z   1
loop_
 _symmetry_equiv_pos_site_id
 _symmetry_equiv_pos_as_xyz
  1  'x, y, z'
loop_
 _atom_site_type_symbol
 _atom_site_label
 _atom_site_symmetry_multiplicity
 _atom_site_fract_x
 _atom_site_fract_y
 _atom_site_fract_z
 _atom_site_occupancy
  La  La0  1  0.544173  0.455827  0.250000  1
  Th  Th1  1  0.455315  0.544685  0.750000  1
  Re  Re2  1  0.826229  0.173771  0.061249  1
  Re  Re3  1  0.174361  0.825639  0.936751  1
  Re  Re4  1  0.174361  0.825639  0.563249  1
  Re  Re5  1  0.826229  0.173771  0.438751  1
  Si  Si6  1  0.265658  0.734342  0.250000  1
  Si  Si7  1  0.733736  0.266264  0.750000  1
  C  C8  1  0.999970  0.000030  0.996413  1
  C  C9  1  0.999970  0.000030  0.503587  1
