# generated using pymatgen
data_Er11LuIn20
_symmetry_space_group_name_H-M   'P 1'
_cell_length_a   6.51653001
_cell_length_b   10.39335000
_cell_length_c   12.18963600
_cell_angle_alpha   90.00000000
_cell_angle_beta   89.99615773
_cell_angle_gamma   90.00000000
_symmetry_Int_Tables_number   1
_chemical_formula_structural   Er11LuIn20
_chemical_formula_sum   'Er11 Lu1 In20'
_cell_volume   825.58670135
_cell_formula_units_Z   1
loop_
 _symmetry_equiv_pos_site_id
 _symmetry_equiv_pos_as_xyz
  1  'x, y, z'
loop_
 _atom_site_type_symbol
 _atom_site_label
 _atom_site_symmetry_multiplicity
 _atom_site_fract_x
 _atom_site_fract_y
 _atom_site_fract_z
 _atom_site_occupancy
  Er  Er0  1  0.852028  0.750000  0.054977  1
  Er  Er1  1  0.648585  0.750000  0.554761  1
  Er  Er2  1  0.148413  0.250000  0.944730  1
  Er  Er3  1  0.890500  0.509768  0.358906  1
  Er  Er4  1  0.609427  0.991399  0.858787  1
  Er  Er5  1  0.110864  0.010170  0.640392  1
  Er  Er6  1  0.389785  0.490647  0.140891  1
  Er  Er7  1  0.110864  0.489830  0.640392  1
  Er  Er8  1  0.389785  0.009353  0.140891  1
  Er  Er9  1  0.890500  0.990232  0.358906  1
  Er  Er10  1  0.609427  0.508601  0.858787  1
  Lu  Lu11  1  0.350433  0.250000  0.445888  1
  In  In12  1  0.873904  0.043577  0.099796  1
  In  In13  1  0.626428  0.456341  0.599293  1
  In  In14  1  0.125710  0.543588  0.900348  1
  In  In15  1  0.374259  0.957257  0.400146  1
  In  In16  1  0.125710  0.956412  0.900348  1
  In  In17  1  0.374259  0.542743  0.400146  1
  In  In18  1  0.873904  0.456423  0.099796  1
  In  In19  1  0.626428  0.043659  0.599293  1
  In  In20  1  0.154491  0.750000  0.244034  1
  In  In21  1  0.346016  0.750000  0.743589  1
  In  In22  1  0.845782  0.250000  0.755645  1
  In  In23  1  0.651446  0.250000  0.257587  1
  In  In24  1  0.386427  0.750000  0.006915  1
  In  In25  1  0.114005  0.750000  0.507957  1
  In  In26  1  0.613878  0.250000  0.993923  1
  In  In27  1  0.887881  0.250000  0.492051  1
  In  In28  1  0.625393  0.750000  0.282656  1
  In  In29  1  0.873789  0.750000  0.782570  1
  In  In30  1  0.374504  0.250000  0.716928  1
  In  In31  1  0.125173  0.250000  0.218667  1
