# generated using pymatgen
data_CuNiPdO4
_symmetry_space_group_name_H-M   'P 1'
_cell_length_a   6.04328245
_cell_length_b   6.06727188
_cell_length_c   6.04328245
_cell_angle_alpha   59.86860137
_cell_angle_beta   89.15205824
_cell_angle_gamma   120.13139863
_symmetry_Int_Tables_number   1
_chemical_formula_structural   CuNiPdO4
_chemical_formula_sum   'Cu2 Ni2 Pd2 O8'
_cell_volume   154.84698169
_cell_formula_units_Z   2
loop_
 _symmetry_equiv_pos_site_id
 _symmetry_equiv_pos_as_xyz
  1  'x, y, z'
loop_
 _atom_site_type_symbol
 _atom_site_label
 _atom_site_symmetry_multiplicity
 _atom_site_fract_x
 _atom_site_fract_y
 _atom_site_fract_z
 _atom_site_occupancy
  Cu  Cu0  1  0.985625  0.000000  0.985625  1
  Cu  Cu1  1  0.264375  0.500000  0.264375  1
  Ni  Ni2  1  0.625000  0.250000  0.125000  1
  Ni  Ni3  1  0.125000  0.750000  0.625000  1
  Pd  Pd4  1  0.625000  0.250000  0.625000  1
  Pd  Pd5  1  0.625000  0.750000  0.625000  1
  O  O6  1  0.852945  0.233295  0.386354  1
  O  O7  1  0.387840  0.227553  0.387840  1
  O  O8  1  0.862160  0.272447  0.862160  1
  O  O9  1  0.863646  0.733295  0.397055  1
  O  O10  1  0.397055  0.266705  0.863646  1
  O  O11  1  0.862160  0.727553  0.862160  1
  O  O12  1  0.387840  0.772447  0.387840  1
  O  O13  1  0.386354  0.766705  0.852945  1
