# generated using pymatgen
data_Sm2Tm3Pt4
_symmetry_space_group_name_H-M   'P 1'
_cell_length_a   7.50009700
_cell_length_b   7.57417500
_cell_length_c   14.70999300
_cell_angle_alpha   90.00000000
_cell_angle_beta   90.00000000
_cell_angle_gamma   90.00000000
_symmetry_Int_Tables_number   1
_chemical_formula_structural   Sm2Tm3Pt4
_chemical_formula_sum   'Sm8 Tm12 Pt16'
_cell_volume   835.63126659
_cell_formula_units_Z   4
loop_
 _symmetry_equiv_pos_site_id
 _symmetry_equiv_pos_as_xyz
  1  'x, y, z'
loop_
 _atom_site_type_symbol
 _atom_site_label
 _atom_site_symmetry_multiplicity
 _atom_site_fract_x
 _atom_site_fract_y
 _atom_site_fract_z
 _atom_site_occupancy
  Sm  Sm0  1  0.500551  0.678658  0.593082  1
  Sm  Sm1  1  0.000551  0.821342  0.906918  1
  Sm  Sm2  1  0.499449  0.321342  0.093082  1
  Sm  Sm3  1  0.999449  0.178658  0.406918  1
  Sm  Sm4  1  0.499449  0.321342  0.406918  1
  Sm  Sm5  1  0.999449  0.178658  0.093082  1
  Sm  Sm6  1  0.500551  0.678658  0.906918  1
  Sm  Sm7  1  0.000551  0.821342  0.593082  1
  Tm  Tm8  1  0.656567  0.167706  0.623354  1
  Tm  Tm9  1  0.156567  0.332294  0.876646  1
  Tm  Tm10  1  0.343433  0.832294  0.123354  1
  Tm  Tm11  1  0.843433  0.667706  0.376646  1
  Tm  Tm12  1  0.343433  0.832294  0.376646  1
  Tm  Tm13  1  0.843433  0.667706  0.123354  1
  Tm  Tm14  1  0.656567  0.167706  0.876646  1
  Tm  Tm15  1  0.156567  0.332294  0.623354  1
  Tm  Tm16  1  0.819644  0.509512  0.750000  1
  Tm  Tm17  1  0.319644  0.990488  0.750000  1
  Tm  Tm18  1  0.180356  0.490488  0.250000  1
  Tm  Tm19  1  0.680356  0.009512  0.250000  1
  Pt  Pt20  1  0.681134  0.964468  0.457863  1
  Pt  Pt21  1  0.181134  0.535532  0.042137  1
  Pt  Pt22  1  0.318866  0.035532  0.957863  1
  Pt  Pt23  1  0.818866  0.464468  0.542137  1
  Pt  Pt24  1  0.318866  0.035532  0.542137  1
  Pt  Pt25  1  0.818866  0.464468  0.957863  1
  Pt  Pt26  1  0.681134  0.964468  0.042137  1
  Pt  Pt27  1  0.181134  0.535532  0.457863  1
  Pt  Pt28  1  0.454250  0.382083  0.750000  1
  Pt  Pt29  1  0.954250  0.117917  0.750000  1
  Pt  Pt30  1  0.545750  0.617917  0.250000  1
  Pt  Pt31  1  0.045750  0.882083  0.250000  1
  Pt  Pt32  1  0.683284  0.859542  0.750000  1
  Pt  Pt33  1  0.183284  0.640458  0.750000  1
  Pt  Pt34  1  0.316716  0.140458  0.250000  1
  Pt  Pt35  1  0.816716  0.359542  0.250000  1
