# generated using pymatgen
data_Sc2U2As6Ru7
_symmetry_space_group_name_H-M   'P 1'
_cell_length_a   7.15784773
_cell_length_b   7.12743171
_cell_length_c   7.12743251
_cell_angle_alpha   109.60010099
_cell_angle_beta   109.32107758
_cell_angle_gamma   109.32106816
_symmetry_Int_Tables_number   1
_chemical_formula_structural   Sc2U2As6Ru7
_chemical_formula_sum   'Sc2 U2 As6 Ru7'
_cell_volume   280.50429887
_cell_formula_units_Z   1
loop_
 _symmetry_equiv_pos_site_id
 _symmetry_equiv_pos_as_xyz
  1  'x, y, z'
loop_
 _atom_site_type_symbol
 _atom_site_label
 _atom_site_symmetry_multiplicity
 _atom_site_fract_x
 _atom_site_fract_y
 _atom_site_fract_z
 _atom_site_occupancy
  Sc  Sc0  1  0.000000  0.000000  0.500000  1
  Sc  Sc1  1  0.000000  0.500000  0.000000  1
  U  U2  1  0.500000  0.000000  0.000000  1
  U  U3  1  0.500000  0.500000  0.500000  1
  As  As4  1  0.303026  0.992189  0.310837  1
  As  As5  1  0.000000  0.310378  0.310378  1
  As  As6  1  0.000000  0.689622  0.689622  1
  As  As7  1  0.303026  0.310837  0.992189  1
  As  As8  1  0.696974  0.689163  0.007811  1
  As  As9  1  0.696974  0.007811  0.689163  1
  Ru  Ru10  1  0.750915  0.500021  0.250894  1
  Ru  Ru11  1  0.500000  0.750000  0.250000  1
  Ru  Ru12  1  0.500000  0.250000  0.750000  1
  Ru  Ru13  1  0.750915  0.250894  0.500021  1
  Ru  Ru14  1  0.249085  0.749106  0.499979  1
  Ru  Ru15  1  0.249085  0.499979  0.749106  1
  Ru  Ru16  1  0.000000  0.000000  0.000000  1
