# generated using pymatgen
data_Hf4Cu2Pt7Rh3
_symmetry_space_group_name_H-M   'P 1'
_cell_length_a   3.97904200
_cell_length_b   5.64322876
_cell_length_c   11.25682234
_cell_angle_alpha   89.07725997
_cell_angle_beta   90.00000000
_cell_angle_gamma   90.00000000
_symmetry_Int_Tables_number   1
_chemical_formula_structural   Hf4Cu2Pt7Rh3
_chemical_formula_sum   'Hf4 Cu2 Pt7 Rh3'
_cell_volume   252.73516215
_cell_formula_units_Z   1
loop_
 _symmetry_equiv_pos_site_id
 _symmetry_equiv_pos_as_xyz
  1  'x, y, z'
loop_
 _atom_site_type_symbol
 _atom_site_label
 _atom_site_symmetry_multiplicity
 _atom_site_fract_x
 _atom_site_fract_y
 _atom_site_fract_z
 _atom_site_occupancy
  Hf  Hf0  1  0.500000  0.224164  0.631927  1
  Hf  Hf1  1  0.500000  0.775836  0.368073  1
  Hf  Hf2  1  0.500000  0.730714  0.872822  1
  Hf  Hf3  1  0.500000  0.269286  0.127178  1
  Cu  Cu4  1  0.000000  0.500000  0.500000  1
  Cu  Cu5  1  0.000000  0.000000  0.000000  1
  Pt  Pt6  1  0.500000  0.226844  0.881825  1
  Pt  Pt7  1  0.500000  0.773156  0.118175  1
  Pt  Pt8  1  0.500000  0.726698  0.618307  1
  Pt  Pt9  1  0.500000  0.273302  0.381693  1
  Pt  Pt10  1  0.000000  0.474353  0.747619  1
  Pt  Pt11  1  0.000000  0.525647  0.252381  1
  Pt  Pt12  1  0.000000  0.000000  0.500000  1
  Rh  Rh13  1  0.000000  0.500000  0.000000  1
  Rh  Rh14  1  0.000000  0.026051  0.247839  1
  Rh  Rh15  1  0.000000  0.973949  0.752161  1
