# generated using pymatgen
data_Ho8Nb12Si15B
_symmetry_space_group_name_H-M   'P 1'
_cell_length_a   6.83029755
_cell_length_b   7.01906088
_cell_length_c   13.37290000
_cell_angle_alpha   90.00000000
_cell_angle_beta   90.00000000
_cell_angle_gamma   89.68468223
_symmetry_Int_Tables_number   1
_chemical_formula_structural   Ho8Nb12Si15B
_chemical_formula_sum   'Ho8 Nb12 Si15 B1'
_cell_volume   641.11753128
_cell_formula_units_Z   1
loop_
 _symmetry_equiv_pos_site_id
 _symmetry_equiv_pos_as_xyz
  1  'x, y, z'
loop_
 _atom_site_type_symbol
 _atom_site_label
 _atom_site_symmetry_multiplicity
 _atom_site_fract_x
 _atom_site_fract_y
 _atom_site_fract_z
 _atom_site_occupancy
  Ho  Ho0  1  0.503412  0.666645  0.597577  1
  Ho  Ho1  1  0.004566  0.826070  0.901825  1
  Ho  Ho2  1  0.497817  0.328567  0.095537  1
  Ho  Ho3  1  0.997242  0.172453  0.405184  1
  Ho  Ho4  1  0.497817  0.328567  0.404463  1
  Ho  Ho5  1  0.997242  0.172453  0.094816  1
  Ho  Ho6  1  0.503412  0.666645  0.902423  1
  Ho  Ho7  1  0.004566  0.826070  0.598175  1
  Nb  Nb8  1  0.650512  0.186509  0.630595  1
  Nb  Nb9  1  0.171181  0.325376  0.871885  1
  Nb  Nb10  1  0.339362  0.825344  0.124982  1
  Nb  Nb11  1  0.837949  0.675593  0.375087  1
  Nb  Nb12  1  0.339362  0.825344  0.375018  1
  Nb  Nb13  1  0.837949  0.675593  0.124913  1
  Nb  Nb14  1  0.650512  0.186509  0.869405  1
  Nb  Nb15  1  0.171181  0.325376  0.628115  1
  Nb  Nb16  1  0.830311  0.491229  0.750000  1
  Nb  Nb17  1  0.337492  0.012733  0.750000  1
  Nb  Nb18  1  0.163045  0.509089  0.250000  1
  Nb  Nb19  1  0.663295  0.992108  0.250000  1
  Si  Si20  1  0.663252  0.964219  0.462676  1
  Si  Si21  1  0.164325  0.537713  0.038901  1
  Si  Si22  1  0.336408  0.035302  0.959462  1
  Si  Si23  1  0.838451  0.462435  0.541589  1
  Si  Si24  1  0.336408  0.035302  0.540538  1
  Si  Si25  1  0.838451  0.462435  0.958411  1
  Si  Si26  1  0.663252  0.964219  0.037324  1
  Si  Si27  1  0.164325  0.537713  0.461099  1
  Si  Si28  1  0.956925  0.124683  0.750000  1
  Si  Si29  1  0.542510  0.623082  0.250000  1
  Si  Si30  1  0.041991  0.878116  0.250000  1
  Si  Si31  1  0.703892  0.874605  0.750000  1
  Si  Si32  1  0.215680  0.615469  0.750000  1
  Si  Si33  1  0.294748  0.128491  0.250000  1
  Si  Si34  1  0.795641  0.371733  0.250000  1
  B  B35  1  0.445513  0.366211  0.750000  1
