# generated using pymatgen
data_Zr2Ta2GeP
_symmetry_space_group_name_H-M   'P 1'
_cell_length_a   3.62243800
_cell_length_b   6.98924300
_cell_length_c   8.49473500
_cell_angle_alpha   90.00000000
_cell_angle_beta   90.00000000
_cell_angle_gamma   90.00000000
_symmetry_Int_Tables_number   1
_chemical_formula_structural   Zr2Ta2GeP
_chemical_formula_sum   'Zr4 Ta4 Ge2 P2'
_cell_volume   215.07054540
_cell_formula_units_Z   2
loop_
 _symmetry_equiv_pos_site_id
 _symmetry_equiv_pos_as_xyz
  1  'x, y, z'
loop_
 _atom_site_type_symbol
 _atom_site_label
 _atom_site_symmetry_multiplicity
 _atom_site_fract_x
 _atom_site_fract_y
 _atom_site_fract_z
 _atom_site_occupancy
  Zr  Zr0  1  0.250000  0.035348  0.670983  1
  Zr  Zr1  1  0.250000  0.535348  0.829017  1
  Zr  Zr2  1  0.750000  0.459899  0.164083  1
  Zr  Zr3  1  0.750000  0.959899  0.335917  1
  Ta  Ta4  1  0.750000  0.866540  0.933485  1
  Ta  Ta5  1  0.250000  0.638360  0.447198  1
  Ta  Ta6  1  0.750000  0.366540  0.566515  1
  Ta  Ta7  1  0.250000  0.138360  0.052802  1
  Ge  Ge8  1  0.250000  0.258810  0.357765  1
  Ge  Ge9  1  0.250000  0.758810  0.142235  1
  P  P10  1  0.750000  0.741043  0.641467  1
  P  P11  1  0.750000  0.241043  0.858533  1
