# generated using pymatgen
data_Li5Sc12TcPt6
_symmetry_space_group_name_H-M   'P 1'
_cell_length_a   4.68290300
_cell_length_b   6.59872000
_cell_length_c   13.93418400
_cell_angle_alpha   90.00000000
_cell_angle_beta   89.99949214
_cell_angle_gamma   90.00000000
_symmetry_Int_Tables_number   1
_chemical_formula_structural   Li5Sc12TcPt6
_chemical_formula_sum   'Li5 Sc12 Tc1 Pt6'
_cell_volume   430.58252845
_cell_formula_units_Z   1
loop_
 _symmetry_equiv_pos_site_id
 _symmetry_equiv_pos_as_xyz
  1  'x, y, z'
loop_
 _atom_site_type_symbol
 _atom_site_label
 _atom_site_symmetry_multiplicity
 _atom_site_fract_x
 _atom_site_fract_y
 _atom_site_fract_z
 _atom_site_occupancy
  Li  Li0  1  0.000000  0.500001  0.000631  1
  Li  Li1  1  0.499950  0.000000  0.166653  1
  Li  Li2  1  0.999980  0.500001  0.333347  1
  Li  Li3  1  0.499999  0.000000  0.500003  1
  Li  Li4  1  0.000017  0.500001  0.666031  1
  Sc  Sc5  1  0.499996  0.244472  0.997012  1
  Sc  Sc6  1  0.499996  0.755528  0.997012  1
  Sc  Sc7  1  0.999984  0.249415  0.166493  1
  Sc  Sc8  1  0.999984  0.750585  0.166493  1
  Sc  Sc9  1  0.499974  0.250865  0.333338  1
  Sc  Sc10  1  0.499974  0.749135  0.333338  1
  Sc  Sc11  1  0.999995  0.249418  0.500191  1
  Sc  Sc12  1  0.999995  0.750583  0.500191  1
  Sc  Sc13  1  0.500013  0.244457  0.669641  1
  Sc  Sc14  1  0.500013  0.755543  0.669641  1
  Sc  Sc15  1  0.000040  0.240410  0.833320  1
  Sc  Sc16  1  0.000040  0.759590  0.833320  1
  Tc  Tc17  1  0.500039  0.000000  0.833338  1
  Pt  Pt18  1  0.000002  0.000000  0.003022  1
  Pt  Pt19  1  0.499958  0.500001  0.168004  1
  Pt  Pt20  1  0.999983  0.000000  0.333339  1
  Pt  Pt21  1  0.500001  0.500001  0.498673  1
  Pt  Pt22  1  0.000024  0.000000  0.663646  1
  Pt  Pt23  1  0.500043  0.500001  0.833325  1
