# generated using pymatgen
data_Dy5ErMn2(Si4Ru)6
_symmetry_space_group_name_H-M   'P 1'
_cell_length_a   10.08586350
_cell_length_b   10.08586344
_cell_length_c   8.08196208
_cell_angle_alpha   90.02017583
_cell_angle_beta   89.97982006
_cell_angle_gamma   132.69447496
_symmetry_Int_Tables_number   1
_chemical_formula_structural   Dy5ErMn2(Si4Ru)6
_chemical_formula_sum   'Dy5 Er1 Mn2 Si24 Ru6'
_cell_volume   604.25250581
_cell_formula_units_Z   1
loop_
 _symmetry_equiv_pos_site_id
 _symmetry_equiv_pos_as_xyz
  1  'x, y, z'
loop_
 _atom_site_type_symbol
 _atom_site_label
 _atom_site_symmetry_multiplicity
 _atom_site_fract_x
 _atom_site_fract_y
 _atom_site_fract_z
 _atom_site_occupancy
  Dy  Dy0  1  0.497835  0.997835  0.250000  1
  Dy  Dy1  1  0.002597  0.502597  0.750000  1
  Dy  Dy2  1  0.502619  0.002619  0.750000  1
  Dy  Dy3  1  0.502483  0.502476  0.502105  1
  Dy  Dy4  1  0.002476  0.002483  0.997895  1
  Er  Er5  1  0.997558  0.497558  0.250000  1
  Mn  Mn6  1  0.623884  0.623971  0.873165  1
  Mn  Mn7  1  0.123971  0.123884  0.626835  1
  Si  Si8  1  0.386917  0.153406  0.006183  1
  Si  Si9  1  0.653406  0.886917  0.493817  1
  Si  Si10  1  0.115279  0.342606  0.513154  1
  Si  Si11  1  0.842606  0.615279  0.986846  1
  Si  Si12  1  0.615453  0.842861  0.986731  1
  Si  Si13  1  0.342861  0.115453  0.513269  1
  Si  Si14  1  0.887058  0.653520  0.493561  1
  Si  Si15  1  0.153520  0.387058  0.006439  1
  Si  Si16  1  0.609690  0.376155  0.229783  1
  Si  Si17  1  0.876155  0.109690  0.270217  1
  Si  Si18  1  0.897968  0.125374  0.728573  1
  Si  Si19  1  0.625374  0.397968  0.771427  1
  Si  Si20  1  0.397951  0.625379  0.771400  1
  Si  Si21  1  0.125379  0.897951  0.728600  1
  Si  Si22  1  0.704085  0.295372  0.000667  1
  Si  Si23  1  0.795372  0.204085  0.499333  1
  Si  Si24  1  0.294536  0.703328  0.000681  1
  Si  Si25  1  0.203328  0.794536  0.499319  1
  Si  Si26  1  0.166230  0.166367  0.339986  1
  Si  Si27  1  0.666367  0.666230  0.160014  1
  Si  Si28  1  0.332369  0.332429  0.826669  1
  Si  Si29  1  0.832429  0.832369  0.673331  1
  Si  Si30  1  0.375678  0.609308  0.229826  1
  Si  Si31  1  0.109308  0.875678  0.270174  1
  Ru  Ru32  1  0.871613  0.871567  0.374333  1
  Ru  Ru33  1  0.371567  0.371613  0.125667  1
  Ru  Ru34  1  0.327997  0.668251  0.502198  1
  Ru  Ru35  1  0.168251  0.827997  0.997802  1
  Ru  Ru36  1  0.669045  0.328787  0.502130  1
  Ru  Ru37  1  0.828787  0.169045  0.997870  1
