# generated using pymatgen
data_Cr3PdPt8
_symmetry_space_group_name_H-M   'P 1'
_cell_length_a   16.62152400
_cell_length_b   3.90856700
_cell_length_c   5.55898500
_cell_angle_alpha   90.00000000
_cell_angle_beta   90.00000000
_cell_angle_gamma   90.00000000
_symmetry_Int_Tables_number   1
_chemical_formula_structural   Cr3PdPt8
_chemical_formula_sum   'Cr6 Pd2 Pt16'
_cell_volume   361.14691066
_cell_formula_units_Z   2
loop_
 _symmetry_equiv_pos_site_id
 _symmetry_equiv_pos_as_xyz
  1  'x, y, z'
loop_
 _atom_site_type_symbol
 _atom_site_label
 _atom_site_symmetry_multiplicity
 _atom_site_fract_x
 _atom_site_fract_y
 _atom_site_fract_z
 _atom_site_occupancy
  Cr  Cr0  1  0.083419  0.000000  0.252660  1
  Cr  Cr1  1  0.416581  0.000000  0.252660  1
  Cr  Cr2  1  0.583419  0.000000  0.747339  1
  Cr  Cr3  1  0.916582  0.000000  0.747339  1
  Cr  Cr4  1  0.250000  0.000000  0.753086  1
  Cr  Cr5  1  0.750000  0.000000  0.246914  1
  Pd  Pd6  1  0.000000  0.500001  0.000000  1
  Pd  Pd7  1  0.500000  0.500001  0.000000  1
  Pt  Pt8  1  0.166174  0.500001  0.002375  1
  Pt  Pt9  1  0.333826  0.500001  0.002375  1
  Pt  Pt10  1  0.666174  0.500001  0.997624  1
  Pt  Pt11  1  0.833825  0.500001  0.997624  1
  Pt  Pt12  1  0.166529  0.500001  0.502415  1
  Pt  Pt13  1  0.333471  0.500001  0.502415  1
  Pt  Pt14  1  0.666529  0.500001  0.497584  1
  Pt  Pt15  1  0.833471  0.500001  0.497584  1
  Pt  Pt16  1  0.083154  0.000000  0.751495  1
  Pt  Pt17  1  0.416846  0.000000  0.751495  1
  Pt  Pt18  1  0.583154  0.000000  0.248506  1
  Pt  Pt19  1  0.916846  0.000000  0.248506  1
  Pt  Pt20  1  0.250000  0.000000  0.252493  1
  Pt  Pt21  1  0.750000  0.000000  0.747506  1
  Pt  Pt22  1  0.000000  0.500001  0.500000  1
  Pt  Pt23  1  0.500000  0.500001  0.500000  1
