# generated using pymatgen
data_TbNb6VSe12
_symmetry_space_group_name_H-M   'P 1'
_cell_length_a   6.08656800
_cell_length_b   6.08656929
_cell_length_c   13.67702400
_cell_angle_alpha   90.00000000
_cell_angle_beta   90.00000000
_cell_angle_gamma   119.99999299
_symmetry_Int_Tables_number   1
_chemical_formula_structural   TbNb6VSe12
_chemical_formula_sum   'Tb1 Nb6 V1 Se12'
_cell_volume   438.80070861
_cell_formula_units_Z   1
loop_
 _symmetry_equiv_pos_site_id
 _symmetry_equiv_pos_as_xyz
  1  'x, y, z'
loop_
 _atom_site_type_symbol
 _atom_site_label
 _atom_site_symmetry_multiplicity
 _atom_site_fract_x
 _atom_site_fract_y
 _atom_site_fract_z
 _atom_site_occupancy
  Tb  Tb0  1  0.333333  0.666667  0.250000  1
  Nb  Nb1  1  0.000000  0.000000  0.515258  1
  Nb  Nb2  1  0.000000  0.000000  0.984742  1
  Nb  Nb3  1  0.333333  0.666667  0.986566  1
  Nb  Nb4  1  0.666667  0.333333  0.985023  1
  Nb  Nb5  1  0.666667  0.333333  0.514977  1
  Nb  Nb6  1  0.333333  0.666667  0.513434  1
  V  V7  1  0.666667  0.333333  0.750000  1
  Se  Se8  1  0.332977  0.326220  0.391724  1
  Se  Se9  1  0.673780  0.006757  0.391724  1
  Se  Se10  1  0.993243  0.667023  0.391724  1
  Se  Se11  1  0.331475  0.334084  0.636442  1
  Se  Se12  1  0.002608  0.668525  0.636442  1
  Se  Se13  1  0.665916  0.997392  0.636442  1
  Se  Se14  1  0.665916  0.668525  0.863558  1
  Se  Se15  1  0.331475  0.997392  0.863558  1
  Se  Se16  1  0.002608  0.334084  0.863558  1
  Se  Se17  1  0.673780  0.667023  0.108276  1
  Se  Se18  1  0.993243  0.326220  0.108276  1
  Se  Se19  1  0.332977  0.006757  0.108276  1
