# generated using pymatgen
data_Pa2BiIr2
_symmetry_space_group_name_H-M   'P 1'
_cell_length_a   7.88358300
_cell_length_b   7.88358300
_cell_length_c   3.59398100
_cell_angle_alpha   90.00000000
_cell_angle_beta   90.00000000
_cell_angle_gamma   90.00000000
_symmetry_Int_Tables_number   1
_chemical_formula_structural   Pa2BiIr2
_chemical_formula_sum   'Pa4 Bi2 Ir4'
_cell_volume   223.36908515
_cell_formula_units_Z   2
loop_
 _symmetry_equiv_pos_site_id
 _symmetry_equiv_pos_as_xyz
  1  'x, y, z'
loop_
 _atom_site_type_symbol
 _atom_site_label
 _atom_site_symmetry_multiplicity
 _atom_site_fract_x
 _atom_site_fract_y
 _atom_site_fract_z
 _atom_site_occupancy
  Pa  Pa0  1  0.167725  0.332275  0.000000  1
  Pa  Pa1  1  0.832275  0.667725  0.000000  1
  Pa  Pa2  1  0.667725  0.167725  0.000000  1
  Pa  Pa3  1  0.332275  0.832275  0.000000  1
  Bi  Bi4  1  0.000000  0.000000  0.500000  1
  Bi  Bi5  1  0.500000  0.500000  0.500000  1
  Ir  Ir6  1  0.370224  0.129776  0.500000  1
  Ir  Ir7  1  0.629776  0.870224  0.500000  1
  Ir  Ir8  1  0.870224  0.370224  0.500000  1
  Ir  Ir9  1  0.129776  0.629776  0.500000  1
