# generated using pymatgen
data_Dy10Cd7InPd4
_symmetry_space_group_name_H-M   'P 1'
_cell_length_a   3.62533200
_cell_length_b   7.98520657
_cell_length_c   18.35795100
_cell_angle_alpha   89.74261607
_cell_angle_beta   90.00000000
_cell_angle_gamma   90.00000000
_symmetry_Int_Tables_number   1
_chemical_formula_structural   Dy10Cd7InPd4
_chemical_formula_sum   'Dy10 Cd7 In1 Pd4'
_cell_volume   531.43941847
_cell_formula_units_Z   1
loop_
 _symmetry_equiv_pos_site_id
 _symmetry_equiv_pos_as_xyz
  1  'x, y, z'
loop_
 _atom_site_type_symbol
 _atom_site_label
 _atom_site_symmetry_multiplicity
 _atom_site_fract_x
 _atom_site_fract_y
 _atom_site_fract_z
 _atom_site_occupancy
  Dy  Dy0  1  0.000000  0.498326  0.500478  1
  Dy  Dy1  1  0.000000  0.001507  0.999472  1
  Dy  Dy2  1  0.000000  0.739491  0.281201  1
  Dy  Dy3  1  0.000000  0.260473  0.718570  1
  Dy  Dy4  1  0.000000  0.758321  0.780853  1
  Dy  Dy5  1  0.000000  0.240820  0.219073  1
  Dy  Dy6  1  0.000000  0.614006  0.083651  1
  Dy  Dy7  1  0.000000  0.386635  0.916608  1
  Dy  Dy8  1  0.000000  0.885977  0.583230  1
  Dy  Dy9  1  0.000000  0.114015  0.416486  1
  Cd  Cd10  1  0.500000  0.714817  0.931918  1
  Cd  Cd11  1  0.500000  0.286301  0.068437  1
  Cd  Cd12  1  0.500000  0.784436  0.431826  1
  Cd  Cd13  1  0.500000  0.213809  0.568518  1
  Cd  Cd14  1  0.500000  0.576892  0.647840  1
  Cd  Cd15  1  0.500000  0.424241  0.351896  1
  Cd  Cd16  1  0.500000  0.924254  0.148203  1
  In  In17  1  0.500000  0.075673  0.851085  1
  Pd  Pd18  1  0.500000  0.525536  0.195855  1
  Pd  Pd19  1  0.500000  0.474122  0.804258  1
  Pd  Pd20  1  0.500000  0.974633  0.696152  1
  Pd  Pd21  1  0.500000  0.025715  0.304392  1
