# generated using pymatgen
data_Na2PrB2Pt7
_symmetry_space_group_name_H-M   'P 1'
_cell_length_a   8.26716318
_cell_length_b   8.26716295
_cell_length_c   8.26716300
_cell_angle_alpha   39.13777711
_cell_angle_beta   39.13777910
_cell_angle_gamma   39.13778202
_symmetry_Int_Tables_number   1
_chemical_formula_structural   Na2PrB2Pt7
_chemical_formula_sum   'Na2 Pr1 B2 Pt7'
_cell_volume   202.49344721
_cell_formula_units_Z   1
loop_
 _symmetry_equiv_pos_site_id
 _symmetry_equiv_pos_as_xyz
  1  'x, y, z'
loop_
 _atom_site_type_symbol
 _atom_site_label
 _atom_site_symmetry_multiplicity
 _atom_site_fract_x
 _atom_site_fract_y
 _atom_site_fract_z
 _atom_site_occupancy
  Na  Na0  1  0.505788  0.505788  0.505788  1
  Na  Na1  1  0.638063  0.638063  0.638063  1
  Pr  Pr2  1  0.357159  0.357159  0.357159  1
  B  B3  1  0.167909  0.167909  0.167909  1
  B  B4  1  0.832036  0.832036  0.832036  1
  Pt  Pt5  1  0.999662  0.999662  0.999662  1
  Pt  Pt6  1  0.567560  0.063957  0.063957  1
  Pt  Pt7  1  0.063957  0.567560  0.063957  1
  Pt  Pt8  1  0.935335  0.935335  0.433239  1
  Pt  Pt9  1  0.063957  0.063957  0.567560  1
  Pt  Pt10  1  0.935335  0.433239  0.935335  1
  Pt  Pt11  1  0.433239  0.935335  0.935335  1
