# generated using pymatgen
data_Cs3RbSrI6
_symmetry_space_group_name_H-M   'P 1'
_cell_length_a   10.62323455
_cell_length_b   10.62323591
_cell_length_c   10.62323527
_cell_angle_alpha   90.79591420
_cell_angle_beta   90.79590309
_cell_angle_gamma   90.79590628
_symmetry_Int_Tables_number   1
_chemical_formula_structural   Cs3RbSrI6
_chemical_formula_sum   'Cs6 Rb2 Sr2 I12'
_cell_volume   1198.51506416
_cell_formula_units_Z   2
loop_
 _symmetry_equiv_pos_site_id
 _symmetry_equiv_pos_as_xyz
  1  'x, y, z'
loop_
 _atom_site_type_symbol
 _atom_site_label
 _atom_site_symmetry_multiplicity
 _atom_site_fract_x
 _atom_site_fract_y
 _atom_site_fract_z
 _atom_site_occupancy
  Cs  Cs0  1  0.372043  0.127957  0.750000  1
  Cs  Cs1  1  0.127957  0.750000  0.372043  1
  Cs  Cs2  1  0.750000  0.372043  0.127957  1
  Cs  Cs3  1  0.627957  0.872043  0.250000  1
  Cs  Cs4  1  0.250000  0.627957  0.872043  1
  Cs  Cs5  1  0.872043  0.250000  0.627957  1
  Rb  Rb6  1  0.250000  0.250000  0.250000  1
  Rb  Rb7  1  0.750000  0.750000  0.750000  1
  Sr  Sr8  1  0.000000  0.000000  0.000000  1
  Sr  Sr9  1  0.500000  0.500000  0.500000  1
  I  I10  1  0.946669  0.077082  0.297413  1
  I  I11  1  0.077082  0.297413  0.946669  1
  I  I12  1  0.297413  0.946669  0.077082  1
  I  I13  1  0.577082  0.446669  0.797413  1
  I  I14  1  0.797413  0.577082  0.446669  1
  I  I15  1  0.446669  0.797413  0.577082  1
  I  I16  1  0.202587  0.422918  0.553331  1
  I  I17  1  0.422918  0.553331  0.202587  1
  I  I18  1  0.553331  0.202587  0.422918  1
  I  I19  1  0.922918  0.702587  0.053331  1
  I  I20  1  0.053331  0.922918  0.702587  1
  I  I21  1  0.702587  0.053331  0.922918  1
