# generated using pymatgen
data_Y12InTc3Hg
_symmetry_space_group_name_H-M   'P 1'
_cell_length_a   8.49074916
_cell_length_b   8.49074895
_cell_length_c   8.49074900
_cell_angle_alpha   107.97978866
_cell_angle_beta   109.99712582
_cell_angle_gamma   110.44728214
_symmetry_Int_Tables_number   1
_chemical_formula_structural   Y12InTc3Hg
_chemical_formula_sum   'Y12 In1 Tc3 Hg1'
_cell_volume   470.96562815
_cell_formula_units_Z   1
loop_
 _symmetry_equiv_pos_site_id
 _symmetry_equiv_pos_as_xyz
  1  'x, y, z'
loop_
 _atom_site_type_symbol
 _atom_site_label
 _atom_site_symmetry_multiplicity
 _atom_site_fract_x
 _atom_site_fract_y
 _atom_site_fract_z
 _atom_site_occupancy
  Y  Y0  1  0.306643  0.307664  0.614308  1
  Y  Y1  1  0.693357  0.692336  0.385692  1
  Y  Y2  1  0.693357  0.307664  0.001021  1
  Y  Y3  1  0.306643  0.692336  0.998979  1
  Y  Y4  1  0.187896  0.424504  0.236606  1
  Y  Y5  1  0.812104  0.575496  0.763394  1
  Y  Y6  1  0.187896  0.951289  0.763394  1
  Y  Y7  1  0.944017  0.189866  0.754153  1
  Y  Y8  1  0.812104  0.048711  0.236606  1
  Y  Y9  1  0.055983  0.810134  0.245847  1
  Y  Y10  1  0.435712  0.189866  0.245847  1
  Y  Y11  1  0.564288  0.810134  0.754153  1
  In  In12  1  0.000000  0.500000  0.500000  1
  Tc  Tc13  1  0.372196  0.372196  0.000000  1
  Tc  Tc14  1  0.627804  0.627804  0.000000  1
  Tc  Tc15  1  0.000000  0.000000  0.000000  1
  Hg  Hg16  1  0.500000  0.000000  0.500000  1
