# generated using pymatgen
data_TbYbPt2O7
_symmetry_space_group_name_H-M   'P 1'
_cell_length_a   7.27379796
_cell_length_b   7.27192293
_cell_length_c   7.27379717
_cell_angle_alpha   60.00851711
_cell_angle_beta   59.98892107
_cell_angle_gamma   60.00852127
_symmetry_Int_Tables_number   1
_chemical_formula_structural   TbYbPt2O7
_chemical_formula_sum   'Tb2 Yb2 Pt4 O14'
_cell_volume   272.06721758
_cell_formula_units_Z   2
loop_
 _symmetry_equiv_pos_site_id
 _symmetry_equiv_pos_as_xyz
  1  'x, y, z'
loop_
 _atom_site_type_symbol
 _atom_site_label
 _atom_site_symmetry_multiplicity
 _atom_site_fract_x
 _atom_site_fract_y
 _atom_site_fract_z
 _atom_site_occupancy
  Tb  Tb0  1  0.625000  0.625000  0.625000  1
  Tb  Tb1  1  0.625000  0.125000  0.625000  1
  Yb  Yb2  1  0.625000  0.625000  0.125000  1
  Yb  Yb3  1  0.125000  0.625000  0.625000  1
  Pt  Pt4  1  0.125000  0.125000  0.125000  1
  Pt  Pt5  1  0.625000  0.125000  0.125000  1
  Pt  Pt6  1  0.125000  0.625000  0.125000  1
  Pt  Pt7  1  0.125000  0.125000  0.625000  1
  O  O8  1  0.036562  0.459649  0.460439  1
  O  O9  1  0.789561  0.790351  0.213438  1
  O  O10  1  0.789561  0.206650  0.213438  1
  O  O11  1  0.461897  0.038103  0.461897  1
  O  O12  1  0.041886  0.458114  0.041886  1
  O  O13  1  0.746453  0.753547  0.746453  1
  O  O14  1  0.036562  0.043350  0.460439  1
  O  O15  1  0.208114  0.791886  0.208114  1
  O  O16  1  0.213438  0.206650  0.789561  1
  O  O17  1  0.503547  0.496453  0.503547  1
  O  O18  1  0.788103  0.211897  0.788103  1
  O  O19  1  0.460439  0.043350  0.036562  1
  O  O20  1  0.460439  0.459649  0.036562  1
  O  O21  1  0.213438  0.790351  0.789561  1
