# generated using pymatgen
data_Y2Cr2Co9NiAs7
_symmetry_space_group_name_H-M   'P 1'
_cell_length_a   3.76136400
_cell_length_b   9.41432521
_cell_length_c   9.43551916
_cell_angle_alpha   119.85831818
_cell_angle_beta   90.00000000
_cell_angle_gamma   90.00000000
_symmetry_Int_Tables_number   1
_chemical_formula_structural   Y2Cr2Co9NiAs7
_chemical_formula_sum   'Y2 Cr2 Co9 Ni1 As7'
_cell_volume   289.76722205
_cell_formula_units_Z   1
loop_
 _symmetry_equiv_pos_site_id
 _symmetry_equiv_pos_as_xyz
  1  'x, y, z'
loop_
 _atom_site_type_symbol
 _atom_site_label
 _atom_site_symmetry_multiplicity
 _atom_site_fract_x
 _atom_site_fract_y
 _atom_site_fract_z
 _atom_site_occupancy
  Y  Y0  1  0.000000  0.672200  0.337800  1
  Y  Y1  1  0.500000  0.330661  0.665573  1
  Cr  Cr2  1  0.500000  0.782208  0.894737  1
  Cr  Cr3  1  0.500000  0.120342  0.222664  1
  Co  Co4  1  0.000000  0.369367  0.428914  1
  Co  Co5  1  0.000000  0.057754  0.628396  1
  Co  Co6  1  0.500000  0.094837  0.878982  1
  Co  Co7  1  0.000000  0.879061  0.156995  1
  Co  Co8  1  0.000000  0.281894  0.123845  1
  Co  Co9  1  0.000000  0.842577  0.722589  1
  Co  Co10  1  0.500000  0.949528  0.382883  1
  Co  Co11  1  0.500000  0.432307  0.048796  1
  Co  Co12  1  0.500000  0.617615  0.565864  1
  Ni  Ni13  1  0.000000  0.565971  0.938366  1
  As  As14  1  0.000000  0.003437  0.999950  1
  As  As15  1  0.500000  0.709867  0.118541  1
  As  As16  1  0.500000  0.412538  0.291539  1
  As  As17  1  0.500000  0.887698  0.596801  1
  As  As18  1  0.000000  0.585398  0.698205  1
  As  As19  1  0.000000  0.113288  0.412699  1
  As  As20  1  0.000000  0.291449  0.885861  1
