# generated using pymatgen
data_Sm3Eu(SeO4)6
_symmetry_space_group_name_H-M   'P 1'
_cell_length_a   10.14978953
_cell_length_b   10.14978913
_cell_length_c   10.14978977
_cell_angle_alpha   58.08132486
_cell_angle_beta   58.08132750
_cell_angle_gamma   58.08133390
_symmetry_Int_Tables_number   1
_chemical_formula_structural   Sm3Eu(SeO4)6
_chemical_formula_sum   'Sm3 Eu1 Se6 O24'
_cell_volume   706.83375203
_cell_formula_units_Z   1
loop_
 _symmetry_equiv_pos_site_id
 _symmetry_equiv_pos_as_xyz
  1  'x, y, z'
loop_
 _atom_site_type_symbol
 _atom_site_label
 _atom_site_symmetry_multiplicity
 _atom_site_fract_x
 _atom_site_fract_y
 _atom_site_fract_z
 _atom_site_occupancy
  Sm  Sm0  1  0.356711  0.356711  0.356711  1
  Sm  Sm1  1  0.143151  0.143151  0.143151  1
  Sm  Sm2  1  0.856426  0.856426  0.856426  1
  Eu  Eu3  1  0.642992  0.642992  0.642992  1
  Se  Se4  1  0.749178  0.036209  0.464184  1
  Se  Se5  1  0.965585  0.537182  0.247722  1
  Se  Se6  1  0.537182  0.247722  0.965586  1
  Se  Se7  1  0.464183  0.749178  0.036210  1
  Se  Se8  1  0.036210  0.464183  0.749178  1
  Se  Se9  1  0.247722  0.965585  0.537182  1
  O  O10  1  0.912408  0.067713  0.295392  1
  O  O11  1  0.774921  0.006538  0.627930  1
  O  O12  1  0.995494  0.374303  0.220430  1
  O  O13  1  0.705194  0.082302  0.940147  1
  O  O14  1  0.582369  0.203039  0.440204  1
  O  O15  1  0.871361  0.489926  0.728525  1
  O  O16  1  0.507863  0.274545  0.128404  1
  O  O17  1  0.796506  0.562548  0.412597  1
  O  O18  1  0.940147  0.705194  0.082302  1
  O  O19  1  0.562548  0.412597  0.796506  1
  O  O20  1  0.374303  0.220430  0.995494  1
  O  O21  1  0.274545  0.128404  0.507863  1
  O  O22  1  0.728525  0.871361  0.489926  1
  O  O23  1  0.627930  0.774921  0.006538  1
  O  O24  1  0.440204  0.582369  0.203039  1
  O  O25  1  0.067713  0.295392  0.912408  1
  O  O26  1  0.203039  0.440204  0.582369  1
  O  O27  1  0.489926  0.728525  0.871361  1
  O  O28  1  0.128404  0.507863  0.274545  1
  O  O29  1  0.412597  0.796506  0.562548  1
  O  O30  1  0.295392  0.912408  0.067713  1
  O  O31  1  0.006538  0.627930  0.774921  1
  O  O32  1  0.220430  0.995494  0.374303  1
  O  O33  1  0.082302  0.940147  0.705194  1
