# generated using pymatgen
data_HoSc7(Si4Tc3)4
_symmetry_space_group_name_H-M   'P 1'
_cell_length_a   6.66683769
_cell_length_b   6.66235639
_cell_length_c   12.37701821
_cell_angle_alpha   89.87184550
_cell_angle_beta   90.30991896
_cell_angle_gamma   89.99115986
_symmetry_Int_Tables_number   1
_chemical_formula_structural   HoSc7(Si4Tc3)4
_chemical_formula_sum   'Ho1 Sc7 Si16 Tc12'
_cell_volume   549.73872072
_cell_formula_units_Z   1
loop_
 _symmetry_equiv_pos_site_id
 _symmetry_equiv_pos_as_xyz
  1  'x, y, z'
loop_
 _atom_site_type_symbol
 _atom_site_label
 _atom_site_symmetry_multiplicity
 _atom_site_fract_x
 _atom_site_fract_y
 _atom_site_fract_z
 _atom_site_occupancy
  Ho  Ho0  1  0.000310  0.661704  0.030368  1
  Sc  Sc1  1  0.342622  0.997231  0.469589  1
  Sc  Sc2  1  0.501393  0.841262  0.719351  1
  Sc  Sc3  1  0.496481  0.157464  0.220735  1
  Sc  Sc4  1  0.841355  0.500883  0.280721  1
  Sc  Sc5  1  0.157005  0.495626  0.780523  1
  Sc  Sc6  1  0.656622  0.002704  0.969019  1
  Sc  Sc7  1  0.998530  0.342011  0.529827  1
  Si  Si8  1  0.193568  0.124879  0.682491  1
  Si  Si9  1  0.382053  0.692481  0.932441  1
  Si  Si10  1  0.623713  0.307342  0.434707  1
  Si  Si11  1  0.688507  0.375821  0.065893  1
  Si  Si12  1  0.306687  0.624862  0.566347  1
  Si  Si13  1  0.803377  0.881319  0.187624  1
  Si  Si14  1  0.123518  0.192056  0.317230  1
  Si  Si15  1  0.876624  0.808010  0.813184  1
  Si  Si16  1  0.280850  0.976402  0.064121  1
  Si  Si17  1  0.528013  0.779235  0.315860  1
  Si  Si18  1  0.470695  0.216592  0.814338  1
  Si  Si19  1  0.784064  0.530539  0.682692  1
  Si  Si20  1  0.223061  0.469881  0.188602  1
  Si  Si21  1  0.715840  0.030827  0.566421  1
  Si  Si22  1  0.972233  0.271150  0.935020  1
  Si  Si23  1  0.029897  0.716720  0.434142  1
  Tc  Tc24  1  0.331432  0.328099  0.999541  1
  Tc  Tc25  1  0.170630  0.830964  0.252468  1
  Tc  Tc26  1  0.830876  0.168012  0.749119  1
  Tc  Tc27  1  0.668728  0.669420  0.499868  1
  Tc  Tc28  1  0.184673  0.976196  0.866708  1
  Tc  Tc29  1  0.519408  0.682500  0.120996  1
  Tc  Tc30  1  0.479208  0.324743  0.621964  1
  Tc  Tc31  1  0.676887  0.517182  0.874220  1
  Tc  Tc32  1  0.320152  0.476322  0.381892  1
  Tc  Tc33  1  0.823417  0.021814  0.374717  1
  Tc  Tc34  1  0.976013  0.182504  0.131302  1
  Tc  Tc35  1  0.021555  0.825239  0.625959  1
