# generated using pymatgen
data_K8BaSr3(TiAs4)2
_symmetry_space_group_name_H-M   'P 1'
_cell_length_a   10.36976852
_cell_length_b   10.30605963
_cell_length_c   7.87456792
_cell_angle_alpha   88.24524841
_cell_angle_beta   88.74546805
_cell_angle_gamma   119.21801448
_symmetry_Int_Tables_number   1
_chemical_formula_structural   K8BaSr3(TiAs4)2
_chemical_formula_sum   'K8 Ba1 Sr3 Ti2 As8'
_cell_volume   733.49345002
_cell_formula_units_Z   1
loop_
 _symmetry_equiv_pos_site_id
 _symmetry_equiv_pos_as_xyz
  1  'x, y, z'
loop_
 _atom_site_type_symbol
 _atom_site_label
 _atom_site_symmetry_multiplicity
 _atom_site_fract_x
 _atom_site_fract_y
 _atom_site_fract_z
 _atom_site_occupancy
  K  K0  1  0.476462  0.944336  0.384934  1
  K  K1  1  0.942253  0.474628  0.886296  1
  K  K2  1  0.865495  0.723075  0.170499  1
  K  K3  1  0.269944  0.127719  0.233679  1
  K  K4  1  0.854428  0.138881  0.197527  1
  K  K5  1  0.128033  0.268210  0.734871  1
  K  K6  1  0.721952  0.865555  0.672660  1
  K  K7  1  0.140319  0.856664  0.698210  1
  Ba  Ba8  1  0.063886  0.531956  0.394021  1
  Sr  Sr9  1  0.477774  0.529550  0.378055  1
  Sr  Sr10  1  0.530340  0.064891  0.891389  1
  Sr  Sr11  1  0.528740  0.476019  0.878318  1
  Ti  Ti12  1  0.661169  0.332998  0.492957  1
  Ti  Ti13  1  0.337379  0.665368  0.989941  1
  As  As14  1  0.644665  0.330655  0.172010  1
  As  As15  1  0.336240  0.646011  0.672376  1
  As  As16  1  0.215501  0.405076  0.120351  1
  As  As17  1  0.600648  0.795157  0.076595  1
  As  As18  1  0.212857  0.805610  0.088928  1
  As  As19  1  0.789857  0.599653  0.577181  1
  As  As20  1  0.405425  0.212100  0.624839  1
  As  As21  1  0.796444  0.205695  0.599703  1
