# generated using pymatgen
data_TbYTc3Ir
_symmetry_space_group_name_H-M   'P 1'
_cell_length_a   5.24835500
_cell_length_b   5.24835446
_cell_length_c   9.31958700
_cell_angle_alpha   90.00000000
_cell_angle_beta   90.00000000
_cell_angle_gamma   119.99998450
_symmetry_Int_Tables_number   1
_chemical_formula_structural   TbYTc3Ir
_chemical_formula_sum   'Tb2 Y2 Tc6 Ir2'
_cell_volume   222.31753989
_cell_formula_units_Z   2
loop_
 _symmetry_equiv_pos_site_id
 _symmetry_equiv_pos_as_xyz
  1  'x, y, z'
loop_
 _atom_site_type_symbol
 _atom_site_label
 _atom_site_symmetry_multiplicity
 _atom_site_fract_x
 _atom_site_fract_y
 _atom_site_fract_z
 _atom_site_occupancy
  Tb  Tb0  1  0.666667  0.333333  0.935791  1
  Tb  Tb1  1  0.333333  0.666667  0.064209  1
  Y  Y2  1  0.333333  0.666667  0.435497  1
  Y  Y3  1  0.666667  0.333333  0.564503  1
  Tc  Tc4  1  0.829754  0.170246  0.250302  1
  Tc  Tc5  1  0.829754  0.659509  0.250302  1
  Tc  Tc6  1  0.340491  0.170246  0.250302  1
  Tc  Tc7  1  0.170246  0.829754  0.749698  1
  Tc  Tc8  1  0.170246  0.340491  0.749698  1
  Tc  Tc9  1  0.659509  0.829754  0.749698  1
  Ir  Ir10  1  0.000000  0.000000  0.500000  1
  Ir  Ir11  1  0.000000  0.000000  0.000000  1
