# generated using pymatgen
data_DyAl2ZnGa
_symmetry_space_group_name_H-M   'P 1'
_cell_length_a   4.13379301
_cell_length_b   4.13379393
_cell_length_c   6.21612072
_cell_angle_alpha   70.57906143
_cell_angle_beta   70.57905692
_cell_angle_gamma   89.99999229
_symmetry_Int_Tables_number   1
_chemical_formula_structural   DyAl2ZnGa
_chemical_formula_sum   'Dy1 Al2 Zn1 Ga1'
_cell_volume   93.74588163
_cell_formula_units_Z   1
loop_
 _symmetry_equiv_pos_site_id
 _symmetry_equiv_pos_as_xyz
  1  'x, y, z'
loop_
 _atom_site_type_symbol
 _atom_site_label
 _atom_site_symmetry_multiplicity
 _atom_site_fract_x
 _atom_site_fract_y
 _atom_site_fract_z
 _atom_site_occupancy
  Dy  Dy0  1  0.001308  0.001308  0.997385  1
  Al  Al1  1  0.752410  0.252410  0.495180  1
  Al  Al2  1  0.252410  0.752410  0.495180  1
  Zn  Zn3  1  0.388198  0.388198  0.223603  1
  Ga  Ga4  1  0.605675  0.605675  0.788652  1
