# generated using pymatgen
data_Nd5ThTcTe2
_symmetry_space_group_name_H-M   'P 1'
_cell_length_a   8.71193500
_cell_length_b   8.64406376
_cell_length_c   4.07602700
_cell_angle_alpha   90.00000000
_cell_angle_beta   90.00000000
_cell_angle_gamma   119.74262451
_symmetry_Int_Tables_number   1
_chemical_formula_structural   Nd5ThTcTe2
_chemical_formula_sum   'Nd5 Th1 Tc1 Te2'
_cell_volume   266.51445973
_cell_formula_units_Z   1
loop_
 _symmetry_equiv_pos_site_id
 _symmetry_equiv_pos_as_xyz
  1  'x, y, z'
loop_
 _atom_site_type_symbol
 _atom_site_label
 _atom_site_symmetry_multiplicity
 _atom_site_fract_x
 _atom_site_fract_y
 _atom_site_fract_z
 _atom_site_occupancy
  Nd  Nd0  1  0.000000  0.424924  0.500000  1
  Nd  Nd1  1  0.602572  0.596674  0.500000  1
  Nd  Nd2  1  0.397428  0.994103  0.500000  1
  Nd  Nd3  1  0.239925  0.243937  0.000000  1
  Nd  Nd4  1  0.760075  0.004012  0.000000  1
  Th  Th5  1  0.000000  0.766037  0.000000  1
  Tc  Tc6  1  0.000000  0.978232  0.500000  1
  Te  Te7  1  0.340607  0.666345  0.000000  1
  Te  Te8  1  0.659393  0.325737  0.000000  1
