# generated using pymatgen
data_Tb3YTh6(Ge3C)2
_symmetry_space_group_name_H-M   'P 1'
_cell_length_a   8.83143400
_cell_length_b   8.83141622
_cell_length_c   6.42755100
_cell_angle_alpha   89.99984636
_cell_angle_beta   89.99989699
_cell_angle_gamma   119.99628624
_symmetry_Int_Tables_number   1
_chemical_formula_structural   Tb3YTh6(Ge3C)2
_chemical_formula_sum   'Tb3 Y1 Th6 Ge6 C2'
_cell_volume   434.16418505
_cell_formula_units_Z   1
loop_
 _symmetry_equiv_pos_site_id
 _symmetry_equiv_pos_as_xyz
  1  'x, y, z'
loop_
 _atom_site_type_symbol
 _atom_site_label
 _atom_site_symmetry_multiplicity
 _atom_site_fract_x
 _atom_site_fract_y
 _atom_site_fract_z
 _atom_site_occupancy
  Tb  Tb0  1  0.666623  0.333381  0.499998  1
  Tb  Tb1  1  0.333380  0.666623  0.499998  1
  Tb  Tb2  1  0.333380  0.666623  0.000000  1
  Y  Y3  1  0.666623  0.333381  0.000001  1
  Th  Th4  1  0.769201  0.769180  0.249969  1
  Th  Th5  1  0.230773  0.999940  0.249969  1
  Th  Th6  1  0.999896  0.230750  0.249968  1
  Th  Th7  1  0.230817  0.230795  0.750024  1
  Th  Th8  1  0.769252  0.000103  0.750026  1
  Th  Th9  1  0.000058  0.769230  0.750024  1
  Ge  Ge10  1  0.402550  0.402482  0.249970  1
  Ge  Ge11  1  0.597236  0.000058  0.249974  1
  Ge  Ge12  1  0.999922  0.597167  0.249974  1
  Ge  Ge13  1  0.597489  0.597422  0.750023  1
  Ge  Ge14  1  0.402854  0.000076  0.750030  1
  Ge  Ge15  1  0.999940  0.402785  0.750030  1
  C  C16  1  0.000002  0.000002  0.500011  1
  C  C17  1  0.000002  0.000002  0.000010  1
