# generated using pymatgen
data_LiErPaPt5
_symmetry_space_group_name_H-M   'P 1'
_cell_length_a   5.77144359
_cell_length_b   5.77144228
_cell_length_c   4.91146800
_cell_angle_alpha   90.00000000
_cell_angle_beta   90.00000000
_cell_angle_gamma   119.94815129
_symmetry_Int_Tables_number   1
_chemical_formula_structural   LiErPaPt5
_chemical_formula_sum   'Li1 Er1 Pa1 Pt5'
_cell_volume   141.75468721
_cell_formula_units_Z   1
loop_
 _symmetry_equiv_pos_site_id
 _symmetry_equiv_pos_as_xyz
  1  'x, y, z'
loop_
 _atom_site_type_symbol
 _atom_site_label
 _atom_site_symmetry_multiplicity
 _atom_site_fract_x
 _atom_site_fract_y
 _atom_site_fract_z
 _atom_site_occupancy
  Li  Li0  1  0.137068  0.862932  0.250000  1
  Er  Er1  1  0.664609  0.335391  0.250000  1
  Pa  Pa2  1  0.343927  0.656073  0.750000  1
  Pt  Pt3  1  0.843353  0.156647  0.750000  1
  Pt  Pt4  1  0.331432  0.146769  0.750000  1
  Pt  Pt5  1  0.853231  0.668568  0.750000  1
  Pt  Pt6  1  0.663449  0.837069  0.250000  1
  Pt  Pt7  1  0.162931  0.336551  0.250000  1
