# generated using pymatgen
data_Ca3(Si3Pd10)2
_symmetry_space_group_name_H-M   'P 1'
_cell_length_a   8.74644340
_cell_length_b   8.74644323
_cell_length_c   8.74644300
_cell_angle_alpha   59.99999710
_cell_angle_beta   59.99999772
_cell_angle_gamma   60.00000223
_symmetry_Int_Tables_number   1
_chemical_formula_structural   Ca3(Si3Pd10)2
_chemical_formula_sum   'Ca3 Si6 Pd20'
_cell_volume   473.12885386
_cell_formula_units_Z   1
loop_
 _symmetry_equiv_pos_site_id
 _symmetry_equiv_pos_as_xyz
  1  'x, y, z'
loop_
 _atom_site_type_symbol
 _atom_site_label
 _atom_site_symmetry_multiplicity
 _atom_site_fract_x
 _atom_site_fract_y
 _atom_site_fract_z
 _atom_site_occupancy
  Ca  Ca0  1  0.250000  0.250000  0.250000  1
  Ca  Ca1  1  0.750000  0.750000  0.750000  1
  Ca  Ca2  1  0.000000  0.000000  0.000000  1
  Si  Si3  1  0.731890  0.268109  0.268110  1
  Si  Si4  1  0.268109  0.731891  0.731890  1
  Si  Si5  1  0.268110  0.731890  0.268109  1
  Si  Si6  1  0.731890  0.268110  0.731890  1
  Si  Si7  1  0.268110  0.268110  0.731890  1
  Si  Si8  1  0.731890  0.731891  0.268110  1
  Pd  Pd9  1  0.384963  0.384963  0.384963  1
  Pd  Pd10  1  0.615037  0.615037  0.615037  1
  Pd  Pd11  1  0.384963  0.384963  0.845109  1
  Pd  Pd12  1  0.384963  0.845109  0.384963  1
  Pd  Pd13  1  0.615037  0.615037  0.154891  1
  Pd  Pd14  1  0.615037  0.154891  0.615037  1
  Pd  Pd15  1  0.845109  0.384963  0.384963  1
  Pd  Pd16  1  0.154891  0.615037  0.615037  1
  Pd  Pd17  1  0.344675  0.000000  0.000000  1
  Pd  Pd18  1  0.655325  0.000000  0.000000  1
  Pd  Pd19  1  0.000000  0.344675  0.655325  1
  Pd  Pd20  1  0.000000  0.655325  0.344675  1
  Pd  Pd21  1  0.000000  0.344675  0.000000  1
  Pd  Pd22  1  0.655325  0.000000  0.344675  1
  Pd  Pd23  1  0.000000  0.655325  0.000000  1
  Pd  Pd24  1  0.344675  0.000000  0.655325  1
  Pd  Pd25  1  0.000000  0.000000  0.344675  1
  Pd  Pd26  1  0.000000  0.000000  0.655325  1
  Pd  Pd27  1  0.655325  0.344675  0.000000  1
  Pd  Pd28  1  0.344675  0.655325  0.000000  1
