# generated using pymatgen
data_Lu16Sc4Bi11Te
_symmetry_space_group_name_H-M   'P 1'
_cell_length_a   7.99799978
_cell_length_b   9.31007300
_cell_length_c   11.71128051
_cell_angle_alpha   90.00000000
_cell_angle_beta   90.11131391
_cell_angle_gamma   90.00000000
_symmetry_Int_Tables_number   1
_chemical_formula_structural   Lu16Sc4Bi11Te
_chemical_formula_sum   'Lu16 Sc4 Bi11 Te1'
_cell_volume   872.04327673
_cell_formula_units_Z   1
loop_
 _symmetry_equiv_pos_site_id
 _symmetry_equiv_pos_as_xyz
  1  'x, y, z'
loop_
 _atom_site_type_symbol
 _atom_site_label
 _atom_site_symmetry_multiplicity
 _atom_site_fract_x
 _atom_site_fract_y
 _atom_site_fract_z
 _atom_site_occupancy
  Lu  Lu0  1  0.357263  0.250000  0.285194  1
  Lu  Lu1  1  0.643901  0.750000  0.717054  1
  Lu  Lu2  1  0.144687  0.750000  0.782073  1
  Lu  Lu3  1  0.854888  0.250000  0.217676  1
  Lu  Lu4  1  0.186206  0.250000  0.781336  1
  Lu  Lu5  1  0.813604  0.750000  0.218019  1
  Lu  Lu6  1  0.314103  0.750000  0.281834  1
  Lu  Lu7  1  0.682386  0.250000  0.716179  1
  Lu  Lu8  1  0.195570  0.067906  0.059025  1
  Lu  Lu9  1  0.804492  0.932622  0.941155  1
  Lu  Lu10  1  0.306182  0.935221  0.558480  1
  Lu  Lu11  1  0.804492  0.567378  0.941155  1
  Lu  Lu12  1  0.693290  0.069301  0.441870  1
  Lu  Lu13  1  0.195570  0.432094  0.059025  1
  Lu  Lu14  1  0.693290  0.430699  0.441870  1
  Lu  Lu15  1  0.306182  0.564779  0.558480  1
  Sc  Sc16  1  0.024335  0.250000  0.512440  1
  Sc  Sc17  1  0.977604  0.750000  0.488465  1
  Sc  Sc18  1  0.476932  0.750000  0.011751  1
  Sc  Sc19  1  0.523422  0.250000  0.988127  1
  Bi  Bi20  1  0.600178  0.750000  0.456593  1
  Bi  Bi21  1  0.099905  0.750000  0.043438  1
  Bi  Bi22  1  0.900210  0.250000  0.956247  1
  Bi  Bi23  1  0.066750  0.004054  0.329184  1
  Bi  Bi24  1  0.933507  0.996562  0.671424  1
  Bi  Bi25  1  0.433597  0.996518  0.828199  1
  Bi  Bi26  1  0.933507  0.503438  0.671424  1
  Bi  Bi27  1  0.566616  0.003736  0.171119  1
  Bi  Bi28  1  0.066750  0.495946  0.329184  1
  Bi  Bi29  1  0.566616  0.496264  0.171119  1
  Bi  Bi30  1  0.433597  0.503482  0.828199  1
  Te  Te31  1  0.400368  0.250000  0.542660  1
