# generated using pymatgen
data_AlGa3Si4(PbO8)2
_symmetry_space_group_name_H-M   'P 1'
_cell_length_a   7.28975468
_cell_length_b   7.93165017
_cell_length_c   7.93853294
_cell_angle_alpha   113.74058902
_cell_angle_beta   103.54032421
_cell_angle_gamma   103.26251450
_symmetry_Int_Tables_number   1
_chemical_formula_structural   AlGa3Si4(PbO8)2
_chemical_formula_sum   'Al1 Ga3 Si4 Pb2 O16'
_cell_volume   380.50881503
_cell_formula_units_Z   1
loop_
 _symmetry_equiv_pos_site_id
 _symmetry_equiv_pos_as_xyz
  1  'x, y, z'
loop_
 _atom_site_type_symbol
 _atom_site_label
 _atom_site_symmetry_multiplicity
 _atom_site_fract_x
 _atom_site_fract_y
 _atom_site_fract_z
 _atom_site_occupancy
  Al  Al0  1  0.233803  0.827318  0.183292  1
  Ga  Ga1  1  0.772482  0.818018  0.176268  1
  Ga  Ga2  1  0.763358  0.172137  0.814590  1
  Ga  Ga3  1  0.229083  0.183877  0.823568  1
  Si  Si4  1  0.658201  0.196167  0.425409  1
  Si  Si5  1  0.654205  0.425070  0.198656  1
  Si  Si6  1  0.338492  0.800958  0.568895  1
  Si  Si7  1  0.345463  0.578429  0.803497  1
  Pb  Pb8  1  0.855148  0.740211  0.749538  1
  Pb  Pb9  1  0.135492  0.255786  0.249085  1
  O  O10  1  0.788513  0.071414  0.325011  1
  O  O11  1  0.776587  0.319803  0.067444  1
  O  O12  1  0.219828  0.935105  0.675675  1
  O  O13  1  0.237249  0.686057  0.949035  1
  O  O14  1  0.705059  0.397663  0.399147  1
  O  O15  1  0.286204  0.602885  0.601045  1
  O  O16  1  0.007352  0.877173  0.120913  1
  O  O17  1  0.997826  0.117369  0.883344  1
  O  O18  1  0.736784  0.664550  0.293061  1
  O  O19  1  0.741902  0.296272  0.666397  1
  O  O20  1  0.260694  0.338556  0.707652  1
  O  O21  1  0.253061  0.711690  0.330231  1
  O  O22  1  0.594401  0.682141  0.911749  1
  O  O23  1  0.586254  0.910890  0.673013  1
  O  O24  1  0.407688  0.319252  0.085634  1
  O  O25  1  0.414873  0.071209  0.317852  1
