# generated using pymatgen
data_Mn4Be2B4Ir9Rh
_symmetry_space_group_name_H-M   'P 1'
_cell_length_a   9.20017141
_cell_length_b   9.20017141
_cell_length_c   2.87358100
_cell_angle_alpha   90.00000000
_cell_angle_beta   90.00000000
_cell_angle_gamma   89.86472217
_symmetry_Int_Tables_number   1
_chemical_formula_structural   Mn4Be2B4Ir9Rh
_chemical_formula_sum   'Mn4 Be2 B4 Ir9 Rh1'
_cell_volume   243.22828114
_cell_formula_units_Z   1
loop_
 _symmetry_equiv_pos_site_id
 _symmetry_equiv_pos_as_xyz
  1  'x, y, z'
loop_
 _atom_site_type_symbol
 _atom_site_label
 _atom_site_symmetry_multiplicity
 _atom_site_fract_x
 _atom_site_fract_y
 _atom_site_fract_z
 _atom_site_occupancy
  Mn  Mn0  1  0.676320  0.176320  0.000000  1
  Mn  Mn1  1  0.323680  0.823680  0.000000  1
  Mn  Mn2  1  0.177162  0.322838  0.000000  1
  Mn  Mn3  1  0.822838  0.677162  0.000000  1
  Be  Be4  1  0.000000  0.000000  0.000000  1
  Be  Be5  1  0.500000  0.500000  0.000000  1
  B  B6  1  0.131173  0.631173  0.000000  1
  B  B7  1  0.868827  0.368827  0.000000  1
  B  B8  1  0.630587  0.869413  0.000000  1
  B  B9  1  0.369413  0.130587  0.000000  1
  Ir  Ir10  1  0.205248  0.067472  0.500000  1
  Ir  Ir11  1  0.794752  0.932528  0.500000  1
  Ir  Ir12  1  0.067609  0.795825  0.500000  1
  Ir  Ir13  1  0.704175  0.432391  0.500000  1
  Ir  Ir14  1  0.932391  0.204175  0.500000  1
  Ir  Ir15  1  0.295825  0.567609  0.500000  1
  Ir  Ir16  1  0.567472  0.705248  0.500000  1
  Ir  Ir17  1  0.432528  0.294752  0.500000  1
  Ir  Ir18  1  0.000000  0.500000  0.500000  1
  Rh  Rh19  1  0.500000  0.000000  0.500000  1
