# generated using pymatgen
data_TbYb12Er7Si16
_symmetry_space_group_name_H-M   'P 1'
_cell_length_a   7.37373452
_cell_length_b   7.77993223
_cell_length_c   15.05767478
_cell_angle_alpha   89.98731231
_cell_angle_beta   90.03484722
_cell_angle_gamma   90.02470207
_symmetry_Int_Tables_number   1
_chemical_formula_structural   TbYb12Er7Si16
_chemical_formula_sum   'Tb1 Yb12 Er7 Si16'
_cell_volume   863.81569897
_cell_formula_units_Z   1
loop_
 _symmetry_equiv_pos_site_id
 _symmetry_equiv_pos_as_xyz
  1  'x, y, z'
loop_
 _atom_site_type_symbol
 _atom_site_label
 _atom_site_symmetry_multiplicity
 _atom_site_fract_x
 _atom_site_fract_y
 _atom_site_fract_z
 _atom_site_occupancy
  Tb  Tb0  1  0.314112  0.177538  0.121042  1
  Yb  Yb1  1  0.972572  0.816042  0.403926  1
  Yb  Yb2  1  0.473108  0.683663  0.096190  1
  Yb  Yb3  1  0.527219  0.316239  0.596198  1
  Yb  Yb4  1  0.027039  0.183877  0.903625  1
  Yb  Yb5  1  0.027297  0.183813  0.596217  1
  Yb  Yb6  1  0.527551  0.316296  0.903575  1
  Yb  Yb7  1  0.472731  0.683783  0.403888  1
  Yb  Yb8  1  0.972346  0.815964  0.096184  1
  Yb  Yb9  1  0.353227  0.019504  0.749939  1
  Yb  Yb10  1  0.853158  0.480419  0.750021  1
  Yb  Yb11  1  0.146652  0.519843  0.250250  1
  Yb  Yb12  1  0.647012  0.980223  0.250151  1
  Er  Er13  1  0.814426  0.323503  0.379077  1
  Er  Er14  1  0.185742  0.676569  0.878723  1
  Er  Er15  1  0.685753  0.823347  0.621071  1
  Er  Er16  1  0.314121  0.176439  0.379261  1
  Er  Er17  1  0.814189  0.323936  0.120984  1
  Er  Er18  1  0.185698  0.676613  0.621107  1
  Er  Er19  1  0.686133  0.823176  0.878625  1
  Si  Si20  1  0.857526  0.533642  0.538363  1
  Si  Si21  1  0.358512  0.965351  0.960698  1
  Si  Si22  1  0.642414  0.033545  0.461603  1
  Si  Si23  1  0.140794  0.467547  0.037830  1
  Si  Si24  1  0.142552  0.466315  0.461665  1
  Si  Si25  1  0.644242  0.032728  0.037781  1
  Si  Si26  1  0.357427  0.966380  0.538394  1
  Si  Si27  1  0.856925  0.534082  0.961450  1
  Si  Si28  1  0.977767  0.881531  0.749970  1
  Si  Si29  1  0.477746  0.618439  0.749951  1
  Si  Si30  1  0.523145  0.382706  0.250425  1
  Si  Si31  1  0.021294  0.117688  0.250851  1
  Si  Si32  1  0.249086  0.395548  0.749965  1
  Si  Si33  1  0.749259  0.104283  0.749960  1
  Si  Si34  1  0.249842  0.894635  0.250864  1
  Si  Si35  1  0.751384  0.604795  0.250177  1
