# generated using pymatgen
data_Li4DyEr2TmO8
_symmetry_space_group_name_H-M   'P 1'
_cell_length_a   3.35552800
_cell_length_b   5.28744115
_cell_length_c   11.11425900
_cell_angle_alpha   90.12718828
_cell_angle_beta   90.00000000
_cell_angle_gamma   90.00000000
_symmetry_Int_Tables_number   1
_chemical_formula_structural   Li4DyEr2TmO8
_chemical_formula_sum   'Li4 Dy1 Er2 Tm1 O8'
_cell_volume   197.19044041
_cell_formula_units_Z   1
loop_
 _symmetry_equiv_pos_site_id
 _symmetry_equiv_pos_as_xyz
  1  'x, y, z'
loop_
 _atom_site_type_symbol
 _atom_site_label
 _atom_site_symmetry_multiplicity
 _atom_site_fract_x
 _atom_site_fract_y
 _atom_site_fract_z
 _atom_site_occupancy
  Li  Li0  1  0.250000  0.096867  0.068084  1
  Li  Li1  1  0.250000  0.403013  0.566948  1
  Li  Li2  1  0.750000  0.597255  0.430782  1
  Li  Li3  1  0.750000  0.901972  0.933305  1
  Dy  Dy4  1  0.750000  0.952720  0.641301  1
  Er  Er5  1  0.250000  0.046692  0.359017  1
  Er  Er6  1  0.750000  0.545948  0.140303  1
  Tm  Tm7  1  0.250000  0.453781  0.861219  1
  O  O8  1  0.250000  0.194100  0.708250  1
  O  O9  1  0.750000  0.241285  0.472392  1
  O  O10  1  0.750000  0.259438  0.973292  1
  O  O11  1  0.250000  0.311377  0.207185  1
  O  O12  1  0.750000  0.685740  0.795044  1
  O  O13  1  0.250000  0.739630  0.026522  1
  O  O14  1  0.250000  0.758322  0.524632  1
  O  O15  1  0.750000  0.811859  0.291723  1
