# generated using pymatgen
data_Tb5Y3(HoIr2)2
_symmetry_space_group_name_H-M   'P 1'
_cell_length_a   6.51486988
_cell_length_b   7.22332768
_cell_length_c   8.57676466
_cell_angle_alpha   96.45967080
_cell_angle_beta   112.31768980
_cell_angle_gamma   89.92636039
_symmetry_Int_Tables_number   1
_chemical_formula_structural   Tb5Y3(HoIr2)2
_chemical_formula_sum   'Tb5 Y3 Ho2 Ir4'
_cell_volume   370.63294124
_cell_formula_units_Z   1
loop_
 _symmetry_equiv_pos_site_id
 _symmetry_equiv_pos_as_xyz
  1  'x, y, z'
loop_
 _atom_site_type_symbol
 _atom_site_label
 _atom_site_symmetry_multiplicity
 _atom_site_fract_x
 _atom_site_fract_y
 _atom_site_fract_z
 _atom_site_occupancy
  Tb  Tb0  1  0.971358  0.917522  0.181797  1
  Tb  Tb1  1  0.789210  0.582711  0.817870  1
  Tb  Tb2  1  0.028735  0.082798  0.818058  1
  Tb  Tb3  1  0.210527  0.417211  0.181982  1
  Tb  Tb4  1  0.653392  0.817694  0.440953  1
  Y  Y5  1  0.212544  0.682316  0.559170  1
  Y  Y6  1  0.346503  0.182828  0.559103  1
  Y  Y7  1  0.787497  0.317511  0.441004  1
  Ho  Ho8  1  0.428268  0.750024  0.999748  1
  Ho  Ho9  1  0.571672  0.249741  0.999937  1
  Ir  Ir10  1  0.823361  0.573139  0.217482  1
  Ir  Ir11  1  0.606012  0.926975  0.782598  1
  Ir  Ir12  1  0.176449  0.427005  0.782629  1
  Ir  Ir13  1  0.394471  0.072523  0.217670  1
