# generated using pymatgen
data_KSb2Cl11
_symmetry_space_group_name_H-M   'P 1'
_cell_length_a   7.43819810
_cell_length_b   7.53414057
_cell_length_c   17.75656247
_cell_angle_alpha   80.06570831
_cell_angle_beta   80.23031404
_cell_angle_gamma   89.55424139
_symmetry_Int_Tables_number   1
_chemical_formula_structural   KSb2Cl11
_chemical_formula_sum   'K2 Sb4 Cl22'
_cell_volume   965.71396337
_cell_formula_units_Z   2
loop_
 _symmetry_equiv_pos_site_id
 _symmetry_equiv_pos_as_xyz
  1  'x, y, z'
loop_
 _atom_site_type_symbol
 _atom_site_label
 _atom_site_symmetry_multiplicity
 _atom_site_fract_x
 _atom_site_fract_y
 _atom_site_fract_z
 _atom_site_occupancy
  K  K0  1  0.749213  0.752520  0.504334  1
  K  K1  1  0.250787  0.247480  0.495666  1
  Sb  Sb2  1  0.314832  0.813942  0.354888  1
  Sb  Sb3  1  0.685168  0.186058  0.645112  1
  Sb  Sb4  1  0.837240  0.333943  0.085472  1
  Sb  Sb5  1  0.162760  0.666057  0.914528  1
  Cl  Cl6  1  0.248255  0.773797  0.498160  1
  Cl  Cl7  1  0.751745  0.226203  0.501840  1
  Cl  Cl8  1  0.565157  0.011269  0.360255  1
  Cl  Cl9  1  0.434843  0.988731  0.639745  1
  Cl  Cl10  1  0.514921  0.559684  0.369427  1
  Cl  Cl11  1  0.485079  0.440316  0.630573  1
  Cl  Cl12  1  0.375999  0.850939  0.218761  1
  Cl  Cl13  1  0.624001  0.149061  0.781239  1
  Cl  Cl14  1  0.059444  0.608640  0.363756  1
  Cl  Cl15  1  0.940556  0.391360  0.636244  1
  Cl  Cl16  1  0.111885  0.064977  0.353612  1
  Cl  Cl17  1  0.888115  0.935023  0.646388  1
  Cl  Cl18  1  0.897944  0.044181  0.146613  1
  Cl  Cl19  1  0.102056  0.955819  0.853387  1
  Cl  Cl20  1  0.541672  0.379219  0.148197  1
  Cl  Cl21  1  0.458328  0.620781  0.851803  1
  Cl  Cl22  1  0.729972  0.224056  0.984381  1
  Cl  Cl23  1  0.270028  0.775944  0.015619  1
  Cl  Cl24  1  0.974177  0.474820  0.170927  1
  Cl  Cl25  1  0.025823  0.525180  0.829073  1
  Cl  Cl26  1  0.162806  0.345682  0.999469  1
  Cl  Cl27  1  0.837194  0.654318  0.000531  1
