# generated using pymatgen
data_Th2TaNbN4
_symmetry_space_group_name_H-M   'P 1'
_cell_length_a   3.41047500
_cell_length_b   5.89075093
_cell_length_c   11.12977010
_cell_angle_alpha   90.17575514
_cell_angle_beta   90.00000000
_cell_angle_gamma   90.00000000
_symmetry_Int_Tables_number   1
_chemical_formula_structural   Th2TaNbN4
_chemical_formula_sum   'Th4 Ta2 Nb2 N8'
_cell_volume   223.59890922
_cell_formula_units_Z   2
loop_
 _symmetry_equiv_pos_site_id
 _symmetry_equiv_pos_as_xyz
  1  'x, y, z'
loop_
 _atom_site_type_symbol
 _atom_site_label
 _atom_site_symmetry_multiplicity
 _atom_site_fract_x
 _atom_site_fract_y
 _atom_site_fract_z
 _atom_site_occupancy
  Th  Th0  1  0.250000  0.577103  0.856865  1
  Th  Th1  1  0.750000  0.422897  0.143135  1
  Th  Th2  1  0.750000  0.921554  0.357139  1
  Th  Th3  1  0.250000  0.078446  0.642861  1
  Ta  Ta4  1  0.750000  0.575193  0.596188  1
  Ta  Ta5  1  0.250000  0.424807  0.403812  1
  Nb  Nb6  1  0.250000  0.930267  0.094935  1
  Nb  Nb7  1  0.750000  0.069733  0.905065  1
  N  N8  1  0.250000  0.660274  0.251709  1
  N  N9  1  0.750000  0.339726  0.748291  1
  N  N10  1  0.750000  0.834180  0.746073  1
  N  N11  1  0.250000  0.165820  0.253927  1
  N  N12  1  0.250000  0.748327  0.509284  1
  N  N13  1  0.750000  0.251673  0.490716  1
  N  N14  1  0.750000  0.744532  0.007213  1
  N  N15  1  0.250000  0.255468  0.992787  1
