# generated using pymatgen
data_Tb9Dy(SnSb)3
_symmetry_space_group_name_H-M   'P 1'
_cell_length_a   6.43002200
_cell_length_b   9.03473277
_cell_length_c   9.03471200
_cell_angle_alpha   120.00022320
_cell_angle_beta   89.99981922
_cell_angle_gamma   90.00026151
_symmetry_Int_Tables_number   1
_chemical_formula_structural   Tb9Dy(SnSb)3
_chemical_formula_sum   'Tb9 Dy1 Sn3 Sb3'
_cell_volume   454.53961366
_cell_formula_units_Z   1
loop_
 _symmetry_equiv_pos_site_id
 _symmetry_equiv_pos_as_xyz
  1  'x, y, z'
loop_
 _atom_site_type_symbol
 _atom_site_label
 _atom_site_symmetry_multiplicity
 _atom_site_fract_x
 _atom_site_fract_y
 _atom_site_fract_z
 _atom_site_occupancy
  Tb  Tb0  1  0.500595  0.333336  0.666679  1
  Tb  Tb1  1  0.500536  0.666656  0.333320  1
  Tb  Tb2  1  0.999477  0.666658  0.333323  1
  Tb  Tb3  1  0.750013  0.241686  0.999996  1
  Tb  Tb4  1  0.750015  0.758303  0.758298  1
  Tb  Tb5  1  0.750015  0.000015  0.241706  1
  Tb  Tb6  1  0.249981  0.757828  0.000004  1
  Tb  Tb7  1  0.249984  0.242186  0.242189  1
  Tb  Tb8  1  0.249984  0.999989  0.757807  1
  Dy  Dy9  1  0.999382  0.333336  0.666677  1
  Sn  Sn10  1  0.750066  0.607245  0.999911  1
  Sn  Sn11  1  0.750066  0.392703  0.392797  1
  Sn  Sn12  1  0.750065  0.000084  0.607292  1
  Sb  Sb13  1  0.249931  0.391343  0.999924  1
  Sb  Sb14  1  0.249946  0.608563  0.608645  1
  Sb  Sb15  1  0.249946  0.000069  0.391430  1
