# generated using pymatgen
data_Cd3P6PbN13
_symmetry_space_group_name_H-M   'P 1'
_cell_length_a   7.35863465
_cell_length_b   7.33150419
_cell_length_c   7.33150528
_cell_angle_alpha   109.39613958
_cell_angle_beta   109.54620433
_cell_angle_gamma   109.54620035
_symmetry_Int_Tables_number   1
_chemical_formula_structural   Cd3P6PbN13
_chemical_formula_sum   'Cd3 P6 Pb1 N13'
_cell_volume   304.19974245
_cell_formula_units_Z   1
loop_
 _symmetry_equiv_pos_site_id
 _symmetry_equiv_pos_as_xyz
  1  'x, y, z'
loop_
 _atom_site_type_symbol
 _atom_site_label
 _atom_site_symmetry_multiplicity
 _atom_site_fract_x
 _atom_site_fract_y
 _atom_site_fract_z
 _atom_site_occupancy
  Cd  Cd0  1  0.998611  0.000000  0.693424  1
  Cd  Cd1  1  0.998611  0.693424  0.000000  1
  Cd  Cd2  1  0.305188  0.306576  0.306576  1
  P  P3  1  0.245801  0.748470  0.497880  1
  P  P4  1  0.747921  0.250589  0.502120  1
  P  P5  1  0.747921  0.502120  0.250589  1
  P  P6  1  0.245801  0.497880  0.748470  1
  P  P7  1  0.497332  0.749411  0.251530  1
  P  P8  1  0.497332  0.251530  0.749411  1
  Pb  Pb9  1  0.707206  0.000000  0.000000  1
  N  N10  1  0.031082  0.000000  0.000000  1
  N  N11  1  0.709753  0.282930  0.282930  1
  N  N12  1  0.278802  0.711690  0.280859  1
  N  N13  1  0.289707  0.571522  0.571522  1
  N  N14  1  0.567113  0.569169  0.288310  1
  N  N15  1  0.426823  0.717070  0.000000  1
  N  N16  1  0.997944  0.719141  0.430831  1
  N  N17  1  0.567113  0.288310  0.569169  1
  N  N18  1  0.718185  0.000000  0.428478  1
  N  N19  1  0.426823  0.000000  0.717070  1
  N  N20  1  0.718185  0.428478  0.000000  1
  N  N21  1  0.278802  0.280859  0.711690  1
  N  N22  1  0.997944  0.430831  0.719141  1
