# generated using pymatgen
data_Rh2(Se3Cl2)3
_symmetry_space_group_name_H-M   'P 1'
_cell_length_a   14.99748711
_cell_length_b   14.99748735
_cell_length_c   14.99748700
_cell_angle_alpha   130.37544796
_cell_angle_beta   130.37544874
_cell_angle_gamma   72.80725744
_symmetry_Int_Tables_number   1
_chemical_formula_structural   Rh2(Se3Cl2)3
_chemical_formula_sum   'Rh8 Se36 Cl24'
_cell_volume   1912.49865304
_cell_formula_units_Z   4
loop_
 _symmetry_equiv_pos_site_id
 _symmetry_equiv_pos_as_xyz
  1  'x, y, z'
loop_
 _atom_site_type_symbol
 _atom_site_label
 _atom_site_symmetry_multiplicity
 _atom_site_fract_x
 _atom_site_fract_y
 _atom_site_fract_z
 _atom_site_occupancy
  Rh  Rh0  1  0.624721  0.153771  0.747402  1
  Rh  Rh1  1  0.406368  0.877320  0.252598  1
  Rh  Rh2  1  0.627320  0.874721  0.970950  1
  Rh  Rh3  1  0.903771  0.656368  0.029050  1
  Rh  Rh4  1  0.125279  0.096229  0.752598  1
  Rh  Rh5  1  0.343632  0.372680  0.247402  1
  Rh  Rh6  1  0.122680  0.375279  0.529050  1
  Rh  Rh7  1  0.846229  0.593632  0.470950  1
  Se  Se8  1  0.691976  0.129650  0.624713  1
  Se  Se9  1  0.504937  0.067263  0.375287  1
  Se  Se10  1  0.817263  0.941976  0.062327  1
  Se  Se11  1  0.879650  0.754937  0.937673  1
  Se  Se12  1  0.058024  0.120350  0.875287  1
  Se  Se13  1  0.245063  0.182737  0.124713  1
  Se  Se14  1  0.932737  0.308024  0.437673  1
  Se  Se15  1  0.870350  0.495063  0.562327  1
  Se  Se16  1  0.748842  0.938329  0.522815  1
  Se  Se17  1  0.415513  0.226027  0.477185  1
  Se  Se18  1  0.976027  0.998842  0.310514  1
  Se  Se19  1  0.688329  0.665513  0.689486  1
  Se  Se20  1  0.001158  0.311671  0.977185  1
  Se  Se21  1  0.334487  0.023973  0.022815  1
  Se  Se22  1  0.773973  0.251158  0.189486  1
  Se  Se23  1  0.061671  0.584487  0.810514  1
  Se  Se24  1  0.573104  0.826093  0.406021  1
  Se  Se25  1  0.420071  0.167083  0.593979  1
  Se  Se26  1  0.917083  0.823104  0.247011  1
  Se  Se27  1  0.576093  0.670071  0.752989  1
  Se  Se28  1  0.176896  0.423907  0.093979  1
  Se  Se29  1  0.329929  0.082917  0.906021  1
  Se  Se30  1  0.832917  0.426896  0.252989  1
  Se  Se31  1  0.173907  0.579929  0.747011  1
  Se  Se32  1  0.591862  0.947521  0.639466  1
  Se  Se33  1  0.308055  0.952397  0.360534  1
  Se  Se34  1  0.702397  0.841862  0.144341  1
  Se  Se35  1  0.697521  0.558055  0.855659  1
  Se  Se36  1  0.158138  0.302479  0.860534  1
  Se  Se37  1  0.441945  0.297603  0.139466  1
  Se  Se38  1  0.047603  0.408138  0.355659  1
  Se  Se39  1  0.052479  0.691945  0.644341  1
  Se  Se40  1  0.384687  0.884687  0.500000  1
  Se  Se41  1  0.634687  0.634687  0.000000  1
  Se  Se42  1  0.365313  0.365313  0.000000  1
  Se  Se43  1  0.115313  0.615313  0.500000  1
  Cl  Cl44  1  0.575991  0.204734  0.898389  1
  Cl  Cl45  1  0.306346  0.677603  0.101611  1
  Cl  Cl46  1  0.427603  0.825991  0.871257  1
  Cl  Cl47  1  0.954734  0.556346  0.128743  1
  Cl  Cl48  1  0.174009  0.045266  0.601611  1
  Cl  Cl49  1  0.443654  0.572397  0.398389  1
  Cl  Cl50  1  0.322397  0.424009  0.628743  1
  Cl  Cl51  1  0.795266  0.693654  0.371257  1
  Cl  Cl52  1  0.677526  0.363334  0.883391  1
  Cl  Cl53  1  0.479943  0.794136  0.116609  1
  Cl  Cl54  1  0.544136  0.927526  0.814193  1
  Cl  Cl55  1  0.113334  0.729943  0.185807  1
  Cl  Cl56  1  0.072474  0.886666  0.616609  1
  Cl  Cl57  1  0.270057  0.455864  0.383391  1
  Cl  Cl58  1  0.205864  0.322474  0.685807  1
  Cl  Cl59  1  0.636666  0.520057  0.314193  1
  Cl  Cl60  1  0.830357  0.157842  0.922478  1
  Cl  Cl61  1  0.235364  0.907879  0.077522  1
  Cl  Cl62  1  0.657879  0.080357  0.172515  1
  Cl  Cl63  1  0.907842  0.485364  0.827485  1
  Cl  Cl64  1  0.919643  0.092158  0.577522  1
  Cl  Cl65  1  0.514636  0.342121  0.422478  1
  Cl  Cl66  1  0.092121  0.169643  0.327485  1
  Cl  Cl67  1  0.842158  0.764636  0.672515  1
