# generated using pymatgen
data_TbDy6Sn23Os6
_symmetry_space_group_name_H-M   'P 1'
_cell_length_a   9.86609400
_cell_length_b   9.86609347
_cell_length_c   10.13315100
_cell_angle_alpha   90.00000000
_cell_angle_beta   90.00000000
_cell_angle_gamma   119.99999509
_symmetry_Int_Tables_number   1
_chemical_formula_structural   TbDy6Sn23Os6
_chemical_formula_sum   'Tb1 Dy6 Sn23 Os6'
_cell_volume   854.21194838
_cell_formula_units_Z   1
loop_
 _symmetry_equiv_pos_site_id
 _symmetry_equiv_pos_as_xyz
  1  'x, y, z'
loop_
 _atom_site_type_symbol
 _atom_site_label
 _atom_site_symmetry_multiplicity
 _atom_site_fract_x
 _atom_site_fract_y
 _atom_site_fract_z
 _atom_site_occupancy
  Tb  Tb0  1  0.000000  0.000000  0.000000  1
  Dy  Dy1  1  0.485429  0.514571  0.301786  1
  Dy  Dy2  1  0.514571  0.485429  0.698214  1
  Dy  Dy3  1  0.485429  0.970857  0.301786  1
  Dy  Dy4  1  0.514571  0.029143  0.698214  1
  Dy  Dy5  1  0.029143  0.514571  0.301786  1
  Dy  Dy6  1  0.970857  0.485429  0.698214  1
  Sn  Sn7  1  0.349683  0.000000  0.000000  1
  Sn  Sn8  1  0.650317  0.000000  0.000000  1
  Sn  Sn9  1  0.000000  0.349683  0.000000  1
  Sn  Sn10  1  0.000000  0.650317  0.000000  1
  Sn  Sn11  1  0.650317  0.650317  0.000000  1
  Sn  Sn12  1  0.349683  0.349683  0.000000  1
  Sn  Sn13  1  0.333333  0.666667  0.825099  1
  Sn  Sn14  1  0.666667  0.333333  0.174901  1
  Sn  Sn15  1  0.000000  0.000000  0.500000  1
  Sn  Sn16  1  0.780162  0.219838  0.463371  1
  Sn  Sn17  1  0.219838  0.780162  0.536629  1
  Sn  Sn18  1  0.780162  0.560323  0.463371  1
  Sn  Sn19  1  0.219838  0.439677  0.536629  1
  Sn  Sn20  1  0.439677  0.219838  0.463371  1
  Sn  Sn21  1  0.560323  0.780162  0.536629  1
  Sn  Sn22  1  0.333333  0.666667  0.129885  1
  Sn  Sn23  1  0.666667  0.333333  0.870115  1
  Sn  Sn24  1  0.117545  0.882455  0.275657  1
  Sn  Sn25  1  0.882455  0.117545  0.724343  1
  Sn  Sn26  1  0.117545  0.235090  0.275657  1
  Sn  Sn27  1  0.882455  0.764910  0.724343  1
  Sn  Sn28  1  0.764910  0.882455  0.275657  1
  Sn  Sn29  1  0.235090  0.117545  0.724343  1
  Os  Os30  1  0.829715  0.170285  0.202262  1
  Os  Os31  1  0.170285  0.829715  0.797738  1
  Os  Os32  1  0.829715  0.659429  0.202262  1
  Os  Os33  1  0.170285  0.340571  0.797738  1
  Os  Os34  1  0.340571  0.170285  0.202262  1
  Os  Os35  1  0.659429  0.829715  0.797738  1
