# generated using pymatgen
data_Lu15Th(InPt)4
_symmetry_space_group_name_H-M   'P 1'
_cell_length_a   9.54564357
_cell_length_b   9.54564312
_cell_length_c   9.54564341
_cell_angle_alpha   60.17449503
_cell_angle_beta   60.17449542
_cell_angle_gamma   60.17449644
_symmetry_Int_Tables_number   1
_chemical_formula_structural   Lu15Th(InPt)4
_chemical_formula_sum   'Lu15 Th1 In4 Pt4'
_cell_volume   617.46665946
_cell_formula_units_Z   1
loop_
 _symmetry_equiv_pos_site_id
 _symmetry_equiv_pos_as_xyz
  1  'x, y, z'
loop_
 _atom_site_type_symbol
 _atom_site_label
 _atom_site_symmetry_multiplicity
 _atom_site_fract_x
 _atom_site_fract_y
 _atom_site_fract_z
 _atom_site_occupancy
  Lu  Lu0  1  0.601668  0.601668  0.193628  1
  Lu  Lu1  1  0.601668  0.193628  0.601668  1
  Lu  Lu2  1  0.193628  0.601668  0.601668  1
  Lu  Lu3  1  0.064192  0.438134  0.438134  1
  Lu  Lu4  1  0.442097  0.059319  0.059319  1
  Lu  Lu5  1  0.438134  0.064192  0.438134  1
  Lu  Lu6  1  0.059319  0.442097  0.059319  1
  Lu  Lu7  1  0.438134  0.438134  0.064192  1
  Lu  Lu8  1  0.059319  0.059319  0.442097  1
  Lu  Lu9  1  0.183816  0.814877  0.814877  1
  Lu  Lu10  1  0.811572  0.188258  0.188258  1
  Lu  Lu11  1  0.814877  0.183816  0.814877  1
  Lu  Lu12  1  0.188258  0.811572  0.188258  1
  Lu  Lu13  1  0.814877  0.814877  0.183816  1
  Lu  Lu14  1  0.188258  0.188258  0.811572  1
  Th  Th15  1  0.600030  0.600030  0.600030  1
  In  In16  1  0.834862  0.834862  0.834862  1
  In  In17  1  0.835614  0.835614  0.497558  1
  In  In18  1  0.835614  0.497558  0.835614  1
  In  In19  1  0.497558  0.835614  0.835614  1
  Pt  Pt20  1  0.393653  0.393653  0.393653  1
  Pt  Pt21  1  0.389022  0.389022  0.824810  1
  Pt  Pt22  1  0.389022  0.824810  0.389022  1
  Pt  Pt23  1  0.824810  0.389022  0.389022  1
