# generated using pymatgen
data_YErCo12Si4P3
_symmetry_space_group_name_H-M   'P 1'
_cell_length_a   9.08666100
_cell_length_b   9.08666002
_cell_length_c   3.59522300
_cell_angle_alpha   90.00000000
_cell_angle_beta   90.00000000
_cell_angle_gamma   119.99999263
_symmetry_Int_Tables_number   1
_chemical_formula_structural   YErCo12Si4P3
_chemical_formula_sum   'Y1 Er1 Co12 Si4 P3'
_cell_volume   257.07811248
_cell_formula_units_Z   1
loop_
 _symmetry_equiv_pos_site_id
 _symmetry_equiv_pos_as_xyz
  1  'x, y, z'
loop_
 _atom_site_type_symbol
 _atom_site_label
 _atom_site_symmetry_multiplicity
 _atom_site_fract_x
 _atom_site_fract_y
 _atom_site_fract_z
 _atom_site_occupancy
  Y  Y0  1  0.666667  0.333333  0.500000  1
  Er  Er1  1  0.333333  0.666667  0.000000  1
  Co  Co2  1  0.129880  0.849912  0.000000  1
  Co  Co3  1  0.379589  0.438757  0.500000  1
  Co  Co4  1  0.720032  0.870120  0.000000  1
  Co  Co5  1  0.561243  0.940832  0.500000  1
  Co  Co6  1  0.234804  0.104077  0.500000  1
  Co  Co7  1  0.869273  0.765196  0.500000  1
  Co  Co8  1  0.895923  0.130727  0.500000  1
  Co  Co9  1  0.946431  0.381614  0.000000  1
  Co  Co10  1  0.618386  0.564817  0.000000  1
  Co  Co11  1  0.435183  0.053569  0.000000  1
  Co  Co12  1  0.059168  0.620411  0.500000  1
  Co  Co13  1  0.150088  0.279968  0.000000  1
  Si  Si14  1  0.000000  0.000000  0.000000  1
  Si  Si15  1  0.713386  0.111519  0.000000  1
  Si  Si16  1  0.888481  0.601868  0.000000  1
  Si  Si17  1  0.398132  0.286614  0.000000  1
  P  P18  1  0.597936  0.707169  0.500000  1
  P  P19  1  0.292831  0.890767  0.500000  1
  P  P20  1  0.109233  0.402064  0.500000  1
