# generated using pymatgen
data_Dy4Cu3Ni
_symmetry_space_group_name_H-M   'P 1'
_cell_length_a   4.42816800
_cell_length_b   5.37856131
_cell_length_c   7.05701435
_cell_angle_alpha   90.24206444
_cell_angle_beta   90.00000000
_cell_angle_gamma   90.00000000
_symmetry_Int_Tables_number   1
_chemical_formula_structural   Dy4Cu3Ni
_chemical_formula_sum   'Dy4 Cu3 Ni1'
_cell_volume   168.07663203
_cell_formula_units_Z   1
loop_
 _symmetry_equiv_pos_site_id
 _symmetry_equiv_pos_as_xyz
  1  'x, y, z'
loop_
 _atom_site_type_symbol
 _atom_site_label
 _atom_site_symmetry_multiplicity
 _atom_site_fract_x
 _atom_site_fract_y
 _atom_site_fract_z
 _atom_site_occupancy
  Dy  Dy0  1  0.250000  0.369535  0.685881  1
  Dy  Dy1  1  0.750000  0.635612  0.311007  1
  Dy  Dy2  1  0.750000  0.860476  0.825254  1
  Dy  Dy3  1  0.250000  0.133837  0.177102  1
  Cu  Cu4  1  0.250000  0.875988  0.534146  1
  Cu  Cu5  1  0.750000  0.125391  0.467735  1
  Cu  Cu6  1  0.750000  0.372545  0.964465  1
  Ni  Ni7  1  0.250000  0.626616  0.034409  1
