# generated using pymatgen
data_Na4TaAlH11
_symmetry_space_group_name_H-M   'P 1'
_cell_length_a   5.75833999
_cell_length_b   8.53931960
_cell_length_c   10.30468900
_cell_angle_alpha   65.50746279
_cell_angle_beta   89.16670356
_cell_angle_gamma   89.10333958
_symmetry_Int_Tables_number   1
_chemical_formula_structural   Na4TaAlH11
_chemical_formula_sum   'Na8 Ta2 Al2 H22'
_cell_volume   461.03504531
_cell_formula_units_Z   2
loop_
 _symmetry_equiv_pos_site_id
 _symmetry_equiv_pos_as_xyz
  1  'x, y, z'
loop_
 _atom_site_type_symbol
 _atom_site_label
 _atom_site_symmetry_multiplicity
 _atom_site_fract_x
 _atom_site_fract_y
 _atom_site_fract_z
 _atom_site_occupancy
  Na  Na0  1  0.744499  0.378196  0.493726  1
  Na  Na1  1  0.255515  0.621800  0.506275  1
  Na  Na2  1  0.736702  0.333642  0.088431  1
  Na  Na3  1  0.263302  0.666367  0.911560  1
  Na  Na4  1  0.727575  0.931779  0.420444  1
  Na  Na5  1  0.272427  0.068216  0.579554  1
  Na  Na6  1  0.275269  0.308697  0.857779  1
  Na  Na7  1  0.724735  0.691302  0.142228  1
  Ta  Ta8  1  0.773583  0.572092  0.728620  1
  Ta  Ta9  1  0.226437  0.427913  0.271370  1
  Al  Al10  1  0.766041  0.880977  0.751277  1
  Al  Al11  1  0.233971  0.119016  0.248720  1
  H  H12  1  0.543125  0.748330  0.691932  1
  H  H13  1  0.456874  0.251676  0.308059  1
  H  H14  1  0.561586  0.440106  0.676114  1
  H  H15  1  0.438404  0.559888  0.323883  1
  H  H16  1  0.677261  0.057620  0.603849  1
  H  H17  1  0.322740  0.942386  0.396145  1
  H  H18  1  0.547537  0.488795  0.872390  1
  H  H19  1  0.452442  0.511204  0.127620  1
  H  H20  1  0.914932  0.788001  0.638366  1
  H  H21  1  0.085060  0.211989  0.361641  1
  H  H22  1  0.810987  0.633434  0.530469  1
  H  H23  1  0.189020  0.366564  0.469537  1
  H  H24  1  0.024209  0.957110  0.776418  1
  H  H25  1  0.975793  0.042898  0.223582  1
  H  H26  1  0.849632  0.649585  0.870681  1
  H  H27  1  0.150368  0.350419  0.129319  1
  H  H28  1  0.871833  0.356725  0.864502  1
  H  H29  1  0.128172  0.643266  0.135504  1
  H  H30  1  0.093862  0.561582  0.724057  1
  H  H31  1  0.906120  0.438422  0.275948  1
  H  H32  1  0.586489  0.893865  0.875739  1
  H  H33  1  0.413499  0.106139  0.124258  1
