# generated using pymatgen
data_Mg5In11(BIr4)2
_symmetry_space_group_name_H-M   'P 1'
_cell_length_a   8.76237195
_cell_length_b   8.79027174
_cell_length_c   8.79027097
_cell_angle_alpha   60.23670932
_cell_angle_beta   60.10400973
_cell_angle_gamma   60.10399959
_symmetry_Int_Tables_number   1
_chemical_formula_structural   Mg5In11(BIr4)2
_chemical_formula_sum   'Mg5 In11 B2 Ir8'
_cell_volume   480.35856283
_cell_formula_units_Z   1
loop_
 _symmetry_equiv_pos_site_id
 _symmetry_equiv_pos_as_xyz
  1  'x, y, z'
loop_
 _atom_site_type_symbol
 _atom_site_label
 _atom_site_symmetry_multiplicity
 _atom_site_fract_x
 _atom_site_fract_y
 _atom_site_fract_z
 _atom_site_occupancy
  Mg  Mg0  1  0.125292  0.123070  0.626348  1
  Mg  Mg1  1  0.125292  0.626348  0.123070  1
  Mg  Mg2  1  0.124941  0.124639  0.124639  1
  Mg  Mg3  1  0.625783  0.124639  0.124639  1
  Mg  Mg4  1  0.296366  0.703634  0.703634  1
  In  In5  1  0.959058  0.949372  0.547579  1
  In  In6  1  0.298449  0.701979  0.299418  1
  In  In7  1  0.700151  0.299429  0.701975  1
  In  In8  1  0.298449  0.299418  0.701979  1
  In  In9  1  0.704634  0.295367  0.295367  1
  In  In10  1  0.700151  0.701975  0.299429  1
  In  In11  1  0.952675  0.547325  0.547325  1
  In  In12  1  0.548142  0.951859  0.951859  1
  In  In13  1  0.543984  0.949373  0.547572  1
  In  In14  1  0.543984  0.547572  0.949373  1
  In  In15  1  0.959058  0.547579  0.949372  1
  B  B16  1  0.250132  0.249872  0.249872  1
  B  B17  1  0.998472  0.001527  0.001527  1
  Ir  Ir18  1  0.901753  0.901668  0.901668  1
  Ir  Ir19  1  0.900505  0.298002  0.900990  1
  Ir  Ir20  1  0.294910  0.901670  0.901670  1
  Ir  Ir21  1  0.347578  0.349503  0.955340  1
  Ir  Ir22  1  0.953480  0.348922  0.348922  1
  Ir  Ir23  1  0.900505  0.900990  0.298002  1
  Ir  Ir24  1  0.347578  0.955340  0.349503  1
  Ir  Ir25  1  0.348680  0.348923  0.348923  1
