# generated using pymatgen
data_UTl2S5
_symmetry_space_group_name_H-M   'P 1'
_cell_length_a   8.51763500
_cell_length_b   8.16169100
_cell_length_c   12.64115000
_cell_angle_alpha   90.00000000
_cell_angle_beta   90.00000000
_cell_angle_gamma   90.00000000
_symmetry_Int_Tables_number   1
_chemical_formula_structural   UTl2S5
_chemical_formula_sum   'U4 Tl8 S20'
_cell_volume   878.79132025
_cell_formula_units_Z   4
loop_
 _symmetry_equiv_pos_site_id
 _symmetry_equiv_pos_as_xyz
  1  'x, y, z'
loop_
 _atom_site_type_symbol
 _atom_site_label
 _atom_site_symmetry_multiplicity
 _atom_site_fract_x
 _atom_site_fract_y
 _atom_site_fract_z
 _atom_site_occupancy
  U  U0  1  0.033523  0.750000  0.485062  1
  U  U1  1  0.466477  0.750000  0.985062  1
  U  U2  1  0.966477  0.250000  0.514938  1
  U  U3  1  0.533523  0.250000  0.014938  1
  Tl  Tl4  1  0.518324  0.522266  0.314166  1
  Tl  Tl5  1  0.981676  0.977734  0.814166  1
  Tl  Tl6  1  0.481676  0.022266  0.685834  1
  Tl  Tl7  1  0.018324  0.477734  0.185834  1
  Tl  Tl8  1  0.481676  0.477734  0.685834  1
  Tl  Tl9  1  0.018324  0.022266  0.185834  1
  Tl  Tl10  1  0.518324  0.977734  0.314166  1
  Tl  Tl11  1  0.981676  0.522266  0.814166  1
  S  S12  1  0.853999  0.961830  0.578208  1
  S  S13  1  0.646001  0.538170  0.078208  1
  S  S14  1  0.146001  0.461830  0.421792  1
  S  S15  1  0.353999  0.038170  0.921792  1
  S  S16  1  0.146001  0.038170  0.421792  1
  S  S17  1  0.353999  0.461830  0.921792  1
  S  S18  1  0.853999  0.538170  0.578208  1
  S  S19  1  0.646001  0.961830  0.078208  1
  S  S20  1  0.882449  0.750000  0.316449  1
  S  S21  1  0.617551  0.750000  0.816449  1
  S  S22  1  0.117551  0.250000  0.683551  1
  S  S23  1  0.382449  0.250000  0.183551  1
  S  S24  1  0.358597  0.750000  0.539145  1
  S  S25  1  0.141403  0.750000  0.039145  1
  S  S26  1  0.641403  0.250000  0.460855  1
  S  S27  1  0.858597  0.250000  0.960855  1
  S  S28  1  0.199692  0.750000  0.663635  1
  S  S29  1  0.300308  0.750000  0.163635  1
  S  S30  1  0.800308  0.250000  0.336365  1
  S  S31  1  0.699692  0.250000  0.836365  1
