# generated using pymatgen
data_Pr4Mn3(FeO4)5
_symmetry_space_group_name_H-M   'P 1'
_cell_length_a   5.86004900
_cell_length_b   7.65596204
_cell_length_c   8.78704257
_cell_angle_alpha   89.84229955
_cell_angle_beta   90.00000000
_cell_angle_gamma   90.00000000
_symmetry_Int_Tables_number   1
_chemical_formula_structural   Pr4Mn3(FeO4)5
_chemical_formula_sum   'Pr4 Mn3 Fe5 O20'
_cell_volume   394.22313208
_cell_formula_units_Z   1
loop_
 _symmetry_equiv_pos_site_id
 _symmetry_equiv_pos_as_xyz
  1  'x, y, z'
loop_
 _atom_site_type_symbol
 _atom_site_label
 _atom_site_symmetry_multiplicity
 _atom_site_fract_x
 _atom_site_fract_y
 _atom_site_fract_z
 _atom_site_occupancy
  Pr  Pr0  1  0.998070  0.360103  0.673494  1
  Pr  Pr1  1  0.998070  0.639897  0.326506  1
  Pr  Pr2  1  0.999622  0.861578  0.829725  1
  Pr  Pr3  1  0.999622  0.138422  0.170275  1
  Mn  Mn4  1  0.747695  0.000000  0.500000  1
  Mn  Mn5  1  0.747255  0.500000  0.000000  1
  Mn  Mn6  1  0.253275  0.000000  0.500000  1
  Fe  Fe7  1  0.501799  0.110005  0.856977  1
  Fe  Fe8  1  0.501799  0.889995  0.143023  1
  Fe  Fe9  1  0.500057  0.610171  0.643412  1
  Fe  Fe10  1  0.500057  0.389829  0.356588  1
  Fe  Fe11  1  0.254834  0.500000  0.000000  1
  O  O12  1  0.249738  0.903591  0.294546  1
  O  O13  1  0.249738  0.096409  0.705454  1
  O  O14  1  0.749913  0.401277  0.207380  1
  O  O15  1  0.749913  0.598723  0.792620  1
  O  O16  1  0.751425  0.094554  0.705129  1
  O  O17  1  0.751425  0.905446  0.294871  1
  O  O18  1  0.248376  0.600012  0.786470  1
  O  O19  1  0.248376  0.399988  0.213530  1
  O  O20  1  0.508531  0.343920  0.931927  1
  O  O21  1  0.508531  0.656080  0.068073  1
  O  O22  1  0.500492  0.846524  0.562414  1
  O  O23  1  0.500492  0.153476  0.437586  1
  O  O24  1  0.276192  0.000000  0.000000  1
  O  O25  1  0.721739  0.500000  0.500000  1
  O  O26  1  0.724289  0.000000  0.000000  1
  O  O27  1  0.278505  0.500000  0.500000  1
  O  O28  1  0.000193  0.155074  0.449007  1
  O  O29  1  0.000193  0.844926  0.550993  1
  O  O30  1  0.989892  0.659093  0.052529  1
  O  O31  1  0.989892  0.340907  0.947471  1
