# generated using pymatgen
data_Tb8Ho12Si15Hg
_symmetry_space_group_name_H-M   'P 1'
_cell_length_a   7.42163581
_cell_length_b   7.71840311
_cell_length_c   14.66811276
_cell_angle_alpha   89.89053752
_cell_angle_beta   89.20827011
_cell_angle_gamma   90.04132144
_symmetry_Int_Tables_number   1
_chemical_formula_structural   Tb8Ho12Si15Hg
_chemical_formula_sum   'Tb8 Ho12 Si15 Hg1'
_cell_volume   840.15411135
_cell_formula_units_Z   1
loop_
 _symmetry_equiv_pos_site_id
 _symmetry_equiv_pos_as_xyz
  1  'x, y, z'
loop_
 _atom_site_type_symbol
 _atom_site_label
 _atom_site_symmetry_multiplicity
 _atom_site_fract_x
 _atom_site_fract_y
 _atom_site_fract_z
 _atom_site_occupancy
  Tb  Tb0  1  0.020011  0.180836  0.098892  1
  Tb  Tb1  1  0.979463  0.820128  0.903418  1
  Tb  Tb2  1  0.479787  0.682404  0.903239  1
  Tb  Tb3  1  0.983665  0.827874  0.599055  1
  Tb  Tb4  1  0.518650  0.317244  0.097739  1
  Tb  Tb5  1  0.012873  0.174233  0.397841  1
  Tb  Tb6  1  0.516578  0.316606  0.398773  1
  Tb  Tb7  1  0.491040  0.688333  0.600521  1
  Ho  Ho8  1  0.162229  0.510700  0.752607  1
  Ho  Ho9  1  0.838207  0.489367  0.251162  1
  Ho  Ho10  1  0.338371  0.008754  0.249836  1
  Ho  Ho11  1  0.664346  0.988106  0.750555  1
  Ho  Ho12  1  0.338656  0.169687  0.625794  1
  Ho  Ho13  1  0.665304  0.823047  0.376099  1
  Ho  Ho14  1  0.168221  0.679031  0.372657  1
  Ho  Ho15  1  0.672162  0.821049  0.122589  1
  Ho  Ho16  1  0.826713  0.325318  0.623272  1
  Ho  Ho17  1  0.326995  0.178443  0.878063  1
  Ho  Ho18  1  0.825877  0.319754  0.878214  1
  Ho  Ho19  1  0.172424  0.678960  0.123035  1
  Si  Si20  1  0.035926  0.111035  0.752274  1
  Si  Si21  1  0.964174  0.893079  0.247710  1
  Si  Si22  1  0.466693  0.605096  0.247786  1
  Si  Si23  1  0.533891  0.395267  0.752119  1
  Si  Si24  1  0.277211  0.874623  0.752296  1
  Si  Si25  1  0.720438  0.126439  0.247726  1
  Si  Si26  1  0.221516  0.370628  0.247749  1
  Si  Si27  1  0.780238  0.626832  0.753166  1
  Si  Si28  1  0.833152  0.532527  0.458317  1
  Si  Si29  1  0.334592  0.967060  0.459374  1
  Si  Si30  1  0.847350  0.531421  0.038667  1
  Si  Si31  1  0.663697  0.034205  0.538025  1
  Si  Si32  1  0.150549  0.467610  0.962386  1
  Si  Si33  1  0.651815  0.030232  0.960909  1
  Si  Si34  1  0.346802  0.969250  0.039856  1
  Hg  Hg35  1  0.170381  0.464823  0.538279  1
