# generated using pymatgen
data_Li8La7HoSn7Bi
_symmetry_space_group_name_H-M   'P 1'
_cell_length_a   9.66202200
_cell_length_b   9.66221440
_cell_length_c   7.81807102
_cell_angle_alpha   90.08847306
_cell_angle_beta   90.00000000
_cell_angle_gamma   119.99933446
_symmetry_Int_Tables_number   1
_chemical_formula_structural   Li8La7HoSn7Bi
_chemical_formula_sum   'Li8 La7 Ho1 Sn7 Bi1'
_cell_volume   632.08743478
_cell_formula_units_Z   1
loop_
 _symmetry_equiv_pos_site_id
 _symmetry_equiv_pos_as_xyz
  1  'x, y, z'
loop_
 _atom_site_type_symbol
 _atom_site_label
 _atom_site_symmetry_multiplicity
 _atom_site_fract_x
 _atom_site_fract_y
 _atom_site_fract_z
 _atom_site_occupancy
  Li  Li0  1  0.166098  0.332197  0.280359  1
  Li  Li1  1  0.167170  0.834252  0.286197  1
  Li  Li2  1  0.667084  0.834252  0.286197  1
  Li  Li3  1  0.834933  0.669867  0.790846  1
  Li  Li4  1  0.831268  0.163358  0.796102  1
  Li  Li5  1  0.332091  0.163358  0.796102  1
  Li  Li6  1  0.335050  0.670102  0.670352  1
  Li  Li7  1  0.666224  0.332448  0.168836  1
  La  La8  1  0.511570  0.023139  0.494732  1
  La  La9  1  0.515760  0.491268  0.492015  1
  La  La10  1  0.975509  0.491268  0.492015  1
  La  La11  1  0.488455  0.976911  0.996019  1
  La  La12  1  0.493989  0.513835  0.997077  1
  La  La13  1  0.019844  0.513835  0.997077  1
  La  La14  1  0.997995  0.995992  0.496519  1
  Ho  Ho15  1  0.997343  0.994684  0.003746  1
  Sn  Sn16  1  0.164634  0.834648  0.729939  1
  Sn  Sn17  1  0.670014  0.834648  0.729939  1
  Sn  Sn18  1  0.835953  0.671906  0.223175  1
  Sn  Sn19  1  0.836643  0.164311  0.221354  1
  Sn  Sn20  1  0.327667  0.164311  0.221354  1
  Sn  Sn21  1  0.332656  0.665312  0.270748  1
  Sn  Sn22  1  0.667051  0.334100  0.767184  1
  Bi  Bi23  1  0.164999  0.329997  0.734112  1
