# generated using pymatgen
data_Dy17Y(TmSn8)2
_symmetry_space_group_name_H-M   'P 1'
_cell_length_a   8.03612700
_cell_length_b   8.15789001
_cell_length_c   15.45137000
_cell_angle_alpha   90.00000000
_cell_angle_beta   90.00000000
_cell_angle_gamma   89.99796323
_symmetry_Int_Tables_number   1
_chemical_formula_structural   Dy17Y(TmSn8)2
_chemical_formula_sum   'Dy17 Y1 Tm2 Sn16'
_cell_volume   1012.95844366
_cell_formula_units_Z   1
loop_
 _symmetry_equiv_pos_site_id
 _symmetry_equiv_pos_as_xyz
  1  'x, y, z'
loop_
 _atom_site_type_symbol
 _atom_site_label
 _atom_site_symmetry_multiplicity
 _atom_site_fract_x
 _atom_site_fract_y
 _atom_site_fract_z
 _atom_site_occupancy
  Dy  Dy0  1  0.367637  0.837295  0.877512  1
  Dy  Dy1  1  0.867647  0.662722  0.622484  1
  Dy  Dy2  1  0.632394  0.162771  0.378112  1
  Dy  Dy3  1  0.132444  0.337153  0.121879  1
  Dy  Dy4  1  0.632394  0.162771  0.121888  1
  Dy  Dy5  1  0.132444  0.337153  0.378121  1
  Dy  Dy6  1  0.367637  0.837295  0.622488  1
  Dy  Dy7  1  0.867647  0.662722  0.877516  1
  Dy  Dy8  1  0.520702  0.320748  0.902393  1
  Dy  Dy9  1  0.020715  0.179235  0.597612  1
  Dy  Dy10  1  0.479388  0.679258  0.402832  1
  Dy  Dy11  1  0.979422  0.820769  0.097164  1
  Dy  Dy12  1  0.479388  0.679258  0.097168  1
  Dy  Dy13  1  0.979422  0.820769  0.402836  1
  Dy  Dy14  1  0.520702  0.320748  0.597607  1
  Dy  Dy15  1  0.020715  0.179235  0.902388  1
  Dy  Dy16  1  0.301112  0.002895  0.250000  1
  Y  Y17  1  0.801182  0.497152  0.250000  1
  Tm  Tm18  1  0.198819  0.502964  0.750000  1
  Tm  Tm19  1  0.698817  0.997022  0.750000  1
  Sn  Sn20  1  0.292917  0.036749  0.041429  1
  Sn  Sn21  1  0.792924  0.463220  0.458605  1
  Sn  Sn22  1  0.707316  0.963660  0.542538  1
  Sn  Sn23  1  0.207310  0.536343  0.957452  1
  Sn  Sn24  1  0.707316  0.963660  0.957462  1
  Sn  Sn25  1  0.207310  0.536343  0.542548  1
  Sn  Sn26  1  0.292917  0.036749  0.458571  1
  Sn  Sn27  1  0.792924  0.463220  0.041395  1
  Sn  Sn28  1  0.564299  0.618309  0.750000  1
  Sn  Sn29  1  0.064243  0.881707  0.750000  1
  Sn  Sn30  1  0.434501  0.381307  0.250000  1
  Sn  Sn31  1  0.934647  0.118609  0.250000  1
  Sn  Sn32  1  0.330206  0.149056  0.750000  1
  Sn  Sn33  1  0.830207  0.350963  0.750000  1
  Sn  Sn34  1  0.670055  0.852524  0.250000  1
  Sn  Sn35  1  0.170280  0.647646  0.250000  1
