# generated using pymatgen
data_Tm20GaSi3Sb8
_symmetry_space_group_name_H-M   'P 1'
_cell_length_a   7.87129605
_cell_length_b   8.98175600
_cell_length_c   11.73184978
_cell_angle_alpha   90.00000000
_cell_angle_beta   89.98111728
_cell_angle_gamma   90.00000000
_symmetry_Int_Tables_number   1
_chemical_formula_structural   Tm20GaSi3Sb8
_chemical_formula_sum   'Tm20 Ga1 Si3 Sb8'
_cell_volume   829.41898038
_cell_formula_units_Z   1
loop_
 _symmetry_equiv_pos_site_id
 _symmetry_equiv_pos_as_xyz
  1  'x, y, z'
loop_
 _atom_site_type_symbol
 _atom_site_label
 _atom_site_symmetry_multiplicity
 _atom_site_fract_x
 _atom_site_fract_y
 _atom_site_fract_z
 _atom_site_occupancy
  Tm  Tm0  1  0.816110  0.946841  0.064363  1
  Tm  Tm1  1  0.317330  0.049941  0.434409  1
  Tm  Tm2  1  0.181817  0.447614  0.936496  1
  Tm  Tm3  1  0.684564  0.553692  0.565056  1
  Tm  Tm4  1  0.181817  0.052386  0.936496  1
  Tm  Tm5  1  0.684564  0.946308  0.565056  1
  Tm  Tm6  1  0.816110  0.553159  0.064363  1
  Tm  Tm7  1  0.317330  0.450059  0.434409  1
  Tm  Tm8  1  0.537390  0.250000  0.997683  1
  Tm  Tm9  1  0.039439  0.750000  0.502144  1
  Tm  Tm10  1  0.461101  0.750000  0.001472  1
  Tm  Tm11  1  0.963884  0.250000  0.496786  1
  Tm  Tm12  1  0.167424  0.750000  0.214384  1
  Tm  Tm13  1  0.670944  0.250000  0.280550  1
  Tm  Tm14  1  0.833421  0.250000  0.785603  1
  Tm  Tm15  1  0.332524  0.750000  0.715587  1
  Tm  Tm16  1  0.639411  0.750000  0.293546  1
  Tm  Tm17  1  0.141373  0.250000  0.206747  1
  Tm  Tm18  1  0.355596  0.250000  0.707854  1
  Tm  Tm19  1  0.858305  0.750000  0.794376  1
  Ga  Ga20  1  0.588418  0.250000  0.522374  1
  Si  Si21  1  0.910543  0.250000  0.023599  1
  Si  Si22  1  0.415603  0.750000  0.479930  1
  Si  Si23  1  0.085919  0.750000  0.978601  1
  Sb  Sb24  1  0.933364  0.988519  0.326010  1
  Sb  Sb25  1  0.432668  0.010342  0.172743  1
  Sb  Sb26  1  0.066907  0.489980  0.674032  1
  Sb  Sb27  1  0.566592  0.510217  0.826271  1
  Sb  Sb28  1  0.066907  0.010020  0.674032  1
  Sb  Sb29  1  0.566592  0.989783  0.826271  1
  Sb  Sb30  1  0.933364  0.511481  0.326010  1
  Sb  Sb31  1  0.432668  0.489658  0.172743  1
