# generated using pymatgen
data_Tm16In6NiAg
_symmetry_space_group_name_H-M   'P 1'
_cell_length_a   10.40618500
_cell_length_b   10.40618513
_cell_length_c   6.81641200
_cell_angle_alpha   90.00000000
_cell_angle_beta   90.00000000
_cell_angle_gamma   119.99999642
_symmetry_Int_Tables_number   1
_chemical_formula_structural   Tm16In6NiAg
_chemical_formula_sum   'Tm16 In6 Ni1 Ag1'
_cell_volume   639.24828250
_cell_formula_units_Z   1
loop_
 _symmetry_equiv_pos_site_id
 _symmetry_equiv_pos_as_xyz
  1  'x, y, z'
loop_
 _atom_site_type_symbol
 _atom_site_label
 _atom_site_symmetry_multiplicity
 _atom_site_fract_x
 _atom_site_fract_y
 _atom_site_fract_z
 _atom_site_occupancy
  Tm  Tm0  1  0.523077  0.046156  0.520395  1
  Tm  Tm1  1  0.953844  0.476923  0.520395  1
  Tm  Tm2  1  0.523077  0.476923  0.520395  1
  Tm  Tm3  1  0.468308  0.936614  0.017849  1
  Tm  Tm4  1  0.063386  0.531692  0.017849  1
  Tm  Tm5  1  0.468308  0.531692  0.017849  1
  Tm  Tm6  1  0.176975  0.353952  0.729689  1
  Tm  Tm7  1  0.646048  0.823025  0.729689  1
  Tm  Tm8  1  0.176975  0.823025  0.729689  1
  Tm  Tm9  1  0.827316  0.654633  0.225091  1
  Tm  Tm10  1  0.345367  0.172684  0.225091  1
  Tm  Tm11  1  0.827316  0.172684  0.225091  1
  Tm  Tm12  1  0.666667  0.333333  0.873572  1
  Tm  Tm13  1  0.333333  0.666667  0.402973  1
  Tm  Tm14  1  0.000000  0.000000  0.496725  1
  Tm  Tm15  1  0.000000  0.000000  0.997469  1
  In  In16  1  0.837221  0.674442  0.750915  1
  In  In17  1  0.325558  0.162779  0.750915  1
  In  In18  1  0.837221  0.162779  0.750915  1
  In  In19  1  0.163715  0.327428  0.257853  1
  In  In20  1  0.672572  0.836285  0.257853  1
  In  In21  1  0.163715  0.836285  0.257853  1
  Ni  Ni22  1  0.333333  0.666667  0.790498  1
  Ag  Ag23  1  0.666667  0.333333  0.291387  1
