# generated using pymatgen
data_Li4Dy3Y(Si2Sn)2
_symmetry_space_group_name_H-M   'P 1'
_cell_length_a   9.56336488
_cell_length_b   9.56336436
_cell_length_c   6.76937200
_cell_angle_alpha   90.00000000
_cell_angle_beta   90.00000000
_cell_angle_gamma   153.53982860
_symmetry_Int_Tables_number   1
_chemical_formula_structural   Li4Dy3Y(Si2Sn)2
_chemical_formula_sum   'Li4 Dy3 Y1 Si4 Sn2'
_cell_volume   275.86157439
_cell_formula_units_Z   1
loop_
 _symmetry_equiv_pos_site_id
 _symmetry_equiv_pos_as_xyz
  1  'x, y, z'
loop_
 _atom_site_type_symbol
 _atom_site_label
 _atom_site_symmetry_multiplicity
 _atom_site_fract_x
 _atom_site_fract_y
 _atom_site_fract_z
 _atom_site_occupancy
  Li  Li0  1  0.184233  0.815767  0.054799  1
  Li  Li1  1  0.184233  0.815767  0.445201  1
  Li  Li2  1  0.816024  0.183976  0.945491  1
  Li  Li3  1  0.816024  0.183976  0.554509  1
  Dy  Dy4  1  0.648745  0.351255  0.750000  1
  Dy  Dy5  1  0.548083  0.451917  0.250000  1
  Dy  Dy6  1  0.451692  0.548308  0.750000  1
  Y  Y7  1  0.351274  0.648726  0.250000  1
  Si  Si8  1  0.057528  0.942472  0.926739  1
  Si  Si9  1  0.942190  0.057810  0.073107  1
  Si  Si10  1  0.942190  0.057810  0.426893  1
  Si  Si11  1  0.057528  0.942472  0.573261  1
  Sn  Sn12  1  0.719496  0.280504  0.250000  1
  Sn  Sn13  1  0.280759  0.719241  0.750000  1
