# generated using pymatgen
data_Pr2Nd6Cd2OsPd
_symmetry_space_group_name_H-M   'P 1'
_cell_length_a   9.99425968
_cell_length_b   9.99360345
_cell_length_c   10.09876479
_cell_angle_alpha   59.74493715
_cell_angle_beta   59.74248686
_cell_angle_gamma   59.72525976
_symmetry_Int_Tables_number   1
_chemical_formula_structural   Pr2Nd6Cd2OsPd
_chemical_formula_sum   'Pr4 Nd12 Cd4 Os2 Pd2'
_cell_volume   708.97330099
_cell_formula_units_Z   2
loop_
 _symmetry_equiv_pos_site_id
 _symmetry_equiv_pos_as_xyz
  1  'x, y, z'
loop_
 _atom_site_type_symbol
 _atom_site_label
 _atom_site_symmetry_multiplicity
 _atom_site_fract_x
 _atom_site_fract_y
 _atom_site_fract_z
 _atom_site_occupancy
  Pr  Pr0  1  0.556560  0.937861  0.565922  1
  Pr  Pr1  1  0.938496  0.556034  0.940284  1
  Pr  Pr2  1  0.562691  0.562533  0.937783  1
  Pr  Pr3  1  0.939763  0.939676  0.559706  1
  Nd  Nd4  1  0.347641  0.348211  0.355317  1
  Nd  Nd5  1  0.348877  0.348616  0.946955  1
  Nd  Nd6  1  0.344335  0.955611  0.349062  1
  Nd  Nd7  1  0.955691  0.344303  0.349429  1
  Nd  Nd8  1  0.815889  0.189452  0.190984  1
  Nd  Nd9  1  0.188558  0.815364  0.803870  1
  Nd  Nd10  1  0.189626  0.815792  0.191037  1
  Nd  Nd11  1  0.815187  0.188673  0.803794  1
  Nd  Nd12  1  0.189112  0.189154  0.810321  1
  Nd  Nd13  1  0.806102  0.806079  0.193586  1
  Nd  Nd14  1  0.938434  0.555940  0.565560  1
  Nd  Nd15  1  0.555468  0.938883  0.940805  1
  Cd  Cd16  1  0.579679  0.579333  0.580045  1
  Cd  Cd17  1  0.579506  0.579936  0.260312  1
  Cd  Cd18  1  0.580301  0.258854  0.580530  1
  Cd  Cd19  1  0.258832  0.580318  0.580188  1
  Os  Os20  1  0.144382  0.143776  0.138384  1
  Os  Os21  1  0.144681  0.145356  0.574759  1
  Pd  Pd22  1  0.146302  0.573877  0.140910  1
  Pd  Pd23  1  0.573887  0.146368  0.140456  1
