# generated using pymatgen
data_SrGa10Pd(PbO10)2
_symmetry_space_group_name_H-M   'P 1'
_cell_length_a   9.88625335
_cell_length_b   9.88625337
_cell_length_c   5.24654600
_cell_angle_alpha   74.80249119
_cell_angle_beta   74.80248950
_cell_angle_gamma   73.73936680
_symmetry_Int_Tables_number   1
_chemical_formula_structural   SrGa10Pd(PbO10)2
_chemical_formula_sum   'Sr1 Ga10 Pd1 Pb2 O20'
_cell_volume   465.09478149
_cell_formula_units_Z   1
loop_
 _symmetry_equiv_pos_site_id
 _symmetry_equiv_pos_as_xyz
  1  'x, y, z'
loop_
 _atom_site_type_symbol
 _atom_site_label
 _atom_site_symmetry_multiplicity
 _atom_site_fract_x
 _atom_site_fract_y
 _atom_site_fract_z
 _atom_site_occupancy
  Sr  Sr0  1  0.000000  0.000000  0.000000  1
  Ga  Ga1  1  0.635361  0.364639  0.500000  1
  Ga  Ga2  1  0.364639  0.635361  0.500000  1
  Ga  Ga3  1  0.279495  0.008007  0.373926  1
  Ga  Ga4  1  0.991993  0.720505  0.626074  1
  Ga  Ga5  1  0.720505  0.991993  0.626074  1
  Ga  Ga6  1  0.008007  0.279495  0.373926  1
  Ga  Ga7  1  0.580071  0.148197  0.106428  1
  Ga  Ga8  1  0.851803  0.419929  0.893572  1
  Ga  Ga9  1  0.419929  0.851803  0.893572  1
  Ga  Ga10  1  0.148197  0.580071  0.106428  1
  Pd  Pd11  1  0.500000  0.500000  0.000000  1
  Pb  Pb12  1  0.724253  0.724253  0.213541  1
  Pb  Pb13  1  0.275747  0.275747  0.786459  1
  O  O14  1  0.567720  0.567720  0.265768  1
  O  O15  1  0.432280  0.432280  0.734232  1
  O  O16  1  0.097201  0.097201  0.303114  1
  O  O17  1  0.902799  0.902799  0.696886  1
  O  O18  1  0.396995  0.123753  0.132927  1
  O  O19  1  0.876247  0.603005  0.867073  1
  O  O20  1  0.603005  0.876247  0.867073  1
  O  O21  1  0.123753  0.396995  0.132927  1
  O  O22  1  0.336967  0.829773  0.265678  1
  O  O23  1  0.170227  0.663033  0.734322  1
  O  O24  1  0.663033  0.170227  0.734322  1
  O  O25  1  0.829773  0.336967  0.265678  1
  O  O26  1  0.991201  0.278919  0.734449  1
  O  O27  1  0.721081  0.008799  0.265551  1
  O  O28  1  0.008799  0.721081  0.265551  1
  O  O29  1  0.278919  0.991201  0.734449  1
  O  O30  1  0.690649  0.452127  0.744365  1
  O  O31  1  0.547873  0.309351  0.255635  1
  O  O32  1  0.309351  0.547873  0.255635  1
  O  O33  1  0.452127  0.690649  0.744365  1
