# generated using pymatgen
data_Be5Si(NiW2)2
_symmetry_space_group_name_H-M   'P 1'
_cell_length_a   4.60406576
_cell_length_b   4.60406599
_cell_length_c   7.31010100
_cell_angle_alpha   90.00000000
_cell_angle_beta   90.00000000
_cell_angle_gamma   120.14653140
_symmetry_Int_Tables_number   1
_chemical_formula_structural   Be5Si(NiW2)2
_chemical_formula_sum   'Be5 Si1 Ni2 W4'
_cell_volume   133.99664200
_cell_formula_units_Z   1
loop_
 _symmetry_equiv_pos_site_id
 _symmetry_equiv_pos_as_xyz
  1  'x, y, z'
loop_
 _atom_site_type_symbol
 _atom_site_label
 _atom_site_symmetry_multiplicity
 _atom_site_fract_x
 _atom_site_fract_y
 _atom_site_fract_z
 _atom_site_occupancy
  Be  Be0  1  0.828912  0.660763  0.250000  1
  Be  Be1  1  0.339237  0.171088  0.250000  1
  Be  Be2  1  0.169958  0.830042  0.750000  1
  Be  Be3  1  0.168993  0.338934  0.750000  1
  Be  Be4  1  0.661066  0.831007  0.750000  1
  Si  Si5  1  0.830012  0.169988  0.250000  1
  Ni  Ni6  1  0.002350  0.997650  0.502326  1
  Ni  Ni7  1  0.002350  0.997650  0.997674  1
  W  W8  1  0.332741  0.667259  0.431832  1
  W  W9  1  0.665819  0.334181  0.571101  1
  W  W10  1  0.665819  0.334181  0.928899  1
  W  W11  1  0.332741  0.667259  0.068168  1
