# generated using pymatgen
data_Zr2U5PaSb10
_symmetry_space_group_name_H-M   'P 1'
_cell_length_a   9.28155600
_cell_length_b   9.27577304
_cell_length_c   6.18455700
_cell_angle_alpha   90.00000000
_cell_angle_beta   90.00000000
_cell_angle_gamma   120.02062564
_symmetry_Int_Tables_number   1
_chemical_formula_structural   Zr2U5PaSb10
_chemical_formula_sum   'Zr2 U5 Pa1 Sb10'
_cell_volume   461.02006861
_cell_formula_units_Z   1
loop_
 _symmetry_equiv_pos_site_id
 _symmetry_equiv_pos_as_xyz
  1  'x, y, z'
loop_
 _atom_site_type_symbol
 _atom_site_label
 _atom_site_symmetry_multiplicity
 _atom_site_fract_x
 _atom_site_fract_y
 _atom_site_fract_z
 _atom_site_occupancy
  Zr  Zr0  1  0.998955  0.000000  0.000467  1
  Zr  Zr1  1  0.998955  0.000000  0.499533  1
  U  U2  1  0.386444  0.386386  0.250000  1
  U  U3  1  0.000057  0.613614  0.250000  1
  U  U4  1  0.000388  0.386240  0.750000  1
  U  U5  1  0.614148  0.613760  0.750000  1
  U  U6  1  0.614029  0.000000  0.250000  1
  Pa  Pa7  1  0.387324  0.000000  0.750000  1
  Sb  Sb8  1  0.667117  0.333530  0.499944  1
  Sb  Sb9  1  0.333586  0.666470  0.000056  1
  Sb  Sb10  1  0.727597  0.000000  0.750000  1
  Sb  Sb11  1  0.727358  0.727662  0.250000  1
  Sb  Sb12  1  0.333586  0.666470  0.499944  1
  Sb  Sb13  1  0.667117  0.333530  0.000056  1
  Sb  Sb14  1  0.272427  0.000000  0.250000  1
  Sb  Sb15  1  0.271695  0.272175  0.750000  1
  Sb  Sb16  1  0.999520  0.727825  0.750000  1
  Sb  Sb17  1  0.999696  0.272338  0.250000  1
