# generated using pymatgen
data_Ba2USbF14
_symmetry_space_group_name_H-M   'P 1'
_cell_length_a   9.91535247
_cell_length_b   5.99771951
_cell_length_c   10.33593320
_cell_angle_alpha   87.12346020
_cell_angle_beta   88.93641084
_cell_angle_gamma   88.17178740
_symmetry_Int_Tables_number   1
_chemical_formula_structural   Ba2USbF14
_chemical_formula_sum   'Ba4 U2 Sb2 F28'
_cell_volume   613.49724748
_cell_formula_units_Z   2
loop_
 _symmetry_equiv_pos_site_id
 _symmetry_equiv_pos_as_xyz
  1  'x, y, z'
loop_
 _atom_site_type_symbol
 _atom_site_label
 _atom_site_symmetry_multiplicity
 _atom_site_fract_x
 _atom_site_fract_y
 _atom_site_fract_z
 _atom_site_occupancy
  Ba  Ba0  1  0.311760  0.266365  0.509090  1
  Ba  Ba1  1  0.797615  0.720248  0.990785  1
  Ba  Ba2  1  0.688240  0.733635  0.490910  1
  Ba  Ba3  1  0.202385  0.279752  0.009215  1
  U  U4  1  0.888263  0.224949  0.720565  1
  U  U5  1  0.111737  0.775051  0.279435  1
  Sb  Sb6  1  0.617948  0.237873  0.227414  1
  Sb  Sb7  1  0.382052  0.762127  0.772586  1
  F  F8  1  0.388603  0.046256  0.861401  1
  F  F9  1  0.057523  0.335143  0.615256  1
  F  F10  1  0.715037  0.526057  0.241464  1
  F  F11  1  0.284963  0.473943  0.758536  1
  F  F12  1  0.490735  0.970080  0.650778  1
  F  F13  1  0.766836  0.311862  0.554467  1
  F  F14  1  0.766359  0.099243  0.322821  1
  F  F15  1  0.991822  0.992258  0.854576  1
  F  F16  1  0.463652  0.348120  0.131772  1
  F  F17  1  0.217249  0.446104  0.252795  1
  F  F18  1  0.105835  0.067377  0.386098  1
  F  F19  1  0.611397  0.953744  0.138599  1
  F  F20  1  0.275012  0.918625  0.179912  1
  F  F21  1  0.021937  0.588340  0.119070  1
  F  F22  1  0.509265  0.029920  0.349222  1
  F  F23  1  0.008178  0.007742  0.145424  1
  F  F24  1  0.233641  0.900757  0.677179  1
  F  F25  1  0.894165  0.932623  0.613902  1
  F  F26  1  0.531379  0.417031  0.373473  1
  F  F27  1  0.942477  0.664857  0.384744  1
  F  F28  1  0.978063  0.411660  0.880930  1
  F  F29  1  0.724988  0.081375  0.820088  1
  F  F30  1  0.468621  0.582969  0.626527  1
  F  F31  1  0.274981  0.711066  0.935831  1
  F  F32  1  0.233164  0.688138  0.445533  1
  F  F33  1  0.725019  0.288934  0.064169  1
  F  F34  1  0.536348  0.651880  0.868228  1
  F  F35  1  0.782751  0.553896  0.747205  1
