# generated using pymatgen
data_Ni3Pt(AuO2)4
_symmetry_space_group_name_H-M   'P 1'
_cell_length_a   5.29076410
_cell_length_b   6.16940381
_cell_length_c   7.11407100
_cell_angle_alpha   64.19382510
_cell_angle_beta   104.46656249
_cell_angle_gamma   90.04277053
_symmetry_Int_Tables_number   1
_chemical_formula_structural   Ni3Pt(AuO2)4
_chemical_formula_sum   'Ni3 Pt1 Au4 O8'
_cell_volume   200.86364058
_cell_formula_units_Z   1
loop_
 _symmetry_equiv_pos_site_id
 _symmetry_equiv_pos_as_xyz
  1  'x, y, z'
loop_
 _atom_site_type_symbol
 _atom_site_label
 _atom_site_symmetry_multiplicity
 _atom_site_fract_x
 _atom_site_fract_y
 _atom_site_fract_z
 _atom_site_occupancy
  Ni  Ni0  1  0.999980  0.005219  0.500115  1
  Ni  Ni1  1  0.500001  0.249988  0.500009  1
  Ni  Ni2  1  0.000016  0.494816  0.499871  1
  Pt  Pt3  1  0.500000  0.749991  0.500004  1
  Au  Au4  1  0.005290  0.001222  0.997205  1
  Au  Au5  1  0.500002  0.249969  0.999996  1
  Au  Au6  1  0.994723  0.498836  0.002792  1
  Au  Au7  1  0.500002  0.749964  0.000006  1
  O  O8  1  0.887610  0.665964  0.667689  1
  O  O9  1  0.392139  0.911640  0.667905  1
  O  O10  1  0.889843  0.165882  0.668211  1
  O  O11  1  0.391958  0.419679  0.667898  1
  O  O12  1  0.112393  0.834067  0.332309  1
  O  O13  1  0.608026  0.080291  0.332099  1
  O  O14  1  0.110163  0.334150  0.331784  1
  O  O15  1  0.607858  0.588323  0.332108  1
