# generated using pymatgen
data_Sr2Ca2Sb3WO14
_symmetry_space_group_name_H-M   'P 1'
_cell_length_a   7.47945659
_cell_length_b   7.47987595
_cell_length_c   7.47987533
_cell_angle_alpha   119.99186603
_cell_angle_beta   118.99696407
_cell_angle_gamma   90.88168144
_symmetry_Int_Tables_number   1
_chemical_formula_structural   Sr2Ca2Sb3WO14
_chemical_formula_sum   'Sr2 Ca2 Sb3 W1 O14'
_cell_volume   298.09056997
_cell_formula_units_Z   1
loop_
 _symmetry_equiv_pos_site_id
 _symmetry_equiv_pos_as_xyz
  1  'x, y, z'
loop_
 _atom_site_type_symbol
 _atom_site_label
 _atom_site_symmetry_multiplicity
 _atom_site_fract_x
 _atom_site_fract_y
 _atom_site_fract_z
 _atom_site_occupancy
  Sr  Sr0  1  0.500000  0.500000  0.500000  1
  Sr  Sr1  1  0.500000  0.000000  0.000000  1
  Ca  Ca2  1  0.500000  0.500000  0.000000  1
  Ca  Ca3  1  0.000000  0.000000  0.000000  1
  Sb  Sb4  1  0.000000  0.500000  0.000000  1
  Sb  Sb5  1  0.000000  0.000000  0.500000  1
  Sb  Sb6  1  0.500000  0.000000  0.500000  1
  W  W7  1  0.000000  0.500000  0.500000  1
  O  O8  1  0.946959  0.592157  0.774750  1
  O  O9  1  0.053041  0.827790  0.645196  1
  O  O10  1  0.680430  0.909725  0.353808  1
  O  O11  1  0.319570  0.673379  0.229295  1
  O  O12  1  0.053041  0.407843  0.225250  1
  O  O13  1  0.946959  0.172210  0.354804  1
  O  O14  1  0.319570  0.090275  0.646192  1
  O  O15  1  0.680430  0.326621  0.770705  1
  O  O16  1  0.099935  0.251918  0.848017  1
  O  O17  1  0.900065  0.748082  0.151983  1
  O  O18  1  0.688243  0.414451  0.273793  1
  O  O19  1  0.311757  0.585549  0.726207  1
  O  O20  1  0.357602  0.087077  0.270526  1
  O  O21  1  0.642398  0.912923  0.729474  1
