# generated using pymatgen
data_Er2UO6
_symmetry_space_group_name_H-M   'P 1'
_cell_length_a   6.46081431
_cell_length_b   6.46081398
_cell_length_c   6.60434551
_cell_angle_alpha   80.58253296
_cell_angle_beta   80.58254004
_cell_angle_gamma   120.55870910
_symmetry_Int_Tables_number   1
_chemical_formula_structural   Er2UO6
_chemical_formula_sum   'Er4 U2 O12'
_cell_volume   224.08785074
_cell_formula_units_Z   2
loop_
 _symmetry_equiv_pos_site_id
 _symmetry_equiv_pos_as_xyz
  1  'x, y, z'
loop_
 _atom_site_type_symbol
 _atom_site_label
 _atom_site_symmetry_multiplicity
 _atom_site_fract_x
 _atom_site_fract_y
 _atom_site_fract_z
 _atom_site_occupancy
  Er  Er0  1  0.915191  0.084809  0.750000  1
  Er  Er1  1  0.249172  0.750828  0.750000  1
  Er  Er2  1  0.084809  0.915191  0.250000  1
  Er  Er3  1  0.750828  0.249172  0.250000  1
  U  U4  1  0.586513  0.413487  0.750000  1
  U  U5  1  0.413487  0.586513  0.250000  1
  O  O6  1  0.936230  0.773141  0.627998  1
  O  O7  1  0.627861  0.139282  0.625022  1
  O  O8  1  0.691452  0.534752  0.379477  1
  O  O9  1  0.465248  0.308548  0.120523  1
  O  O10  1  0.308548  0.465248  0.620523  1
  O  O11  1  0.139282  0.627861  0.125022  1
  O  O12  1  0.372139  0.860718  0.374978  1
  O  O13  1  0.226859  0.063770  0.872002  1
  O  O14  1  0.063770  0.226859  0.372002  1
  O  O15  1  0.773141  0.936230  0.127998  1
  O  O16  1  0.860718  0.372139  0.874978  1
  O  O17  1  0.534752  0.691452  0.879477  1
