# generated using pymatgen
data_Pr16Cd2Hg2IrPt3
_symmetry_space_group_name_H-M   'P 1'
_cell_length_a   10.09084107
_cell_length_b   10.06141282
_cell_length_c   10.06601200
_cell_angle_alpha   59.98488432
_cell_angle_beta   60.08136774
_cell_angle_gamma   60.12793227
_symmetry_Int_Tables_number   1
_chemical_formula_structural   Pr16Cd2Hg2IrPt3
_chemical_formula_sum   'Pr16 Cd2 Hg2 Ir1 Pt3'
_cell_volume   723.70903774
_cell_formula_units_Z   1
loop_
 _symmetry_equiv_pos_site_id
 _symmetry_equiv_pos_as_xyz
  1  'x, y, z'
loop_
 _atom_site_type_symbol
 _atom_site_label
 _atom_site_symmetry_multiplicity
 _atom_site_fract_x
 _atom_site_fract_y
 _atom_site_fract_z
 _atom_site_occupancy
  Pr  Pr0  1  0.352640  0.348764  0.347784  1
  Pr  Pr1  1  0.352640  0.348764  0.950811  1
  Pr  Pr2  1  0.354434  0.946373  0.349596  1
  Pr  Pr3  1  0.941680  0.353643  0.352338  1
  Pr  Pr4  1  0.806539  0.189442  0.191682  1
  Pr  Pr5  1  0.191042  0.808942  0.807614  1
  Pr  Pr6  1  0.191042  0.808942  0.192401  1
  Pr  Pr7  1  0.806539  0.189442  0.812336  1
  Pr  Pr8  1  0.191090  0.190465  0.809223  1
  Pr  Pr9  1  0.804919  0.811418  0.191832  1
  Pr  Pr10  1  0.939126  0.561142  0.563653  1
  Pr  Pr11  1  0.562995  0.937963  0.936572  1
  Pr  Pr12  1  0.562995  0.937963  0.562470  1
  Pr  Pr13  1  0.939126  0.561142  0.936079  1
  Pr  Pr14  1  0.563748  0.560861  0.937695  1
  Pr  Pr15  1  0.937756  0.936346  0.562949  1
  Cd  Cd16  1  0.579014  0.260087  0.580450  1
  Cd  Cd17  1  0.260808  0.579096  0.580048  1
  Hg  Hg18  1  0.583459  0.583809  0.585965  1
  Hg  Hg19  1  0.583459  0.583809  0.246766  1
  Ir  Ir20  1  0.571361  0.142451  0.143094  1
  Pt  Pt21  1  0.141314  0.143980  0.144821  1
  Pt  Pt22  1  0.141314  0.143980  0.569884  1
  Pt  Pt23  1  0.140958  0.571172  0.143936  1
