# generated using pymatgen
data_Cs11Rb(P4W)2
_symmetry_space_group_name_H-M   'P 1'
_cell_length_a   10.83384607
_cell_length_b   10.77351813
_cell_length_c   8.80438584
_cell_angle_alpha   90.00000134
_cell_angle_beta   89.78113781
_cell_angle_gamma   119.81596260
_symmetry_Int_Tables_number   1
_chemical_formula_structural   Cs11Rb(P4W)2
_chemical_formula_sum   'Cs11 Rb1 P8 W2'
_cell_volume   891.59598652
_cell_formula_units_Z   1
loop_
 _symmetry_equiv_pos_site_id
 _symmetry_equiv_pos_as_xyz
  1  'x, y, z'
loop_
 _atom_site_type_symbol
 _atom_site_label
 _atom_site_symmetry_multiplicity
 _atom_site_fract_x
 _atom_site_fract_y
 _atom_site_fract_z
 _atom_site_occupancy
  Cs  Cs0  1  0.147116  0.293577  0.286616  1
  Cs  Cs1  1  0.852846  0.147137  0.785745  1
  Cs  Cs2  1  0.536011  0.463549  0.102773  1
  Cs  Cs3  1  0.071345  0.535673  0.602227  1
  Cs  Cs4  1  0.463840  0.927752  0.601713  1
  Cs  Cs5  1  0.536011  0.072462  0.102773  1
  Cs  Cs6  1  0.927974  0.463987  0.102451  1
  Cs  Cs7  1  0.463840  0.536088  0.601713  1
  Cs  Cs8  1  0.147116  0.853542  0.286616  1
  Cs  Cs9  1  0.704871  0.852437  0.285559  1
  Cs  Cs10  1  0.852846  0.705707  0.785745  1
  Rb  Rb11  1  0.304064  0.152031  0.782071  1
  P  P12  1  0.784075  0.569825  0.416344  1
  P  P13  1  0.427832  0.213916  0.418001  1
  P  P14  1  0.332886  0.666443  0.262504  1
  P  P15  1  0.665935  0.332967  0.766226  1
  P  P16  1  0.784075  0.214250  0.416344  1
  P  P17  1  0.215153  0.787447  0.914865  1
  P  P18  1  0.215153  0.427705  0.914865  1
  P  P19  1  0.569411  0.784705  0.915550  1
  W  W20  1  0.664746  0.332373  0.501289  1
  W  W21  1  0.332853  0.666427  0.997805  1
