# generated using pymatgen
data_Gd3DyIr4F28
_symmetry_space_group_name_H-M   'P 1'
_cell_length_a   5.60597701
_cell_length_b   9.04089331
_cell_length_c   12.10316100
_cell_angle_alpha   63.17826994
_cell_angle_beta   90.00349540
_cell_angle_gamma   90.07615576
_symmetry_Int_Tables_number   1
_chemical_formula_structural   Gd3DyIr4F28
_chemical_formula_sum   'Gd3 Dy1 Ir4 F28'
_cell_volume   547.42893172
_cell_formula_units_Z   1
loop_
 _symmetry_equiv_pos_site_id
 _symmetry_equiv_pos_as_xyz
  1  'x, y, z'
loop_
 _atom_site_type_symbol
 _atom_site_label
 _atom_site_symmetry_multiplicity
 _atom_site_fract_x
 _atom_site_fract_y
 _atom_site_fract_z
 _atom_site_occupancy
  Gd  Gd0  1  0.259168  0.185952  0.733549  1
  Gd  Gd1  1  0.240830  0.188894  0.233118  1
  Gd  Gd2  1  0.739560  0.811248  0.266480  1
  Dy  Dy3  1  0.760205  0.810424  0.766969  1
  Ir  Ir4  1  0.755102  0.274916  0.955251  1
  Ir  Ir5  1  0.256151  0.727310  0.545707  1
  Ir  Ir6  1  0.244500  0.726703  0.042168  1
  Ir  Ir7  1  0.745615  0.272358  0.456985  1
  F  F8  1  0.445973  0.705811  0.917134  1
  F  F9  1  0.943674  0.294259  0.582615  1
  F  F10  1  0.554800  0.295935  0.081800  1
  F  F11  1  0.053839  0.705985  0.420198  1
  F  F12  1  0.452188  0.281999  0.545122  1
  F  F13  1  0.951652  0.718327  0.951695  1
  F  F14  1  0.546010  0.717484  0.455915  1
  F  F15  1  0.047302  0.283930  0.043335  1
  F  F16  1  0.763567  0.515945  0.858703  1
  F  F17  1  0.265486  0.486800  0.641589  1
  F  F18  1  0.233094  0.486626  0.139271  1
  F  F19  1  0.736428  0.512931  0.360906  1
  F  F20  1  0.757127  0.034458  0.048286  1
  F  F21  1  0.257195  0.967475  0.452063  1
  F  F22  1  0.246162  0.966969  0.949808  1
  F  F23  1  0.745062  0.032184  0.549876  1
  F  F24  1  0.970927  0.732454  0.639913  1
  F  F25  1  0.468861  0.268933  0.863379  1
  F  F26  1  0.033673  0.269063  0.364030  1
  F  F27  1  0.530650  0.729900  0.136903  1
  F  F28  1  0.047956  0.747441  0.169463  1
  F  F29  1  0.550837  0.251916  0.329003  1
  F  F30  1  0.951320  0.253476  0.827381  1
  F  F31  1  0.456558  0.749366  0.672354  1
  F  F32  1  0.415514  0.970178  0.232154  1
  F  F33  1  0.916564  0.029513  0.267520  1
  F  F34  1  0.580530  0.022995  0.767256  1
  F  F35  1  0.075922  0.969845  0.732104  1
