# generated using pymatgen
data_Tc2AgF12
_symmetry_space_group_name_H-M   'P 1'
_cell_length_a   5.41350217
_cell_length_b   5.88705394
_cell_length_c   9.26580505
_cell_angle_alpha   105.24948423
_cell_angle_beta   89.65401134
_cell_angle_gamma   118.23631765
_symmetry_Int_Tables_number   1
_chemical_formula_structural   Tc2AgF12
_chemical_formula_sum   'Tc2 Ag1 F12'
_cell_volume   248.55073705
_cell_formula_units_Z   1
loop_
 _symmetry_equiv_pos_site_id
 _symmetry_equiv_pos_as_xyz
  1  'x, y, z'
loop_
 _atom_site_type_symbol
 _atom_site_label
 _atom_site_symmetry_multiplicity
 _atom_site_fract_x
 _atom_site_fract_y
 _atom_site_fract_z
 _atom_site_occupancy
  Tc  Tc0  1  0.769483  0.509120  0.261696  1
  Tc  Tc1  1  0.230517  0.490880  0.738304  1
  Ag  Ag2  1  0.000000  0.000000  0.000000  1
  F  F3  1  0.839286  0.273896  0.710366  1
  F  F4  1  0.160714  0.726104  0.289634  1
  F  F5  1  0.208034  0.719099  0.923861  1
  F  F6  1  0.730305  0.730582  0.433702  1
  F  F7  1  0.269695  0.269418  0.566298  1
  F  F8  1  0.794204  0.288442  0.365607  1
  F  F9  1  0.205796  0.711558  0.634393  1
  F  F10  1  0.368021  0.281767  0.220672  1
  F  F11  1  0.631979  0.718233  0.779328  1
  F  F12  1  0.728265  0.718551  0.145273  1
  F  F13  1  0.271735  0.281449  0.854727  1
  F  F14  1  0.791966  0.280901  0.076139  1
