# generated using pymatgen
data_Hf8Cu7NiHg4
_symmetry_space_group_name_H-M   'P 1'
_cell_length_a   7.17481954
_cell_length_b   7.17481967
_cell_length_c   6.75628500
_cell_angle_alpha   90.04802867
_cell_angle_beta   89.95197578
_cell_angle_gamma   89.78000822
_symmetry_Int_Tables_number   1
_chemical_formula_structural   Hf8Cu7NiHg4
_chemical_formula_sum   'Hf8 Cu7 Ni1 Hg4'
_cell_volume   347.79747647
_cell_formula_units_Z   1
loop_
 _symmetry_equiv_pos_site_id
 _symmetry_equiv_pos_as_xyz
  1  'x, y, z'
loop_
 _atom_site_type_symbol
 _atom_site_label
 _atom_site_symmetry_multiplicity
 _atom_site_fract_x
 _atom_site_fract_y
 _atom_site_fract_z
 _atom_site_occupancy
  Hf  Hf0  1  0.184326  0.192033  0.996414  1
  Hf  Hf1  1  0.807967  0.815674  0.996414  1
  Hf  Hf2  1  0.308471  0.691529  0.498985  1
  Hf  Hf3  1  0.695236  0.304764  0.504794  1
  Hf  Hf4  1  0.654928  0.345072  0.995532  1
  Hf  Hf5  1  0.352607  0.647393  0.001729  1
  Hf  Hf6  1  0.848321  0.854104  0.505421  1
  Hf  Hf7  1  0.145896  0.151679  0.505421  1
  Cu  Cu8  1  0.377641  0.374354  0.293932  1
  Cu  Cu9  1  0.625646  0.622359  0.293932  1
  Cu  Cu10  1  0.123241  0.876759  0.207024  1
  Cu  Cu11  1  0.876086  0.123914  0.205695  1
  Cu  Cu12  1  0.623551  0.622898  0.705143  1
  Cu  Cu13  1  0.377102  0.376449  0.705143  1
  Cu  Cu14  1  0.125646  0.874354  0.796405  1
  Ni  Ni15  1  0.877243  0.122757  0.785810  1
  Hg  Hg16  1  0.497984  0.000559  0.250563  1
  Hg  Hg17  1  0.999441  0.502016  0.250563  1
  Hg  Hg18  1  0.000359  0.501692  0.750541  1
  Hg  Hg19  1  0.498308  0.999641  0.750541  1
