# generated using pymatgen
data_La4Yb3Tm13Sn16
_symmetry_space_group_name_H-M   'P 1'
_cell_length_a   7.98491866
_cell_length_b   8.33176676
_cell_length_c   15.55053179
_cell_angle_alpha   90.06322367
_cell_angle_beta   90.64549961
_cell_angle_gamma   89.73307709
_symmetry_Int_Tables_number   1
_chemical_formula_structural   La4Yb3Tm13Sn16
_chemical_formula_sum   'La4 Yb3 Tm13 Sn16'
_cell_volume   1034.47578964
_cell_formula_units_Z   1
loop_
 _symmetry_equiv_pos_site_id
 _symmetry_equiv_pos_as_xyz
  1  'x, y, z'
loop_
 _atom_site_type_symbol
 _atom_site_label
 _atom_site_symmetry_multiplicity
 _atom_site_fract_x
 _atom_site_fract_y
 _atom_site_fract_z
 _atom_site_occupancy
  La  La0  1  0.999115  0.820349  0.903248  1
  La  La1  1  0.501184  0.321709  0.095102  1
  La  La2  1  0.999953  0.179376  0.409228  1
  La  La3  1  0.502064  0.324416  0.405725  1
  Yb  Yb4  1  0.003424  0.179802  0.094620  1
  Yb  Yb5  1  0.496501  0.679264  0.904624  1
  Yb  Yb6  1  0.994350  0.818105  0.595519  1
  Tm  Tm7  1  0.665824  0.161435  0.627129  1
  Tm  Tm8  1  0.169697  0.338627  0.873645  1
  Tm  Tm9  1  0.331564  0.837846  0.124934  1
  Tm  Tm10  1  0.837909  0.661876  0.376769  1
  Tm  Tm11  1  0.336771  0.835433  0.374052  1
  Tm  Tm12  1  0.832662  0.663610  0.125157  1
  Tm  Tm13  1  0.667758  0.161066  0.871721  1
  Tm  Tm14  1  0.162747  0.340066  0.625155  1
  Tm  Tm15  1  0.496780  0.680460  0.596830  1
  Tm  Tm16  1  0.829462  0.503439  0.748004  1
  Tm  Tm17  1  0.331169  0.996958  0.747768  1
  Tm  Tm18  1  0.171462  0.498831  0.251371  1
  Tm  Tm19  1  0.670823  0.001026  0.249952  1
  Sn  Sn20  1  0.672523  0.955574  0.460026  1
  Sn  Sn21  1  0.170381  0.540141  0.041851  1
  Sn  Sn22  1  0.329698  0.038882  0.956855  1
  Sn  Sn23  1  0.812666  0.461606  0.544514  1
  Sn  Sn24  1  0.324693  0.034310  0.543488  1
  Sn  Sn25  1  0.826623  0.459890  0.956274  1
  Sn  Sn26  1  0.673838  0.962283  0.042044  1
  Sn  Sn27  1  0.183976  0.546227  0.460121  1
  Sn  Sn28  1  0.469312  0.377616  0.749690  1
  Sn  Sn29  1  0.972816  0.126962  0.750135  1
  Sn  Sn30  1  0.532538  0.626893  0.248824  1
  Sn  Sn31  1  0.030150  0.872702  0.251242  1
  Sn  Sn32  1  0.689688  0.850575  0.748015  1
  Sn  Sn33  1  0.197945  0.644912  0.746860  1
  Sn  Sn34  1  0.303449  0.142854  0.249721  1
  Sn  Sn35  1  0.808480  0.354878  0.249789  1
