# generated using pymatgen
data_Ca11La9Sn16
_symmetry_space_group_name_H-M   'P 1'
_cell_length_a   8.08281097
_cell_length_b   8.64143479
_cell_length_c   16.29373169
_cell_angle_alpha   90.00915016
_cell_angle_beta   89.99832841
_cell_angle_gamma   90.07817184
_symmetry_Int_Tables_number   1
_chemical_formula_structural   Ca11La9Sn16
_chemical_formula_sum   'Ca11 La9 Sn16'
_cell_volume   1138.06857032
_cell_formula_units_Z   1
loop_
 _symmetry_equiv_pos_site_id
 _symmetry_equiv_pos_as_xyz
  1  'x, y, z'
loop_
 _atom_site_type_symbol
 _atom_site_label
 _atom_site_symmetry_multiplicity
 _atom_site_fract_x
 _atom_site_fract_y
 _atom_site_fract_z
 _atom_site_occupancy
  Ca  Ca0  1  0.331380  0.827419  0.877596  1
  Ca  Ca1  1  0.831309  0.672134  0.622362  1
  Ca  Ca2  1  0.668730  0.171991  0.376331  1
  Ca  Ca3  1  0.170584  0.327560  0.124392  1
  Ca  Ca4  1  0.667741  0.172564  0.124547  1
  Ca  Ca5  1  0.168645  0.327856  0.376422  1
  Ca  Ca6  1  0.330693  0.827245  0.622585  1
  Ca  Ca7  1  0.161874  0.499788  0.748383  1
  Ca  Ca8  1  0.659646  0.999532  0.747954  1
  Ca  Ca9  1  0.838949  0.497002  0.250349  1
  Ca  Ca10  1  0.338488  0.003724  0.250541  1
  La  La11  1  0.833693  0.675719  0.875119  1
  La  La12  1  0.491970  0.312165  0.905546  1
  La  La13  1  0.993140  0.186166  0.595120  1
  La  La14  1  0.506953  0.686912  0.403435  1
  La  La15  1  0.009232  0.814152  0.098525  1
  La  La16  1  0.506767  0.686051  0.097857  1
  La  La17  1  0.006681  0.813126  0.403066  1
  La  La18  1  0.492160  0.313486  0.593662  1
  La  La19  1  0.993998  0.184068  0.903779  1
  Sn  Sn20  1  0.330080  0.034719  0.039085  1
  Sn  Sn21  1  0.831180  0.466507  0.461196  1
  Sn  Sn22  1  0.668583  0.966575  0.538283  1
  Sn  Sn23  1  0.169469  0.531312  0.961312  1
  Sn  Sn24  1  0.668128  0.966575  0.962210  1
  Sn  Sn25  1  0.167609  0.532793  0.538346  1
  Sn  Sn26  1  0.330477  0.033541  0.461379  1
  Sn  Sn27  1  0.831370  0.465176  0.039427  1
  Sn  Sn28  1  0.531766  0.602294  0.750053  1
  Sn  Sn29  1  0.034362  0.898923  0.750427  1
  Sn  Sn30  1  0.467439  0.398232  0.250729  1
  Sn  Sn31  1  0.967352  0.103043  0.250061  1
  Sn  Sn32  1  0.286882  0.141148  0.749400  1
  Sn  Sn33  1  0.784731  0.359474  0.750615  1
  Sn  Sn34  1  0.713450  0.859876  0.249825  1
  Sn  Sn35  1  0.214489  0.641151  0.250082  1
