# generated using pymatgen
data_TbEr2Sn3Ir2Rh
_symmetry_space_group_name_H-M   'P 1'
_cell_length_a   7.67299179
_cell_length_b   7.67299077
_cell_length_c   3.72726300
_cell_angle_alpha   90.00000000
_cell_angle_beta   90.00000000
_cell_angle_gamma   120.27929147
_symmetry_Int_Tables_number   1
_chemical_formula_structural   TbEr2Sn3Ir2Rh
_chemical_formula_sum   'Tb1 Er2 Sn3 Ir2 Rh1'
_cell_volume   189.50511660
_cell_formula_units_Z   1
loop_
 _symmetry_equiv_pos_site_id
 _symmetry_equiv_pos_as_xyz
  1  'x, y, z'
loop_
 _atom_site_type_symbol
 _atom_site_label
 _atom_site_symmetry_multiplicity
 _atom_site_fract_x
 _atom_site_fract_y
 _atom_site_fract_z
 _atom_site_occupancy
  Tb  Tb0  1  0.403989  0.403989  0.000000  1
  Er  Er1  1  0.999895  0.596046  0.000000  1
  Er  Er2  1  0.596046  0.999895  0.000000  1
  Sn  Sn3  1  0.735208  0.735208  0.500000  1
  Sn  Sn4  1  0.998592  0.265235  0.500000  1
  Sn  Sn5  1  0.265235  0.998592  0.500000  1
  Ir  Ir6  1  0.668824  0.332825  0.500000  1
  Ir  Ir7  1  0.332825  0.668824  0.500000  1
  Rh  Rh8  1  0.999386  0.999386  0.000000  1
