# generated using pymatgen
data_Rb3Tb2(BO3)3
_symmetry_space_group_name_H-M   'P 1'
_cell_length_a   8.81202900
_cell_length_b   9.68968200
_cell_length_c   12.37772600
_cell_angle_alpha   90.00000000
_cell_angle_beta   90.00000000
_cell_angle_gamma   90.00000000
_symmetry_Int_Tables_number   1
_chemical_formula_structural   Rb3Tb2(BO3)3
_chemical_formula_sum   'Rb12 Tb8 B12 O36'
_cell_volume   1056.88152654
_cell_formula_units_Z   4
loop_
 _symmetry_equiv_pos_site_id
 _symmetry_equiv_pos_as_xyz
  1  'x, y, z'
loop_
 _atom_site_type_symbol
 _atom_site_label
 _atom_site_symmetry_multiplicity
 _atom_site_fract_x
 _atom_site_fract_y
 _atom_site_fract_z
 _atom_site_occupancy
  Rb  Rb0  1  0.352808  0.358420  0.742672  1
  Rb  Rb1  1  0.203919  0.032903  0.577539  1
  Rb  Rb2  1  0.796081  0.967097  0.077539  1
  Rb  Rb3  1  0.093000  0.694661  0.592714  1
  Rb  Rb4  1  0.147192  0.858420  0.242672  1
  Rb  Rb5  1  0.852808  0.141580  0.742672  1
  Rb  Rb6  1  0.296081  0.532903  0.077539  1
  Rb  Rb7  1  0.907000  0.305339  0.092714  1
  Rb  Rb8  1  0.703919  0.467097  0.577539  1
  Rb  Rb9  1  0.647192  0.641580  0.242672  1
  Rb  Rb10  1  0.593000  0.805339  0.592714  1
  Rb  Rb11  1  0.407000  0.194661  0.092714  1
  Tb  Tb12  1  0.009958  0.508609  0.330039  1
  Tb  Tb13  1  0.643166  0.613706  0.898389  1
  Tb  Tb14  1  0.990042  0.491391  0.830039  1
  Tb  Tb15  1  0.490042  0.008609  0.830039  1
  Tb  Tb16  1  0.356834  0.386294  0.398389  1
  Tb  Tb17  1  0.856834  0.113706  0.398389  1
  Tb  Tb18  1  0.143166  0.886294  0.898389  1
  Tb  Tb19  1  0.509958  0.991391  0.330039  1
  B  B20  1  0.136730  0.175260  0.906642  1
  B  B21  1  0.363270  0.675260  0.406642  1
  B  B22  1  0.169428  0.196062  0.288692  1
  B  B23  1  0.863270  0.824740  0.406642  1
  B  B24  1  0.330572  0.696062  0.788692  1
  B  B25  1  0.669428  0.303938  0.288692  1
  B  B26  1  0.035300  0.348144  0.564040  1
  B  B27  1  0.464700  0.848144  0.064040  1
  B  B28  1  0.964700  0.651856  0.064040  1
  B  B29  1  0.830572  0.803938  0.788692  1
  B  B30  1  0.535300  0.151856  0.564040  1
  B  B31  1  0.636730  0.324740  0.906642  1
  O  O32  1  0.476346  0.904888  0.166711  1
  O  O33  1  0.539739  0.378907  0.274491  1
  O  O34  1  0.380830  0.918392  0.985823  1
  O  O35  1  0.880830  0.581608  0.985823  1
  O  O36  1  0.303801  0.140737  0.332538  1
  O  O37  1  0.251498  0.610811  0.341997  1
  O  O38  1  0.961516  0.227048  0.537825  1
  O  O39  1  0.617218  0.182371  0.907810  1
  O  O40  1  0.619170  0.081608  0.485823  1
  O  O41  1  0.803801  0.359263  0.332538  1
  O  O42  1  0.976346  0.595112  0.166711  1
  O  O43  1  0.954293  0.911952  0.466909  1
  O  O44  1  0.674313  0.162875  0.261401  1
  O  O45  1  0.882782  0.682371  0.407810  1
  O  O46  1  0.461516  0.272952  0.537825  1
  O  O47  1  0.454293  0.588048  0.466909  1
  O  O48  1  0.325687  0.837125  0.761401  1
  O  O49  1  0.545707  0.411952  0.966909  1
  O  O50  1  0.174313  0.337125  0.261401  1
  O  O51  1  0.248502  0.110811  0.841997  1
  O  O52  1  0.045707  0.088048  0.966909  1
  O  O53  1  0.523654  0.095112  0.666711  1
  O  O54  1  0.039739  0.121093  0.274491  1
  O  O55  1  0.119170  0.418392  0.485823  1
  O  O56  1  0.382782  0.817629  0.407810  1
  O  O57  1  0.696199  0.859263  0.832538  1
  O  O58  1  0.825687  0.662875  0.761401  1
  O  O59  1  0.196199  0.640737  0.832538  1
  O  O60  1  0.751498  0.889189  0.341997  1
  O  O61  1  0.960261  0.878907  0.774491  1
  O  O62  1  0.038484  0.772952  0.037825  1
  O  O63  1  0.023654  0.404888  0.666711  1
  O  O64  1  0.117218  0.317629  0.907810  1
  O  O65  1  0.748502  0.389189  0.841997  1
  O  O66  1  0.460261  0.621093  0.774491  1
  O  O67  1  0.538484  0.727048  0.037825  1
