# generated using pymatgen
data_Nd3Dy3(MoO7)2
_symmetry_space_group_name_H-M   'P 1'
_cell_length_a   6.55634367
_cell_length_b   6.52027298
_cell_length_c   7.63821100
_cell_angle_alpha   90.00000000
_cell_angle_beta   90.00000000
_cell_angle_gamma   109.14498550
_symmetry_Int_Tables_number   1
_chemical_formula_structural   Nd3Dy3(MoO7)2
_chemical_formula_sum   'Nd3 Dy3 Mo2 O14'
_cell_volume   308.46737882
_cell_formula_units_Z   1
loop_
 _symmetry_equiv_pos_site_id
 _symmetry_equiv_pos_as_xyz
  1  'x, y, z'
loop_
 _atom_site_type_symbol
 _atom_site_label
 _atom_site_symmetry_multiplicity
 _atom_site_fract_x
 _atom_site_fract_y
 _atom_site_fract_z
 _atom_site_occupancy
  Nd  Nd0  1  0.510076  0.509490  0.501904  1
  Nd  Nd1  1  0.510076  0.509490  0.998096  1
  Nd  Nd2  1  0.465055  0.002044  0.250000  1
  Dy  Dy3  1  0.002795  0.535547  0.250000  1
  Dy  Dy4  1  0.000377  0.463040  0.750000  1
  Dy  Dy5  1  0.533349  0.001906  0.750000  1
  Mo  Mo6  1  0.999998  0.000135  0.502072  1
  Mo  Mo7  1  0.999998  0.000135  0.997928  1
  O  O8  1  0.930352  0.072426  0.750000  1
  O  O9  1  0.064579  0.927620  0.250000  1
  O  O10  1  0.357265  0.630134  0.250000  1
  O  O11  1  0.645049  0.360423  0.750000  1
  O  O12  1  0.361400  0.635410  0.750000  1
  O  O13  1  0.644718  0.377239  0.250000  1
  O  O14  1  0.316793  0.074217  0.964716  1
  O  O15  1  0.676522  0.918415  0.479169  1
  O  O16  1  0.316793  0.074217  0.535284  1
  O  O17  1  0.676522  0.918415  0.020831  1
  O  O18  1  0.060720  0.313752  0.467760  1
  O  O19  1  0.933421  0.681098  0.968334  1
  O  O20  1  0.933421  0.681098  0.531666  1
  O  O21  1  0.060720  0.313752  0.032240  1
