# generated using pymatgen
data_Th8ScSi16Mo11
_symmetry_space_group_name_H-M   'P 1'
_cell_length_a   7.00729761
_cell_length_b   7.13106999
_cell_length_c   13.25925500
_cell_angle_alpha   90.00000000
_cell_angle_beta   90.00000000
_cell_angle_gamma   90.25821898
_symmetry_Int_Tables_number   1
_chemical_formula_structural   Th8ScSi16Mo11
_chemical_formula_sum   'Th8 Sc1 Si16 Mo11'
_cell_volume   662.55200860
_cell_formula_units_Z   1
loop_
 _symmetry_equiv_pos_site_id
 _symmetry_equiv_pos_as_xyz
  1  'x, y, z'
loop_
 _atom_site_type_symbol
 _atom_site_label
 _atom_site_symmetry_multiplicity
 _atom_site_fract_x
 _atom_site_fract_y
 _atom_site_fract_z
 _atom_site_occupancy
  Th  Th0  1  0.005386  0.164698  0.096387  1
  Th  Th1  1  0.506254  0.336656  0.404108  1
  Th  Th2  1  0.495910  0.666279  0.904842  1
  Th  Th3  1  0.995586  0.831262  0.594153  1
  Th  Th4  1  0.995586  0.831262  0.905847  1
  Th  Th5  1  0.495910  0.666279  0.595158  1
  Th  Th6  1  0.506254  0.336656  0.095892  1
  Th  Th7  1  0.005386  0.164698  0.403613  1
  Sc  Sc8  1  0.331621  0.003873  0.750000  1
  Si  Si9  1  0.812517  0.389497  0.250000  1
  Si  Si10  1  0.314908  0.114653  0.250000  1
  Si  Si11  1  0.697438  0.885014  0.750000  1
  Si  Si12  1  0.189493  0.605469  0.750000  1
  Si  Si13  1  0.037100  0.853281  0.250000  1
  Si  Si14  1  0.541127  0.649615  0.250000  1
  Si  Si15  1  0.465663  0.363831  0.750000  1
  Si  Si16  1  0.952816  0.145653  0.750000  1
  Si  Si17  1  0.841431  0.450641  0.952828  1
  Si  Si18  1  0.342965  0.046229  0.542587  1
  Si  Si19  1  0.653816  0.951309  0.049925  1
  Si  Si20  1  0.157006  0.547603  0.450933  1
  Si  Si21  1  0.157006  0.547603  0.049067  1
  Si  Si22  1  0.653816  0.951309  0.450075  1
  Si  Si23  1  0.342965  0.046229  0.957413  1
  Si  Si24  1  0.841431  0.450641  0.547172  1
  Mo  Mo25  1  0.670985  0.000955  0.250000  1
  Mo  Mo26  1  0.169386  0.499680  0.250000  1
  Mo  Mo27  1  0.832013  0.496676  0.750000  1
  Mo  Mo28  1  0.835866  0.663101  0.125210  1
  Mo  Mo29  1  0.330003  0.836636  0.371370  1
  Mo  Mo30  1  0.665387  0.168016  0.877372  1
  Mo  Mo31  1  0.162856  0.333472  0.622865  1
  Mo  Mo32  1  0.162856  0.333472  0.877135  1
  Mo  Mo33  1  0.665387  0.168016  0.622628  1
  Mo  Mo34  1  0.330003  0.836636  0.128630  1
  Mo  Mo35  1  0.835866  0.663101  0.374790  1
