# generated using pymatgen
data_TbYB4(IrRu)2
_symmetry_space_group_name_H-M   'P 1'
_cell_length_a   6.79532939
_cell_length_b   5.98397151
_cell_length_c   5.55012707
_cell_angle_alpha   72.08223316
_cell_angle_beta   56.91806146
_cell_angle_gamma   50.98186293
_symmetry_Int_Tables_number   1
_chemical_formula_structural   TbYB4(IrRu)2
_chemical_formula_sum   'Tb1 Y1 B4 Ir2 Ru2'
_cell_volume   146.69555107
_cell_formula_units_Z   1
loop_
 _symmetry_equiv_pos_site_id
 _symmetry_equiv_pos_as_xyz
  1  'x, y, z'
loop_
 _atom_site_type_symbol
 _atom_site_label
 _atom_site_symmetry_multiplicity
 _atom_site_fract_x
 _atom_site_fract_y
 _atom_site_fract_z
 _atom_site_occupancy
  Tb  Tb0  1  0.744671  0.744671  0.755329  1
  Y  Y1  1  0.494574  0.494574  0.505426  1
  B  B2  1  0.066803  0.436205  0.063019  1
  B  B3  1  0.815859  0.187014  0.813621  1
  B  B4  1  0.436205  0.066803  0.433973  1
  B  B5  1  0.187014  0.815859  0.183506  1
  Ir  Ir6  1  0.865954  0.865954  0.134046  1
  Ir  Ir7  1  0.115962  0.115962  0.384038  1
  Ru  Ru8  1  0.386518  0.386518  0.113482  1
  Ru  Ru9  1  0.136439  0.136439  0.863561  1
