# generated using pymatgen
data_ZrTl2Se3
_symmetry_space_group_name_H-M   'P 1'
_cell_length_a   3.92716900
_cell_length_b   8.19106670
_cell_length_c   10.72599400
_cell_angle_alpha   82.91228576
_cell_angle_beta   90.00000000
_cell_angle_gamma   90.00000000
_symmetry_Int_Tables_number   1
_chemical_formula_structural   ZrTl2Se3
_chemical_formula_sum   'Zr2 Tl4 Se6'
_cell_volume   342.39401252
_cell_formula_units_Z   2
loop_
 _symmetry_equiv_pos_site_id
 _symmetry_equiv_pos_as_xyz
  1  'x, y, z'
loop_
 _atom_site_type_symbol
 _atom_site_label
 _atom_site_symmetry_multiplicity
 _atom_site_fract_x
 _atom_site_fract_y
 _atom_site_fract_z
 _atom_site_occupancy
  Zr  Zr0  1  0.250000  0.589390  0.335322  1
  Zr  Zr1  1  0.750000  0.410610  0.664678  1
  Tl  Tl2  1  0.250000  0.936485  0.660012  1
  Tl  Tl3  1  0.750000  0.063515  0.339988  1
  Tl  Tl4  1  0.250000  0.251920  0.999966  1
  Tl  Tl5  1  0.750000  0.748080  0.000034  1
  Se  Se6  1  0.250000  0.870171  0.190402  1
  Se  Se7  1  0.750000  0.129829  0.809598  1
  Se  Se8  1  0.250000  0.550501  0.789466  1
  Se  Se9  1  0.750000  0.449499  0.210534  1
  Se  Se10  1  0.250000  0.304396  0.512930  1
  Se  Se11  1  0.750000  0.695604  0.487070  1
