# generated using pymatgen
data_Ba2GeWN4
_symmetry_space_group_name_H-M   'P 1'
_cell_length_a   5.99691700
_cell_length_b   7.05781368
_cell_length_c   8.56877216
_cell_angle_alpha   59.65074974
_cell_angle_beta   90.00000000
_cell_angle_gamma   90.00000000
_symmetry_Int_Tables_number   1
_chemical_formula_structural   Ba2GeWN4
_chemical_formula_sum   'Ba4 Ge2 W2 N8'
_cell_volume   312.97400569
_cell_formula_units_Z   2
loop_
 _symmetry_equiv_pos_site_id
 _symmetry_equiv_pos_as_xyz
  1  'x, y, z'
loop_
 _atom_site_type_symbol
 _atom_site_label
 _atom_site_symmetry_multiplicity
 _atom_site_fract_x
 _atom_site_fract_y
 _atom_site_fract_z
 _atom_site_occupancy
  Ba  Ba0  1  0.250000  0.234383  0.073213  1
  Ba  Ba1  1  0.750000  0.765617  0.926787  1
  Ba  Ba2  1  0.750000  0.782643  0.370729  1
  Ba  Ba3  1  0.250000  0.217357  0.629271  1
  Ge  Ge4  1  0.750000  0.271380  0.381134  1
  Ge  Ge5  1  0.250000  0.728620  0.618866  1
  W  W6  1  0.250000  0.660816  0.212784  1
  W  W7  1  0.750000  0.339184  0.787216  1
  N  N8  1  0.487494  0.510840  0.735337  1
  N  N9  1  0.987494  0.489160  0.264663  1
  N  N10  1  0.512506  0.489160  0.264663  1
  N  N11  1  0.012506  0.510840  0.735337  1
  N  N12  1  0.750000  0.205108  0.641252  1
  N  N13  1  0.250000  0.794892  0.358748  1
  N  N14  1  0.750000  0.118468  0.024128  1
  N  N15  1  0.250000  0.881532  0.975872  1
