# generated using pymatgen
data_Ho2Fe3Co9P7
_symmetry_space_group_name_H-M   'P 1'
_cell_length_a   8.97849200
_cell_length_b   8.97849100
_cell_length_c   3.60798900
_cell_angle_alpha   90.00000000
_cell_angle_beta   90.00000000
_cell_angle_gamma   120.00000370
_symmetry_Int_Tables_number   1
_chemical_formula_structural   Ho2Fe3Co9P7
_chemical_formula_sum   'Ho2 Fe3 Co9 P7'
_cell_volume   251.88515437
_cell_formula_units_Z   1
loop_
 _symmetry_equiv_pos_site_id
 _symmetry_equiv_pos_as_xyz
  1  'x, y, z'
loop_
 _atom_site_type_symbol
 _atom_site_label
 _atom_site_symmetry_multiplicity
 _atom_site_fract_x
 _atom_site_fract_y
 _atom_site_fract_z
 _atom_site_occupancy
  Ho  Ho0  1  0.000000  0.000000  0.000000  1
  Ho  Ho1  1  0.333333  0.666667  0.500000  1
  Fe  Fe2  1  0.542900  0.115868  0.500000  1
  Fe  Fe3  1  0.572968  0.457100  0.500000  1
  Fe  Fe4  1  0.884132  0.427032  0.500000  1
  Co  Co5  1  0.295190  0.901908  0.000000  1
  Co  Co6  1  0.606718  0.704810  0.000000  1
  Co  Co7  1  0.098092  0.393282  0.000000  1
  Co  Co8  1  0.784029  0.176220  0.000000  1
  Co  Co9  1  0.392190  0.215971  0.000000  1
  Co  Co10  1  0.823780  0.607810  0.000000  1
  Co  Co11  1  0.716365  0.948831  0.500000  1
  Co  Co12  1  0.232467  0.283635  0.500000  1
  Co  Co13  1  0.051169  0.767533  0.500000  1
  P  P14  1  0.553170  0.923627  0.000000  1
  P  P15  1  0.370457  0.446830  0.000000  1
  P  P16  1  0.076373  0.629543  0.000000  1
  P  P17  1  0.956525  0.220873  0.500000  1
  P  P18  1  0.264348  0.043475  0.500000  1
  P  P19  1  0.779127  0.735652  0.500000  1
  P  P20  1  0.666667  0.333333  0.000000  1
