# generated using pymatgen
data_Mg3Ta(AlRh2)4
_symmetry_space_group_name_H-M   'P 1'
_cell_length_a   6.12337800
_cell_length_b   6.12320900
_cell_length_c   6.14387800
_cell_angle_alpha   89.99914059
_cell_angle_beta   89.99945821
_cell_angle_gamma   90.00187140
_symmetry_Int_Tables_number   1
_chemical_formula_structural   Mg3Ta(AlRh2)4
_chemical_formula_sum   'Mg3 Ta1 Al4 Rh8'
_cell_volume   230.36300540
_cell_formula_units_Z   1
loop_
 _symmetry_equiv_pos_site_id
 _symmetry_equiv_pos_as_xyz
  1  'x, y, z'
loop_
 _atom_site_type_symbol
 _atom_site_label
 _atom_site_symmetry_multiplicity
 _atom_site_fract_x
 _atom_site_fract_y
 _atom_site_fract_z
 _atom_site_occupancy
  Mg  Mg0  1  0.250015  0.750002  0.000002  1
  Mg  Mg1  1  0.249984  0.750002  0.499986  1
  Mg  Mg2  1  0.750017  0.249999  0.500010  1
  Ta  Ta3  1  0.750009  0.249992  0.000000  1
  Al  Al4  1  0.249981  0.249999  0.000003  1
  Al  Al5  1  0.750022  0.750001  0.999999  1
  Al  Al6  1  0.250017  0.249998  0.499992  1
  Al  Al7  1  0.749988  0.750000  0.500008  1
  Rh  Rh8  1  0.998366  0.001629  0.249086  1
  Rh  Rh9  1  0.998371  0.498374  0.249093  1
  Rh  Rh10  1  0.501626  0.001618  0.249105  1
  Rh  Rh11  1  0.501637  0.498379  0.249102  1
  Rh  Rh12  1  0.501618  0.001624  0.750901  1
  Rh  Rh13  1  0.501614  0.498376  0.750895  1
  Rh  Rh14  1  0.998366  0.001629  0.750913  1
  Rh  Rh15  1  0.998377  0.498381  0.750906  1
