# generated using pymatgen
data_TbDy7Re3B24Rh
_symmetry_space_group_name_H-M   'P 1'
_cell_length_a   3.68618400
_cell_length_b   9.17582261
_cell_length_c   11.55703402
_cell_angle_alpha   90.16305817
_cell_angle_beta   90.00000000
_cell_angle_gamma   90.00000000
_symmetry_Int_Tables_number   1
_chemical_formula_structural   TbDy7Re3B24Rh
_chemical_formula_sum   'Tb1 Dy7 Re3 B24 Rh1'
_cell_volume   390.90088335
_cell_formula_units_Z   1
loop_
 _symmetry_equiv_pos_site_id
 _symmetry_equiv_pos_as_xyz
  1  'x, y, z'
loop_
 _atom_site_type_symbol
 _atom_site_label
 _atom_site_symmetry_multiplicity
 _atom_site_fract_x
 _atom_site_fract_y
 _atom_site_fract_z
 _atom_site_occupancy
  Tb  Tb0  1  0.000000  0.318936  0.415325  1
  Dy  Dy1  1  0.000000  0.678006  0.591014  1
  Dy  Dy2  1  0.000000  0.827220  0.081454  1
  Dy  Dy3  1  0.000000  0.176895  0.912687  1
  Dy  Dy4  1  0.000000  0.943395  0.369956  1
  Dy  Dy5  1  0.000000  0.055576  0.628836  1
  Dy  Dy6  1  0.000000  0.441548  0.129119  1
  Dy  Dy7  1  0.000000  0.556569  0.871696  1
  Re  Re8  1  0.000000  0.362351  0.677761  1
  Re  Re9  1  0.000000  0.138339  0.179732  1
  Re  Re10  1  0.000000  0.861595  0.821027  1
  B  B11  1  0.500000  0.554295  0.433505  1
  B  B12  1  0.500000  0.446586  0.567032  1
  B  B13  1  0.500000  0.053549  0.066654  1
  B  B14  1  0.500000  0.946923  0.932603  1
  B  B15  1  0.500000  0.748894  0.420254  1
  B  B16  1  0.500000  0.250888  0.581250  1
  B  B17  1  0.500000  0.248979  0.081375  1
  B  B18  1  0.500000  0.751945  0.918786  1
  B  B19  1  0.500000  0.790975  0.265310  1
  B  B20  1  0.500000  0.208426  0.733881  1
  B  B21  1  0.500000  0.291533  0.234793  1
  B  B22  1  0.500000  0.708184  0.766058  1
  B  B23  1  0.500000  0.632322  0.184338  1
  B  B24  1  0.500000  0.369063  0.813870  1
  B  B25  1  0.500000  0.131119  0.314454  1
  B  B26  1  0.500000  0.867999  0.685798  1
  B  B27  1  0.500000  0.983580  0.211813  1
  B  B28  1  0.500000  0.016774  0.787083  1
  B  B29  1  0.500000  0.483943  0.287982  1
  B  B30  1  0.500000  0.517621  0.712441  1
  B  B31  1  0.500000  0.604554  0.029637  1
  B  B32  1  0.500000  0.396727  0.971973  1
  B  B33  1  0.500000  0.102601  0.470732  1
  B  B34  1  0.500000  0.893999  0.528480  1
  Rh  Rh35  1  0.000000  0.638092  0.321293  1
