# generated using pymatgen
data_Dy2ThAs3
_symmetry_space_group_name_H-M   'P 1'
_cell_length_a   4.17701300
_cell_length_b   4.17701330
_cell_length_c   10.12537300
_cell_angle_alpha   90.00000000
_cell_angle_beta   90.00000000
_cell_angle_gamma   119.99998974
_symmetry_Int_Tables_number   1
_chemical_formula_structural   Dy2ThAs3
_chemical_formula_sum   'Dy2 Th1 As3'
_cell_volume   152.99364512
_cell_formula_units_Z   1
loop_
 _symmetry_equiv_pos_site_id
 _symmetry_equiv_pos_as_xyz
  1  'x, y, z'
loop_
 _atom_site_type_symbol
 _atom_site_label
 _atom_site_symmetry_multiplicity
 _atom_site_fract_x
 _atom_site_fract_y
 _atom_site_fract_z
 _atom_site_occupancy
  Dy  Dy0  1  0.333333  0.666667  0.659088  1
  Dy  Dy1  1  0.666667  0.333333  0.340912  1
  Th  Th2  1  0.000000  0.000000  0.000000  1
  As  As3  1  0.333333  0.666667  0.173410  1
  As  As4  1  0.666667  0.333333  0.826590  1
  As  As5  1  0.000000  0.000000  0.500000  1
