# generated using pymatgen
data_GaTc20(B3Mo)2
_symmetry_space_group_name_H-M   'P 1'
_cell_length_a   8.10057858
_cell_length_b   8.10057878
_cell_length_c   8.10057800
_cell_angle_alpha   60.00000319
_cell_angle_beta   60.00000236
_cell_angle_gamma   60.00000004
_symmetry_Int_Tables_number   1
_chemical_formula_structural   GaTc20(B3Mo)2
_chemical_formula_sum   'Ga1 Tc20 B6 Mo2'
_cell_volume   375.86606546
_cell_formula_units_Z   1
loop_
 _symmetry_equiv_pos_site_id
 _symmetry_equiv_pos_as_xyz
  1  'x, y, z'
loop_
 _atom_site_type_symbol
 _atom_site_label
 _atom_site_symmetry_multiplicity
 _atom_site_fract_x
 _atom_site_fract_y
 _atom_site_fract_z
 _atom_site_occupancy
  Ga  Ga0  1  0.000000  0.000000  0.000000  1
  Tc  Tc1  1  0.619284  0.619284  0.142148  1
  Tc  Tc2  1  0.619284  0.142148  0.619284  1
  Tc  Tc3  1  0.142148  0.619284  0.619284  1
  Tc  Tc4  1  0.619284  0.619284  0.619284  1
  Tc  Tc5  1  0.380716  0.380716  0.857852  1
  Tc  Tc6  1  0.380716  0.857852  0.380716  1
  Tc  Tc7  1  0.857852  0.380716  0.380716  1
  Tc  Tc8  1  0.380716  0.380716  0.380716  1
  Tc  Tc9  1  0.000000  0.000000  0.340459  1
  Tc  Tc10  1  0.659541  0.000000  0.340459  1
  Tc  Tc11  1  0.000000  0.659541  0.340459  1
  Tc  Tc12  1  0.659541  0.340459  0.000000  1
  Tc  Tc13  1  0.000000  0.340459  0.000000  1
  Tc  Tc14  1  0.000000  0.340459  0.659541  1
  Tc  Tc15  1  0.340459  0.659541  0.000000  1
  Tc  Tc16  1  0.340459  0.000000  0.659541  1
  Tc  Tc17  1  0.340459  0.000000  0.000000  1
  Tc  Tc18  1  0.000000  0.000000  0.659541  1
  Tc  Tc19  1  0.000000  0.659541  0.000000  1
  Tc  Tc20  1  0.659541  0.000000  0.000000  1
  B  B21  1  0.720287  0.720287  0.279713  1
  B  B22  1  0.279713  0.720287  0.279713  1
  B  B23  1  0.720287  0.279713  0.279713  1
  B  B24  1  0.279713  0.279713  0.720287  1
  B  B25  1  0.720287  0.279713  0.720287  1
  B  B26  1  0.279713  0.720287  0.720287  1
  Mo  Mo27  1  0.750000  0.750000  0.750000  1
  Mo  Mo28  1  0.250000  0.250000  0.250000  1
