# generated using pymatgen
data_La13Yb3Cd4(CoRu)2
_symmetry_space_group_name_H-M   'P 1'
_cell_length_a   9.96931472
_cell_length_b   9.95268974
_cell_length_c   9.96931588
_cell_angle_alpha   60.21236585
_cell_angle_beta   60.55065342
_cell_angle_gamma   60.21236824
_symmetry_Int_Tables_number   1
_chemical_formula_structural   La13Yb3Cd4(CoRu)2
_chemical_formula_sum   'La13 Yb3 Cd4 Co2 Ru2'
_cell_volume   704.57818127
_cell_formula_units_Z   1
loop_
 _symmetry_equiv_pos_site_id
 _symmetry_equiv_pos_as_xyz
  1  'x, y, z'
loop_
 _atom_site_type_symbol
 _atom_site_label
 _atom_site_symmetry_multiplicity
 _atom_site_fract_x
 _atom_site_fract_y
 _atom_site_fract_z
 _atom_site_occupancy
  La  La0  1  0.684326  0.693830  0.308712  1
  La  La1  1  0.159494  0.149887  0.538774  1
  La  La2  1  0.308712  0.693830  0.684326  1
  La  La3  1  0.157946  0.148673  0.157946  1
  La  La4  1  0.538774  0.149887  0.159494  1
  La  La5  1  0.309796  0.690300  0.309796  1
  La  La6  1  0.314953  0.308158  0.684255  1
  La  La7  1  0.689758  0.305228  0.689758  1
  La  La8  1  0.935111  0.564155  0.557727  1
  La  La9  1  0.557727  0.564155  0.935111  1
  La  La10  1  0.158452  0.534380  0.158452  1
  La  La11  1  0.684255  0.308158  0.314953  1
  La  La12  1  0.939605  0.563329  0.939605  1
  Yb  Yb13  1  0.937122  0.940116  0.561839  1
  Yb  Yb14  1  0.562097  0.937784  0.562097  1
  Yb  Yb15  1  0.561839  0.940116  0.937122  1
  Cd  Cd16  1  0.237413  0.921439  0.921552  1
  Cd  Cd17  1  0.920082  0.921763  0.920082  1
  Cd  Cd18  1  0.921552  0.921439  0.237413  1
  Cd  Cd19  1  0.921399  0.237011  0.921399  1
  Co  Co20  1  0.362733  0.915753  0.362733  1
  Co  Co21  1  0.363528  0.358140  0.363528  1
  Ru  Ru22  1  0.910861  0.366233  0.362457  1
  Ru  Ru23  1  0.362457  0.366233  0.910861  1
