# generated using pymatgen
data_Ho8ZnCdPd23
_symmetry_space_group_name_H-M   'P 1'
_cell_length_a   8.26808200
_cell_length_b   8.39723600
_cell_length_c   8.39723600
_cell_angle_alpha   90.00000000
_cell_angle_beta   90.00000000
_cell_angle_gamma   90.00000000
_symmetry_Int_Tables_number   1
_chemical_formula_structural   Ho8ZnCdPd23
_chemical_formula_sum   'Ho8 Zn1 Cd1 Pd23'
_cell_volume   583.01199904
_cell_formula_units_Z   1
loop_
 _symmetry_equiv_pos_site_id
 _symmetry_equiv_pos_as_xyz
  1  'x, y, z'
loop_
 _atom_site_type_symbol
 _atom_site_label
 _atom_site_symmetry_multiplicity
 _atom_site_fract_x
 _atom_site_fract_y
 _atom_site_fract_z
 _atom_site_occupancy
  Ho  Ho0  1  0.250716  0.240308  0.240308  1
  Ho  Ho1  1  0.748236  0.747696  0.747696  1
  Ho  Ho2  1  0.748236  0.747696  0.252304  1
  Ho  Ho3  1  0.748236  0.252304  0.747696  1
  Ho  Ho4  1  0.250716  0.240308  0.759692  1
  Ho  Ho5  1  0.250716  0.759692  0.240308  1
  Ho  Ho6  1  0.250716  0.759692  0.759692  1
  Ho  Ho7  1  0.748236  0.252304  0.252304  1
  Zn  Zn8  1  0.000042  0.000000  0.000000  1
  Cd  Cd9  1  0.255642  0.500000  0.500000  1
  Pd  Pd10  1  0.258742  0.500000  0.000000  1
  Pd  Pd11  1  0.739838  0.500000  0.000000  1
  Pd  Pd12  1  0.004129  0.258500  0.500000  1
  Pd  Pd13  1  0.501978  0.262421  0.000000  1
  Pd  Pd14  1  0.004129  0.741500  0.500000  1
  Pd  Pd15  1  0.501978  0.737579  0.000000  1
  Pd  Pd16  1  0.501978  0.000000  0.262421  1
  Pd  Pd17  1  0.258742  0.000000  0.500000  1
  Pd  Pd18  1  0.501978  0.000000  0.737579  1
  Pd  Pd19  1  0.739838  0.000000  0.500000  1
  Pd  Pd20  1  0.004129  0.500000  0.258500  1
  Pd  Pd21  1  0.004129  0.500000  0.741500  1
  Pd  Pd22  1  0.747799  0.500000  0.500000  1
  Pd  Pd23  1  0.496479  0.250533  0.500000  1
  Pd  Pd24  1  0.496479  0.749467  0.500000  1
  Pd  Pd25  1  0.496479  0.500000  0.250533  1
  Pd  Pd26  1  0.496479  0.500000  0.749467  1
  Pd  Pd27  1  0.298595  0.000000  0.000000  1
  Pd  Pd28  1  0.704285  0.000000  0.000000  1
  Pd  Pd29  1  0.997581  0.292578  0.000000  1
  Pd  Pd30  1  0.997581  0.707422  0.000000  1
  Pd  Pd31  1  0.997581  0.000000  0.292578  1
  Pd  Pd32  1  0.997581  0.000000  0.707422  1
