# generated using pymatgen
data_LaAlTeO6
_symmetry_space_group_name_H-M   'P 1'
_cell_length_a   5.11586640
_cell_length_b   5.11889650
_cell_length_c   10.51444895
_cell_angle_alpha   89.98424902
_cell_angle_beta   90.00788090
_cell_angle_gamma   120.01959452
_symmetry_Int_Tables_number   1
_chemical_formula_structural   LaAlTeO6
_chemical_formula_sum   'La2 Al2 Te2 O12'
_cell_volume   238.41132994
_cell_formula_units_Z   2
loop_
 _symmetry_equiv_pos_site_id
 _symmetry_equiv_pos_as_xyz
  1  'x, y, z'
loop_
 _atom_site_type_symbol
 _atom_site_label
 _atom_site_symmetry_multiplicity
 _atom_site_fract_x
 _atom_site_fract_y
 _atom_site_fract_z
 _atom_site_occupancy
  La  La0  1  0.999996  0.999998  0.000001  1
  La  La1  1  0.000005  0.000002  0.500000  1
  Al  Al2  1  0.333221  0.666610  0.250000  1
  Al  Al3  1  0.666780  0.333390  0.750000  1
  Te  Te4  1  0.666425  0.333212  0.250000  1
  Te  Te5  1  0.333575  0.666787  0.750000  1
  O  O6  1  0.373465  0.996996  0.146825  1
  O  O7  1  0.622546  0.625501  0.146673  1
  O  O8  1  0.002872  0.376740  0.146885  1
  O  O9  1  0.002871  0.626130  0.353115  1
  O  O10  1  0.622546  0.997046  0.353327  1
  O  O11  1  0.373468  0.376471  0.353174  1
  O  O12  1  0.626532  0.623528  0.646825  1
  O  O13  1  0.377453  0.002954  0.646673  1
  O  O14  1  0.997128  0.373866  0.646885  1
  O  O15  1  0.997128  0.623257  0.853115  1
  O  O16  1  0.377454  0.374499  0.853327  1
  O  O17  1  0.626531  0.003004  0.853175  1
