# generated using pymatgen
data_Sc3Ga2Sn
_symmetry_space_group_name_H-M   'P 1'
_cell_length_a   5.97688100
_cell_length_b   8.84197900
_cell_length_c   9.45737800
_cell_angle_alpha   90.00000000
_cell_angle_beta   90.00000000
_cell_angle_gamma   90.00000000
_symmetry_Int_Tables_number   1
_chemical_formula_structural   Sc3Ga2Sn
_chemical_formula_sum   'Sc12 Ga8 Sn4'
_cell_volume   499.79837045
_cell_formula_units_Z   4
loop_
 _symmetry_equiv_pos_site_id
 _symmetry_equiv_pos_as_xyz
  1  'x, y, z'
loop_
 _atom_site_type_symbol
 _atom_site_label
 _atom_site_symmetry_multiplicity
 _atom_site_fract_x
 _atom_site_fract_y
 _atom_site_fract_z
 _atom_site_occupancy
  Sc  Sc0  1  0.000000  0.750000  0.125089  1
  Sc  Sc1  1  0.500000  0.250000  0.874911  1
  Sc  Sc2  1  0.000000  0.250000  0.874911  1
  Sc  Sc3  1  0.500000  0.750000  0.125089  1
  Sc  Sc4  1  0.750000  0.476132  0.609830  1
  Sc  Sc5  1  0.250000  0.523868  0.390170  1
  Sc  Sc6  1  0.750000  0.976132  0.390170  1
  Sc  Sc7  1  0.250000  0.023868  0.609830  1
  Sc  Sc8  1  0.750000  0.368286  0.202102  1
  Sc  Sc9  1  0.250000  0.631714  0.797898  1
  Sc  Sc10  1  0.750000  0.868286  0.797898  1
  Sc  Sc11  1  0.250000  0.131714  0.202102  1
  Ga  Ga12  1  0.000000  0.750000  0.560782  1
  Ga  Ga13  1  0.500000  0.250000  0.439218  1
  Ga  Ga14  1  0.000000  0.250000  0.439218  1
  Ga  Ga15  1  0.500000  0.750000  0.560782  1
  Ga  Ga16  1  0.750000  0.138768  0.645840  1
  Ga  Ga17  1  0.250000  0.861232  0.354160  1
  Ga  Ga18  1  0.750000  0.638768  0.354160  1
  Ga  Ga19  1  0.250000  0.361232  0.645840  1
  Sn  Sn20  1  0.750000  0.053643  0.087048  1
  Sn  Sn21  1  0.250000  0.946357  0.912952  1
  Sn  Sn22  1  0.750000  0.553643  0.912952  1
  Sn  Sn23  1  0.250000  0.446357  0.087048  1
