# generated using pymatgen
data_DyPaRh2Pb
_symmetry_space_group_name_H-M   'P 1'
_cell_length_a   7.91510300
_cell_length_b   7.69410500
_cell_length_c   3.62718800
_cell_angle_alpha   90.00000000
_cell_angle_beta   90.00000000
_cell_angle_gamma   90.00000000
_symmetry_Int_Tables_number   1
_chemical_formula_structural   DyPaRh2Pb
_chemical_formula_sum   'Dy2 Pa2 Rh4 Pb2'
_cell_volume   220.89442008
_cell_formula_units_Z   2
loop_
 _symmetry_equiv_pos_site_id
 _symmetry_equiv_pos_as_xyz
  1  'x, y, z'
loop_
 _atom_site_type_symbol
 _atom_site_label
 _atom_site_symmetry_multiplicity
 _atom_site_fract_x
 _atom_site_fract_y
 _atom_site_fract_z
 _atom_site_occupancy
  Dy  Dy0  1  0.828875  0.670549  0.500000  1
  Dy  Dy1  1  0.328875  0.829451  0.500000  1
  Pa  Pa2  1  0.678429  0.161821  0.500000  1
  Pa  Pa3  1  0.178429  0.338179  0.500000  1
  Rh  Rh4  1  0.358936  0.157059  0.000000  1
  Rh  Rh5  1  0.124553  0.595302  0.000000  1
  Rh  Rh6  1  0.624553  0.904698  0.000000  1
  Rh  Rh7  1  0.858936  0.342941  0.000000  1
  Pb  Pb8  1  0.009207  0.989907  0.000000  1
  Pb  Pb9  1  0.509207  0.510093  0.000000  1
