# generated using pymatgen
data_ErLu4Os2C7
_symmetry_space_group_name_H-M   'P 1'
_cell_length_a   8.02556540
_cell_length_b   8.02556524
_cell_length_c   3.44591700
_cell_angle_alpha   90.00000000
_cell_angle_beta   90.00000000
_cell_angle_gamma   121.19106672
_symmetry_Int_Tables_number   1
_chemical_formula_structural   ErLu4Os2C7
_chemical_formula_sum   'Er1 Lu4 Os2 C7'
_cell_volume   189.86642885
_cell_formula_units_Z   1
loop_
 _symmetry_equiv_pos_site_id
 _symmetry_equiv_pos_as_xyz
  1  'x, y, z'
loop_
 _atom_site_type_symbol
 _atom_site_label
 _atom_site_symmetry_multiplicity
 _atom_site_fract_x
 _atom_site_fract_y
 _atom_site_fract_z
 _atom_site_occupancy
  Er  Er0  1  0.500000  0.500000  0.000000  1
  Lu  Lu1  1  0.079273  0.339869  0.500000  1
  Lu  Lu2  1  0.920727  0.660131  0.500000  1
  Lu  Lu3  1  0.660131  0.920727  0.500000  1
  Lu  Lu4  1  0.339869  0.079273  0.500000  1
  Os  Os5  1  0.715322  0.284678  0.000000  1
  Os  Os6  1  0.284678  0.715322  0.000000  1
  C  C7  1  0.630000  0.370000  0.500000  1
  C  C8  1  0.370000  0.630000  0.500000  1
  C  C9  1  0.000000  0.000000  0.000000  1
  C  C10  1  0.172629  0.172629  0.000000  1
  C  C11  1  0.827371  0.827371  0.000000  1
  C  C12  1  0.000000  0.500000  0.000000  1
  C  C13  1  0.500000  0.000000  0.000000  1
