# generated using pymatgen
data_La3Yb4CoNi3Sn13
_symmetry_space_group_name_H-M   'P 1'
_cell_length_a   11.28562216
_cell_length_b   11.29381231
_cell_length_c   4.61332900
_cell_angle_alpha   90.00000000
_cell_angle_beta   90.00000000
_cell_angle_gamma   89.79403964
_symmetry_Int_Tables_number   1
_chemical_formula_structural   La3Yb4CoNi3Sn13
_chemical_formula_sum   'La3 Yb4 Co1 Ni3 Sn13'
_cell_volume   588.00049768
_cell_formula_units_Z   1
loop_
 _symmetry_equiv_pos_site_id
 _symmetry_equiv_pos_as_xyz
  1  'x, y, z'
loop_
 _atom_site_type_symbol
 _atom_site_label
 _atom_site_symmetry_multiplicity
 _atom_site_fract_x
 _atom_site_fract_y
 _atom_site_fract_z
 _atom_site_occupancy
  La  La0  1  0.001179  0.998935  0.000000  1
  La  La1  1  0.500698  0.999716  0.500000  1
  La  La2  1  0.998399  0.500534  0.500000  1
  Yb  Yb3  1  0.337376  0.670674  0.500000  1
  Yb  Yb4  1  0.663081  0.328609  0.500000  1
  Yb  Yb5  1  0.327428  0.336679  0.500000  1
  Yb  Yb6  1  0.671266  0.663588  0.500000  1
  Co  Co7  1  0.118833  0.723680  0.000000  1
  Ni  Ni8  1  0.878285  0.280380  0.000000  1
  Ni  Ni9  1  0.279410  0.120369  0.000000  1
  Ni  Ni10  1  0.720590  0.880004  0.000000  1
  Sn  Sn11  1  0.284462  0.885099  0.000000  1
  Sn  Sn12  1  0.714822  0.112451  0.000000  1
  Sn  Sn13  1  0.112544  0.286790  0.000000  1
  Sn  Sn14  1  0.888812  0.714252  0.000000  1
  Sn  Sn15  1  0.076385  0.801886  0.500000  1
  Sn  Sn16  1  0.927870  0.196541  0.500000  1
  Sn  Sn17  1  0.197791  0.070074  0.500000  1
  Sn  Sn18  1  0.805688  0.924375  0.500000  1
  Sn  Sn19  1  0.519052  0.781342  0.000000  1
  Sn  Sn20  1  0.481401  0.218913  0.000000  1
  Sn  Sn21  1  0.215661  0.522365  0.000000  1
  Sn  Sn22  1  0.779193  0.482958  0.000000  1
  Sn  Sn23  1  0.499772  0.499786  0.000000  1
