# generated using pymatgen
data_BaLiSb2Pt
_symmetry_space_group_name_H-M   'P 1'
_cell_length_a   4.85293600
_cell_length_b   4.85293600
_cell_length_c   11.13916000
_cell_angle_alpha   90.00000000
_cell_angle_beta   90.00000000
_cell_angle_gamma   90.00000000
_symmetry_Int_Tables_number   1
_chemical_formula_structural   BaLiSb2Pt
_chemical_formula_sum   'Ba2 Li2 Sb4 Pt2'
_cell_volume   262.33822149
_cell_formula_units_Z   2
loop_
 _symmetry_equiv_pos_site_id
 _symmetry_equiv_pos_as_xyz
  1  'x, y, z'
loop_
 _atom_site_type_symbol
 _atom_site_label
 _atom_site_symmetry_multiplicity
 _atom_site_fract_x
 _atom_site_fract_y
 _atom_site_fract_z
 _atom_site_occupancy
  Ba  Ba0  1  0.000000  0.500000  0.254645  1
  Ba  Ba1  1  0.500000  0.000000  0.745355  1
  Li  Li2  1  0.000000  0.000000  0.000000  1
  Li  Li3  1  0.500000  0.500000  0.000000  1
  Sb  Sb4  1  0.000000  0.000000  0.500000  1
  Sb  Sb5  1  0.500000  0.500000  0.500000  1
  Sb  Sb6  1  0.000000  0.500000  0.857388  1
  Sb  Sb7  1  0.500000  0.000000  0.142612  1
  Pt  Pt8  1  0.000000  0.500000  0.612573  1
  Pt  Pt9  1  0.500000  0.000000  0.387427  1
