# generated using pymatgen
data_Ce6ZnCd22As
_symmetry_space_group_name_H-M   'P 1'
_cell_length_a   10.03028558
_cell_length_b   10.03028606
_cell_length_c   10.03028500
_cell_angle_alpha   60.00000019
_cell_angle_beta   59.99999862
_cell_angle_gamma   59.99999494
_symmetry_Int_Tables_number   1
_chemical_formula_structural   Ce6ZnCd22As
_chemical_formula_sum   'Ce6 Zn1 Cd22 As1'
_cell_volume   713.55075884
_cell_formula_units_Z   1
loop_
 _symmetry_equiv_pos_site_id
 _symmetry_equiv_pos_as_xyz
  1  'x, y, z'
loop_
 _atom_site_type_symbol
 _atom_site_label
 _atom_site_symmetry_multiplicity
 _atom_site_fract_x
 _atom_site_fract_y
 _atom_site_fract_z
 _atom_site_occupancy
  Ce  Ce0  1  0.791428  0.791428  0.208572  1
  Ce  Ce1  1  0.208572  0.791428  0.208572  1
  Ce  Ce2  1  0.791428  0.208572  0.208572  1
  Ce  Ce3  1  0.208572  0.208572  0.791428  1
  Ce  Ce4  1  0.791428  0.208572  0.791428  1
  Ce  Ce5  1  0.208572  0.791428  0.791428  1
  Zn  Zn6  1  0.500000  0.500000  0.500000  1
  Cd  Cd7  1  0.833644  0.833644  0.499066  1
  Cd  Cd8  1  0.833644  0.499066  0.833644  1
  Cd  Cd9  1  0.499066  0.833644  0.833644  1
  Cd  Cd10  1  0.833644  0.833644  0.833644  1
  Cd  Cd11  1  0.166356  0.166356  0.500934  1
  Cd  Cd12  1  0.166356  0.500934  0.166356  1
  Cd  Cd13  1  0.500934  0.166356  0.166356  1
  Cd  Cd14  1  0.166356  0.166356  0.166356  1
  Cd  Cd15  1  0.618297  0.618297  0.145109  1
  Cd  Cd16  1  0.618297  0.145109  0.618297  1
  Cd  Cd17  1  0.145109  0.618297  0.618297  1
  Cd  Cd18  1  0.618297  0.618297  0.618297  1
  Cd  Cd19  1  0.381703  0.381703  0.854891  1
  Cd  Cd20  1  0.381703  0.854891  0.381703  1
  Cd  Cd21  1  0.854891  0.381703  0.381703  1
  Cd  Cd22  1  0.381703  0.381703  0.381703  1
  Cd  Cd23  1  0.000000  0.000000  0.500000  1
  Cd  Cd24  1  0.500000  0.000000  0.500000  1
  Cd  Cd25  1  0.000000  0.500000  0.500000  1
  Cd  Cd26  1  0.500000  0.500000  0.000000  1
  Cd  Cd27  1  0.000000  0.500000  0.000000  1
  Cd  Cd28  1  0.500000  0.000000  0.000000  1
  As  As29  1  0.000000  0.000000  0.000000  1
