# generated using pymatgen
data_SmHoEr4(SbO7)2
_symmetry_space_group_name_H-M   'P 1'
_cell_length_a   6.44015355
_cell_length_b   6.44015494
_cell_length_c   7.52340400
_cell_angle_alpha   90.03128587
_cell_angle_beta   89.96871257
_cell_angle_gamma   109.33280665
_symmetry_Int_Tables_number   1
_chemical_formula_structural   SmHoEr4(SbO7)2
_chemical_formula_sum   'Sm1 Ho1 Er4 Sb2 O14'
_cell_volume   294.44221236
_cell_formula_units_Z   1
loop_
 _symmetry_equiv_pos_site_id
 _symmetry_equiv_pos_as_xyz
  1  'x, y, z'
loop_
 _atom_site_type_symbol
 _atom_site_label
 _atom_site_symmetry_multiplicity
 _atom_site_fract_x
 _atom_site_fract_y
 _atom_site_fract_z
 _atom_site_occupancy
  Sm  Sm0  1  0.500000  0.500000  0.000000  1
  Ho  Ho1  1  0.500000  0.500000  0.500000  1
  Er  Er2  1  0.531604  0.000718  0.748103  1
  Er  Er3  1  0.000718  0.531604  0.251897  1
  Er  Er4  1  0.468396  0.999282  0.251897  1
  Er  Er5  1  0.999282  0.468396  0.748103  1
  Sb  Sb6  1  0.000000  0.000000  0.500000  1
  Sb  Sb7  1  0.000000  0.000000  0.000000  1
  O  O8  1  0.676900  0.927577  0.470182  1
  O  O9  1  0.927577  0.676900  0.529818  1
  O  O10  1  0.676468  0.929462  0.030011  1
  O  O11  1  0.929462  0.676468  0.969989  1
  O  O12  1  0.323100  0.072423  0.529818  1
  O  O13  1  0.072423  0.323100  0.470182  1
  O  O14  1  0.323532  0.070538  0.969989  1
  O  O15  1  0.070538  0.323532  0.030011  1
  O  O16  1  0.929152  0.070848  0.750192  1
  O  O17  1  0.070848  0.929152  0.249808  1
  O  O18  1  0.366812  0.633188  0.743715  1
  O  O19  1  0.633188  0.366812  0.256285  1
  O  O20  1  0.639596  0.360404  0.744356  1
  O  O21  1  0.360404  0.639596  0.255644  1
