# generated using pymatgen
data_Dy4Ho5Er11Bi12
_symmetry_space_group_name_H-M   'P 1'
_cell_length_a   8.20256965
_cell_length_b   9.44699107
_cell_length_c   11.95828600
_cell_angle_alpha   89.99964823
_cell_angle_beta   89.97710284
_cell_angle_gamma   89.99323741
_symmetry_Int_Tables_number   1
_chemical_formula_structural   Dy4Ho5Er11Bi12
_chemical_formula_sum   'Dy4 Ho5 Er11 Bi12'
_cell_volume   926.64274525
_cell_formula_units_Z   1
loop_
 _symmetry_equiv_pos_site_id
 _symmetry_equiv_pos_as_xyz
  1  'x, y, z'
loop_
 _atom_site_type_symbol
 _atom_site_label
 _atom_site_symmetry_multiplicity
 _atom_site_fract_x
 _atom_site_fract_y
 _atom_site_fract_z
 _atom_site_occupancy
  Dy  Dy0  1  0.312928  0.249984  0.218252  1
  Dy  Dy1  1  0.812807  0.249989  0.281745  1
  Dy  Dy2  1  0.687172  0.750134  0.781689  1
  Dy  Dy3  1  0.187179  0.750040  0.718200  1
  Ho  Ho4  1  0.352384  0.750159  0.216543  1
  Ho  Ho5  1  0.852728  0.750181  0.283554  1
  Ho  Ho6  1  0.647524  0.250129  0.783532  1
  Ho  Ho7  1  0.147434  0.250046  0.716560  1
  Ho  Ho8  1  0.692184  0.564585  0.059069  1
  Er  Er9  1  0.192512  0.934751  0.440998  1
  Er  Er10  1  0.307351  0.065285  0.940889  1
  Er  Er11  1  0.807524  0.434703  0.559067  1
  Er  Er12  1  0.307559  0.434655  0.940954  1
  Er  Er13  1  0.807487  0.065279  0.559039  1
  Er  Er14  1  0.692466  0.934844  0.059037  1
  Er  Er15  1  0.192500  0.565257  0.440992  1
  Er  Er16  1  0.476204  0.250038  0.488796  1
  Er  Er17  1  0.976307  0.249979  0.011198  1
  Er  Er18  1  0.523883  0.750026  0.511311  1
  Er  Er19  1  0.024087  0.750125  0.988668  1
  Bi  Bi20  1  0.405178  0.750215  0.957693  1
  Bi  Bi21  1  0.905334  0.749987  0.542225  1
  Bi  Bi22  1  0.594472  0.249229  0.042132  1
  Bi  Bi23  1  0.094694  0.250008  0.457788  1
  Bi  Bi24  1  0.565391  0.995254  0.326282  1
  Bi  Bi25  1  0.065575  0.504829  0.173806  1
  Bi  Bi26  1  0.434539  0.495221  0.673735  1
  Bi  Bi27  1  0.934631  0.004856  0.826214  1
  Bi  Bi28  1  0.434604  0.004849  0.673762  1
  Bi  Bi29  1  0.934603  0.495253  0.826165  1
  Bi  Bi30  1  0.565339  0.504836  0.326328  1
  Bi  Bi31  1  0.065424  0.995273  0.173773  1
