# generated using pymatgen
data_ScGaPdRu
_symmetry_space_group_name_H-M   'P 1'
_cell_length_a   4.44888438
_cell_length_b   4.44888458
_cell_length_c   4.44888500
_cell_angle_alpha   60.00000432
_cell_angle_beta   60.00000282
_cell_angle_gamma   59.99999480
_symmetry_Int_Tables_number   1
_chemical_formula_structural   ScGaPdRu
_chemical_formula_sum   'Sc1 Ga1 Pd1 Ru1'
_cell_volume   62.26420485
_cell_formula_units_Z   1
loop_
 _symmetry_equiv_pos_site_id
 _symmetry_equiv_pos_as_xyz
  1  'x, y, z'
loop_
 _atom_site_type_symbol
 _atom_site_label
 _atom_site_symmetry_multiplicity
 _atom_site_fract_x
 _atom_site_fract_y
 _atom_site_fract_z
 _atom_site_occupancy
  Sc  Sc0  1  0.750000  0.750000  0.750000  1
  Ga  Ga1  1  0.250000  0.250000  0.250000  1
  Pd  Pd2  1  0.500000  0.500000  0.500000  1
  Ru  Ru3  1  0.000000  0.000000  0.000000  1
