# generated using pymatgen
data_Tb4Re3TcRu4
_symmetry_space_group_name_H-M   'P 1'
_cell_length_a   5.21860901
_cell_length_b   5.21380971
_cell_length_c   9.14494800
_cell_angle_alpha   90.00000000
_cell_angle_beta   90.00000000
_cell_angle_gamma   116.81000089
_symmetry_Int_Tables_number   1
_chemical_formula_structural   Tb4Re3TcRu4
_chemical_formula_sum   'Tb4 Re3 Tc1 Ru4'
_cell_volume   222.07662993
_cell_formula_units_Z   1
loop_
 _symmetry_equiv_pos_site_id
 _symmetry_equiv_pos_as_xyz
  1  'x, y, z'
loop_
 _atom_site_type_symbol
 _atom_site_label
 _atom_site_symmetry_multiplicity
 _atom_site_fract_x
 _atom_site_fract_y
 _atom_site_fract_z
 _atom_site_occupancy
  Tb  Tb0  1  0.332003  0.667214  0.437352  1
  Tb  Tb1  1  0.671001  0.329279  0.566197  1
  Tb  Tb2  1  0.671001  0.329279  0.933803  1
  Tb  Tb3  1  0.332003  0.667214  0.062648  1
  Re  Re4  1  0.831729  0.172380  0.250000  1
  Re  Re5  1  0.832460  0.661982  0.250000  1
  Re  Re6  1  0.161187  0.839570  0.750000  1
  Tc  Tc7  1  0.344279  0.172333  0.250000  1
  Ru  Ru8  1  0.003587  0.988952  0.502826  1
  Ru  Ru9  1  0.003587  0.988952  0.997174  1
  Ru  Ru10  1  0.169162  0.352089  0.750000  1
  Ru  Ru11  1  0.648002  0.830756  0.750000  1
