# generated using pymatgen
data_Nd4Si3Tc16Ge5
_symmetry_space_group_name_H-M   'P 1'
_cell_length_a   4.19757100
_cell_length_b   7.39081955
_cell_length_c   15.53642422
_cell_angle_alpha   89.79545569
_cell_angle_beta   90.00000000
_cell_angle_gamma   90.00000000
_symmetry_Int_Tables_number   1
_chemical_formula_structural   Nd4Si3Tc16Ge5
_chemical_formula_sum   'Nd4 Si3 Tc16 Ge5'
_cell_volume   481.99102724
_cell_formula_units_Z   1
loop_
 _symmetry_equiv_pos_site_id
 _symmetry_equiv_pos_as_xyz
  1  'x, y, z'
loop_
 _atom_site_type_symbol
 _atom_site_label
 _atom_site_symmetry_multiplicity
 _atom_site_fract_x
 _atom_site_fract_y
 _atom_site_fract_z
 _atom_site_occupancy
  Nd  Nd0  1  0.000000  0.581734  0.118282  1
  Nd  Nd1  1  0.000000  0.417262  0.880776  1
  Nd  Nd2  1  0.500000  0.081805  0.381646  1
  Nd  Nd3  1  0.500000  0.917950  0.619099  1
  Si  Si4  1  0.000000  0.705607  0.727399  1
  Si  Si5  1  0.500000  0.794977  0.226273  1
  Si  Si6  1  0.500000  0.205081  0.772745  1
  Tc  Tc7  1  0.000000  0.130611  0.053786  1
  Tc  Tc8  1  0.000000  0.869020  0.945072  1
  Tc  Tc9  1  0.500000  0.632542  0.446521  1
  Tc  Tc10  1  0.500000  0.368917  0.555339  1
  Tc  Tc11  1  0.000000  0.727872  0.318450  1
  Tc  Tc12  1  0.000000  0.272221  0.681920  1
  Tc  Tc13  1  0.500000  0.224771  0.180056  1
  Tc  Tc14  1  0.500000  0.772471  0.817876  1
  Tc  Tc15  1  0.000000  0.441391  0.420424  1
  Tc  Tc16  1  0.000000  0.562790  0.583191  1
  Tc  Tc17  1  0.500000  0.935886  0.081353  1
  Tc  Tc18  1  0.500000  0.062414  0.917516  1
  Tc  Tc19  1  0.000000  0.985850  0.205943  1
  Tc  Tc20  1  0.000000  0.009036  0.791992  1
  Tc  Tc21  1  0.500000  0.495844  0.293193  1
  Tc  Tc22  1  0.500000  0.509976  0.708160  1
  Ge  Ge23  1  0.000000  0.827503  0.475430  1
  Ge  Ge24  1  0.000000  0.173654  0.525522  1
  Ge  Ge25  1  0.500000  0.326221  0.024348  1
  Ge  Ge26  1  0.500000  0.673071  0.974439  1
  Ge  Ge27  1  0.000000  0.293522  0.273249  1
