# generated using pymatgen
data_Ce2SbPt2
_symmetry_space_group_name_H-M   'P 1'
_cell_length_a   7.72978336
_cell_length_b   7.72978336
_cell_length_c   3.89022200
_cell_angle_alpha   90.00000000
_cell_angle_beta   90.00000000
_cell_angle_gamma   89.93207332
_symmetry_Int_Tables_number   1
_chemical_formula_structural   Ce2SbPt2
_chemical_formula_sum   'Ce4 Sb2 Pt4'
_cell_volume   232.43885352
_cell_formula_units_Z   2
loop_
 _symmetry_equiv_pos_site_id
 _symmetry_equiv_pos_as_xyz
  1  'x, y, z'
loop_
 _atom_site_type_symbol
 _atom_site_label
 _atom_site_symmetry_multiplicity
 _atom_site_fract_x
 _atom_site_fract_y
 _atom_site_fract_z
 _atom_site_occupancy
  Ce  Ce0  1  0.324517  0.175482  0.500000  1
  Ce  Ce1  1  0.824501  0.324501  0.500000  1
  Ce  Ce2  1  0.175498  0.675498  0.500000  1
  Ce  Ce3  1  0.675482  0.824517  0.500000  1
  Sb  Sb4  1  0.000000  0.000000  0.000000  1
  Sb  Sb5  1  0.500000  0.500000  0.000000  1
  Pt  Pt6  1  0.628060  0.128059  0.000000  1
  Pt  Pt7  1  0.128074  0.371926  0.000000  1
  Pt  Pt8  1  0.871926  0.628075  0.000000  1
  Pt  Pt9  1  0.371941  0.871941  0.000000  1
