# generated using pymatgen
data_Ac2SiO5
_symmetry_space_group_name_H-M   'P 1'
_cell_length_a   7.95460100
_cell_length_b   7.27681292
_cell_length_c   9.55370407
_cell_angle_alpha   70.59433828
_cell_angle_beta   90.00000000
_cell_angle_gamma   90.00000000
_symmetry_Int_Tables_number   1
_chemical_formula_structural   Ac2SiO5
_chemical_formula_sum   'Ac8 Si4 O20'
_cell_volume   521.59149877
_cell_formula_units_Z   4
loop_
 _symmetry_equiv_pos_site_id
 _symmetry_equiv_pos_as_xyz
  1  'x, y, z'
loop_
 _atom_site_type_symbol
 _atom_site_label
 _atom_site_symmetry_multiplicity
 _atom_site_fract_x
 _atom_site_fract_y
 _atom_site_fract_z
 _atom_site_occupancy
  Ac  Ac0  1  0.126277  0.732893  0.494858  1
  Ac  Ac1  1  0.626277  0.767107  0.505142  1
  Ac  Ac2  1  0.873723  0.267107  0.505142  1
  Ac  Ac3  1  0.373723  0.232893  0.494858  1
  Ac  Ac4  1  0.660208  0.901795  0.890653  1
  Ac  Ac5  1  0.160208  0.598205  0.109347  1
  Ac  Ac6  1  0.339792  0.098205  0.109347  1
  Ac  Ac7  1  0.839792  0.401795  0.890653  1
  Si  Si8  1  0.070761  0.958101  0.799997  1
  Si  Si9  1  0.570761  0.541899  0.200003  1
  Si  Si10  1  0.929239  0.041899  0.200003  1
  Si  Si11  1  0.429239  0.458101  0.799997  1
  O  O12  1  0.871131  0.544567  0.610862  1
  O  O13  1  0.371131  0.955433  0.389138  1
  O  O14  1  0.128869  0.455433  0.389138  1
  O  O15  1  0.628869  0.044567  0.610862  1
  O  O16  1  0.229107  0.949276  0.909892  1
  O  O17  1  0.729107  0.550724  0.090108  1
  O  O18  1  0.770893  0.050724  0.090108  1
  O  O19  1  0.270893  0.449276  0.909892  1
  O  O20  1  0.128806  0.003219  0.625135  1
  O  O21  1  0.628806  0.496781  0.374865  1
  O  O22  1  0.871194  0.996781  0.374865  1
  O  O23  1  0.371194  0.503219  0.625135  1
  O  O24  1  0.573230  0.628482  0.789340  1
  O  O25  1  0.073230  0.871518  0.210660  1
  O  O26  1  0.426770  0.371518  0.210660  1
  O  O27  1  0.926770  0.128482  0.789340  1
  O  O28  1  0.536260  0.250323  0.866583  1
  O  O29  1  0.036260  0.249677  0.133417  1
  O  O30  1  0.463740  0.749677  0.133417  1
  O  O31  1  0.963740  0.750323  0.866583  1
