# generated using pymatgen
data_Ho3Sc3Sn6(Pt2Rh)2
_symmetry_space_group_name_H-M   'P 1'
_cell_length_a   7.56847300
_cell_length_b   7.56847285
_cell_length_c   7.41501500
_cell_angle_alpha   90.00000000
_cell_angle_beta   90.00000000
_cell_angle_gamma   119.99999629
_symmetry_Int_Tables_number   1
_chemical_formula_structural   Ho3Sc3Sn6(Pt2Rh)2
_chemical_formula_sum   'Ho3 Sc3 Sn6 Pt4 Rh2'
_cell_volume   367.84021272
_cell_formula_units_Z   1
loop_
 _symmetry_equiv_pos_site_id
 _symmetry_equiv_pos_as_xyz
  1  'x, y, z'
loop_
 _atom_site_type_symbol
 _atom_site_label
 _atom_site_symmetry_multiplicity
 _atom_site_fract_x
 _atom_site_fract_y
 _atom_site_fract_z
 _atom_site_occupancy
  Ho  Ho0  1  0.404267  0.003350  0.250000  1
  Ho  Ho1  1  0.599084  0.595733  0.250000  1
  Ho  Ho2  1  0.996650  0.400916  0.250000  1
  Sc  Sc3  1  0.392235  0.996027  0.750000  1
  Sc  Sc4  1  0.603792  0.607765  0.750000  1
  Sc  Sc5  1  0.003973  0.396208  0.750000  1
  Sn  Sn6  1  0.265400  0.264783  0.992429  1
  Sn  Sn7  1  0.999383  0.734600  0.992429  1
  Sn  Sn8  1  0.999383  0.734600  0.507571  1
  Sn  Sn9  1  0.735217  0.000617  0.507571  1
  Sn  Sn10  1  0.265400  0.264783  0.507571  1
  Sn  Sn11  1  0.735217  0.000617  0.992429  1
  Pt  Pt12  1  0.666667  0.333333  0.971563  1
  Pt  Pt13  1  0.333333  0.666667  0.515167  1
  Pt  Pt14  1  0.333333  0.666667  0.984833  1
  Pt  Pt15  1  0.666667  0.333333  0.528437  1
  Rh  Rh16  1  0.000000  0.000000  0.750000  1
  Rh  Rh17  1  0.000000  0.000000  0.250000  1
