# generated using pymatgen
data_ThPa3(CoGe)4
_symmetry_space_group_name_H-M   'P 1'
_cell_length_a   4.24580900
_cell_length_b   6.97969375
_cell_length_c   7.47294577
_cell_angle_alpha   93.17982088
_cell_angle_beta   90.00000000
_cell_angle_gamma   90.00000000
_symmetry_Int_Tables_number   1
_chemical_formula_structural   ThPa3(CoGe)4
_chemical_formula_sum   'Th1 Pa3 Co4 Ge4'
_cell_volume   221.11564900
_cell_formula_units_Z   1
loop_
 _symmetry_equiv_pos_site_id
 _symmetry_equiv_pos_as_xyz
  1  'x, y, z'
loop_
 _atom_site_type_symbol
 _atom_site_label
 _atom_site_symmetry_multiplicity
 _atom_site_fract_x
 _atom_site_fract_y
 _atom_site_fract_z
 _atom_site_occupancy
  Th  Th0  1  0.250000  0.772359  0.479744  1
  Pa  Pa1  1  0.250000  0.698131  0.992609  1
  Pa  Pa2  1  0.750000  0.301220  0.008466  1
  Pa  Pa3  1  0.750000  0.238424  0.523199  1
  Co  Co4  1  0.250000  0.043132  0.117857  1
  Co  Co5  1  0.750000  0.955795  0.873488  1
  Co  Co6  1  0.750000  0.550831  0.242327  1
  Co  Co7  1  0.250000  0.441525  0.755414  1
  Ge  Ge8  1  0.250000  0.377506  0.290658  1
  Ge  Ge9  1  0.750000  0.615256  0.717623  1
  Ge  Ge10  1  0.750000  0.915044  0.223513  1
  Ge  Ge11  1  0.250000  0.090778  0.775101  1
