# generated using pymatgen
data_Y3Er16Sc(Cd3Ni)2
_symmetry_space_group_name_H-M   'P 1'
_cell_length_a   9.51741500
_cell_length_b   9.51743892
_cell_length_c   9.63081900
_cell_angle_alpha   90.00012065
_cell_angle_beta   89.99996409
_cell_angle_gamma   120.00010701
_symmetry_Int_Tables_number   1
_chemical_formula_structural   Y3Er16Sc(Cd3Ni)2
_chemical_formula_sum   'Y3 Er16 Sc1 Cd6 Ni2'
_cell_volume   755.49655726
_cell_formula_units_Z   1
loop_
 _symmetry_equiv_pos_site_id
 _symmetry_equiv_pos_as_xyz
  1  'x, y, z'
loop_
 _atom_site_type_symbol
 _atom_site_label
 _atom_site_symmetry_multiplicity
 _atom_site_fract_x
 _atom_site_fract_y
 _atom_site_fract_z
 _atom_site_occupancy
  Y  Y0  1  0.457117  0.542883  0.749976  1
  Y  Y1  1  0.457117  0.914239  0.749974  1
  Y  Y2  1  0.085757  0.542878  0.749972  1
  Er  Er3  1  0.999999  0.999998  0.000093  1
  Er  Er4  1  0.543475  0.456524  0.250040  1
  Er  Er5  1  0.543478  0.086954  0.250038  1
  Er  Er6  1  0.913049  0.456522  0.250039  1
  Er  Er7  1  0.209564  0.790436  0.436476  1
  Er  Er8  1  0.209563  0.419127  0.436471  1
  Er  Er9  1  0.580877  0.790440  0.436477  1
  Er  Er10  1  0.790183  0.209815  0.561573  1
  Er  Er11  1  0.790184  0.580365  0.561573  1
  Er  Er12  1  0.419636  0.209817  0.561571  1
  Er  Er13  1  0.789212  0.210789  0.939248  1
  Er  Er14  1  0.789214  0.578426  0.939247  1
  Er  Er15  1  0.421578  0.210787  0.939246  1
  Er  Er16  1  0.210629  0.789373  0.062678  1
  Er  Er17  1  0.210629  0.421261  0.062681  1
  Er  Er18  1  0.578742  0.789370  0.062676  1
  Sc  Sc19  1  0.000000  0.000000  0.500199  1
  Cd  Cd20  1  0.885835  0.114168  0.253156  1
  Cd  Cd21  1  0.885837  0.771670  0.253155  1
  Cd  Cd22  1  0.228328  0.114163  0.253159  1
  Cd  Cd23  1  0.112989  0.887005  0.746751  1
  Cd  Cd24  1  0.112993  0.225985  0.746753  1
  Cd  Cd25  1  0.774015  0.887006  0.746750  1
  Ni  Ni26  1  0.333334  0.666668  0.250678  1
  Ni  Ni27  1  0.666664  0.333330  0.749350  1
