# generated using pymatgen
data_Tb3PrNp2O12
_symmetry_space_group_name_H-M   'P 1'
_cell_length_a   5.62271900
_cell_length_b   7.94359747
_cell_length_c   11.96579011
_cell_angle_alpha   74.03733696
_cell_angle_beta   90.00000000
_cell_angle_gamma   90.00000000
_symmetry_Int_Tables_number   1
_chemical_formula_structural   Tb3PrNp2O12
_chemical_formula_sum   'Tb6 Pr2 Np4 O24'
_cell_volume   513.83972692
_cell_formula_units_Z   2
loop_
 _symmetry_equiv_pos_site_id
 _symmetry_equiv_pos_as_xyz
  1  'x, y, z'
loop_
 _atom_site_type_symbol
 _atom_site_label
 _atom_site_symmetry_multiplicity
 _atom_site_fract_x
 _atom_site_fract_y
 _atom_site_fract_z
 _atom_site_occupancy
  Tb  Tb0  1  0.744770  0.000000  0.750000  1
  Tb  Tb1  1  0.255230  0.000000  0.250000  1
  Tb  Tb2  1  0.187306  0.795929  0.577616  1
  Tb  Tb3  1  0.812694  0.795929  0.077616  1
  Tb  Tb4  1  0.187306  0.204071  0.922384  1
  Tb  Tb5  1  0.812694  0.204071  0.422384  1
  Pr  Pr6  1  0.692608  0.500000  0.750000  1
  Pr  Pr7  1  0.307392  0.500000  0.250000  1
  Np  Np8  1  0.253668  0.727322  0.884800  1
  Np  Np9  1  0.746332  0.727322  0.384800  1
  Np  Np10  1  0.253668  0.272678  0.615200  1
  Np  Np11  1  0.746332  0.272678  0.115200  1
  O  O12  1  0.042021  0.947001  0.896147  1
  O  O13  1  0.551467  0.847947  0.931242  1
  O  O14  1  0.957979  0.947001  0.396147  1
  O  O15  1  0.448378  0.802333  0.726027  1
  O  O16  1  0.448533  0.847947  0.431242  1
  O  O17  1  0.968945  0.719770  0.768015  1
  O  O18  1  0.551622  0.802333  0.226027  1
  O  O19  1  0.873280  0.635778  0.550718  1
  O  O20  1  0.371715  0.485493  0.885531  1
  O  O21  1  0.031055  0.719770  0.268015  1
  O  O22  1  0.371715  0.514507  0.614469  1
  O  O23  1  0.873280  0.364222  0.949282  1
  O  O24  1  0.126720  0.635778  0.050718  1
  O  O25  1  0.628285  0.485493  0.385531  1
  O  O26  1  0.968945  0.280230  0.731985  1
  O  O27  1  0.628285  0.514507  0.114469  1
  O  O28  1  0.126720  0.364222  0.449282  1
  O  O29  1  0.448378  0.197667  0.773973  1
  O  O30  1  0.031055  0.280230  0.231985  1
  O  O31  1  0.551467  0.152053  0.568758  1
  O  O32  1  0.551622  0.197667  0.273973  1
  O  O33  1  0.042021  0.052999  0.603853  1
  O  O34  1  0.448533  0.152053  0.068758  1
  O  O35  1  0.957979  0.052999  0.103853  1
