# generated using pymatgen
data_TbDy2Er4Co6Sn23
_symmetry_space_group_name_H-M   'P 1'
_cell_length_a   9.69916003
_cell_length_b   9.70019277
_cell_length_c   9.96457202
_cell_angle_alpha   89.99999925
_cell_angle_beta   90.00611884
_cell_angle_gamma   120.00352491
_symmetry_Int_Tables_number   1
_chemical_formula_structural   TbDy2Er4Co6Sn23
_chemical_formula_sum   'Tb1 Dy2 Er4 Co6 Sn23'
_cell_volume   811.87345450
_cell_formula_units_Z   1
loop_
 _symmetry_equiv_pos_site_id
 _symmetry_equiv_pos_as_xyz
  1  'x, y, z'
loop_
 _atom_site_type_symbol
 _atom_site_label
 _atom_site_symmetry_multiplicity
 _atom_site_fract_x
 _atom_site_fract_y
 _atom_site_fract_z
 _atom_site_occupancy
  Tb  Tb0  1  0.000000  0.000000  0.000000  1
  Dy  Dy1  1  0.042371  0.521186  0.305740  1
  Dy  Dy2  1  0.957629  0.478814  0.694260  1
  Er  Er3  1  0.478855  0.521143  0.305769  1
  Er  Er4  1  0.521145  0.478857  0.694231  1
  Er  Er5  1  0.478855  0.957712  0.305769  1
  Er  Er6  1  0.521145  0.042288  0.694231  1
  Co  Co7  1  0.832289  0.167601  0.197279  1
  Co  Co8  1  0.167711  0.832399  0.802721  1
  Co  Co9  1  0.832289  0.664689  0.197279  1
  Co  Co10  1  0.167711  0.335311  0.802721  1
  Co  Co11  1  0.335342  0.167672  0.197310  1
  Co  Co12  1  0.664658  0.832328  0.802690  1
  Sn  Sn13  1  0.345665  0.000021  0.000009  1
  Sn  Sn14  1  0.654335  0.999979  0.999991  1
  Sn  Sn15  1  0.000000  0.345636  0.000000  1
  Sn  Sn16  1  0.000000  0.654364  0.000000  1
  Sn  Sn17  1  0.654335  0.654356  0.999991  1
  Sn  Sn18  1  0.345665  0.345644  0.000009  1
  Sn  Sn19  1  0.333385  0.666693  0.817803  1
  Sn  Sn20  1  0.666615  0.333307  0.182197  1
  Sn  Sn21  1  0.000000  0.000000  0.500000  1
  Sn  Sn22  1  0.780866  0.218878  0.451947  1
  Sn  Sn23  1  0.219134  0.781122  0.548053  1
  Sn  Sn24  1  0.780866  0.561988  0.451947  1
  Sn  Sn25  1  0.219134  0.438012  0.548053  1
  Sn  Sn26  1  0.438016  0.219008  0.451927  1
  Sn  Sn27  1  0.561984  0.780992  0.548073  1
  Sn  Sn28  1  0.333455  0.666728  0.116961  1
  Sn  Sn29  1  0.666545  0.333272  0.883039  1
  Sn  Sn30  1  0.118026  0.882125  0.275006  1
  Sn  Sn31  1  0.881974  0.117875  0.724994  1
  Sn  Sn32  1  0.118026  0.235902  0.275006  1
  Sn  Sn33  1  0.881974  0.764098  0.724994  1
  Sn  Sn34  1  0.764015  0.882008  0.275017  1
  Sn  Sn35  1  0.235985  0.117992  0.724983  1
