# generated using pymatgen
data_Li4Dy3Ho5Sc8Si15P
_symmetry_space_group_name_H-M   'P 1'
_cell_length_a   6.87055914
_cell_length_b   7.37626146
_cell_length_c   13.99734921
_cell_angle_alpha   90.00678176
_cell_angle_beta   90.01861123
_cell_angle_gamma   89.83120216
_symmetry_Int_Tables_number   1
_chemical_formula_structural   Li4Dy3Ho5Sc8Si15P
_chemical_formula_sum   'Li4 Dy3 Ho5 Sc8 Si15 P1'
_cell_volume   709.36910784
_cell_formula_units_Z   1
loop_
 _symmetry_equiv_pos_site_id
 _symmetry_equiv_pos_as_xyz
  1  'x, y, z'
loop_
 _atom_site_type_symbol
 _atom_site_label
 _atom_site_symmetry_multiplicity
 _atom_site_fract_x
 _atom_site_fract_y
 _atom_site_fract_z
 _atom_site_occupancy
  Li  Li0  1  0.160283  0.511022  0.749903  1
  Li  Li1  1  0.840606  0.493729  0.250054  1
  Li  Li2  1  0.340526  0.006825  0.250056  1
  Li  Li3  1  0.660605  0.994477  0.749910  1
  Dy  Dy4  1  0.012604  0.182018  0.098603  1
  Dy  Dy5  1  0.986508  0.820127  0.899673  1
  Dy  Dy6  1  0.487294  0.680918  0.901491  1
  Ho  Ho7  1  0.986499  0.819857  0.600290  1
  Ho  Ho8  1  0.512783  0.319374  0.097965  1
  Ho  Ho9  1  0.012677  0.182117  0.401404  1
  Ho  Ho10  1  0.512816  0.319265  0.402143  1
  Ho  Ho11  1  0.487335  0.681060  0.598478  1
  Sc  Sc12  1  0.329337  0.178641  0.628293  1
  Sc  Sc13  1  0.668596  0.820172  0.373985  1
  Sc  Sc14  1  0.169099  0.679528  0.374162  1
  Sc  Sc15  1  0.668615  0.820169  0.126066  1
  Sc  Sc16  1  0.833372  0.318330  0.628194  1
  Sc  Sc17  1  0.329334  0.178639  0.871705  1
  Sc  Sc18  1  0.833342  0.318310  0.871786  1
  Sc  Sc19  1  0.169073  0.679557  0.125864  1
  Si  Si20  1  0.968617  0.897405  0.250158  1
  Si  Si21  1  0.468456  0.603068  0.250064  1
  Si  Si22  1  0.531211  0.396421  0.749819  1
  Si  Si23  1  0.284298  0.877157  0.749724  1
  Si  Si24  1  0.716143  0.119690  0.250181  1
  Si  Si25  1  0.217181  0.380260  0.250163  1
  Si  Si26  1  0.783275  0.617585  0.749698  1
  Si  Si27  1  0.159101  0.462934  0.535936  1
  Si  Si28  1  0.840217  0.536676  0.466449  1
  Si  Si29  1  0.339178  0.964103  0.466157  1
  Si  Si30  1  0.840205  0.536659  0.033593  1
  Si  Si31  1  0.659264  0.037167  0.535241  1
  Si  Si32  1  0.158883  0.462690  0.964159  1
  Si  Si33  1  0.658882  0.037640  0.964907  1
  Si  Si34  1  0.339536  0.964210  0.033874  1
  P  P35  1  0.034245  0.102198  0.749854  1
