# generated using pymatgen
data_DyTm19(OsRh2)4
_symmetry_space_group_name_H-M   'P 1'
_cell_length_a   10.71884069
_cell_length_b   10.71735800
_cell_length_c   6.33974900
_cell_angle_alpha   89.99924620
_cell_angle_beta   90.02053143
_cell_angle_gamma   89.99900590
_symmetry_Int_Tables_number   1
_chemical_formula_structural   DyTm19(OsRh2)4
_chemical_formula_sum   'Dy1 Tm19 Os4 Rh8'
_cell_volume   728.29543897
_cell_formula_units_Z   1
loop_
 _symmetry_equiv_pos_site_id
 _symmetry_equiv_pos_as_xyz
  1  'x, y, z'
loop_
 _atom_site_type_symbol
 _atom_site_label
 _atom_site_symmetry_multiplicity
 _atom_site_fract_x
 _atom_site_fract_y
 _atom_site_fract_z
 _atom_site_occupancy
  Dy  Dy0  1  0.293209  0.086512  0.374628  1
  Tm  Tm1  1  0.294345  0.913495  0.875635  1
  Tm  Tm2  1  0.706015  0.086115  0.875617  1
  Tm  Tm3  1  0.705922  0.913808  0.375524  1
  Tm  Tm4  1  0.586331  0.794020  0.875536  1
  Tm  Tm5  1  0.586771  0.205899  0.375603  1
  Tm  Tm6  1  0.414261  0.793749  0.375504  1
  Tm  Tm7  1  0.414353  0.205992  0.875561  1
  Tm  Tm8  1  0.205796  0.414065  0.624585  1
  Tm  Tm9  1  0.205764  0.586058  0.124394  1
  Tm  Tm10  1  0.794199  0.413999  0.124356  1
  Tm  Tm11  1  0.794260  0.586117  0.624223  1
  Tm  Tm12  1  0.913867  0.705725  0.124362  1
  Tm  Tm13  1  0.913898  0.294207  0.624227  1
  Tm  Tm14  1  0.086008  0.705786  0.624477  1
  Tm  Tm15  1  0.085546  0.294664  0.123977  1
  Tm  Tm16  1  0.999393  0.999721  0.500463  1
  Tm  Tm17  1  0.999851  0.999927  0.000184  1
  Tm  Tm18  1  0.500102  0.500168  0.999980  1
  Tm  Tm19  1  0.500162  0.500006  0.500184  1
  Os  Os20  1  0.500582  0.999690  0.122523  1
  Os  Os21  1  0.500736  0.999712  0.624057  1
  Os  Os22  1  0.999980  0.500025  0.876475  1
  Os  Os23  1  0.999974  0.500071  0.376602  1
  Rh  Rh24  1  0.848034  0.152222  0.250123  1
  Rh  Rh25  1  0.848042  0.847834  0.749921  1
  Rh  Rh26  1  0.151523  0.152327  0.752232  1
  Rh  Rh27  1  0.151345  0.847052  0.249752  1
  Rh  Rh28  1  0.651915  0.347900  0.749984  1
  Rh  Rh29  1  0.651928  0.652136  0.250120  1
  Rh  Rh30  1  0.347956  0.349130  0.249302  1
  Rh  Rh31  1  0.347932  0.651868  0.749887  1
