# generated using pymatgen
data_BaSrH9W
_symmetry_space_group_name_H-M   'P 1'
_cell_length_a   9.30554100
_cell_length_b   9.30553910
_cell_length_c   5.31945500
_cell_angle_alpha   90.00000000
_cell_angle_beta   90.00000000
_cell_angle_gamma   120.00000319
_symmetry_Int_Tables_number   1
_chemical_formula_structural   BaSrH9W
_chemical_formula_sum   'Ba3 Sr3 H27 W3'
_cell_volume   398.91551022
_cell_formula_units_Z   3
loop_
 _symmetry_equiv_pos_site_id
 _symmetry_equiv_pos_as_xyz
  1  'x, y, z'
loop_
 _atom_site_type_symbol
 _atom_site_label
 _atom_site_symmetry_multiplicity
 _atom_site_fract_x
 _atom_site_fract_y
 _atom_site_fract_z
 _atom_site_occupancy
  Ba  Ba0  1  0.000000  0.609579  0.000000  1
  Ba  Ba1  1  0.390421  0.390421  0.000000  1
  Ba  Ba2  1  0.609579  0.000000  0.000000  1
  Sr  Sr3  1  0.000000  0.264544  0.500000  1
  Sr  Sr4  1  0.735456  0.735456  0.500000  1
  Sr  Sr5  1  0.264544  0.000000  0.500000  1
  H  H6  1  0.799365  0.328545  0.742589  1
  H  H7  1  0.671455  0.470820  0.742589  1
  H  H8  1  0.529180  0.200635  0.742589  1
  H  H9  1  0.200635  0.529180  0.257411  1
  H  H10  1  0.529180  0.200635  0.257411  1
  H  H11  1  0.799365  0.328545  0.257411  1
  H  H12  1  0.671455  0.470820  0.257411  1
  H  H13  1  0.328545  0.799365  0.742589  1
  H  H14  1  0.470820  0.671455  0.742589  1
  H  H15  1  0.194805  0.000000  0.000000  1
  H  H16  1  0.805195  0.805195  0.000000  1
  H  H17  1  0.000000  0.194805  0.000000  1
  H  H18  1  0.863473  0.000000  0.247226  1
  H  H19  1  0.136527  0.136527  0.752774  1
  H  H20  1  0.000000  0.863473  0.752774  1
  H  H21  1  0.000000  0.863473  0.247226  1
  H  H22  1  0.136527  0.136527  0.247226  1
  H  H23  1  0.863473  0.000000  0.752774  1
  H  H24  1  0.143581  0.670062  0.500000  1
  H  H25  1  0.526481  0.856419  0.500000  1
  H  H26  1  0.329938  0.473519  0.500000  1
  H  H27  1  0.473519  0.329938  0.500000  1
  H  H28  1  0.856419  0.526481  0.500000  1
  H  H29  1  0.670062  0.143581  0.500000  1
  H  H30  1  0.200635  0.529180  0.742589  1
  H  H31  1  0.328545  0.799365  0.257411  1
  H  H32  1  0.470820  0.671455  0.257411  1
  W  W33  1  0.666667  0.333333  0.500000  1
  W  W34  1  0.333333  0.666667  0.500000  1
  W  W35  1  0.000000  0.000000  0.000000  1
