# generated using pymatgen
data_Cs6Dy3NpBr18
_symmetry_space_group_name_H-M   'P 1'
_cell_length_a   10.54883708
_cell_length_b   10.54883641
_cell_length_c   10.54883761
_cell_angle_alpha   83.09130783
_cell_angle_beta   83.09131608
_cell_angle_gamma   83.09132148
_symmetry_Int_Tables_number   1
_chemical_formula_structural   Cs6Dy3NpBr18
_chemical_formula_sum   'Cs6 Dy3 Np1 Br18'
_cell_volume   1150.18063262
_cell_formula_units_Z   1
loop_
 _symmetry_equiv_pos_site_id
 _symmetry_equiv_pos_as_xyz
  1  'x, y, z'
loop_
 _atom_site_type_symbol
 _atom_site_label
 _atom_site_symmetry_multiplicity
 _atom_site_fract_x
 _atom_site_fract_y
 _atom_site_fract_z
 _atom_site_occupancy
  Cs  Cs0  1  0.587839  0.911803  0.250885  1
  Cs  Cs1  1  0.250885  0.587839  0.911803  1
  Cs  Cs2  1  0.911803  0.250885  0.587839  1
  Cs  Cs3  1  0.749834  0.411442  0.088225  1
  Cs  Cs4  1  0.088225  0.749834  0.411442  1
  Cs  Cs5  1  0.411442  0.088225  0.749834  1
  Dy  Dy6  1  0.346651  0.346651  0.346651  1
  Dy  Dy7  1  0.153441  0.153441  0.153441  1
  Dy  Dy8  1  0.652992  0.652992  0.652992  1
  Np  Np9  1  0.847206  0.847206  0.847206  1
  Br  Br10  1  0.096247  0.403668  0.250040  1
  Br  Br11  1  0.250040  0.096247  0.403668  1
  Br  Br12  1  0.403668  0.250040  0.096247  1
  Br  Br13  1  0.747368  0.904031  0.590628  1
  Br  Br14  1  0.590628  0.747368  0.904031  1
  Br  Br15  1  0.904031  0.590628  0.747368  1
  Br  Br16  1  0.235158  0.414707  0.578401  1
  Br  Br17  1  0.578401  0.235158  0.414707  1
  Br  Br18  1  0.414707  0.578401  0.235158  1
  Br  Br19  1  0.086719  0.917987  0.732014  1
  Br  Br20  1  0.732014  0.086719  0.917987  1
  Br  Br21  1  0.917987  0.732014  0.086719  1
  Br  Br22  1  0.764635  0.585026  0.421480  1
  Br  Br23  1  0.421480  0.764635  0.585026  1
  Br  Br24  1  0.585026  0.421480  0.764635  1
  Br  Br25  1  0.921656  0.085193  0.264726  1
  Br  Br26  1  0.264726  0.921656  0.085193  1
  Br  Br27  1  0.085193  0.264726  0.921656  1
