# generated using pymatgen
data_Hf8Co16As11P
_symmetry_space_group_name_H-M   'P 1'
_cell_length_a   12.48246906
_cell_length_b   12.48466657
_cell_length_c   3.73791300
_cell_angle_alpha   90.00000000
_cell_angle_beta   90.00000000
_cell_angle_gamma   120.00582861
_symmetry_Int_Tables_number   1
_chemical_formula_structural   Hf8Co16As11P
_chemical_formula_sum   'Hf8 Co16 As11 P1'
_cell_volume   504.44260165
_cell_formula_units_Z   1
loop_
 _symmetry_equiv_pos_site_id
 _symmetry_equiv_pos_as_xyz
  1  'x, y, z'
loop_
 _atom_site_type_symbol
 _atom_site_label
 _atom_site_symmetry_multiplicity
 _atom_site_fract_x
 _atom_site_fract_y
 _atom_site_fract_z
 _atom_site_occupancy
  Hf  Hf0  1  0.833825  0.826662  0.500000  1
  Hf  Hf1  1  0.443494  0.443489  0.000000  1
  Hf  Hf2  1  0.000000  0.173676  0.500000  1
  Hf  Hf3  1  0.556506  0.999995  0.000000  1
  Hf  Hf4  1  0.333170  0.666151  0.000000  1
  Hf  Hf5  1  0.666830  0.332980  0.000000  1
  Hf  Hf6  1  0.000000  0.558036  0.000000  1
  Hf  Hf7  1  0.166175  0.992836  0.500000  1
  Co  Co8  1  0.627153  0.822110  0.000000  1
  Co  Co9  1  0.372847  0.194957  0.000000  1
  Co  Co10  1  0.000000  0.726128  0.500000  1
  Co  Co11  1  0.280215  0.280762  0.500000  1
  Co  Co12  1  0.876315  0.357568  0.500000  1
  Co  Co13  1  0.719785  0.000546  0.500000  1
  Co  Co14  1  0.828640  0.635313  0.000000  1
  Co  Co15  1  0.171360  0.806673  0.000000  1
  Co  Co16  1  0.355523  0.875418  0.500000  1
  Co  Co17  1  0.123685  0.481253  0.500000  1
  Co  Co18  1  0.644477  0.519895  0.500000  1
  Co  Co19  1  0.000000  0.991786  0.000000  1
  Co  Co20  1  0.519455  0.642849  0.500000  1
  Co  Co21  1  0.480545  0.123393  0.500000  1
  Co  Co22  1  0.194343  0.371919  0.000000  1
  Co  Co23  1  0.805657  0.177576  0.000000  1
  As  As24  1  0.000000  0.345304  0.000000  1
  As  As25  1  0.826105  0.516078  0.500000  1
  As  As26  1  0.689527  0.174904  0.500000  1
  As  As27  1  0.173733  0.172778  0.000000  1
  As  As28  1  0.656679  0.656569  0.000000  1
  As  As29  1  0.826267  0.999045  0.000000  1
  As  As30  1  0.514739  0.825146  0.500000  1
  As  As31  1  0.173895  0.689972  0.500000  1
  As  As32  1  0.343321  0.999890  0.000000  1
  As  As33  1  0.485261  0.310407  0.500000  1
  As  As34  1  0.310473  0.485376  0.500000  1
  P  P35  1  0.000000  0.822560  0.000000  1
