# generated using pymatgen
data_NpUTeN2
_symmetry_space_group_name_H-M   'P 1'
_cell_length_a   6.86801217
_cell_length_b   6.86801295
_cell_length_c   6.86801328
_cell_angle_alpha   147.10720226
_cell_angle_beta   147.10720590
_cell_angle_gamma   47.20506981
_symmetry_Int_Tables_number   1
_chemical_formula_structural   NpUTeN2
_chemical_formula_sum   'Np1 U1 Te1 N2'
_cell_volume   95.18048648
_cell_formula_units_Z   1
loop_
 _symmetry_equiv_pos_site_id
 _symmetry_equiv_pos_as_xyz
  1  'x, y, z'
loop_
 _atom_site_type_symbol
 _atom_site_label
 _atom_site_symmetry_multiplicity
 _atom_site_fract_x
 _atom_site_fract_y
 _atom_site_fract_z
 _atom_site_occupancy
  Np  Np0  1  0.341633  0.341633  0.000000  1
  U  U1  1  0.662248  0.662248  0.000000  1
  Te  Te2  1  0.000997  0.000997  0.000000  1
  N  N3  1  0.747561  0.247561  0.500000  1
  N  N4  1  0.247561  0.747561  0.500000  1
