# generated using pymatgen
data_Er4Ga18Co5Pt
_symmetry_space_group_name_H-M   'P 1'
_cell_length_a   7.40791110
_cell_length_b   7.40791062
_cell_length_c   9.38933456
_cell_angle_alpha   90.17492378
_cell_angle_beta   90.17492372
_cell_angle_gamma   119.66829790
_symmetry_Int_Tables_number   1
_chemical_formula_structural   Er4Ga18Co5Pt
_chemical_formula_sum   'Er4 Ga18 Co5 Pt1'
_cell_volume   447.70387284
_cell_formula_units_Z   1
loop_
 _symmetry_equiv_pos_site_id
 _symmetry_equiv_pos_as_xyz
  1  'x, y, z'
loop_
 _atom_site_type_symbol
 _atom_site_label
 _atom_site_symmetry_multiplicity
 _atom_site_fract_x
 _atom_site_fract_y
 _atom_site_fract_z
 _atom_site_occupancy
  Er  Er0  1  0.502743  0.825489  0.751227  1
  Er  Er1  1  0.497257  0.174511  0.248773  1
  Er  Er2  1  0.174511  0.497257  0.248773  1
  Er  Er3  1  0.825489  0.502743  0.751227  1
  Ga  Ga4  1  0.163907  0.943916  0.751506  1
  Ga  Ga5  1  0.836093  0.056084  0.248494  1
  Ga  Ga6  1  0.056084  0.836093  0.248494  1
  Ga  Ga7  1  0.943916  0.163907  0.751506  1
  Ga  Ga8  1  0.632548  0.632548  0.241336  1
  Ga  Ga9  1  0.367452  0.367452  0.758664  1
  Ga  Ga10  1  0.166888  0.166888  0.058004  1
  Ga  Ga11  1  0.843258  0.843258  0.563726  1
  Ga  Ga12  1  0.833112  0.833112  0.941996  1
  Ga  Ga13  1  0.156742  0.156742  0.436274  1
  Ga  Ga14  1  0.497615  0.836201  0.072535  1
  Ga  Ga15  1  0.500593  0.154714  0.577211  1
  Ga  Ga16  1  0.163799  0.502385  0.927465  1
  Ga  Ga17  1  0.845286  0.499407  0.422789  1
  Ga  Ga18  1  0.502385  0.163799  0.927465  1
  Ga  Ga19  1  0.499407  0.845286  0.422789  1
  Ga  Ga20  1  0.836201  0.497615  0.072535  1
  Ga  Ga21  1  0.154714  0.500593  0.577211  1
  Co  Co22  1  0.170930  0.829070  0.000000  1
  Co  Co23  1  0.500000  0.500000  0.000000  1
  Co  Co24  1  0.829148  0.170852  0.500000  1
  Co  Co25  1  0.829070  0.170930  0.000000  1
  Co  Co26  1  0.170852  0.829148  0.500000  1
  Pt  Pt27  1  0.500000  0.500000  0.500000  1
