# generated using pymatgen
data_TmLu4Re2C7
_symmetry_space_group_name_H-M   'P 1'
_cell_length_a   8.16460732
_cell_length_b   8.16460811
_cell_length_c   3.35223300
_cell_angle_alpha   90.00000000
_cell_angle_beta   90.00000000
_cell_angle_gamma   121.74760680
_symmetry_Int_Tables_number   1
_chemical_formula_structural   TmLu4Re2C7
_chemical_formula_sum   'Tm1 Lu4 Re2 C7'
_cell_volume   190.02682846
_cell_formula_units_Z   1
loop_
 _symmetry_equiv_pos_site_id
 _symmetry_equiv_pos_as_xyz
  1  'x, y, z'
loop_
 _atom_site_type_symbol
 _atom_site_label
 _atom_site_symmetry_multiplicity
 _atom_site_fract_x
 _atom_site_fract_y
 _atom_site_fract_z
 _atom_site_occupancy
  Tm  Tm0  1  0.500000  0.500000  0.000000  1
  Lu  Lu1  1  0.078391  0.337218  0.500000  1
  Lu  Lu2  1  0.921609  0.662782  0.500000  1
  Lu  Lu3  1  0.662782  0.921609  0.500000  1
  Lu  Lu4  1  0.337218  0.078391  0.500000  1
  Re  Re5  1  0.715961  0.284039  0.000000  1
  Re  Re6  1  0.284039  0.715961  0.000000  1
  C  C7  1  0.624296  0.375704  0.500000  1
  C  C8  1  0.375704  0.624296  0.500000  1
  C  C9  1  0.000000  0.000000  0.000000  1
  C  C10  1  0.170772  0.170772  0.000000  1
  C  C11  1  0.829228  0.829228  0.000000  1
  C  C12  1  0.000000  0.500000  0.000000  1
  C  C13  1  0.500000  0.000000  0.000000  1
