# generated using pymatgen
data_LiDy17Y2(Cd3Ru)2
_symmetry_space_group_name_H-M   'P 1'
_cell_length_a   9.54793102
_cell_length_b   9.54793042
_cell_length_c   9.75439502
_cell_angle_alpha   89.99355261
_cell_angle_beta   90.00644721
_cell_angle_gamma   120.00060362
_symmetry_Int_Tables_number   1
_chemical_formula_structural   LiDy17Y2(Cd3Ru)2
_chemical_formula_sum   'Li1 Dy17 Y2 Cd6 Ru2'
_cell_volume   770.09950381
_cell_formula_units_Z   1
loop_
 _symmetry_equiv_pos_site_id
 _symmetry_equiv_pos_as_xyz
  1  'x, y, z'
loop_
 _atom_site_type_symbol
 _atom_site_label
 _atom_site_symmetry_multiplicity
 _atom_site_fract_x
 _atom_site_fract_y
 _atom_site_fract_z
 _atom_site_occupancy
  Li  Li0  1  0.000001  0.999999  0.500018  1
  Dy  Dy1  1  0.999985  0.000015  0.999927  1
  Dy  Dy2  1  0.208183  0.791817  0.440203  1
  Dy  Dy3  1  0.208317  0.416470  0.440278  1
  Dy  Dy4  1  0.583530  0.791683  0.440278  1
  Dy  Dy5  1  0.791780  0.208220  0.559578  1
  Dy  Dy6  1  0.791678  0.583562  0.559650  1
  Dy  Dy7  1  0.416438  0.208322  0.559650  1
  Dy  Dy8  1  0.789338  0.210662  0.941315  1
  Dy  Dy9  1  0.789224  0.578678  0.941262  1
  Dy  Dy10  1  0.421322  0.210776  0.941262  1
  Dy  Dy11  1  0.210636  0.789364  0.058921  1
  Dy  Dy12  1  0.210742  0.421318  0.058845  1
  Dy  Dy13  1  0.578682  0.789258  0.058845  1
  Dy  Dy14  1  0.541694  0.458306  0.251981  1
  Dy  Dy15  1  0.541700  0.083373  0.252015  1
  Dy  Dy16  1  0.916627  0.458300  0.252015  1
  Dy  Dy17  1  0.458453  0.541547  0.747974  1
  Y  Y18  1  0.458349  0.916648  0.747989  1
  Y  Y19  1  0.083352  0.541651  0.747989  1
  Cd  Cd20  1  0.888256  0.111744  0.258053  1
  Cd  Cd21  1  0.888247  0.776501  0.258034  1
  Cd  Cd22  1  0.223499  0.111753  0.258034  1
  Cd  Cd23  1  0.111693  0.888307  0.741961  1
  Cd  Cd24  1  0.111785  0.223477  0.741969  1
  Cd  Cd25  1  0.776523  0.888215  0.741969  1
  Ru  Ru26  1  0.333352  0.666648  0.250448  1
  Ru  Ru27  1  0.666615  0.333385  0.749537  1
