# generated using pymatgen
data_Tm12Si12Os3Rh
_symmetry_space_group_name_H-M   'P 1'
_cell_length_a   4.17706100
_cell_length_b   10.58648973
_cell_length_c   12.17876211
_cell_angle_alpha   90.07391308
_cell_angle_beta   90.00000000
_cell_angle_gamma   90.00000000
_symmetry_Int_Tables_number   1
_chemical_formula_structural   Tm12Si12Os3Rh
_chemical_formula_sum   'Tm12 Si12 Os3 Rh1'
_cell_volume   538.54944672
_cell_formula_units_Z   1
loop_
 _symmetry_equiv_pos_site_id
 _symmetry_equiv_pos_as_xyz
  1  'x, y, z'
loop_
 _atom_site_type_symbol
 _atom_site_label
 _atom_site_symmetry_multiplicity
 _atom_site_fract_x
 _atom_site_fract_y
 _atom_site_fract_z
 _atom_site_occupancy
  Tm  Tm0  1  0.250000  0.879721  0.020948  1
  Tm  Tm1  1  0.250000  0.621066  0.520462  1
  Tm  Tm2  1  0.750000  0.121500  0.980205  1
  Tm  Tm3  1  0.750000  0.380066  0.479303  1
  Tm  Tm4  1  0.250000  0.920823  0.604203  1
  Tm  Tm5  1  0.250000  0.578951  0.104741  1
  Tm  Tm6  1  0.750000  0.078685  0.395530  1
  Tm  Tm7  1  0.750000  0.420814  0.895042  1
  Tm  Tm8  1  0.250000  0.661857  0.799849  1
  Tm  Tm9  1  0.250000  0.837396  0.299200  1
  Tm  Tm10  1  0.750000  0.338204  0.200710  1
  Tm  Tm11  1  0.750000  0.160425  0.699225  1
  Si  Si12  1  0.250000  0.014303  0.822713  1
  Si  Si13  1  0.250000  0.490078  0.321141  1
  Si  Si14  1  0.750000  0.989571  0.178980  1
  Si  Si15  1  0.750000  0.510485  0.678850  1
  Si  Si16  1  0.250000  0.249365  0.840583  1
  Si  Si17  1  0.250000  0.250245  0.341761  1
  Si  Si18  1  0.750000  0.750015  0.158669  1
  Si  Si19  1  0.750000  0.748876  0.657192  1
  Si  Si20  1  0.250000  0.201813  0.544320  1
  Si  Si21  1  0.250000  0.299217  0.044714  1
  Si  Si22  1  0.750000  0.799451  0.455031  1
  Si  Si23  1  0.750000  0.697289  0.957381  1
  Os  Os24  1  0.250000  0.391200  0.679682  1
  Os  Os25  1  0.250000  0.109011  0.179961  1
  Os  Os26  1  0.750000  0.609445  0.319918  1
  Rh  Rh27  1  0.750000  0.890132  0.819688  1
