# generated using pymatgen
data_TbUSbN2
_symmetry_space_group_name_H-M   'P 1'
_cell_length_a   6.77539113
_cell_length_b   6.77539116
_cell_length_c   6.77539108
_cell_angle_alpha   146.40640374
_cell_angle_beta   146.40640162
_cell_angle_gamma   48.24351639
_symmetry_Int_Tables_number   1
_chemical_formula_structural   TbUSbN2
_chemical_formula_sum   'Tb1 U1 Sb1 N2'
_cell_volume   94.82255853
_cell_formula_units_Z   1
loop_
 _symmetry_equiv_pos_site_id
 _symmetry_equiv_pos_as_xyz
  1  'x, y, z'
loop_
 _atom_site_type_symbol
 _atom_site_label
 _atom_site_symmetry_multiplicity
 _atom_site_fract_x
 _atom_site_fract_y
 _atom_site_fract_z
 _atom_site_occupancy
  Tb  Tb0  1  0.342588  0.342588  0.000000  1
  U  U1  1  0.667312  0.667312  0.000000  1
  Sb  Sb2  1  0.008340  0.008340  0.000000  1
  N  N3  1  0.740880  0.240880  0.500000  1
  N  N4  1  0.240880  0.740880  0.500000  1
