# generated using pymatgen
data_Cd4FeIr3O14
_symmetry_space_group_name_H-M   'P 1'
_cell_length_a   7.26294924
_cell_length_b   7.26294903
_cell_length_c   7.24518448
_cell_angle_alpha   59.91886135
_cell_angle_beta   59.91886149
_cell_angle_gamma   59.99999819
_symmetry_Int_Tables_number   1
_chemical_formula_structural   Cd4FeIr3O14
_chemical_formula_sum   'Cd4 Fe1 Ir3 O14'
_cell_volume   269.91482411
_cell_formula_units_Z   1
loop_
 _symmetry_equiv_pos_site_id
 _symmetry_equiv_pos_as_xyz
  1  'x, y, z'
loop_
 _atom_site_type_symbol
 _atom_site_label
 _atom_site_symmetry_multiplicity
 _atom_site_fract_x
 _atom_site_fract_y
 _atom_site_fract_z
 _atom_site_occupancy
  Cd  Cd0  1  0.125000  0.125000  0.125000  1
  Cd  Cd1  1  0.625000  0.125000  0.125000  1
  Cd  Cd2  1  0.125000  0.625000  0.125000  1
  Cd  Cd3  1  0.125000  0.125000  0.625000  1
  Fe  Fe4  1  0.625000  0.625000  0.125000  1
  Ir  Ir5  1  0.625000  0.625000  0.625000  1
  Ir  Ir6  1  0.125000  0.625000  0.625000  1
  Ir  Ir7  1  0.625000  0.125000  0.625000  1
  O  O8  1  0.251269  0.251269  0.246194  1
  O  O9  1  0.998731  0.998731  0.003806  1
  O  O10  1  0.545421  0.950023  0.554533  1
  O  O11  1  0.298127  0.696182  0.309509  1
  O  O12  1  0.553818  0.553818  0.940491  1
  O  O13  1  0.950023  0.545421  0.554533  1
  O  O14  1  0.553818  0.951873  0.940491  1
  O  O15  1  0.950023  0.950023  0.554533  1
  O  O16  1  0.951873  0.553818  0.940491  1
  O  O17  1  0.696182  0.298127  0.309509  1
  O  O18  1  0.299977  0.704579  0.695467  1
  O  O19  1  0.704579  0.299977  0.695467  1
  O  O20  1  0.299977  0.299977  0.695467  1
  O  O21  1  0.696182  0.696182  0.309509  1
