# generated using pymatgen
data_LaEuTmTaO7
_symmetry_space_group_name_H-M   'P 1'
_cell_length_a   6.58544228
_cell_length_b   6.52082355
_cell_length_c   7.67896100
_cell_angle_alpha   90.00000000
_cell_angle_beta   90.00000000
_cell_angle_gamma   109.67144268
_symmetry_Int_Tables_number   1
_chemical_formula_structural   LaEuTmTaO7
_chemical_formula_sum   'La2 Eu2 Tm2 Ta2 O14'
_cell_volume   310.50888986
_cell_formula_units_Z   2
loop_
 _symmetry_equiv_pos_site_id
 _symmetry_equiv_pos_as_xyz
  1  'x, y, z'
loop_
 _atom_site_type_symbol
 _atom_site_label
 _atom_site_symmetry_multiplicity
 _atom_site_fract_x
 _atom_site_fract_y
 _atom_site_fract_z
 _atom_site_occupancy
  La  La0  1  0.502196  0.501579  0.500092  1
  La  La1  1  0.497804  0.498421  0.000092  1
  Eu  Eu2  1  0.524299  0.996961  0.750422  1
  Eu  Eu3  1  0.475701  0.003039  0.250422  1
  Tm  Tm4  1  0.997367  0.465183  0.749552  1
  Tm  Tm5  1  0.002633  0.534817  0.249552  1
  Ta  Ta6  1  0.000079  0.000105  0.500113  1
  Ta  Ta7  1  0.999921  0.999895  0.000113  1
  O  O8  1  0.647865  0.359472  0.750403  1
  O  O9  1  0.352135  0.640528  0.250403  1
  O  O10  1  0.953641  0.074077  0.750042  1
  O  O11  1  0.046359  0.925923  0.250042  1
  O  O12  1  0.945713  0.683472  0.538662  1
  O  O13  1  0.054287  0.316528  0.038662  1
  O  O14  1  0.320994  0.082537  0.976161  1
  O  O15  1  0.679006  0.917463  0.476161  1
  O  O16  1  0.353070  0.623994  0.749661  1
  O  O17  1  0.646930  0.376006  0.249661  1
  O  O18  1  0.947909  0.684387  0.960119  1
  O  O19  1  0.052091  0.315613  0.460119  1
  O  O20  1  0.320351  0.082362  0.524774  1
  O  O21  1  0.679649  0.917638  0.024774  1
