# generated using pymatgen
data_DyEr2Tm9Rh4
_symmetry_space_group_name_H-M   'P 1'
_cell_length_a   6.25877805
_cell_length_b   7.11673566
_cell_length_c   9.25566300
_cell_angle_alpha   90.00000000
_cell_angle_beta   90.00000000
_cell_angle_gamma   89.96793947
_symmetry_Int_Tables_number   1
_chemical_formula_structural   DyEr2Tm9Rh4
_chemical_formula_sum   'Dy1 Er2 Tm9 Rh4'
_cell_volume   412.26631518
_cell_formula_units_Z   1
loop_
 _symmetry_equiv_pos_site_id
 _symmetry_equiv_pos_as_xyz
  1  'x, y, z'
loop_
 _atom_site_type_symbol
 _atom_site_label
 _atom_site_symmetry_multiplicity
 _atom_site_fract_x
 _atom_site_fract_y
 _atom_site_fract_z
 _atom_site_occupancy
  Dy  Dy0  1  0.631707  0.466433  0.750000  1
  Er  Er1  1  0.368340  0.533979  0.250000  1
  Er  Er2  1  0.131862  0.033698  0.250000  1
  Tm  Tm3  1  0.673213  0.178241  0.062966  1
  Tm  Tm4  1  0.172392  0.321218  0.937194  1
  Tm  Tm5  1  0.827458  0.678874  0.436974  1
  Tm  Tm6  1  0.326646  0.821670  0.563018  1
  Tm  Tm7  1  0.326646  0.821670  0.936982  1
  Tm  Tm8  1  0.827458  0.678874  0.063026  1
  Tm  Tm9  1  0.172392  0.321218  0.562806  1
  Tm  Tm10  1  0.673213  0.178241  0.437034  1
  Tm  Tm11  1  0.868128  0.965833  0.750000  1
  Rh  Rh12  1  0.052435  0.616493  0.750000  1
  Rh  Rh13  1  0.552171  0.884473  0.250000  1
  Rh  Rh14  1  0.448055  0.114739  0.750000  1
  Rh  Rh15  1  0.947883  0.384346  0.250000  1
