# generated using pymatgen
data_Tb10Cd3In5Ni4
_symmetry_space_group_name_H-M   'P 1'
_cell_length_a   3.61226700
_cell_length_b   8.00794952
_cell_length_c   18.13715740
_cell_angle_alpha   89.92963038
_cell_angle_beta   90.00000000
_cell_angle_gamma   90.00000000
_symmetry_Int_Tables_number   1
_chemical_formula_structural   Tb10Cd3In5Ni4
_chemical_formula_sum   'Tb10 Cd3 In5 Ni4'
_cell_volume   524.65046820
_cell_formula_units_Z   1
loop_
 _symmetry_equiv_pos_site_id
 _symmetry_equiv_pos_as_xyz
  1  'x, y, z'
loop_
 _atom_site_type_symbol
 _atom_site_label
 _atom_site_symmetry_multiplicity
 _atom_site_fract_x
 _atom_site_fract_y
 _atom_site_fract_z
 _atom_site_occupancy
  Tb  Tb0  1  0.000000  0.499719  0.499523  1
  Tb  Tb1  1  0.000000  0.999521  0.999826  1
  Tb  Tb2  1  0.000000  0.748466  0.278879  1
  Tb  Tb3  1  0.000000  0.253650  0.722419  1
  Tb  Tb4  1  0.000000  0.751739  0.778659  1
  Tb  Tb5  1  0.000000  0.248050  0.221535  1
  Tb  Tb6  1  0.000000  0.614405  0.089437  1
  Tb  Tb7  1  0.000000  0.385810  0.911181  1
  Tb  Tb8  1  0.000000  0.883246  0.589196  1
  Tb  Tb9  1  0.000000  0.113616  0.410774  1
  Cd  Cd10  1  0.500000  0.708306  0.929785  1
  Cd  Cd11  1  0.500000  0.291675  0.070015  1
  Cd  Cd12  1  0.500000  0.791606  0.429718  1
  In  In13  1  0.500000  0.206325  0.569871  1
  In  In14  1  0.500000  0.569971  0.651193  1
  In  In15  1  0.500000  0.431962  0.348993  1
  In  In16  1  0.500000  0.931573  0.150686  1
  In  In17  1  0.500000  0.068867  0.849050  1
  Ni  Ni18  1  0.500000  0.524347  0.196522  1
  Ni  Ni19  1  0.500000  0.475346  0.803285  1
  Ni  Ni20  1  0.500000  0.976761  0.695923  1
  Ni  Ni21  1  0.500000  0.025040  0.303528  1
