# generated using pymatgen
data_Nd8Co3Si12Rh
_symmetry_space_group_name_H-M   'P 1'
_cell_length_a   8.12820600
_cell_length_b   8.12820610
_cell_length_c   8.40489000
_cell_angle_alpha   90.00000000
_cell_angle_beta   90.00000000
_cell_angle_gamma   119.99999959
_symmetry_Int_Tables_number   1
_chemical_formula_structural   Nd8Co3Si12Rh
_chemical_formula_sum   'Nd8 Co3 Si12 Rh1'
_cell_volume   480.89700949
_cell_formula_units_Z   1
loop_
 _symmetry_equiv_pos_site_id
 _symmetry_equiv_pos_as_xyz
  1  'x, y, z'
loop_
 _atom_site_type_symbol
 _atom_site_label
 _atom_site_symmetry_multiplicity
 _atom_site_fract_x
 _atom_site_fract_y
 _atom_site_fract_z
 _atom_site_occupancy
  Nd  Nd0  1  0.000000  0.000000  0.749320  1
  Nd  Nd1  1  0.000000  0.000000  0.250722  1
  Nd  Nd2  1  0.499722  0.500278  0.749434  1
  Nd  Nd3  1  0.499722  0.999445  0.749434  1
  Nd  Nd4  1  0.000555  0.500278  0.749434  1
  Nd  Nd5  1  0.501919  0.498081  0.250750  1
  Nd  Nd6  1  0.996164  0.498081  0.250750  1
  Nd  Nd7  1  0.501919  0.003836  0.250750  1
  Co  Co8  1  0.666667  0.333333  0.995934  1
  Co  Co9  1  0.666667  0.333333  0.503927  1
  Co  Co10  1  0.333333  0.666667  0.496069  1
  Si  Si11  1  0.828546  0.171454  0.999122  1
  Si  Si12  1  0.828546  0.657092  0.999122  1
  Si  Si13  1  0.342908  0.171454  0.999122  1
  Si  Si14  1  0.829018  0.170982  0.500962  1
  Si  Si15  1  0.829018  0.658036  0.500962  1
  Si  Si16  1  0.341964  0.170982  0.500962  1
  Si  Si17  1  0.171408  0.828592  0.499093  1
  Si  Si18  1  0.657184  0.828592  0.499093  1
  Si  Si19  1  0.171408  0.342816  0.499093  1
  Si  Si20  1  0.166005  0.833995  0.000698  1
  Si  Si21  1  0.667990  0.833995  0.000698  1
  Si  Si22  1  0.166005  0.332010  0.000698  1
  Rh  Rh23  1  0.333333  0.666667  0.003853  1
