# generated using pymatgen
data_Lu4GaSiRh11
_symmetry_space_group_name_H-M   'P 1'
_cell_length_a   7.11747477
_cell_length_b   7.11747472
_cell_length_c   7.11747394
_cell_angle_alpha   107.79077163
_cell_angle_beta   107.79077367
_cell_angle_gamma   112.88706560
_symmetry_Int_Tables_number   1
_chemical_formula_structural   Lu4GaSiRh11
_chemical_formula_sum   'Lu4 Ga1 Si1 Rh11'
_cell_volume   276.81474748
_cell_formula_units_Z   1
loop_
 _symmetry_equiv_pos_site_id
 _symmetry_equiv_pos_as_xyz
  1  'x, y, z'
loop_
 _atom_site_type_symbol
 _atom_site_label
 _atom_site_symmetry_multiplicity
 _atom_site_fract_x
 _atom_site_fract_y
 _atom_site_fract_z
 _atom_site_occupancy
  Lu  Lu0  1  0.011966  0.988034  0.500000  1
  Lu  Lu1  1  0.011966  0.511966  0.023931  1
  Lu  Lu2  1  0.488034  0.988034  0.976069  1
  Lu  Lu3  1  0.488034  0.511966  0.500000  1
  Ga  Ga4  1  0.750000  0.250000  0.500000  1
  Si  Si5  1  0.000000  0.000000  0.000000  1
  Rh  Rh6  1  0.748182  0.490435  0.257747  1
  Rh  Rh7  1  0.509565  0.251818  0.742253  1
  Rh  Rh8  1  0.232687  0.490435  0.742253  1
  Rh  Rh9  1  0.250000  0.750000  0.500000  1
  Rh  Rh10  1  0.509565  0.767313  0.257747  1
  Rh  Rh11  1  0.708900  0.708900  0.000000  1
  Rh  Rh12  1  0.291518  0.015782  0.275735  1
  Rh  Rh13  1  0.984218  0.259953  0.275735  1
  Rh  Rh14  1  0.291100  0.291100  0.000000  1
  Rh  Rh15  1  0.740047  0.015782  0.724265  1
  Rh  Rh16  1  0.984218  0.708482  0.724265  1
