# generated using pymatgen
data_Hf5Nb(Si3Ni2)2
_symmetry_space_group_name_H-M   'P 1'
_cell_length_a   5.23792341
_cell_length_b   5.23792431
_cell_length_c   12.86603800
_cell_angle_alpha   90.00000000
_cell_angle_beta   90.00000000
_cell_angle_gamma   136.78184116
_symmetry_Int_Tables_number   1
_chemical_formula_structural   Hf5Nb(Si3Ni2)2
_chemical_formula_sum   'Hf5 Nb1 Si6 Ni4'
_cell_volume   241.72026273
_cell_formula_units_Z   1
loop_
 _symmetry_equiv_pos_site_id
 _symmetry_equiv_pos_as_xyz
  1  'x, y, z'
loop_
 _atom_site_type_symbol
 _atom_site_label
 _atom_site_symmetry_multiplicity
 _atom_site_fract_x
 _atom_site_fract_y
 _atom_site_fract_z
 _atom_site_occupancy
  Hf  Hf0  1  0.867279  0.132721  0.750000  1
  Hf  Hf1  1  0.574965  0.425035  0.616549  1
  Hf  Hf2  1  0.426779  0.573221  0.380819  1
  Hf  Hf3  1  0.426779  0.573221  0.119181  1
  Hf  Hf4  1  0.574965  0.425035  0.883451  1
  Nb  Nb5  1  0.132206  0.867794  0.250000  1
  Si  Si6  1  0.833499  0.166501  0.250000  1
  Si  Si7  1  0.159684  0.840316  0.750000  1
  Si  Si8  1  0.888266  0.111734  0.538799  1
  Si  Si9  1  0.113586  0.886414  0.456001  1
  Si  Si10  1  0.113586  0.886414  0.043999  1
  Si  Si11  1  0.888266  0.111734  0.961201  1
  Ni  Ni12  1  0.282849  0.717151  0.910660  1
  Ni  Ni13  1  0.717222  0.282778  0.090950  1
  Ni  Ni14  1  0.717222  0.282778  0.409050  1
  Ni  Ni15  1  0.282849  0.717151  0.589340  1
