# generated using pymatgen
data_Fe5Si3W4
_symmetry_space_group_name_H-M   'P 1'
_cell_length_a   4.75320281
_cell_length_b   4.75320247
_cell_length_c   7.70214500
_cell_angle_alpha   90.00000000
_cell_angle_beta   90.00000000
_cell_angle_gamma   120.42579357
_symmetry_Int_Tables_number   1
_chemical_formula_structural   Fe5Si3W4
_chemical_formula_sum   'Fe5 Si3 W4'
_cell_volume   150.04985195
_cell_formula_units_Z   1
loop_
 _symmetry_equiv_pos_site_id
 _symmetry_equiv_pos_as_xyz
  1  'x, y, z'
loop_
 _atom_site_type_symbol
 _atom_site_label
 _atom_site_symmetry_multiplicity
 _atom_site_fract_x
 _atom_site_fract_y
 _atom_site_fract_z
 _atom_site_occupancy
  Fe  Fe0  1  0.339548  0.171176  0.750000  1
  Fe  Fe1  1  0.828824  0.660452  0.750000  1
  Fe  Fe2  1  0.173380  0.327736  0.250000  1
  Fe  Fe3  1  0.672264  0.826620  0.250000  1
  Fe  Fe4  1  0.826754  0.173246  0.750000  1
  Si  Si5  1  0.992016  0.007984  0.996875  1
  Si  Si6  1  0.992016  0.007984  0.503125  1
  Si  Si7  1  0.181087  0.818913  0.250000  1
  W  W8  1  0.331218  0.668782  0.933491  1
  W  W9  1  0.665837  0.334163  0.437047  1
  W  W10  1  0.665837  0.334163  0.062953  1
  W  W11  1  0.331218  0.668782  0.566509  1
