# generated using pymatgen
data_Tb3Er7Si5Sn
_symmetry_space_group_name_H-M   'P 1'
_cell_length_a   8.47352000
_cell_length_b   8.50124860
_cell_length_c   6.34696900
_cell_angle_alpha   90.00000000
_cell_angle_beta   90.00000000
_cell_angle_gamma   119.89215427
_symmetry_Int_Tables_number   1
_chemical_formula_structural   Tb3Er7Si5Sn
_chemical_formula_sum   'Tb3 Er7 Si5 Sn1'
_cell_volume   396.38254140
_cell_formula_units_Z   1
loop_
 _symmetry_equiv_pos_site_id
 _symmetry_equiv_pos_as_xyz
  1  'x, y, z'
loop_
 _atom_site_type_symbol
 _atom_site_label
 _atom_site_symmetry_multiplicity
 _atom_site_fract_x
 _atom_site_fract_y
 _atom_site_fract_z
 _atom_site_occupancy
  Tb  Tb0  1  0.998265  0.242516  0.250000  1
  Tb  Tb1  1  0.755750  0.757484  0.250000  1
  Tb  Tb2  1  0.241361  0.000000  0.250000  1
  Er  Er3  1  0.989765  0.748990  0.750000  1
  Er  Er4  1  0.765466  0.000000  0.750000  1
  Er  Er5  1  0.240775  0.251010  0.750000  1
  Er  Er6  1  0.331253  0.657391  0.497317  1
  Er  Er7  1  0.673863  0.342609  0.002683  1
  Er  Er8  1  0.673863  0.342609  0.497317  1
  Er  Er9  1  0.331253  0.657391  0.002683  1
  Si  Si10  1  0.394032  0.392599  0.250000  1
  Si  Si11  1  0.001433  0.607401  0.250000  1
  Si  Si12  1  0.998609  0.394163  0.750000  1
  Si  Si13  1  0.604446  0.605837  0.750000  1
  Si  Si14  1  0.604376  0.000000  0.250000  1
  Sn  Sn15  1  0.395491  0.000000  0.750000  1
