# generated using pymatgen
data_DyHo7Sc12Si15B
_symmetry_space_group_name_H-M   'P 1'
_cell_length_a   7.01611503
_cell_length_b   7.36579508
_cell_length_c   13.91923302
_cell_angle_alpha   90.00548986
_cell_angle_beta   90.00383705
_cell_angle_gamma   89.43283979
_symmetry_Int_Tables_number   1
_chemical_formula_structural   DyHo7Sc12Si15B
_chemical_formula_sum   'Dy1 Ho7 Sc12 Si15 B1'
_cell_volume   719.30049255
_cell_formula_units_Z   1
loop_
 _symmetry_equiv_pos_site_id
 _symmetry_equiv_pos_as_xyz
  1  'x, y, z'
loop_
 _atom_site_type_symbol
 _atom_site_label
 _atom_site_symmetry_multiplicity
 _atom_site_fract_x
 _atom_site_fract_y
 _atom_site_fract_z
 _atom_site_occupancy
  Dy  Dy0  1  0.010155  0.178053  0.096691  1
  Ho  Ho1  1  0.988474  0.828904  0.902689  1
  Ho  Ho2  1  0.488828  0.678342  0.901856  1
  Ho  Ho3  1  0.988474  0.828919  0.597282  1
  Ho  Ho4  1  0.511422  0.324632  0.095334  1
  Ho  Ho5  1  0.010182  0.178105  0.403249  1
  Ho  Ho6  1  0.511439  0.324614  0.404670  1
  Ho  Ho7  1  0.488821  0.678335  0.598134  1
  Sc  Sc8  1  0.166664  0.509671  0.750001  1
  Sc  Sc9  1  0.838646  0.497504  0.250020  1
  Sc  Sc10  1  0.338337  0.003277  0.250015  1
  Sc  Sc11  1  0.673219  0.997718  0.750007  1
  Sc  Sc12  1  0.314778  0.174281  0.629362  1
  Sc  Sc13  1  0.669226  0.823451  0.375577  1
  Sc  Sc14  1  0.168421  0.676933  0.375674  1
  Sc  Sc15  1  0.669207  0.823412  0.124429  1
  Sc  Sc16  1  0.848761  0.310371  0.632033  1
  Sc  Sc17  1  0.314801  0.174267  0.870627  1
  Sc  Sc18  1  0.848760  0.310409  0.867955  1
  Sc  Sc19  1  0.168443  0.676912  0.124337  1
  Si  Si20  1  0.966434  0.883461  0.250036  1
  Si  Si21  1  0.467166  0.616020  0.250005  1
  Si  Si22  1  0.538099  0.380530  0.749996  1
  Si  Si23  1  0.267960  0.885408  0.750004  1
  Si  Si24  1  0.711832  0.129152  0.250059  1
  Si  Si25  1  0.214666  0.372444  0.250055  1
  Si  Si26  1  0.787514  0.623362  0.750004  1
  Si  Si27  1  0.159210  0.466856  0.539974  1
  Si  Si28  1  0.839762  0.534585  0.465004  1
  Si  Si29  1  0.339787  0.964772  0.463052  1
  Si  Si30  1  0.839707  0.534709  0.034970  1
  Si  Si31  1  0.654753  0.037630  0.540798  1
  Si  Si32  1  0.159236  0.466939  0.959999  1
  Si  Si33  1  0.654691  0.037609  0.959194  1
  Si  Si34  1  0.339959  0.964697  0.036913  1
  B  B35  1  0.042170  0.103719  0.749994  1
