# generated using pymatgen
data_Dy9Ho2In9Ru4
_symmetry_space_group_name_H-M   'P 1'
_cell_length_a   3.82316700
_cell_length_b   12.88557801
_cell_length_c   12.88771046
_cell_angle_alpha   112.79212533
_cell_angle_beta   90.00000000
_cell_angle_gamma   90.00000000
_symmetry_Int_Tables_number   1
_chemical_formula_structural   Dy9Ho2In9Ru4
_chemical_formula_sum   'Dy9 Ho2 In9 Ru4'
_cell_volume   585.32151190
_cell_formula_units_Z   1
loop_
 _symmetry_equiv_pos_site_id
 _symmetry_equiv_pos_as_xyz
  1  'x, y, z'
loop_
 _atom_site_type_symbol
 _atom_site_label
 _atom_site_symmetry_multiplicity
 _atom_site_fract_x
 _atom_site_fract_y
 _atom_site_fract_z
 _atom_site_occupancy
  Dy  Dy0  1  0.000000  0.581800  0.914400  1
  Dy  Dy1  1  0.000000  0.418200  0.085600  1
  Dy  Dy2  1  0.000000  0.163647  0.835981  1
  Dy  Dy3  1  0.000000  0.836353  0.164019  1
  Dy  Dy4  1  0.000000  0.370217  0.629528  1
  Dy  Dy5  1  0.000000  0.629783  0.370472  1
  Dy  Dy6  1  0.000000  0.693989  0.693777  1
  Dy  Dy7  1  0.000000  0.306011  0.306223  1
  Dy  Dy8  1  0.000000  0.000000  0.000000  1
  Ho  Ho9  1  0.000000  0.914010  0.581592  1
  Ho  Ho10  1  0.000000  0.085990  0.418408  1
  In  In11  1  0.500000  0.152571  0.629767  1
  In  In12  1  0.500000  0.847429  0.370233  1
  In  In13  1  0.500000  0.630433  0.153443  1
  In  In14  1  0.500000  0.369567  0.846557  1
  In  In15  1  0.500000  0.929256  0.781684  1
  In  In16  1  0.500000  0.070744  0.218316  1
  In  In17  1  0.500000  0.782200  0.929039  1
  In  In18  1  0.500000  0.217800  0.070961  1
  In  In19  1  0.500000  0.500000  0.500000  1
  Ru  Ru20  1  0.500000  0.741904  0.547746  1
  Ru  Ru21  1  0.500000  0.258096  0.452254  1
  Ru  Ru22  1  0.500000  0.547817  0.741722  1
  Ru  Ru23  1  0.500000  0.452183  0.258278  1
