# generated using pymatgen
data_Li4PrSm3(Si2Sn)2
_symmetry_space_group_name_H-M   'P 1'
_cell_length_a   9.72773033
_cell_length_b   9.72772891
_cell_length_c   6.84016400
_cell_angle_alpha   90.00000000
_cell_angle_beta   90.00000000
_cell_angle_gamma   153.22941633
_symmetry_Int_Tables_number   1
_chemical_formula_structural   Li4PrSm3(Si2Sn)2
_chemical_formula_sum   'Li4 Pr1 Sm3 Si4 Sn2'
_cell_volume   291.54554385
_cell_formula_units_Z   1
loop_
 _symmetry_equiv_pos_site_id
 _symmetry_equiv_pos_as_xyz
  1  'x, y, z'
loop_
 _atom_site_type_symbol
 _atom_site_label
 _atom_site_symmetry_multiplicity
 _atom_site_fract_x
 _atom_site_fract_y
 _atom_site_fract_z
 _atom_site_occupancy
  Li  Li0  1  0.815620  0.184380  0.554276  1
  Li  Li1  1  0.184494  0.815506  0.445979  1
  Li  Li2  1  0.184494  0.815506  0.054021  1
  Li  Li3  1  0.815620  0.184380  0.945724  1
  Pr  Pr4  1  0.548451  0.451549  0.250000  1
  Sm  Sm5  1  0.451556  0.548444  0.750000  1
  Sm  Sm6  1  0.350576  0.649424  0.250000  1
  Sm  Sm7  1  0.649399  0.350601  0.750000  1
  Si  Si8  1  0.942326  0.057674  0.073223  1
  Si  Si9  1  0.057217  0.942783  0.924705  1
  Si  Si10  1  0.057217  0.942783  0.575295  1
  Si  Si11  1  0.942326  0.057674  0.426777  1
  Sn  Sn12  1  0.719666  0.280334  0.250000  1
  Sn  Sn13  1  0.281039  0.718961  0.750000  1
