# generated using pymatgen
data_Dy4As6Ru4Rh3
_symmetry_space_group_name_H-M   'P 1'
_cell_length_a   7.24359900
_cell_length_b   7.24359899
_cell_length_c   7.24359965
_cell_angle_alpha   109.22836555
_cell_angle_beta   109.40242159
_cell_angle_gamma   109.78337499
_symmetry_Int_Tables_number   1
_chemical_formula_structural   Dy4As6Ru4Rh3
_chemical_formula_sum   'Dy4 As6 Ru4 Rh3'
_cell_volume   292.57058849
_cell_formula_units_Z   1
loop_
 _symmetry_equiv_pos_site_id
 _symmetry_equiv_pos_as_xyz
  1  'x, y, z'
loop_
 _atom_site_type_symbol
 _atom_site_label
 _atom_site_symmetry_multiplicity
 _atom_site_fract_x
 _atom_site_fract_y
 _atom_site_fract_z
 _atom_site_occupancy
  Dy  Dy0  1  0.000187  0.000687  0.500530  1
  Dy  Dy1  1  0.499844  0.999313  0.999500  1
  Dy  Dy2  1  0.000187  0.499657  0.999500  1
  Dy  Dy3  1  0.499844  0.500343  0.500530  1
  As  As4  1  0.317816  0.000000  0.317816  1
  As  As5  1  0.002825  0.319344  0.322168  1
  As  As6  1  0.002825  0.680656  0.683481  1
  As  As7  1  0.315065  0.316915  0.998150  1
  As  As8  1  0.681235  0.683085  0.998150  1
  As  As9  1  0.682045  0.000000  0.682045  1
  Ru  Ru10  1  0.749476  0.249565  0.499910  1
  Ru  Ru11  1  0.250345  0.750435  0.499910  1
  Ru  Ru12  1  0.251682  0.500000  0.751682  1
  Ru  Ru13  1  0.001071  0.000000  0.001071  1
  Rh  Rh14  1  0.748771  0.500000  0.248771  1
  Rh  Rh15  1  0.498391  0.749761  0.248152  1
  Rh  Rh16  1  0.498391  0.250239  0.748630  1
