# generated using pymatgen
data_SmDy5Cr2(Co4P3)4
_symmetry_space_group_name_H-M   'P 1'
_cell_length_a   3.68886600
_cell_length_b   10.53091500
_cell_length_c   12.19555400
_cell_angle_alpha   90.00000000
_cell_angle_beta   90.00000000
_cell_angle_gamma   90.00000000
_symmetry_Int_Tables_number   1
_chemical_formula_structural   SmDy5Cr2(Co4P3)4
_chemical_formula_sum   'Sm1 Dy5 Cr2 Co16 P12'
_cell_volume   473.76232401
_cell_formula_units_Z   1
loop_
 _symmetry_equiv_pos_site_id
 _symmetry_equiv_pos_as_xyz
  1  'x, y, z'
loop_
 _atom_site_type_symbol
 _atom_site_label
 _atom_site_symmetry_multiplicity
 _atom_site_fract_x
 _atom_site_fract_y
 _atom_site_fract_z
 _atom_site_occupancy
  Sm  Sm0  1  0.000000  0.500000  0.522994  1
  Dy  Dy1  1  0.500000  0.000000  0.477348  1
  Dy  Dy2  1  0.500000  0.818143  0.204430  1
  Dy  Dy3  1  0.500000  0.181857  0.204430  1
  Dy  Dy4  1  0.000000  0.682166  0.795932  1
  Dy  Dy5  1  0.000000  0.317834  0.795932  1
  Cr  Cr6  1  0.500000  0.500000  0.154694  1
  Cr  Cr7  1  0.000000  0.000000  0.844014  1
  Co  Co8  1  0.500000  0.500000  0.703910  1
  Co  Co9  1  0.000000  0.000000  0.297290  1
  Co  Co10  1  0.000000  0.500000  0.987428  1
  Co  Co11  1  0.500000  0.000000  0.012803  1
  Co  Co12  1  0.500000  0.332388  0.992662  1
  Co  Co13  1  0.500000  0.667612  0.992662  1
  Co  Co14  1  0.000000  0.167275  0.007340  1
  Co  Co15  1  0.000000  0.832725  0.007340  1
  Co  Co16  1  0.500000  0.294160  0.430368  1
  Co  Co17  1  0.500000  0.705840  0.430368  1
  Co  Co18  1  0.000000  0.202575  0.569705  1
  Co  Co19  1  0.000000  0.797425  0.569705  1
  Co  Co20  1  0.500000  0.879841  0.709324  1
  Co  Co21  1  0.500000  0.120159  0.709324  1
  Co  Co22  1  0.000000  0.620952  0.290423  1
  Co  Co23  1  0.000000  0.379048  0.290423  1
  P  P24  1  0.500000  0.500000  0.882993  1
  P  P25  1  0.000000  0.000000  0.117423  1
  P  P26  1  0.500000  0.500000  0.341895  1
  P  P27  1  0.000000  0.000000  0.655327  1
  P  P28  1  0.500000  0.309230  0.616859  1
  P  P29  1  0.500000  0.690770  0.616859  1
  P  P30  1  0.000000  0.188415  0.383937  1
  P  P31  1  0.000000  0.811585  0.383937  1
  P  P32  1  0.500000  0.847675  0.892335  1
  P  P33  1  0.500000  0.152325  0.892335  1
  P  P34  1  0.000000  0.652634  0.107625  1
  P  P35  1  0.000000  0.347366  0.107625  1
