# generated using pymatgen
data_Gd4TmMgSi4
_symmetry_space_group_name_H-M   'P 1'
_cell_length_a   7.37638800
_cell_length_b   7.37638800
_cell_length_c   4.26374000
_cell_angle_alpha   90.00000000
_cell_angle_beta   90.00000000
_cell_angle_gamma   90.00000000
_symmetry_Int_Tables_number   1
_chemical_formula_structural   Gd4TmMgSi4
_chemical_formula_sum   'Gd4 Tm1 Mg1 Si4'
_cell_volume   231.99478320
_cell_formula_units_Z   1
loop_
 _symmetry_equiv_pos_site_id
 _symmetry_equiv_pos_as_xyz
  1  'x, y, z'
loop_
 _atom_site_type_symbol
 _atom_site_label
 _atom_site_symmetry_multiplicity
 _atom_site_fract_x
 _atom_site_fract_y
 _atom_site_fract_z
 _atom_site_occupancy
  Gd  Gd0  1  0.670725  0.184325  0.500000  1
  Gd  Gd1  1  0.329275  0.815675  0.500000  1
  Gd  Gd2  1  0.184325  0.329275  0.500000  1
  Gd  Gd3  1  0.815675  0.670725  0.500000  1
  Tm  Tm4  1  0.000000  0.000000  0.000000  1
  Mg  Mg5  1  0.500000  0.500000  0.000000  1
  Si  Si6  1  0.113090  0.620059  0.000000  1
  Si  Si7  1  0.886910  0.379941  0.000000  1
  Si  Si8  1  0.620059  0.886910  0.000000  1
  Si  Si9  1  0.379941  0.113090  0.000000  1
