# generated using pymatgen
data_La13Pa(ZnNi2)2
_symmetry_space_group_name_H-M   'P 1'
_cell_length_a   12.29776216
_cell_length_b   12.29776216
_cell_length_c   3.77346700
_cell_angle_alpha   90.00000000
_cell_angle_beta   90.00000000
_cell_angle_gamma   90.19691913
_symmetry_Int_Tables_number   1
_chemical_formula_structural   La13Pa(ZnNi2)2
_chemical_formula_sum   'La13 Pa1 Zn2 Ni4'
_cell_volume   570.67673803
_cell_formula_units_Z   1
loop_
 _symmetry_equiv_pos_site_id
 _symmetry_equiv_pos_as_xyz
  1  'x, y, z'
loop_
 _atom_site_type_symbol
 _atom_site_label
 _atom_site_symmetry_multiplicity
 _atom_site_fract_x
 _atom_site_fract_y
 _atom_site_fract_z
 _atom_site_occupancy
  La  La0  1  0.671878  0.171878  0.000000  1
  La  La1  1  0.178759  0.321241  0.000000  1
  La  La2  1  0.821241  0.678759  0.000000  1
  La  La3  1  0.328122  0.828122  0.000000  1
  La  La4  1  0.208077  0.060938  0.500001  1
  La  La5  1  0.938903  0.204463  0.500001  1
  La  La6  1  0.439062  0.291923  0.500001  1
  La  La7  1  0.704463  0.438903  0.500001  1
  La  La8  1  0.000000  0.500000  0.500001  1
  La  La9  1  0.295537  0.561097  0.500001  1
  La  La10  1  0.560938  0.708077  0.500001  1
  La  La11  1  0.061097  0.795537  0.500001  1
  La  La12  1  0.791923  0.939062  0.500001  1
  Pa  Pa13  1  0.500000  0.000000  0.500001  1
  Zn  Zn14  1  0.000000  0.000000  0.000000  1
  Zn  Zn15  1  0.500000  0.500000  0.000000  1
  Ni  Ni16  1  0.396140  0.103860  0.000000  1
  Ni  Ni17  1  0.871907  0.371907  0.000000  1
  Ni  Ni18  1  0.128093  0.628093  0.000000  1
  Ni  Ni19  1  0.603860  0.896140  0.000000  1
