# generated using pymatgen
data_Tb6TaO12
_symmetry_space_group_name_H-M   'P 1'
_cell_length_a   6.52140902
_cell_length_b   6.52140734
_cell_length_c   6.52140663
_cell_angle_alpha   98.76970211
_cell_angle_beta   98.76969093
_cell_angle_gamma   98.76970682
_symmetry_Int_Tables_number   1
_chemical_formula_structural   Tb6TaO12
_chemical_formula_sum   'Tb6 Ta1 O12'
_cell_volume   266.48116049
_cell_formula_units_Z   1
loop_
 _symmetry_equiv_pos_site_id
 _symmetry_equiv_pos_as_xyz
  1  'x, y, z'
loop_
 _atom_site_type_symbol
 _atom_site_label
 _atom_site_symmetry_multiplicity
 _atom_site_fract_x
 _atom_site_fract_y
 _atom_site_fract_z
 _atom_site_occupancy
  Tb  Tb0  1  0.861029  0.389512  0.698105  1
  Tb  Tb1  1  0.610488  0.301895  0.138971  1
  Tb  Tb2  1  0.301895  0.138971  0.610488  1
  Tb  Tb3  1  0.698105  0.861029  0.389512  1
  Tb  Tb4  1  0.389512  0.698105  0.861029  1
  Tb  Tb5  1  0.138971  0.610488  0.301895  1
  Ta  Ta6  1  0.000000  0.000000  0.000000  1
  O  O7  1  0.927936  0.040879  0.698086  1
  O  O8  1  0.959121  0.301914  0.072064  1
  O  O9  1  0.587906  0.177733  0.436847  1
  O  O10  1  0.822267  0.563153  0.412094  1
  O  O11  1  0.301914  0.072064  0.959121  1
  O  O12  1  0.563153  0.412094  0.822267  1
  O  O13  1  0.436847  0.587906  0.177733  1
  O  O14  1  0.698086  0.927936  0.040879  1
  O  O15  1  0.177733  0.436847  0.587906  1
  O  O16  1  0.412094  0.822267  0.563153  1
  O  O17  1  0.040879  0.698086  0.927936  1
  O  O18  1  0.072064  0.959121  0.301914  1
