# generated using pymatgen
data_YbPr7Sc11Si16Tc
_symmetry_space_group_name_H-M   'P 1'
_cell_length_a   7.16594945
_cell_length_b   7.53452293
_cell_length_c   14.14072551
_cell_angle_alpha   89.99396288
_cell_angle_beta   90.03047785
_cell_angle_gamma   89.98841338
_symmetry_Int_Tables_number   1
_chemical_formula_structural   YbPr7Sc11Si16Tc
_chemical_formula_sum   'Yb1 Pr7 Sc11 Si16 Tc1'
_cell_volume   763.48607142
_cell_formula_units_Z   1
loop_
 _symmetry_equiv_pos_site_id
 _symmetry_equiv_pos_as_xyz
  1  'x, y, z'
loop_
 _atom_site_type_symbol
 _atom_site_label
 _atom_site_symmetry_multiplicity
 _atom_site_fract_x
 _atom_site_fract_y
 _atom_site_fract_z
 _atom_site_occupancy
  Yb  Yb0  1  0.009863  0.173615  0.404440  1
  Pr  Pr1  1  0.512362  0.324742  0.404396  1
  Pr  Pr2  1  0.492450  0.677028  0.899118  1
  Pr  Pr3  1  0.491747  0.676755  0.600370  1
  Pr  Pr4  1  0.984459  0.829798  0.600735  1
  Pr  Pr5  1  0.985573  0.830588  0.899015  1
  Pr  Pr6  1  0.514037  0.325288  0.096213  1
  Pr  Pr7  1  0.012159  0.172398  0.094265  1
  Sc  Sc8  1  0.326700  0.170246  0.627697  1
  Sc  Sc9  1  0.675099  0.827546  0.377035  1
  Sc  Sc10  1  0.172960  0.675373  0.375122  1
  Sc  Sc11  1  0.825807  0.320215  0.873097  1
  Sc  Sc12  1  0.825448  0.319626  0.625951  1
  Sc  Sc13  1  0.844558  0.499572  0.250480  1
  Sc  Sc14  1  0.340877  0.003138  0.251246  1
  Sc  Sc15  1  0.328002  0.170507  0.872102  1
  Sc  Sc16  1  0.171588  0.675552  0.125217  1
  Sc  Sc17  1  0.674619  0.826196  0.123827  1
  Sc  Sc18  1  0.158853  0.497239  0.749817  1
  Si  Si19  1  0.296354  0.883944  0.749983  1
  Si  Si20  1  0.471268  0.624955  0.250313  1
  Si  Si21  1  0.022542  0.118611  0.749434  1
  Si  Si22  1  0.532544  0.365848  0.749584  1
  Si  Si23  1  0.151181  0.463931  0.540612  1
  Si  Si24  1  0.968286  0.877120  0.250046  1
  Si  Si25  1  0.714969  0.117089  0.250083  1
  Si  Si26  1  0.850744  0.537407  0.037295  1
  Si  Si27  1  0.349698  0.962126  0.037536  1
  Si  Si28  1  0.151840  0.464969  0.959695  1
  Si  Si29  1  0.645565  0.036280  0.549410  1
  Si  Si30  1  0.348886  0.963579  0.462253  1
  Si  Si31  1  0.851884  0.536797  0.462064  1
  Si  Si32  1  0.790136  0.612303  0.749678  1
  Si  Si33  1  0.215236  0.382118  0.249988  1
  Si  Si34  1  0.648536  0.036918  0.951752  1
  Tc  Tc35  1  0.643169  0.020586  0.750132  1
