# generated using pymatgen
data_Li7Dy7TmZnSn8
_symmetry_space_group_name_H-M   'P 1'
_cell_length_a   9.37511762
_cell_length_b   9.38385032
_cell_length_c   7.25237147
_cell_angle_alpha   89.95280982
_cell_angle_beta   90.01085789
_cell_angle_gamma   119.92910314
_symmetry_Int_Tables_number   1
_chemical_formula_structural   Li7Dy7TmZnSn8
_chemical_formula_sum   'Li7 Dy7 Tm1 Zn1 Sn8'
_cell_volume   552.94015078
_cell_formula_units_Z   1
loop_
 _symmetry_equiv_pos_site_id
 _symmetry_equiv_pos_as_xyz
  1  'x, y, z'
loop_
 _atom_site_type_symbol
 _atom_site_label
 _atom_site_symmetry_multiplicity
 _atom_site_fract_x
 _atom_site_fract_y
 _atom_site_fract_z
 _atom_site_occupancy
  Li  Li0  1  0.834801  0.167623  0.712618  1
  Li  Li1  1  0.332439  0.664454  0.819767  1
  Li  Li2  1  0.665744  0.332194  0.318730  1
  Li  Li3  1  0.665812  0.833353  0.213620  1
  Li  Li4  1  0.167124  0.333601  0.213449  1
  Li  Li5  1  0.167732  0.833660  0.213600  1
  Li  Li6  1  0.333184  0.168143  0.711983  1
  Dy  Dy7  1  0.999130  0.998435  0.001865  1
  Dy  Dy8  1  0.000411  0.000599  0.501261  1
  Dy  Dy9  1  0.512063  0.490017  0.006855  1
  Dy  Dy10  1  0.021834  0.510962  0.506535  1
  Dy  Dy11  1  0.489025  0.977858  0.502424  1
  Dy  Dy12  1  0.510927  0.021700  0.009803  1
  Dy  Dy13  1  0.977894  0.490011  0.006943  1
  Tm  Tm14  1  0.489066  0.510962  0.506444  1
  Zn  Zn15  1  0.832856  0.666525  0.703654  1
  Sn  Sn16  1  0.168889  0.834513  0.772215  1
  Sn  Sn17  1  0.664958  0.331235  0.741634  1
  Sn  Sn18  1  0.333235  0.665360  0.241284  1
  Sn  Sn19  1  0.834404  0.167190  0.270424  1
  Sn  Sn20  1  0.167179  0.333183  0.768306  1
  Sn  Sn21  1  0.333502  0.168058  0.272206  1
  Sn  Sn22  1  0.832552  0.666679  0.270851  1
  Sn  Sn23  1  0.665237  0.833685  0.771530  1
