# generated using pymatgen
data_TbYb(CoIr)2
_symmetry_space_group_name_H-M   'P 1'
_cell_length_a   5.05669137
_cell_length_b   5.17806057
_cell_length_c   5.17806047
_cell_angle_alpha   62.49792290
_cell_angle_beta   60.77237773
_cell_angle_gamma   60.77236607
_symmetry_Int_Tables_number   1
_chemical_formula_structural   TbYb(CoIr)2
_chemical_formula_sum   'Tb1 Yb1 Co2 Ir2'
_cell_volume   98.71571425
_cell_formula_units_Z   1
loop_
 _symmetry_equiv_pos_site_id
 _symmetry_equiv_pos_as_xyz
  1  'x, y, z'
loop_
 _atom_site_type_symbol
 _atom_site_label
 _atom_site_symmetry_multiplicity
 _atom_site_fract_x
 _atom_site_fract_y
 _atom_site_fract_z
 _atom_site_occupancy
  Tb  Tb0  1  0.000704  0.999296  0.999296  1
  Yb  Yb1  1  0.248086  0.251914  0.251914  1
  Co  Co2  1  0.124083  0.624536  0.624536  1
  Co  Co3  1  0.626846  0.624536  0.624536  1
  Ir  Ir4  1  0.625141  0.623862  0.125857  1
  Ir  Ir5  1  0.625141  0.125857  0.623862  1
