# generated using pymatgen
data_Tm3Lu(Al8Pd3)3
_symmetry_space_group_name_H-M   'P 1'
_cell_length_a   7.51116655
_cell_length_b   7.52978393
_cell_length_c   13.13172800
_cell_angle_alpha   84.59507219
_cell_angle_beta   79.11063736
_cell_angle_gamma   59.97425033
_symmetry_Int_Tables_number   1
_chemical_formula_structural   Tm3Lu(Al8Pd3)3
_chemical_formula_sum   'Tm3 Lu1 Al24 Pd9'
_cell_volume   631.44915190
_cell_formula_units_Z   1
loop_
 _symmetry_equiv_pos_site_id
 _symmetry_equiv_pos_as_xyz
  1  'x, y, z'
loop_
 _atom_site_type_symbol
 _atom_site_label
 _atom_site_symmetry_multiplicity
 _atom_site_fract_x
 _atom_site_fract_y
 _atom_site_fract_z
 _atom_site_occupancy
  Tm  Tm0  1  0.393490  0.168526  0.808019  1
  Tm  Tm1  1  0.606457  0.831579  0.192044  1
  Tm  Tm2  1  0.733304  0.498771  0.808083  1
  Lu  Lu3  1  0.266468  0.501174  0.192479  1
  Al  Al4  1  0.683896  0.833907  0.944384  1
  Al  Al5  1  0.316113  0.166557  0.056024  1
  Al  Al6  1  0.146202  0.832851  0.561706  1
  Al  Al7  1  0.853898  0.167070  0.438020  1
  Al  Al8  1  0.479453  0.166692  0.559010  1
  Al  Al9  1  0.520615  0.833214  0.440774  1
  Al  Al10  1  0.217489  0.165449  0.328543  1
  Al  Al11  1  0.782651  0.834673  0.671059  1
  Al  Al12  1  0.436827  0.506320  0.671438  1
  Al  Al13  1  0.563208  0.493565  0.328124  1
  Al  Al14  1  0.108868  0.159698  0.670229  1
  Al  Al15  1  0.891492  0.840048  0.329337  1
  Al  Al16  1  0.353485  0.498779  0.944604  1
  Al  Al17  1  0.645641  0.501507  0.056143  1
  Al  Al18  1  0.015686  0.168133  0.952831  1
  Al  Al19  1  0.984355  0.831530  0.047808  1
  Al  Al20  1  0.186887  0.499466  0.440773  1
  Al  Al21  1  0.813228  0.500466  0.559047  1
  Al  Al22  1  0.733065  0.164518  0.183678  1
  Al  Al23  1  0.266722  0.835807  0.816308  1
  Al  Al24  1  0.061300  0.629883  0.815403  1
  Al  Al25  1  0.939120  0.370034  0.184667  1
  Al  Al26  1  0.854009  0.042743  0.816201  1
  Al  Al27  1  0.146020  0.956913  0.183740  1
  Pd  Pd28  1  0.119631  0.491777  0.638855  1
  Pd  Pd29  1  0.880542  0.508264  0.360903  1
  Pd  Pd30  1  0.657093  0.171559  0.000191  1
  Pd  Pd31  1  0.342762  0.828729  0.000009  1
  Pd  Pd32  1  0.537538  0.167019  0.360891  1
  Pd  Pd33  1  0.462428  0.833003  0.638777  1
  Pd  Pd34  1  0.777863  0.175219  0.637900  1
  Pd  Pd35  1  0.222376  0.824498  0.361742  1
  Pd  Pd36  1  0.999815  0.500059  0.000249  1
