# generated using pymatgen
data_La3Pr4Nd(Sc3Si4)4
_symmetry_space_group_name_H-M   'P 1'
_cell_length_a   7.28247723
_cell_length_b   7.56625053
_cell_length_c   14.29467843
_cell_angle_alpha   89.93293185
_cell_angle_beta   89.99294784
_cell_angle_gamma   89.99604798
_symmetry_Int_Tables_number   1
_chemical_formula_structural   La3Pr4Nd(Sc3Si4)4
_chemical_formula_sum   'La3 Pr4 Nd1 Sc12 Si16'
_cell_volume   787.65120394
_cell_formula_units_Z   1
loop_
 _symmetry_equiv_pos_site_id
 _symmetry_equiv_pos_as_xyz
  1  'x, y, z'
loop_
 _atom_site_type_symbol
 _atom_site_label
 _atom_site_symmetry_multiplicity
 _atom_site_fract_x
 _atom_site_fract_y
 _atom_site_fract_z
 _atom_site_occupancy
  La  La0  1  0.012263  0.170621  0.402976  1
  La  La1  1  0.512305  0.329279  0.402825  1
  La  La2  1  0.487337  0.670666  0.902560  1
  Pr  Pr3  1  0.988029  0.827871  0.598322  1
  Pr  Pr4  1  0.987994  0.828032  0.902084  1
  Pr  Pr5  1  0.512092  0.328102  0.097979  1
  Pr  Pr6  1  0.011789  0.172415  0.097768  1
  Nd  Nd7  1  0.488123  0.672643  0.598690  1
  Sc  Sc8  1  0.330363  0.175460  0.625569  1
  Sc  Sc9  1  0.669804  0.824059  0.374413  1
  Sc  Sc10  1  0.659390  0.001930  0.749678  1
  Sc  Sc11  1  0.170151  0.675719  0.374438  1
  Sc  Sc12  1  0.830371  0.323917  0.874323  1
  Sc  Sc13  1  0.830224  0.324718  0.625585  1
  Sc  Sc14  1  0.840573  0.502550  0.249326  1
  Sc  Sc15  1  0.340536  0.997606  0.249453  1
  Sc  Sc16  1  0.329680  0.175712  0.874405  1
  Sc  Sc17  1  0.169334  0.675774  0.125021  1
  Sc  Sc18  1  0.670199  0.824440  0.124981  1
  Sc  Sc19  1  0.159530  0.498097  0.749702  1
  Si  Si20  1  0.287922  0.883917  0.749520  1
  Si  Si21  1  0.465548  0.626704  0.249558  1
  Si  Si22  1  0.034238  0.125581  0.749946  1
  Si  Si23  1  0.534441  0.373911  0.749565  1
  Si  Si24  1  0.151493  0.464563  0.540636  1
  Si  Si25  1  0.965687  0.873494  0.249537  1
  Si  Si26  1  0.711419  0.115451  0.249157  1
  Si  Si27  1  0.849262  0.536663  0.039980  1
  Si  Si28  1  0.348466  0.964059  0.039972  1
  Si  Si29  1  0.150162  0.462510  0.960481  1
  Si  Si30  1  0.650711  0.035224  0.540560  1
  Si  Si31  1  0.349774  0.961083  0.461132  1
  Si  Si32  1  0.849427  0.538570  0.460981  1
  Si  Si33  1  0.788529  0.616179  0.749339  1
  Si  Si34  1  0.211477  0.384565  0.249153  1
  Si  Si35  1  0.651360  0.037916  0.960384  1
