# generated using pymatgen
data_Tb4Lu(GaTe)2
_symmetry_space_group_name_H-M   'P 1'
_cell_length_a   8.67073308
_cell_length_b   8.67073381
_cell_length_c   7.91751900
_cell_angle_alpha   90.00000000
_cell_angle_beta   90.00000000
_cell_angle_gamma   125.81603780
_symmetry_Int_Tables_number   1
_chemical_formula_structural   Tb4Lu(GaTe)2
_chemical_formula_sum   'Tb8 Lu2 Ga4 Te4'
_cell_volume   482.68978969
_cell_formula_units_Z   2
loop_
 _symmetry_equiv_pos_site_id
 _symmetry_equiv_pos_as_xyz
  1  'x, y, z'
loop_
 _atom_site_type_symbol
 _atom_site_label
 _atom_site_symmetry_multiplicity
 _atom_site_fract_x
 _atom_site_fract_y
 _atom_site_fract_z
 _atom_site_occupancy
  Tb  Tb0  1  0.790154  0.538832  0.164729  1
  Tb  Tb1  1  0.461168  0.209846  0.835271  1
  Tb  Tb2  1  0.961168  0.709846  0.664729  1
  Tb  Tb3  1  0.290154  0.038832  0.335271  1
  Tb  Tb4  1  0.209846  0.461168  0.835271  1
  Tb  Tb5  1  0.538832  0.790154  0.164729  1
  Tb  Tb6  1  0.038832  0.290154  0.335271  1
  Tb  Tb7  1  0.709846  0.961168  0.664729  1
  Lu  Lu8  1  0.000000  0.000000  0.000000  1
  Lu  Lu9  1  0.500000  0.500000  0.500000  1
  Ga  Ga10  1  0.864070  0.864070  0.365011  1
  Ga  Ga11  1  0.135930  0.135930  0.634989  1
  Ga  Ga12  1  0.635930  0.635930  0.865011  1
  Ga  Ga13  1  0.364070  0.364070  0.134989  1
  Te  Te14  1  0.204038  0.795962  0.000000  1
  Te  Te15  1  0.704038  0.295962  0.500000  1
  Te  Te16  1  0.795962  0.204038  0.000000  1
  Te  Te17  1  0.295962  0.704038  0.500000  1
