# generated using pymatgen
data_Nb12Al7Au(CN)2
_symmetry_space_group_name_H-M   'P 1'
_cell_length_a   7.11530643
_cell_length_b   7.11015858
_cell_length_c   7.10975492
_cell_angle_alpha   89.84189722
_cell_angle_beta   90.12982117
_cell_angle_gamma   89.92529388
_symmetry_Int_Tables_number   1
_chemical_formula_structural   Nb12Al7Au(CN)2
_chemical_formula_sum   'Nb12 Al7 Au1 C2 N2'
_cell_volume   359.68670431
_cell_formula_units_Z   1
loop_
 _symmetry_equiv_pos_site_id
 _symmetry_equiv_pos_as_xyz
  1  'x, y, z'
loop_
 _atom_site_type_symbol
 _atom_site_label
 _atom_site_symmetry_multiplicity
 _atom_site_fract_x
 _atom_site_fract_y
 _atom_site_fract_z
 _atom_site_occupancy
  Nb  Nb0  1  0.790724  0.955556  0.375783  1
  Nb  Nb1  1  0.708044  0.045493  0.876437  1
  Nb  Nb2  1  0.206711  0.453565  0.119705  1
  Nb  Nb3  1  0.295495  0.542791  0.631355  1
  Nb  Nb4  1  0.955648  0.378053  0.792483  1
  Nb  Nb5  1  0.043871  0.873680  0.709904  1
  Nb  Nb6  1  0.456378  0.132501  0.204135  1
  Nb  Nb7  1  0.546423  0.619212  0.294703  1
  Nb  Nb8  1  0.379711  0.793317  0.952953  1
  Nb  Nb9  1  0.869826  0.703939  0.042446  1
  Nb  Nb10  1  0.126214  0.210142  0.456053  1
  Nb  Nb11  1  0.622124  0.292615  0.544108  1
  Al  Al12  1  0.321095  0.175977  0.820524  1
  Al  Al13  1  0.823533  0.319606  0.179123  1
  Al  Al14  1  0.679373  0.679986  0.676940  1
  Al  Al15  1  0.571613  0.429054  0.929426  1
  Al  Al16  1  0.425369  0.927505  0.565039  1
  Al  Al17  1  0.932787  0.574070  0.428222  1
  Al  Al18  1  0.071872  0.066445  0.074378  1
  Au  Au19  1  0.180901  0.817099  0.317344  1
  C  C20  1  0.876900  0.125564  0.624461  1
  C  C21  1  0.621161  0.876247  0.129085  1
  N  N22  1  0.124505  0.627625  0.878527  1
  N  N23  1  0.369719  0.379958  0.376867  1
