# generated using pymatgen
data_Ho4B12IrRu
_symmetry_space_group_name_H-M   'P 1'
_cell_length_a   3.64680000
_cell_length_b   9.16240017
_cell_length_c   11.48886851
_cell_angle_alpha   90.05832444
_cell_angle_beta   90.00000000
_cell_angle_gamma   90.00000000
_symmetry_Int_Tables_number   1
_chemical_formula_structural   Ho4B12IrRu
_chemical_formula_sum   'Ho8 B24 Ir2 Ru2'
_cell_volume   383.88243051
_cell_formula_units_Z   2
loop_
 _symmetry_equiv_pos_site_id
 _symmetry_equiv_pos_as_xyz
  1  'x, y, z'
loop_
 _atom_site_type_symbol
 _atom_site_label
 _atom_site_symmetry_multiplicity
 _atom_site_fract_x
 _atom_site_fract_y
 _atom_site_fract_z
 _atom_site_occupancy
  Ho  Ho0  1  0.000000  0.319300  0.411948  1
  Ho  Ho1  1  0.000000  0.680700  0.588052  1
  Ho  Ho2  1  0.000000  0.823426  0.085142  1
  Ho  Ho3  1  0.000000  0.176574  0.914858  1
  Ho  Ho4  1  0.000000  0.945870  0.372797  1
  Ho  Ho5  1  0.000000  0.054130  0.627203  1
  Ho  Ho6  1  0.000000  0.442613  0.125807  1
  Ho  Ho7  1  0.000000  0.557387  0.874193  1
  B  B8  1  0.500000  0.552870  0.433659  1
  B  B9  1  0.500000  0.447130  0.566341  1
  B  B10  1  0.500000  0.054052  0.066808  1
  B  B11  1  0.500000  0.945948  0.933192  1
  B  B12  1  0.500000  0.750160  0.420417  1
  B  B13  1  0.500000  0.249840  0.579583  1
  B  B14  1  0.500000  0.247750  0.079854  1
  B  B15  1  0.500000  0.752250  0.920146  1
  B  B16  1  0.500000  0.792775  0.265917  1
  B  B17  1  0.500000  0.207225  0.734083  1
  B  B18  1  0.500000  0.291825  0.234113  1
  B  B19  1  0.500000  0.708175  0.765887  1
  B  B20  1  0.500000  0.632080  0.184326  1
  B  B21  1  0.500000  0.367920  0.815674  1
  B  B22  1  0.500000  0.132503  0.314707  1
  B  B23  1  0.500000  0.867497  0.685293  1
  B  B24  1  0.500000  0.983800  0.212828  1
  B  B25  1  0.500000  0.016200  0.787172  1
  B  B26  1  0.500000  0.481963  0.286528  1
  B  B27  1  0.500000  0.518037  0.713472  1
  B  B28  1  0.500000  0.611120  0.030776  1
  B  B29  1  0.500000  0.388880  0.969224  1
  B  B30  1  0.500000  0.110784  0.469881  1
  B  B31  1  0.500000  0.889216  0.530119  1
  Ir  Ir32  1  0.000000  0.637545  0.322444  1
  Ir  Ir33  1  0.000000  0.362455  0.677556  1
  Ru  Ru34  1  0.000000  0.137945  0.178739  1
  Ru  Ru35  1  0.000000  0.862055  0.821261  1
