# generated using pymatgen
data_Ca4RuRh3O14
_symmetry_space_group_name_H-M   'P 1'
_cell_length_a   7.25822678
_cell_length_b   7.25822531
_cell_length_c   7.29919833
_cell_angle_alpha   60.18550482
_cell_angle_beta   60.18551354
_cell_angle_gamma   60.00000095
_symmetry_Int_Tables_number   1
_chemical_formula_structural   Ca4RuRh3O14
_chemical_formula_sum   'Ca4 Ru1 Rh3 O14'
_cell_volume   272.66740410
_cell_formula_units_Z   1
loop_
 _symmetry_equiv_pos_site_id
 _symmetry_equiv_pos_as_xyz
  1  'x, y, z'
loop_
 _atom_site_type_symbol
 _atom_site_label
 _atom_site_symmetry_multiplicity
 _atom_site_fract_x
 _atom_site_fract_y
 _atom_site_fract_z
 _atom_site_occupancy
  Ca  Ca0  1  0.625000  0.125000  0.625000  1
  Ca  Ca1  1  0.625000  0.625000  0.125000  1
  Ca  Ca2  1  0.125000  0.625000  0.625000  1
  Ca  Ca3  1  0.625000  0.625000  0.625000  1
  Ru  Ru4  1  0.125000  0.125000  0.625000  1
  Rh  Rh5  1  0.625000  0.125000  0.125000  1
  Rh  Rh6  1  0.125000  0.625000  0.125000  1
  Rh  Rh7  1  0.125000  0.125000  0.125000  1
  O  O8  1  0.195515  0.195515  0.800462  1
  O  O9  1  0.198144  0.799528  0.202799  1
  O  O10  1  0.450472  0.051856  0.047201  1
  O  O11  1  0.195515  0.808508  0.800462  1
  O  O12  1  0.054485  0.441492  0.449538  1
  O  O13  1  0.799528  0.799528  0.202799  1
  O  O14  1  0.450472  0.450472  0.047201  1
  O  O15  1  0.499839  0.499839  0.500483  1
  O  O16  1  0.054485  0.054485  0.449538  1
  O  O17  1  0.441492  0.054485  0.449538  1
  O  O18  1  0.051856  0.450472  0.047201  1
  O  O19  1  0.750161  0.750161  0.749517  1
  O  O20  1  0.808508  0.195515  0.800462  1
  O  O21  1  0.799528  0.198144  0.202799  1
