# generated using pymatgen
data_Sm2Dy3Tm3(Si3Rh)4
_symmetry_space_group_name_H-M   'P 1'
_cell_length_a   8.17421800
_cell_length_b   8.17421798
_cell_length_c   7.93430700
_cell_angle_alpha   90.00000000
_cell_angle_beta   90.00000000
_cell_angle_gamma   119.99999198
_symmetry_Int_Tables_number   1
_chemical_formula_structural   Sm2Dy3Tm3(Si3Rh)4
_chemical_formula_sum   'Sm2 Dy3 Tm3 Si12 Rh4'
_cell_volume   459.12622273
_cell_formula_units_Z   1
loop_
 _symmetry_equiv_pos_site_id
 _symmetry_equiv_pos_as_xyz
  1  'x, y, z'
loop_
 _atom_site_type_symbol
 _atom_site_label
 _atom_site_symmetry_multiplicity
 _atom_site_fract_x
 _atom_site_fract_y
 _atom_site_fract_z
 _atom_site_occupancy
  Sm  Sm0  1  0.000000  0.000000  0.250000  1
  Sm  Sm1  1  0.000000  0.000000  0.750000  1
  Dy  Dy2  1  0.491512  0.508488  0.750000  1
  Dy  Dy3  1  0.491512  0.983024  0.750000  1
  Dy  Dy4  1  0.016976  0.508488  0.750000  1
  Tm  Tm5  1  0.508697  0.491303  0.250000  1
  Tm  Tm6  1  0.508697  0.017394  0.250000  1
  Tm  Tm7  1  0.982606  0.491303  0.250000  1
  Si  Si8  1  0.167962  0.832038  0.499284  1
  Si  Si9  1  0.167962  0.335926  0.499284  1
  Si  Si10  1  0.664074  0.832038  0.499284  1
  Si  Si11  1  0.832233  0.167767  0.497409  1
  Si  Si12  1  0.832233  0.664465  0.497409  1
  Si  Si13  1  0.335535  0.167767  0.497409  1
  Si  Si14  1  0.832233  0.167767  0.002591  1
  Si  Si15  1  0.832233  0.664465  0.002591  1
  Si  Si16  1  0.335535  0.167767  0.002591  1
  Si  Si17  1  0.167962  0.832038  0.000716  1
  Si  Si18  1  0.167962  0.335926  0.000716  1
  Si  Si19  1  0.664074  0.832038  0.000716  1
  Rh  Rh20  1  0.333333  0.666667  0.461849  1
  Rh  Rh21  1  0.666667  0.333333  0.530337  1
  Rh  Rh22  1  0.666667  0.333333  0.969663  1
  Rh  Rh23  1  0.333333  0.666667  0.038151  1
