# generated using pymatgen
data_DyEr7Mn(B8Os)3
_symmetry_space_group_name_H-M   'P 1'
_cell_length_a   3.61517100
_cell_length_b   9.09862207
_cell_length_c   11.47531600
_cell_angle_alpha   90.02743002
_cell_angle_beta   90.00000000
_cell_angle_gamma   90.00000000
_symmetry_Int_Tables_number   1
_chemical_formula_structural   DyEr7Mn(B8Os)3
_chemical_formula_sum   'Dy1 Er7 Mn1 B24 Os3'
_cell_volume   377.45838255
_cell_formula_units_Z   1
loop_
 _symmetry_equiv_pos_site_id
 _symmetry_equiv_pos_as_xyz
  1  'x, y, z'
loop_
 _atom_site_type_symbol
 _atom_site_label
 _atom_site_symmetry_multiplicity
 _atom_site_fract_x
 _atom_site_fract_y
 _atom_site_fract_z
 _atom_site_occupancy
  Dy  Dy0  1  0.000000  0.325104  0.412501  1
  Er  Er1  1  0.000000  0.676896  0.582132  1
  Er  Er2  1  0.000000  0.819941  0.088472  1
  Er  Er3  1  0.000000  0.178394  0.914995  1
  Er  Er4  1  0.000000  0.939355  0.371713  1
  Er  Er5  1  0.000000  0.056650  0.626957  1
  Er  Er6  1  0.000000  0.445953  0.130264  1
  Er  Er7  1  0.000000  0.557094  0.872676  1
  Mn  Mn8  1  0.000000  0.637712  0.320959  1
  B  B9  1  0.500000  0.554255  0.431698  1
  B  B10  1  0.500000  0.447261  0.566479  1
  B  B11  1  0.500000  0.053385  0.067053  1
  B  B12  1  0.500000  0.947012  0.933407  1
  B  B13  1  0.500000  0.746007  0.417813  1
  B  B14  1  0.500000  0.251859  0.580207  1
  B  B15  1  0.500000  0.249037  0.080847  1
  B  B16  1  0.500000  0.752044  0.920044  1
  B  B17  1  0.500000  0.789065  0.266528  1
  B  B18  1  0.500000  0.209069  0.733958  1
  B  B19  1  0.500000  0.291300  0.233963  1
  B  B20  1  0.500000  0.709134  0.765925  1
  B  B21  1  0.500000  0.631598  0.186978  1
  B  B22  1  0.500000  0.368877  0.814940  1
  B  B23  1  0.500000  0.130354  0.314345  1
  B  B24  1  0.500000  0.868522  0.684886  1
  B  B25  1  0.500000  0.981411  0.212776  1
  B  B26  1  0.500000  0.017936  0.787374  1
  B  B27  1  0.500000  0.485338  0.288052  1
  B  B28  1  0.500000  0.518017  0.712551  1
  B  B29  1  0.500000  0.606783  0.030012  1
  B  B30  1  0.500000  0.394120  0.971140  1
  B  B31  1  0.500000  0.105294  0.470233  1
  B  B32  1  0.500000  0.892877  0.529050  1
  Os  Os33  1  0.000000  0.362189  0.679508  1
  Os  Os34  1  0.000000  0.137267  0.178060  1
  Os  Os35  1  0.000000  0.862887  0.821502  1
