# generated using pymatgen
data_Sr4TaNb(MoO6)2
_symmetry_space_group_name_H-M   'P 1'
_cell_length_a   5.78821202
_cell_length_b   5.77648348
_cell_length_c   10.01483908
_cell_angle_alpha   54.67045253
_cell_angle_beta   90.00667159
_cell_angle_gamma   89.99910894
_symmetry_Int_Tables_number   1
_chemical_formula_structural   Sr4TaNb(MoO6)2
_chemical_formula_sum   'Sr4 Ta1 Nb1 Mo2 O12'
_cell_volume   273.18487713
_cell_formula_units_Z   1
loop_
 _symmetry_equiv_pos_site_id
 _symmetry_equiv_pos_as_xyz
  1  'x, y, z'
loop_
 _atom_site_type_symbol
 _atom_site_label
 _atom_site_symmetry_multiplicity
 _atom_site_fract_x
 _atom_site_fract_y
 _atom_site_fract_z
 _atom_site_occupancy
  Sr  Sr0  1  0.474395  0.245673  0.749951  1
  Sr  Sr1  1  0.525605  0.754327  0.250049  1
  Sr  Sr2  1  0.974490  0.754575  0.749831  1
  Sr  Sr3  1  0.025510  0.245425  0.250169  1
  Ta  Ta4  1  0.500000  0.500000  0.000000  1
  Nb  Nb5  1  0.000000  0.500000  0.500000  1
  Mo  Mo6  1  0.000000  0.000000  0.000000  1
  Mo  Mo7  1  0.500000  0.000000  0.500000  1
  O  O8  1  0.013980  0.323576  0.742109  1
  O  O9  1  0.986020  0.676424  0.257891  1
  O  O10  1  0.513907  0.675245  0.759411  1
  O  O11  1  0.486093  0.324755  0.240589  1
  O  O12  1  0.709041  0.805513  0.967072  1
  O  O13  1  0.290959  0.194487  0.032928  1
  O  O14  1  0.210317  0.192584  0.533090  1
  O  O15  1  0.789683  0.807416  0.466910  1
  O  O16  1  0.226131  0.742497  0.964813  1
  O  O17  1  0.773869  0.257503  0.035187  1
  O  O18  1  0.724400  0.256002  0.535371  1
  O  O19  1  0.275600  0.743998  0.464629  1
