# generated using pymatgen
data_YEr3CuPt3
_symmetry_space_group_name_H-M   'P 1'
_cell_length_a   4.51342300
_cell_length_b   5.54801227
_cell_length_c   6.95744507
_cell_angle_alpha   89.20505730
_cell_angle_beta   90.00000000
_cell_angle_gamma   90.00000000
_symmetry_Int_Tables_number   1
_chemical_formula_structural   YEr3CuPt3
_chemical_formula_sum   'Y1 Er3 Cu1 Pt3'
_cell_volume   174.20131740
_cell_formula_units_Z   1
loop_
 _symmetry_equiv_pos_site_id
 _symmetry_equiv_pos_as_xyz
  1  'x, y, z'
loop_
 _atom_site_type_symbol
 _atom_site_label
 _atom_site_symmetry_multiplicity
 _atom_site_fract_x
 _atom_site_fract_y
 _atom_site_fract_z
 _atom_site_occupancy
  Y  Y0  1  0.000000  0.640026  0.318108  1
  Er  Er1  1  0.000000  0.856533  0.819586  1
  Er  Er2  1  0.500000  0.364683  0.687959  1
  Er  Er3  1  0.500000  0.138759  0.175767  1
  Cu  Cu4  1  0.000000  0.137049  0.464330  1
  Pt  Pt5  1  0.000000  0.337817  0.954373  1
  Pt  Pt6  1  0.500000  0.869630  0.537019  1
  Pt  Pt7  1  0.500000  0.655505  0.042857  1
