# generated using pymatgen
data_Lu2Pa(SnIr)3
_symmetry_space_group_name_H-M   'P 1'
_cell_length_a   7.42442220
_cell_length_b   7.52589280
_cell_length_c   3.93263100
_cell_angle_alpha   90.00000000
_cell_angle_beta   90.00000000
_cell_angle_gamma   120.45314879
_symmetry_Int_Tables_number   1
_chemical_formula_structural   Lu2Pa(SnIr)3
_chemical_formula_sum   'Lu2 Pa1 Sn3 Ir3'
_cell_volume   189.42324172
_cell_formula_units_Z   1
loop_
 _symmetry_equiv_pos_site_id
 _symmetry_equiv_pos_as_xyz
  1  'x, y, z'
loop_
 _atom_site_type_symbol
 _atom_site_label
 _atom_site_symmetry_multiplicity
 _atom_site_fract_x
 _atom_site_fract_y
 _atom_site_fract_z
 _atom_site_occupancy
  Lu  Lu0  1  0.597330  0.598063  0.500000  1
  Lu  Lu1  1  0.402670  0.000733  0.500000  1
  Pa  Pa2  1  0.000000  0.412675  0.500000  1
  Sn  Sn3  1  0.000000  0.753936  0.000000  1
  Sn  Sn4  1  0.272212  0.258053  0.000000  1
  Sn  Sn5  1  0.727788  0.985841  0.000000  1
  Ir  Ir6  1  0.310532  0.645229  0.000000  1
  Ir  Ir7  1  0.689468  0.334697  0.000000  1
  Ir  Ir8  1  0.000000  0.010772  0.500000  1
