# generated using pymatgen
data_SmScFeB6
_symmetry_space_group_name_H-M   'P 1'
_cell_length_a   3.48388800
_cell_length_b   8.97994700
_cell_length_c   11.38129800
_cell_angle_alpha   90.00000000
_cell_angle_beta   90.00000000
_cell_angle_gamma   90.00000000
_symmetry_Int_Tables_number   1
_chemical_formula_structural   SmScFeB6
_chemical_formula_sum   'Sm4 Sc4 Fe4 B24'
_cell_volume   356.06538288
_cell_formula_units_Z   4
loop_
 _symmetry_equiv_pos_site_id
 _symmetry_equiv_pos_as_xyz
  1  'x, y, z'
loop_
 _atom_site_type_symbol
 _atom_site_label
 _atom_site_symmetry_multiplicity
 _atom_site_fract_x
 _atom_site_fract_y
 _atom_site_fract_z
 _atom_site_occupancy
  Sm  Sm0  1  0.000000  0.822610  0.085041  1
  Sm  Sm1  1  0.000000  0.177390  0.914959  1
  Sm  Sm2  1  0.000000  0.322610  0.414959  1
  Sm  Sm3  1  0.000000  0.677390  0.585041  1
  Sc  Sc4  1  0.000000  0.444621  0.128761  1
  Sc  Sc5  1  0.000000  0.555379  0.871239  1
  Sc  Sc6  1  0.000000  0.944621  0.371239  1
  Sc  Sc7  1  0.000000  0.055379  0.628761  1
  Fe  Fe8  1  0.000000  0.141661  0.183045  1
  Fe  Fe9  1  0.000000  0.858339  0.816955  1
  Fe  Fe10  1  0.000000  0.641661  0.316955  1
  Fe  Fe11  1  0.000000  0.358339  0.683045  1
  B  B12  1  0.500000  0.057663  0.071142  1
  B  B13  1  0.500000  0.942337  0.928858  1
  B  B14  1  0.500000  0.557663  0.428858  1
  B  B15  1  0.500000  0.442337  0.571142  1
  B  B16  1  0.500000  0.252492  0.084534  1
  B  B17  1  0.500000  0.747508  0.915466  1
  B  B18  1  0.500000  0.752492  0.415466  1
  B  B19  1  0.500000  0.247508  0.584534  1
  B  B20  1  0.500000  0.292003  0.234097  1
  B  B21  1  0.500000  0.707997  0.765903  1
  B  B22  1  0.500000  0.792003  0.265903  1
  B  B23  1  0.500000  0.207997  0.734097  1
  B  B24  1  0.500000  0.129145  0.316152  1
  B  B25  1  0.500000  0.870855  0.683848  1
  B  B26  1  0.500000  0.629145  0.183848  1
  B  B27  1  0.500000  0.370855  0.816152  1
  B  B28  1  0.500000  0.485948  0.285282  1
  B  B29  1  0.500000  0.514052  0.714718  1
  B  B30  1  0.500000  0.985948  0.214718  1
  B  B31  1  0.500000  0.014052  0.785282  1
  B  B32  1  0.500000  0.098094  0.473962  1
  B  B33  1  0.500000  0.901906  0.526038  1
  B  B34  1  0.500000  0.598094  0.026038  1
  B  B35  1  0.500000  0.401906  0.973962  1
