# generated using pymatgen
data_Lu6Zr4TlSb5
_symmetry_space_group_name_H-M   'P 1'
_cell_length_a   8.71500400
_cell_length_b   8.71500473
_cell_length_c   5.97111100
_cell_angle_alpha   90.00000000
_cell_angle_beta   90.00000000
_cell_angle_gamma   120.15845108
_symmetry_Int_Tables_number   1
_chemical_formula_structural   Lu6Zr4TlSb5
_chemical_formula_sum   'Lu6 Zr4 Tl1 Sb5'
_cell_volume   392.12574569
_cell_formula_units_Z   1
loop_
 _symmetry_equiv_pos_site_id
 _symmetry_equiv_pos_as_xyz
  1  'x, y, z'
loop_
 _atom_site_type_symbol
 _atom_site_label
 _atom_site_symmetry_multiplicity
 _atom_site_fract_x
 _atom_site_fract_y
 _atom_site_fract_z
 _atom_site_occupancy
  Lu  Lu0  1  0.755244  0.755244  0.750000  1
  Lu  Lu1  1  0.247831  0.002749  0.750000  1
  Lu  Lu2  1  0.002749  0.247831  0.750000  1
  Lu  Lu3  1  0.241952  0.241952  0.250000  1
  Lu  Lu4  1  0.751387  0.996763  0.250000  1
  Lu  Lu5  1  0.996763  0.751387  0.250000  1
  Zr  Zr6  1  0.668490  0.332964  0.999478  1
  Zr  Zr7  1  0.332964  0.668490  0.999478  1
  Zr  Zr8  1  0.332964  0.668490  0.500522  1
  Zr  Zr9  1  0.668490  0.332964  0.500522  1
  Tl  Tl10  1  0.396566  0.396566  0.750000  1
  Sb  Sb11  1  0.608275  0.001015  0.750000  1
  Sb  Sb12  1  0.001015  0.608275  0.750000  1
  Sb  Sb13  1  0.601820  0.601820  0.250000  1
  Sb  Sb14  1  0.393267  0.000222  0.250000  1
  Sb  Sb15  1  0.000222  0.393267  0.250000  1
