# generated using pymatgen
data_Th2Ge(AsRh2)6
_symmetry_space_group_name_H-M   'P 1'
_cell_length_a   10.05350200
_cell_length_b   10.05350275
_cell_length_c   3.98150800
_cell_angle_alpha   90.00000000
_cell_angle_beta   90.00000000
_cell_angle_gamma   119.99999752
_symmetry_Int_Tables_number   1
_chemical_formula_structural   Th2Ge(AsRh2)6
_chemical_formula_sum   'Th2 Ge1 As6 Rh12'
_cell_volume   348.50820332
_cell_formula_units_Z   1
loop_
 _symmetry_equiv_pos_site_id
 _symmetry_equiv_pos_as_xyz
  1  'x, y, z'
loop_
 _atom_site_type_symbol
 _atom_site_label
 _atom_site_symmetry_multiplicity
 _atom_site_fract_x
 _atom_site_fract_y
 _atom_site_fract_z
 _atom_site_occupancy
  Th  Th0  1  0.333333  0.666667  0.752335  1
  Th  Th1  1  0.000000  0.000000  0.255243  1
  Ge  Ge2  1  0.666667  0.333333  0.525694  1
  As  As3  1  0.953010  0.220764  0.754262  1
  As  As4  1  0.779236  0.732246  0.754262  1
  As  As5  1  0.267754  0.046990  0.754262  1
  As  As6  1  0.379506  0.445014  0.253491  1
  As  As7  1  0.554986  0.934492  0.253491  1
  As  As8  1  0.065508  0.620494  0.253491  1
  Rh  Rh9  1  0.736707  0.952309  0.754264  1
  Rh  Rh10  1  0.047691  0.784398  0.754264  1
  Rh  Rh11  1  0.215602  0.263293  0.754264  1
  Rh  Rh12  1  0.596545  0.714039  0.253162  1
  Rh  Rh13  1  0.285961  0.882508  0.253162  1
  Rh  Rh14  1  0.117492  0.403455  0.253162  1
  Rh  Rh15  1  0.935434  0.453723  0.755292  1
  Rh  Rh16  1  0.546277  0.481712  0.755292  1
  Rh  Rh17  1  0.518288  0.064566  0.755292  1
  Rh  Rh18  1  0.401183  0.214142  0.253165  1
  Rh  Rh19  1  0.785858  0.187041  0.253165  1
  Rh  Rh20  1  0.812959  0.598817  0.253165  1
