# generated using pymatgen
data_NaLa2Pr4RhBr12
_symmetry_space_group_name_H-M   'P 1'
_cell_length_a   9.61429932
_cell_length_b   9.62021539
_cell_length_c   9.76824720
_cell_angle_alpha   107.10829143
_cell_angle_beta   107.54873577
_cell_angle_gamma   107.07640165
_symmetry_Int_Tables_number   1
_chemical_formula_structural   NaLa2Pr4RhBr12
_chemical_formula_sum   'Na1 La2 Pr4 Rh1 Br12'
_cell_volume   747.34071463
_cell_formula_units_Z   1
loop_
 _symmetry_equiv_pos_site_id
 _symmetry_equiv_pos_as_xyz
  1  'x, y, z'
loop_
 _atom_site_type_symbol
 _atom_site_label
 _atom_site_symmetry_multiplicity
 _atom_site_fract_x
 _atom_site_fract_y
 _atom_site_fract_z
 _atom_site_occupancy
  Na  Na0  1  0.500179  0.500344  0.500539  1
  La  La1  1  0.110936  0.317138  0.029927  1
  La  La2  1  0.319483  0.031004  0.112037  1
  Pr  Pr3  1  0.031693  0.116696  0.330407  1
  Pr  Pr4  1  0.967559  0.881423  0.668723  1
  Pr  Pr5  1  0.683296  0.969182  0.888556  1
  Pr  Pr6  1  0.888058  0.684944  0.969566  1
  Rh  Rh7  1  0.004589  0.003419  0.000976  1
  Br  Br8  1  0.216036  0.681853  0.071952  1
  Br  Br9  1  0.458541  0.376210  0.160322  1
  Br  Br10  1  0.684462  0.071570  0.214892  1
  Br  Br11  1  0.926957  0.781255  0.312386  1
  Br  Br12  1  0.156795  0.453332  0.372187  1
  Br  Br13  1  0.371410  0.157080  0.453912  1
  Br  Br14  1  0.627782  0.844064  0.548900  1
  Br  Br15  1  0.843161  0.546018  0.630923  1
  Br  Br16  1  0.071858  0.215986  0.684172  1
  Br  Br17  1  0.315196  0.927290  0.782118  1
  Br  Br18  1  0.543989  0.626574  0.841354  1
  Br  Br19  1  0.778022  0.314621  0.926154  1
