# generated using pymatgen
data_Dy2UFe2Si7
_symmetry_space_group_name_H-M   'P 1'
_cell_length_a   12.20863013
_cell_length_b   12.20863086
_cell_length_c   4.03324300
_cell_angle_alpha   90.00000000
_cell_angle_beta   90.00000000
_cell_angle_gamma   160.82552265
_symmetry_Int_Tables_number   1
_chemical_formula_structural   Dy2UFe2Si7
_chemical_formula_sum   'Dy2 U1 Fe2 Si7'
_cell_volume   197.44774702
_cell_formula_units_Z   1
loop_
 _symmetry_equiv_pos_site_id
 _symmetry_equiv_pos_as_xyz
  1  'x, y, z'
loop_
 _atom_site_type_symbol
 _atom_site_label
 _atom_site_symmetry_multiplicity
 _atom_site_fract_x
 _atom_site_fract_y
 _atom_site_fract_z
 _atom_site_occupancy
  Dy  Dy0  1  0.315690  0.684310  0.000000  1
  Dy  Dy1  1  0.684310  0.315690  0.000000  1
  U  U2  1  0.000000  0.000000  0.500000  1
  Fe  Fe3  1  0.125364  0.874636  0.500000  1
  Fe  Fe4  1  0.874636  0.125364  0.500000  1
  Si  Si5  1  0.221320  0.778680  0.500000  1
  Si  Si6  1  0.778680  0.221320  0.500000  1
  Si  Si7  1  0.085683  0.914317  0.000000  1
  Si  Si8  1  0.914317  0.085683  0.000000  1
  Si  Si9  1  0.413859  0.586141  0.500000  1
  Si  Si10  1  0.500000  0.500000  0.000000  1
  Si  Si11  1  0.586141  0.413859  0.500000  1
