# generated using pymatgen
data_Sc5Si6P6IrRh18
_symmetry_space_group_name_H-M   'P 1'
_cell_length_a   12.63137900
_cell_length_b   12.63137866
_cell_length_c   3.87238700
_cell_angle_alpha   90.00000000
_cell_angle_beta   90.00000000
_cell_angle_gamma   119.99999826
_symmetry_Int_Tables_number   1
_chemical_formula_structural   Sc5Si6P6IrRh18
_chemical_formula_sum   'Sc5 Si6 P6 Ir1 Rh18'
_cell_volume   535.07038408
_cell_formula_units_Z   1
loop_
 _symmetry_equiv_pos_site_id
 _symmetry_equiv_pos_as_xyz
  1  'x, y, z'
loop_
 _atom_site_type_symbol
 _atom_site_label
 _atom_site_symmetry_multiplicity
 _atom_site_fract_x
 _atom_site_fract_y
 _atom_site_fract_z
 _atom_site_occupancy
  Sc  Sc0  1  0.333333  0.666667  0.000000  1
  Sc  Sc1  1  0.666667  0.333333  0.000000  1
  Sc  Sc2  1  0.817688  0.000000  0.500000  1
  Sc  Sc3  1  0.000000  0.817688  0.500000  1
  Sc  Sc4  1  0.182312  0.182312  0.500000  1
  Si  Si5  1  0.165149  0.482396  0.500000  1
  Si  Si6  1  0.517604  0.682752  0.500000  1
  Si  Si7  1  0.317248  0.834851  0.500000  1
  Si  Si8  1  0.682752  0.517604  0.500000  1
  Si  Si9  1  0.834851  0.317248  0.500000  1
  Si  Si10  1  0.482396  0.165149  0.500000  1
  P  P11  1  0.177723  0.000000  0.000000  1
  P  P12  1  0.000000  0.177723  0.000000  1
  P  P13  1  0.822277  0.822277  0.000000  1
  P  P14  1  0.635797  0.000000  0.000000  1
  P  P15  1  0.000000  0.635797  0.000000  1
  P  P16  1  0.364203  0.364203  0.000000  1
  Ir  Ir17  1  0.000000  0.000000  0.000000  1
  Rh  Rh18  1  0.450807  0.000000  0.000000  1
  Rh  Rh19  1  0.000000  0.450807  0.000000  1
  Rh  Rh20  1  0.549193  0.549193  0.000000  1
  Rh  Rh21  1  0.356129  0.484592  0.500000  1
  Rh  Rh22  1  0.515408  0.871537  0.500000  1
  Rh  Rh23  1  0.128463  0.643871  0.500000  1
  Rh  Rh24  1  0.871537  0.515408  0.500000  1
  Rh  Rh25  1  0.643871  0.128463  0.500000  1
  Rh  Rh26  1  0.484592  0.356129  0.500000  1
  Rh  Rh27  1  0.180888  0.370368  0.000000  1
  Rh  Rh28  1  0.629632  0.810521  0.000000  1
  Rh  Rh29  1  0.189479  0.819112  0.000000  1
  Rh  Rh30  1  0.810521  0.629632  0.000000  1
  Rh  Rh31  1  0.819112  0.189479  0.000000  1
  Rh  Rh32  1  0.370368  0.180888  0.000000  1
  Rh  Rh33  1  0.275742  0.000000  0.500000  1
  Rh  Rh34  1  0.000000  0.275742  0.500000  1
  Rh  Rh35  1  0.724258  0.724258  0.500000  1
