# generated using pymatgen
data_Y11Lu(Si3Ir)4
_symmetry_space_group_name_H-M   'P 1'
_cell_length_a   4.23419100
_cell_length_b   10.66676200
_cell_length_c   12.30996576
_cell_angle_alpha   89.88911975
_cell_angle_beta   90.00000000
_cell_angle_gamma   90.00000000
_symmetry_Int_Tables_number   1
_chemical_formula_structural   Y11Lu(Si3Ir)4
_chemical_formula_sum   'Y11 Lu1 Si12 Ir4'
_cell_volume   555.97988752
_cell_formula_units_Z   1
loop_
 _symmetry_equiv_pos_site_id
 _symmetry_equiv_pos_as_xyz
  1  'x, y, z'
loop_
 _atom_site_type_symbol
 _atom_site_label
 _atom_site_symmetry_multiplicity
 _atom_site_fract_x
 _atom_site_fract_y
 _atom_site_fract_z
 _atom_site_occupancy
  Y  Y0  1  0.250000  0.880134  0.019613  1
  Y  Y1  1  0.250000  0.620207  0.520188  1
  Y  Y2  1  0.750000  0.120516  0.978889  1
  Y  Y3  1  0.750000  0.378464  0.480600  1
  Y  Y4  1  0.250000  0.920583  0.603828  1
  Y  Y5  1  0.250000  0.580507  0.103364  1
  Y  Y6  1  0.750000  0.080517  0.397413  1
  Y  Y7  1  0.750000  0.418665  0.895916  1
  Y  Y8  1  0.250000  0.659156  0.800743  1
  Y  Y9  1  0.250000  0.840907  0.300632  1
  Y  Y10  1  0.750000  0.340651  0.199274  1
  Lu  Lu11  1  0.750000  0.160479  0.700496  1
  Si  Si12  1  0.250000  0.011901  0.820247  1
  Si  Si13  1  0.250000  0.489683  0.321778  1
  Si  Si14  1  0.750000  0.990323  0.178715  1
  Si  Si15  1  0.750000  0.510162  0.678215  1
  Si  Si16  1  0.250000  0.245816  0.839224  1
  Si  Si17  1  0.250000  0.252543  0.341038  1
  Si  Si18  1  0.750000  0.752998  0.159340  1
  Si  Si19  1  0.750000  0.747131  0.659384  1
  Si  Si20  1  0.250000  0.199558  0.546595  1
  Si  Si21  1  0.250000  0.298751  0.043059  1
  Si  Si22  1  0.750000  0.798927  0.456770  1
  Si  Si23  1  0.750000  0.701255  0.956336  1
  Ir  Ir24  1  0.250000  0.387459  0.680960  1
  Ir  Ir25  1  0.250000  0.110501  0.181106  1
  Ir  Ir26  1  0.750000  0.610662  0.318971  1
  Ir  Ir27  1  0.750000  0.891543  0.817306  1
