# generated using pymatgen
data_Nd2ThP3
_symmetry_space_group_name_H-M   'P 1'
_cell_length_a   7.21171610
_cell_length_b   7.21171638
_cell_length_c   7.21171694
_cell_angle_alpha   146.48528726
_cell_angle_beta   132.03308630
_cell_angle_gamma   59.78118977
_symmetry_Int_Tables_number   1
_chemical_formula_structural   Nd2ThP3
_chemical_formula_sum   'Nd2 Th1 P3'
_cell_volume   152.43665617
_cell_formula_units_Z   1
loop_
 _symmetry_equiv_pos_site_id
 _symmetry_equiv_pos_as_xyz
  1  'x, y, z'
loop_
 _atom_site_type_symbol
 _atom_site_label
 _atom_site_symmetry_multiplicity
 _atom_site_fract_x
 _atom_site_fract_y
 _atom_site_fract_z
 _atom_site_occupancy
  Nd  Nd0  1  0.667351  0.667351  0.000000  1
  Nd  Nd1  1  0.332649  0.332649  0.000000  1
  Th  Th2  1  0.000000  0.000000  0.000000  1
  P  P3  1  0.500000  0.000000  0.500000  1
  P  P4  1  0.163054  0.663054  0.500000  1
  P  P5  1  0.836946  0.336946  0.500000  1
