# generated using pymatgen
data_EuGa2Pd2Rh
_symmetry_space_group_name_H-M   'P 1'
_cell_length_a   5.70155600
_cell_length_b   5.73967311
_cell_length_c   3.94310900
_cell_angle_alpha   90.00000000
_cell_angle_beta   90.00000000
_cell_angle_gamma   119.78057143
_symmetry_Int_Tables_number   1
_chemical_formula_structural   EuGa2Pd2Rh
_chemical_formula_sum   'Eu1 Ga2 Pd2 Rh1'
_cell_volume   111.99689919
_cell_formula_units_Z   1
loop_
 _symmetry_equiv_pos_site_id
 _symmetry_equiv_pos_as_xyz
  1  'x, y, z'
loop_
 _atom_site_type_symbol
 _atom_site_label
 _atom_site_symmetry_multiplicity
 _atom_site_fract_x
 _atom_site_fract_y
 _atom_site_fract_z
 _atom_site_occupancy
  Eu  Eu0  1  0.000000  0.000000  0.000000  1
  Ga  Ga1  1  0.339314  0.678628  0.000000  1
  Ga  Ga2  1  0.660686  0.321372  0.000000  1
  Pd  Pd3  1  0.000000  0.500000  0.500000  1
  Pd  Pd4  1  0.500000  0.500000  0.500000  1
  Rh  Rh5  1  0.500000  0.000000  0.500000  1
