# generated using pymatgen
data_Er6Lu4GaSb5
_symmetry_space_group_name_H-M   'P 1'
_cell_length_a   8.78842000
_cell_length_b   8.79239451
_cell_length_c   6.27205500
_cell_angle_alpha   90.00000000
_cell_angle_beta   90.00000000
_cell_angle_gamma   119.98504779
_symmetry_Int_Tables_number   1
_chemical_formula_structural   Er6Lu4GaSb5
_chemical_formula_sum   'Er6 Lu4 Ga1 Sb5'
_cell_volume   419.78206012
_cell_formula_units_Z   1
loop_
 _symmetry_equiv_pos_site_id
 _symmetry_equiv_pos_as_xyz
  1  'x, y, z'
loop_
 _atom_site_type_symbol
 _atom_site_label
 _atom_site_symmetry_multiplicity
 _atom_site_fract_x
 _atom_site_fract_y
 _atom_site_fract_z
 _atom_site_occupancy
  Er  Er0  1  0.011093  0.764643  0.750000  1
  Er  Er1  1  0.999522  0.243566  0.250000  1
  Er  Er2  1  0.755956  0.756434  0.250000  1
  Er  Er3  1  0.751018  0.000000  0.750000  1
  Er  Er4  1  0.246452  0.235357  0.750000  1
  Er  Er5  1  0.244515  0.000000  0.250000  1
  Lu  Lu6  1  0.335021  0.675597  0.501872  1
  Lu  Lu7  1  0.659424  0.324403  0.998128  1
  Lu  Lu8  1  0.659424  0.324403  0.501872  1
  Lu  Lu9  1  0.335021  0.675597  0.998128  1
  Ga  Ga10  1  0.394605  0.000000  0.750000  1
  Sb  Sb11  1  0.390454  0.393874  0.250000  1
  Sb  Sb12  1  0.996580  0.606126  0.250000  1
  Sb  Sb13  1  0.002159  0.391318  0.750000  1
  Sb  Sb14  1  0.610839  0.608682  0.750000  1
  Sb  Sb15  1  0.607916  0.000000  0.250000  1
