# generated using pymatgen
data_ReTc2Te4Br
_symmetry_space_group_name_H-M   'P 1'
_cell_length_a   12.58446200
_cell_length_b   7.06821008
_cell_length_c   11.91568210
_cell_angle_alpha   66.98674427
_cell_angle_beta   90.00000000
_cell_angle_gamma   90.00000000
_symmetry_Int_Tables_number   1
_chemical_formula_structural   ReTc2Te4Br
_chemical_formula_sum   'Re4 Tc8 Te16 Br4'
_cell_volume   975.54302958
_cell_formula_units_Z   4
loop_
 _symmetry_equiv_pos_site_id
 _symmetry_equiv_pos_as_xyz
  1  'x, y, z'
loop_
 _atom_site_type_symbol
 _atom_site_label
 _atom_site_symmetry_multiplicity
 _atom_site_fract_x
 _atom_site_fract_y
 _atom_site_fract_z
 _atom_site_occupancy
  Re  Re0  1  0.574665  0.020073  0.357425  1
  Re  Re1  1  0.925335  0.020073  0.857425  1
  Re  Re2  1  0.425335  0.979927  0.642575  1
  Re  Re3  1  0.074665  0.979927  0.142575  1
  Tc  Tc4  1  0.366326  0.975210  0.427714  1
  Tc  Tc5  1  0.133674  0.975210  0.927714  1
  Tc  Tc6  1  0.633674  0.024790  0.572286  1
  Tc  Tc7  1  0.866326  0.024790  0.072286  1
  Tc  Tc8  1  0.515024  0.710616  0.561732  1
  Tc  Tc9  1  0.984976  0.710616  0.061732  1
  Tc  Tc10  1  0.484976  0.289384  0.438268  1
  Tc  Tc11  1  0.015024  0.289384  0.938268  1
  Te  Te12  1  0.453922  0.719483  0.333171  1
  Te  Te13  1  0.046078  0.719483  0.833171  1
  Te  Te14  1  0.546078  0.280517  0.666829  1
  Te  Te15  1  0.953922  0.280517  0.166829  1
  Te  Te16  1  0.311203  0.661689  0.637112  1
  Te  Te17  1  0.188797  0.661689  0.137112  1
  Te  Te18  1  0.688797  0.338311  0.362888  1
  Te  Te19  1  0.811203  0.338311  0.862888  1
  Te  Te20  1  0.426433  0.287081  0.220156  1
  Te  Te21  1  0.073567  0.287081  0.720156  1
  Te  Te22  1  0.573567  0.712919  0.779844  1
  Te  Te23  1  0.926433  0.712919  0.279844  1
  Te  Te24  1  0.720644  0.749812  0.495074  1
  Te  Te25  1  0.779356  0.749812  0.995074  1
  Te  Te26  1  0.279356  0.250188  0.504926  1
  Te  Te27  1  0.220644  0.250188  0.004926  1
  Br  Br28  1  0.166488  0.927562  0.356035  1
  Br  Br29  1  0.333512  0.927562  0.856035  1
  Br  Br30  1  0.833512  0.072438  0.643965  1
  Br  Br31  1  0.666488  0.072438  0.143965  1
