# generated using pymatgen
data_ScZn2SiRh4
_symmetry_space_group_name_H-M   'P 1'
_cell_length_a   6.06347300
_cell_length_b   6.06358800
_cell_length_c   6.18941800
_cell_angle_alpha   90.00000000
_cell_angle_beta   90.00000000
_cell_angle_gamma   90.00000000
_symmetry_Int_Tables_number   1
_chemical_formula_structural   ScZn2SiRh4
_chemical_formula_sum   'Sc2 Zn4 Si2 Rh8'
_cell_volume   227.56263108
_cell_formula_units_Z   2
loop_
 _symmetry_equiv_pos_site_id
 _symmetry_equiv_pos_as_xyz
  1  'x, y, z'
loop_
 _atom_site_type_symbol
 _atom_site_label
 _atom_site_symmetry_multiplicity
 _atom_site_fract_x
 _atom_site_fract_y
 _atom_site_fract_z
 _atom_site_occupancy
  Sc  Sc0  1  0.749941  0.250000  0.499998  1
  Sc  Sc1  1  0.250057  0.750000  0.500001  1
  Zn  Zn2  1  0.249969  0.250000  0.000000  1
  Zn  Zn3  1  0.750031  0.750000  0.000000  1
  Zn  Zn4  1  0.250066  0.250000  0.499996  1
  Zn  Zn5  1  0.749935  0.750000  0.500004  1
  Si  Si6  1  0.750066  0.250000  0.000000  1
  Si  Si7  1  0.249932  0.750000  0.000000  1
  Rh  Rh8  1  0.499999  0.000000  0.231355  1
  Rh  Rh9  1  0.499999  0.499996  0.231355  1
  Rh  Rh10  1  0.000000  0.000000  0.231417  1
  Rh  Rh11  1  0.000000  0.500004  0.231417  1
  Rh  Rh12  1  0.000000  0.000000  0.768583  1
  Rh  Rh13  1  0.000000  0.499996  0.768583  1
  Rh  Rh14  1  0.500001  0.000000  0.768645  1
  Rh  Rh15  1  0.500001  0.500004  0.768645  1
