# generated using pymatgen
data_Ba4YAuO8
_symmetry_space_group_name_H-M   'P 1'
_cell_length_a   7.46535639
_cell_length_b   7.46535511
_cell_length_c   5.99580800
_cell_angle_alpha   90.00000000
_cell_angle_beta   90.00000000
_cell_angle_gamma   132.70769521
_symmetry_Int_Tables_number   1
_chemical_formula_structural   Ba4YAuO8
_chemical_formula_sum   'Ba4 Y1 Au1 O8'
_cell_volume   245.54538413
_cell_formula_units_Z   1
loop_
 _symmetry_equiv_pos_site_id
 _symmetry_equiv_pos_as_xyz
  1  'x, y, z'
loop_
 _atom_site_type_symbol
 _atom_site_label
 _atom_site_symmetry_multiplicity
 _atom_site_fract_x
 _atom_site_fract_y
 _atom_site_fract_z
 _atom_site_occupancy
  Ba  Ba0  1  0.353669  0.646331  0.000000  1
  Ba  Ba1  1  0.853620  0.146380  0.500000  1
  Ba  Ba2  1  0.146380  0.853620  0.500000  1
  Ba  Ba3  1  0.646331  0.353669  0.000000  1
  Y  Y4  1  0.000000  0.000000  0.000000  1
  Au  Au5  1  0.500000  0.500000  0.500000  1
  O  O6  1  0.258412  0.258412  0.734514  1
  O  O7  1  0.741588  0.741588  0.265486  1
  O  O8  1  0.741588  0.741588  0.734514  1
  O  O9  1  0.258412  0.258412  0.265486  1
  O  O10  1  0.165597  0.834403  0.000000  1
  O  O11  1  0.653802  0.346198  0.500000  1
  O  O12  1  0.346198  0.653802  0.500000  1
  O  O13  1  0.834403  0.165597  0.000000  1
