# generated using pymatgen
data_VZn2(GaCo2)3
_symmetry_space_group_name_H-M   'P 1'
_cell_length_a   4.05316100
_cell_length_b   5.78908000
_cell_length_c   12.13656600
_cell_angle_alpha   90.00000000
_cell_angle_beta   90.00000003
_cell_angle_gamma   90.00000000
_symmetry_Int_Tables_number   1
_chemical_formula_structural   VZn2(GaCo2)3
_chemical_formula_sum   'V2 Zn4 Ga6 Co12'
_cell_volume   284.77327401
_cell_formula_units_Z   2
loop_
 _symmetry_equiv_pos_site_id
 _symmetry_equiv_pos_as_xyz
  1  'x, y, z'
loop_
 _atom_site_type_symbol
 _atom_site_label
 _atom_site_symmetry_multiplicity
 _atom_site_fract_x
 _atom_site_fract_y
 _atom_site_fract_z
 _atom_site_occupancy
  V  V0  1  0.000000  0.500000  0.997270  1
  V  V1  1  0.499997  0.000000  0.169407  1
  Zn  Zn2  1  0.000003  0.500000  0.332713  1
  Zn  Zn3  1  0.500000  0.000000  0.499837  1
  Zn  Zn4  1  0.999998  0.500000  0.666835  1
  Zn  Zn5  1  0.500002  0.000000  0.833951  1
  Ga  Ga6  1  0.000001  0.000000  0.999810  1
  Ga  Ga7  1  0.499997  0.500000  0.166912  1
  Ga  Ga8  1  0.000000  0.000000  0.334219  1
  Ga  Ga9  1  0.500000  0.500000  0.501439  1
  Ga  Ga10  1  0.999998  0.000000  0.665233  1
  Ga  Ga11  1  0.499999  0.500000  0.832382  1
  Co  Co12  1  0.500000  0.254580  0.003371  1
  Co  Co13  1  0.500000  0.745421  0.003371  1
  Co  Co14  1  0.000001  0.245314  0.163338  1
  Co  Co15  1  0.000001  0.754685  0.163338  1
  Co  Co16  1  0.500007  0.245666  0.328599  1
  Co  Co17  1  0.500007  0.754333  0.328599  1
  Co  Co18  1  0.000000  0.251208  0.498770  1
  Co  Co19  1  0.000000  0.748791  0.498770  1
  Co  Co20  1  0.499993  0.248794  0.667895  1
  Co  Co21  1  0.499993  0.751205  0.667895  1
  Co  Co22  1  0.000000  0.254257  0.838022  1
  Co  Co23  1  0.000000  0.745742  0.838022  1
