# generated using pymatgen
data_NaSr4(MnAs)10
_symmetry_space_group_name_H-M   'P 1'
_cell_length_a   8.62396100
_cell_length_b   8.84582085
_cell_length_c   8.62396100
_cell_angle_alpha   60.82625369
_cell_angle_beta   90.00000000
_cell_angle_gamma   60.82625369
_symmetry_Int_Tables_number   1
_chemical_formula_structural   NaSr4(MnAs)10
_chemical_formula_sum   'Na1 Sr4 Mn10 As10'
_cell_volume   476.57872115
_cell_formula_units_Z   1
loop_
 _symmetry_equiv_pos_site_id
 _symmetry_equiv_pos_as_xyz
  1  'x, y, z'
loop_
 _atom_site_type_symbol
 _atom_site_label
 _atom_site_symmetry_multiplicity
 _atom_site_fract_x
 _atom_site_fract_y
 _atom_site_fract_z
 _atom_site_occupancy
  Na  Na0  1  0.000000  0.000000  0.000000  1
  Sr  Sr1  1  0.197303  0.000000  0.605295  1
  Sr  Sr2  1  0.394705  0.000000  0.197303  1
  Sr  Sr3  1  0.605295  0.000000  0.802697  1
  Sr  Sr4  1  0.802697  0.000000  0.394705  1
  Mn  Mn5  1  0.950125  0.500135  0.850214  1
  Mn  Mn6  1  0.149786  0.499865  0.450260  1
  Mn  Mn7  1  0.350349  0.499865  0.049875  1
  Mn  Mn8  1  0.549740  0.500135  0.649651  1
  Mn  Mn9  1  0.750000  0.500000  0.250000  1
  Mn  Mn10  1  0.850214  0.500135  0.549740  1
  Mn  Mn11  1  0.049875  0.499865  0.149786  1
  Mn  Mn12  1  0.250000  0.500000  0.750000  1
  Mn  Mn13  1  0.450260  0.499865  0.350349  1
  Mn  Mn14  1  0.649651  0.500135  0.950125  1
  As  As15  1  0.163010  0.273666  0.763799  1
  As  As16  1  0.363260  0.273480  0.363260  1
  As  As17  1  0.563322  0.273666  0.962533  1
  As  As18  1  0.763799  0.273666  0.563322  1
  As  As19  1  0.962533  0.273666  0.163010  1
  As  As20  1  0.636740  0.726520  0.636740  1
  As  As21  1  0.836990  0.726334  0.236201  1
  As  As22  1  0.037466  0.726334  0.836990  1
  As  As23  1  0.236201  0.726334  0.436678  1
  As  As24  1  0.436678  0.726334  0.037466  1
