# generated using pymatgen
data_Tb2LuMg3Si2Au
_symmetry_space_group_name_H-M   'P 1'
_cell_length_a   7.25592000
_cell_length_b   7.21671331
_cell_length_c   4.29613800
_cell_angle_alpha   90.00000000
_cell_angle_beta   90.00000000
_cell_angle_gamma   120.17987764
_symmetry_Int_Tables_number   1
_chemical_formula_structural   Tb2LuMg3Si2Au
_chemical_formula_sum   'Tb2 Lu1 Mg3 Si2 Au1'
_cell_volume   194.46916490
_cell_formula_units_Z   1
loop_
 _symmetry_equiv_pos_site_id
 _symmetry_equiv_pos_as_xyz
  1  'x, y, z'
loop_
 _atom_site_type_symbol
 _atom_site_label
 _atom_site_symmetry_multiplicity
 _atom_site_fract_x
 _atom_site_fract_y
 _atom_site_fract_z
 _atom_site_occupancy
  Tb  Tb0  1  0.001941  0.581987  0.000000  1
  Tb  Tb1  1  0.419955  0.418013  0.000000  1
  Lu  Lu2  1  0.582483  0.000000  0.000000  1
  Mg  Mg3  1  0.247094  0.000000  0.500000  1
  Mg  Mg4  1  0.998999  0.245424  0.500000  1
  Mg  Mg5  1  0.753575  0.754576  0.500000  1
  Si  Si6  1  0.336185  0.671204  0.500000  1
  Si  Si7  1  0.664982  0.328796  0.500000  1
  Au  Au8  1  0.994786  0.000000  0.000000  1
