# generated using pymatgen
data_LiScPa2(ReB6)2
_symmetry_space_group_name_H-M   'P 1'
_cell_length_a   3.63221900
_cell_length_b   8.91453855
_cell_length_c   11.30554774
_cell_angle_alpha   89.73688787
_cell_angle_beta   90.00000000
_cell_angle_gamma   90.00000000
_symmetry_Int_Tables_number   1
_chemical_formula_structural   LiScPa2(ReB6)2
_chemical_formula_sum   'Li2 Sc2 Pa4 Re4 B24'
_cell_volume   366.06475958
_cell_formula_units_Z   2
loop_
 _symmetry_equiv_pos_site_id
 _symmetry_equiv_pos_as_xyz
  1  'x, y, z'
loop_
 _atom_site_type_symbol
 _atom_site_label
 _atom_site_symmetry_multiplicity
 _atom_site_fract_x
 _atom_site_fract_y
 _atom_site_fract_z
 _atom_site_occupancy
  Li  Li0  1  0.000000  0.945813  0.376171  1
  Li  Li1  1  0.000000  0.054187  0.623829  1
  Sc  Sc2  1  0.000000  0.444523  0.126412  1
  Sc  Sc3  1  0.000000  0.555477  0.873588  1
  Pa  Pa4  1  0.000000  0.318019  0.415323  1
  Pa  Pa5  1  0.000000  0.681981  0.584677  1
  Pa  Pa6  1  0.000000  0.821537  0.087675  1
  Pa  Pa7  1  0.000000  0.178463  0.912325  1
  Re  Re8  1  0.000000  0.642547  0.319233  1
  Re  Re9  1  0.000000  0.357453  0.680767  1
  Re  Re10  1  0.000000  0.139112  0.182879  1
  Re  Re11  1  0.000000  0.860888  0.817121  1
  B  B12  1  0.500000  0.554953  0.433453  1
  B  B13  1  0.500000  0.445047  0.566547  1
  B  B14  1  0.500000  0.054499  0.067264  1
  B  B15  1  0.500000  0.945501  0.932736  1
  B  B16  1  0.500000  0.756497  0.418613  1
  B  B17  1  0.500000  0.243503  0.581387  1
  B  B18  1  0.500000  0.253095  0.081268  1
  B  B19  1  0.500000  0.746905  0.918732  1
  B  B20  1  0.500000  0.794359  0.263922  1
  B  B21  1  0.500000  0.205641  0.736078  1
  B  B22  1  0.500000  0.292870  0.236046  1
  B  B23  1  0.500000  0.707130  0.763954  1
  B  B24  1  0.500000  0.629609  0.182863  1
  B  B25  1  0.500000  0.370391  0.817137  1
  B  B26  1  0.500000  0.125810  0.318507  1
  B  B27  1  0.500000  0.874190  0.681493  1
  B  B28  1  0.500000  0.980779  0.213880  1
  B  B29  1  0.500000  0.019221  0.786120  1
  B  B30  1  0.500000  0.480961  0.286531  1
  B  B31  1  0.500000  0.519039  0.713469  1
  B  B32  1  0.500000  0.600149  0.027432  1
  B  B33  1  0.500000  0.399851  0.972568  1
  B  B34  1  0.500000  0.091742  0.475062  1
  B  B35  1  0.500000  0.908258  0.524938  1
