# generated using pymatgen
data_Eu2Si2Pd3Rh
_symmetry_space_group_name_H-M   'P 1'
_cell_length_a   4.13462456
_cell_length_b   4.18617700
_cell_length_c   9.44065051
_cell_angle_alpha   90.00000000
_cell_angle_beta   102.64911351
_cell_angle_gamma   90.00000000
_symmetry_Int_Tables_number   1
_chemical_formula_structural   Eu2Si2Pd3Rh
_chemical_formula_sum   'Eu2 Si2 Pd3 Rh1'
_cell_volume   159.43548388
_cell_formula_units_Z   1
loop_
 _symmetry_equiv_pos_site_id
 _symmetry_equiv_pos_as_xyz
  1  'x, y, z'
loop_
 _atom_site_type_symbol
 _atom_site_label
 _atom_site_symmetry_multiplicity
 _atom_site_fract_x
 _atom_site_fract_y
 _atom_site_fract_z
 _atom_site_occupancy
  Eu  Eu0  1  0.600368  0.250000  0.200735  1
  Eu  Eu1  1  0.399541  0.750000  0.799083  1
  Si  Si2  1  0.820419  0.250000  0.640837  1
  Si  Si3  1  0.179638  0.750000  0.359274  1
  Pd  Pd4  1  0.951368  0.250000  0.902735  1
  Pd  Pd5  1  0.048898  0.750000  0.097797  1
  Pd  Pd6  1  0.250012  0.250000  0.500023  1
  Rh  Rh7  1  0.749757  0.750000  0.499515  1
