# generated using pymatgen
data_Nd2Er3(SnPb)2
_symmetry_space_group_name_H-M   'P 1'
_cell_length_a   8.15347700
_cell_length_b   8.33837100
_cell_length_c   15.70048500
_cell_angle_alpha   90.00000000
_cell_angle_beta   90.00000000
_cell_angle_gamma   90.00000000
_symmetry_Int_Tables_number   1
_chemical_formula_structural   Nd2Er3(SnPb)2
_chemical_formula_sum   'Nd8 Er12 Sn8 Pb8'
_cell_volume   1067.42441736
_cell_formula_units_Z   4
loop_
 _symmetry_equiv_pos_site_id
 _symmetry_equiv_pos_as_xyz
  1  'x, y, z'
loop_
 _atom_site_type_symbol
 _atom_site_label
 _atom_site_symmetry_multiplicity
 _atom_site_fract_x
 _atom_site_fract_y
 _atom_site_fract_z
 _atom_site_occupancy
  Nd  Nd0  1  0.516152  0.323499  0.900528  1
  Nd  Nd1  1  0.016152  0.176501  0.599472  1
  Nd  Nd2  1  0.483848  0.676501  0.400528  1
  Nd  Nd3  1  0.983848  0.823499  0.099472  1
  Nd  Nd4  1  0.483848  0.676501  0.099472  1
  Nd  Nd5  1  0.983848  0.823499  0.400528  1
  Nd  Nd6  1  0.516152  0.323499  0.599472  1
  Nd  Nd7  1  0.016152  0.176501  0.900528  1
  Er  Er8  1  0.356438  0.837837  0.873927  1
  Er  Er9  1  0.856438  0.662163  0.626073  1
  Er  Er10  1  0.643562  0.162163  0.373927  1
  Er  Er11  1  0.143562  0.337837  0.126073  1
  Er  Er12  1  0.643562  0.162163  0.126073  1
  Er  Er13  1  0.143562  0.337837  0.373927  1
  Er  Er14  1  0.356438  0.837837  0.626073  1
  Er  Er15  1  0.856438  0.662163  0.873927  1
  Er  Er16  1  0.188910  0.502394  0.750000  1
  Er  Er17  1  0.688910  0.997606  0.750000  1
  Er  Er18  1  0.811090  0.497606  0.250000  1
  Er  Er19  1  0.311090  0.002394  0.250000  1
  Sn  Sn20  1  0.552781  0.625784  0.750000  1
  Sn  Sn21  1  0.052781  0.874216  0.750000  1
  Sn  Sn22  1  0.447219  0.374216  0.250000  1
  Sn  Sn23  1  0.947219  0.125784  0.250000  1
  Sn  Sn24  1  0.323290  0.145705  0.750000  1
  Sn  Sn25  1  0.823290  0.354295  0.750000  1
  Sn  Sn26  1  0.676710  0.854295  0.250000  1
  Sn  Sn27  1  0.176710  0.645705  0.250000  1
  Pb  Pb28  1  0.304635  0.042563  0.041621  1
  Pb  Pb29  1  0.804635  0.457437  0.458379  1
  Pb  Pb30  1  0.695365  0.957437  0.541621  1
  Pb  Pb31  1  0.195365  0.542563  0.958379  1
  Pb  Pb32  1  0.695365  0.957437  0.958379  1
  Pb  Pb33  1  0.195365  0.542563  0.541621  1
  Pb  Pb34  1  0.304635  0.042563  0.458379  1
  Pb  Pb35  1  0.804635  0.457437  0.041621  1
