# generated using pymatgen
data_Ca12Np3Ga12Sn5O48
_symmetry_space_group_name_H-M   'P 1'
_cell_length_a   11.11027451
_cell_length_b   11.11027423
_cell_length_c   11.13046600
_cell_angle_alpha   109.50804367
_cell_angle_beta   109.50804317
_cell_angle_gamma   109.43437094
_symmetry_Int_Tables_number   1
_chemical_formula_structural   Ca12Np3Ga12Sn5O48
_chemical_formula_sum   'Ca12 Np3 Ga12 Sn5 O48'
_cell_volume   1057.16668996
_cell_formula_units_Z   1
loop_
 _symmetry_equiv_pos_site_id
 _symmetry_equiv_pos_as_xyz
  1  'x, y, z'
loop_
 _atom_site_type_symbol
 _atom_site_label
 _atom_site_symmetry_multiplicity
 _atom_site_fract_x
 _atom_site_fract_y
 _atom_site_fract_z
 _atom_site_occupancy
  Ca  Ca0  1  0.249393  0.377644  0.128210  1
  Ca  Ca1  1  0.750607  0.622356  0.871790  1
  Ca  Ca2  1  0.744584  0.117783  0.374049  1
  Ca  Ca3  1  0.128251  0.250607  0.378818  1
  Ca  Ca4  1  0.373199  0.755416  0.129465  1
  Ca  Ca5  1  0.255416  0.882217  0.625951  1
  Ca  Ca6  1  0.871749  0.749393  0.621182  1
  Ca  Ca7  1  0.626801  0.244584  0.870535  1
  Ca  Ca8  1  0.382217  0.126801  0.256266  1
  Ca  Ca9  1  0.617783  0.873199  0.743734  1
  Ca  Ca10  1  0.122356  0.371749  0.750566  1
  Ca  Ca11  1  0.877644  0.628251  0.249434  1
  Np  Np12  1  0.000000  0.000000  0.000000  1
  Np  Np13  1  0.000000  0.500000  0.500000  1
  Np  Np14  1  0.500000  0.500000  0.000000  1
  Ga  Ga15  1  0.256523  0.627871  0.373930  1
  Ga  Ga16  1  0.743477  0.372129  0.626070  1
  Ga  Ga17  1  0.750844  0.880144  0.130082  1
  Ga  Ga18  1  0.371348  0.243477  0.617407  1
  Ga  Ga19  1  0.628652  0.756523  0.382593  1
  Ga  Ga20  1  0.249156  0.119856  0.869918  1
  Ga  Ga21  1  0.129300  0.749156  0.879238  1
  Ga  Ga22  1  0.870700  0.250844  0.120762  1
  Ga  Ga23  1  0.619856  0.370700  0.249938  1
  Ga  Ga24  1  0.380144  0.629300  0.750062  1
  Ga  Ga25  1  0.872129  0.128652  0.746059  1
  Ga  Ga26  1  0.127871  0.871348  0.253941  1
  Sn  Sn27  1  0.500000  0.000000  0.500000  1
  Sn  Sn28  1  0.500000  0.000000  0.000000  1
  Sn  Sn29  1  0.500000  0.500000  0.500000  1
  Sn  Sn30  1  0.000000  0.000000  0.500000  1
  Sn  Sn31  1  0.000000  0.500000  0.000000  1
  O  O32  1  0.474248  0.377018  0.294049  1
  O  O33  1  0.525752  0.622982  0.705951  1
  O  O34  1  0.583573  0.181301  0.205598  1
  O  O35  1  0.917627  0.123577  0.598451  1
  O  O36  1  0.295443  0.477717  0.378630  1
  O  O37  1  0.319525  0.919540  0.296296  1
  O  O38  1  0.416427  0.818699  0.794402  1
  O  O39  1  0.082373  0.876423  0.401549  1
  O  O40  1  0.704557  0.522283  0.621370  1
  O  O41  1  0.680475  0.080460  0.703704  1
  O  O42  1  0.022283  0.317726  0.900914  1
  O  O43  1  0.205950  0.582373  0.180824  1
  O  O44  1  0.119960  0.018190  0.202524  1
  O  O45  1  0.977717  0.682274  0.099086  1
  O  O46  1  0.794050  0.417627  0.819176  1
  O  O47  1  0.880040  0.981810  0.797476  1
  O  O48  1  0.597729  0.916427  0.122025  1
  O  O49  1  0.184972  0.478399  0.602411  1
  O  O50  1  0.402271  0.083573  0.877975  1
  O  O51  1  0.815028  0.521601  0.397589  1
  O  O52  1  0.902770  0.025752  0.319801  1
  O  O53  1  0.377750  0.582810  0.898007  1
  O  O54  1  0.097230  0.974248  0.680199  1
  O  O55  1  0.622250  0.417190  0.101993  1
  O  O56  1  0.376423  0.294050  0.474874  1
  O  O57  1  0.580460  0.899986  0.376756  1
  O  O58  1  0.623577  0.705950  0.525126  1
  O  O59  1  0.419540  0.100014  0.623244  1
  O  O60  1  0.122982  0.597230  0.917031  1
  O  O61  1  0.021601  0.206573  0.124012  1
  O  O62  1  0.877018  0.402770  0.082969  1
  O  O63  1  0.978399  0.793427  0.875988  1
  O  O64  1  0.318699  0.902271  0.024296  1
  O  O65  1  0.917190  0.294941  0.315197  1
  O  O66  1  0.681301  0.097729  0.975704  1
  O  O67  1  0.082810  0.705059  0.684803  1
  O  O68  1  0.182274  0.204557  0.583187  1
  O  O69  1  0.481810  0.601770  0.184334  1
  O  O70  1  0.817726  0.795443  0.416813  1
  O  O71  1  0.518190  0.398230  0.815666  1
  O  O72  1  0.293427  0.315028  0.917439  1
  O  O73  1  0.706573  0.684972  0.082561  1
  O  O74  1  0.205059  0.122250  0.020257  1
  O  O75  1  0.794941  0.877750  0.979743  1
  O  O76  1  0.898230  0.380040  0.582564  1
  O  O77  1  0.101770  0.619960  0.417436  1
  O  O78  1  0.600014  0.180475  0.476771  1
  O  O79  1  0.399986  0.819525  0.523229  1
