# generated using pymatgen
data_Tb16Cd4CoNi2Os
_symmetry_space_group_name_H-M   'P 1'
_cell_length_a   9.62397913
_cell_length_b   9.62398042
_cell_length_c   9.63688376
_cell_angle_alpha   59.52318234
_cell_angle_beta   59.52317744
_cell_angle_gamma   59.52720043
_symmetry_Int_Tables_number   1
_chemical_formula_structural   Tb16Cd4CoNi2Os
_chemical_formula_sum   'Tb16 Cd4 Co1 Ni2 Os1'
_cell_volume   624.32371073
_cell_formula_units_Z   1
loop_
 _symmetry_equiv_pos_site_id
 _symmetry_equiv_pos_as_xyz
  1  'x, y, z'
loop_
 _atom_site_type_symbol
 _atom_site_label
 _atom_site_symmetry_multiplicity
 _atom_site_fract_x
 _atom_site_fract_y
 _atom_site_fract_z
 _atom_site_occupancy
  Tb  Tb0  1  0.437804  0.437804  0.057838  1
  Tb  Tb1  1  0.595711  0.595711  0.600139  1
  Tb  Tb2  1  0.186593  0.813053  0.815850  1
  Tb  Tb3  1  0.060121  0.060121  0.437012  1
  Tb  Tb4  1  0.435823  0.064529  0.057221  1
  Tb  Tb5  1  0.813053  0.186593  0.815850  1
  Tb  Tb6  1  0.438136  0.060514  0.438241  1
  Tb  Tb7  1  0.598783  0.207671  0.602091  1
  Tb  Tb8  1  0.814361  0.814361  0.187490  1
  Tb  Tb9  1  0.207671  0.598783  0.602091  1
  Tb  Tb10  1  0.805390  0.189286  0.189556  1
  Tb  Tb11  1  0.060514  0.438136  0.438241  1
  Tb  Tb12  1  0.189286  0.805390  0.189556  1
  Tb  Tb13  1  0.601079  0.601079  0.204913  1
  Tb  Tb14  1  0.189248  0.189248  0.806623  1
  Tb  Tb15  1  0.064529  0.435823  0.057221  1
  Cd  Cd16  1  0.829604  0.829604  0.507051  1
  Cd  Cd17  1  0.829887  0.829887  0.830275  1
  Cd  Cd18  1  0.506298  0.830044  0.829870  1
  Cd  Cd19  1  0.830044  0.506298  0.829870  1
  Co  Co20  1  0.393224  0.393224  0.827132  1
  Ni  Ni21  1  0.826677  0.392841  0.392238  1
  Ni  Ni22  1  0.392841  0.826677  0.392238  1
  Os  Os23  1  0.393324  0.393324  0.391395  1
