# generated using pymatgen
data_Yb2TmPa(Al8Pt3)3
_symmetry_space_group_name_H-M   'P 1'
_cell_length_a   7.53396871
_cell_length_b   7.54311613
_cell_length_c   13.17931589
_cell_angle_alpha   84.56981207
_cell_angle_beta   100.92866522
_cell_angle_gamma   119.83784919
_symmetry_Int_Tables_number   1
_chemical_formula_structural   Yb2TmPa(Al8Pt3)3
_chemical_formula_sum   'Yb2 Tm1 Pa1 Al24 Pt9'
_cell_volume   637.90602228
_cell_formula_units_Z   1
loop_
 _symmetry_equiv_pos_site_id
 _symmetry_equiv_pos_as_xyz
  1  'x, y, z'
loop_
 _atom_site_type_symbol
 _atom_site_label
 _atom_site_symmetry_multiplicity
 _atom_site_fract_x
 _atom_site_fract_y
 _atom_site_fract_z
 _atom_site_occupancy
  Yb  Yb0  1  0.768095  0.501538  0.807856  1
  Yb  Yb1  1  0.232315  0.498701  0.192480  1
  Tm  Tm2  1  0.563323  0.168989  0.192900  1
  Pa  Pa3  1  0.435639  0.830780  0.804737  1
  Al  Al4  1  0.483327  0.167644  0.944478  1
  Al  Al5  1  0.517921  0.834141  0.055394  1
  Al  Al6  1  0.021301  0.168277  0.560835  1
  Al  Al7  1  0.978158  0.831937  0.439240  1
  Al  Al8  1  0.353812  0.833337  0.557927  1
  Al  Al9  1  0.647259  0.167864  0.441635  1
  Al  Al10  1  0.616546  0.833695  0.329736  1
  Al  Al11  1  0.383639  0.169751  0.670615  1
  Al  Al12  1  0.051562  0.489458  0.670597  1
  Al  Al13  1  0.944242  0.506617  0.328936  1
  Al  Al14  1  0.734112  0.839410  0.668794  1
  Al  Al15  1  0.269266  0.160673  0.330484  1
  Al  Al16  1  0.146819  0.499916  0.945536  1
  Al  Al17  1  0.851913  0.499473  0.054625  1
  Al  Al18  1  0.816865  0.831749  0.953234  1
  Al  Al19  1  0.183301  0.167649  0.046504  1
  Al  Al20  1  0.313913  0.499797  0.440972  1
  Al  Al21  1  0.685497  0.498680  0.559201  1
  Al  Al22  1  0.103549  0.838846  0.183011  1
  Al  Al23  1  0.897549  0.159513  0.817529  1
  Al  Al24  1  0.304204  0.369800  0.816336  1
  Al  Al25  1  0.693330  0.628728  0.184015  1
  Al  Al26  1  0.107522  0.962501  0.817213  1
  Al  Al27  1  0.894279  0.040067  0.183110  1
  Pt  Pt28  1  0.387904  0.509877  0.639748  1
  Pt  Pt29  1  0.612509  0.491454  0.361768  1
  Pt  Pt30  1  0.171620  0.829238  0.999261  1
  Pt  Pt31  1  0.828019  0.171133  0.999088  1
  Pt  Pt32  1  0.296565  0.834826  0.361992  1
  Pt  Pt33  1  0.703251  0.164640  0.639801  1
  Pt  Pt34  1  0.048850  0.825211  0.638829  1
  Pt  Pt35  1  0.952317  0.173967  0.362600  1
  Pt  Pt36  1  0.499707  0.500126  0.998986  1
