# generated using pymatgen
data_SrReF36
_symmetry_space_group_name_H-M   'P 1'
_cell_length_a   6.15216729
_cell_length_b   10.53058757
_cell_length_c   11.27134057
_cell_angle_alpha   88.21151598
_cell_angle_beta   99.81336083
_cell_angle_gamma   76.18952788
_symmetry_Int_Tables_number   1
_chemical_formula_structural   SrReF36
_chemical_formula_sum   'Sr1 Re1 F36'
_cell_volume   696.76333600
_cell_formula_units_Z   1
loop_
 _symmetry_equiv_pos_site_id
 _symmetry_equiv_pos_as_xyz
  1  'x, y, z'
loop_
 _atom_site_type_symbol
 _atom_site_label
 _atom_site_symmetry_multiplicity
 _atom_site_fract_x
 _atom_site_fract_y
 _atom_site_fract_z
 _atom_site_occupancy
  Sr  Sr0  1  0.177343  0.220399  0.223698  1
  Re  Re1  1  0.704126  0.793698  0.846550  1
  F  F2  1  0.330706  0.414996  0.938594  1
  F  F3  1  0.728906  0.586420  0.160485  1
  F  F4  1  0.320646  0.285425  0.574712  1
  F  F5  1  0.718433  0.723351  0.399332  1
  F  F6  1  0.863934  0.221022  0.801465  1
  F  F7  1  0.083253  0.808700  0.186443  1
  F  F8  1  0.681962  0.843533  0.001027  1
  F  F9  1  0.290038  0.099558  0.991545  1
  F  F10  1  0.714511  0.616601  0.888414  1
  F  F11  1  0.229141  0.425535  0.160929  1
  F  F12  1  0.388023  0.419395  0.821094  1
  F  F13  1  0.551297  0.519699  0.166692  1
  F  F14  1  0.731511  0.743031  0.692771  1
  F  F15  1  0.246798  0.392623  0.339060  1
  F  F16  1  0.773396  0.001962  0.524060  1
  F  F17  1  0.251684  0.017824  0.447734  1
  F  F18  1  0.264887  0.194591  0.654271  1
  F  F19  1  0.679805  0.852469  0.340735  1
  F  F20  1  0.830813  0.088941  0.612626  1
  F  F21  1  0.179522  0.931887  0.360924  1
  F  F22  1  0.881003  0.917631  0.839065  1
  F  F23  1  0.225501  0.988254  0.036739  1
  F  F24  1  0.892235  0.351476  0.799673  1
  F  F25  1  0.120255  0.668742  0.188446  1
  F  F26  1  0.012516  0.705426  0.902958  1
  F  F27  1  0.839860  0.218048  0.075251  1
  F  F28  1  0.508722  0.951150  0.765843  1
  F  F29  1  0.552421  0.074129  0.257431  1
  F  F30  1  0.149527  0.750921  0.573326  1
  F  F31  1  0.897132  0.250466  0.409490  1
  F  F32  1  0.199335  0.632308  0.648677  1
  F  F33  1  0.754829  0.356291  0.325444  1
  F  F34  1  0.400866  0.780288  0.837355  1
  F  F35  1  0.701735  0.146537  0.165394  1
  F  F36  1  0.588021  0.445228  0.560210  1
  F  F37  1  0.535309  0.561445  0.481535  1
