# generated using pymatgen
data_Lu4Si4TcIr3
_symmetry_space_group_name_H-M   'P 1'
_cell_length_a   4.18608000
_cell_length_b   6.78453089
_cell_length_c   7.37345002
_cell_angle_alpha   89.94052630
_cell_angle_beta   90.00000000
_cell_angle_gamma   90.00000000
_symmetry_Int_Tables_number   1
_chemical_formula_structural   Lu4Si4TcIr3
_chemical_formula_sum   'Lu4 Si4 Tc1 Ir3'
_cell_volume   209.41021119
_cell_formula_units_Z   1
loop_
 _symmetry_equiv_pos_site_id
 _symmetry_equiv_pos_as_xyz
  1  'x, y, z'
loop_
 _atom_site_type_symbol
 _atom_site_label
 _atom_site_symmetry_multiplicity
 _atom_site_fract_x
 _atom_site_fract_y
 _atom_site_fract_z
 _atom_site_occupancy
  Lu  Lu0  1  0.750000  0.503094  0.812922  1
  Lu  Lu1  1  0.250000  0.994064  0.314874  1
  Lu  Lu2  1  0.750000  0.007429  0.686326  1
  Lu  Lu3  1  0.250000  0.498952  0.186496  1
  Si  Si4  1  0.250000  0.702321  0.616057  1
  Si  Si5  1  0.250000  0.203690  0.889828  1
  Si  Si6  1  0.750000  0.296460  0.384975  1
  Si  Si7  1  0.750000  0.795683  0.108513  1
  Tc  Tc8  1  0.250000  0.842184  0.936049  1
  Ir  Ir9  1  0.250000  0.338328  0.562535  1
  Ir  Ir10  1  0.750000  0.657434  0.436098  1
  Ir  Ir11  1  0.750000  0.160362  0.065328  1
