# generated using pymatgen
data_Dy3Mg2CdSi2Au
_symmetry_space_group_name_H-M   'P 1'
_cell_length_a   7.26438800
_cell_length_b   7.20444665
_cell_length_c   4.33254200
_cell_angle_alpha   90.00000000
_cell_angle_beta   90.00000000
_cell_angle_gamma   120.27560877
_symmetry_Int_Tables_number   1
_chemical_formula_structural   Dy3Mg2CdSi2Au
_chemical_formula_sum   'Dy3 Mg2 Cd1 Si2 Au1'
_cell_volume   195.82143720
_cell_formula_units_Z   1
loop_
 _symmetry_equiv_pos_site_id
 _symmetry_equiv_pos_as_xyz
  1  'x, y, z'
loop_
 _atom_site_type_symbol
 _atom_site_label
 _atom_site_symmetry_multiplicity
 _atom_site_fract_x
 _atom_site_fract_y
 _atom_site_fract_z
 _atom_site_occupancy
  Dy  Dy0  1  0.580203  0.000000  0.000000  1
  Dy  Dy1  1  0.000855  0.583201  0.000000  1
  Dy  Dy2  1  0.417654  0.416799  0.000000  1
  Mg  Mg3  1  0.000789  0.245001  0.500000  1
  Mg  Mg4  1  0.755788  0.754999  0.500000  1
  Cd  Cd5  1  0.252992  0.000000  0.500000  1
  Si  Si6  1  0.333914  0.663586  0.500000  1
  Si  Si7  1  0.670329  0.336414  0.500000  1
  Au  Au8  1  0.987476  0.000000  0.000000  1
