# generated using pymatgen
data_Tb11Dy9Co3TcBi8
_symmetry_space_group_name_H-M   'P 1'
_cell_length_a   8.02073487
_cell_length_b   8.95032900
_cell_length_c   12.45949908
_cell_angle_alpha   89.99992200
_cell_angle_beta   90.18952587
_cell_angle_gamma   90.00014270
_symmetry_Int_Tables_number   1
_chemical_formula_structural   Tb11Dy9Co3TcBi8
_chemical_formula_sum   'Tb11 Dy9 Co3 Tc1 Bi8'
_cell_volume   894.44031685
_cell_formula_units_Z   1
loop_
 _symmetry_equiv_pos_site_id
 _symmetry_equiv_pos_as_xyz
  1  'x, y, z'
loop_
 _atom_site_type_symbol
 _atom_site_label
 _atom_site_symmetry_multiplicity
 _atom_site_fract_x
 _atom_site_fract_y
 _atom_site_fract_z
 _atom_site_occupancy
  Tb  Tb0  1  0.847136  0.750000  0.798640  1
  Tb  Tb1  1  0.348359  0.249999  0.699627  1
  Tb  Tb2  1  0.651536  0.750003  0.294574  1
  Tb  Tb3  1  0.381228  0.750003  0.693749  1
  Tb  Tb4  1  0.617635  0.249998  0.309291  1
  Tb  Tb5  1  0.881443  0.250001  0.809842  1
  Tb  Tb6  1  0.116419  0.749999  0.187507  1
  Tb  Tb7  1  0.948086  0.750003  0.503742  1
  Tb  Tb8  1  0.050676  0.249999  0.496146  1
  Tb  Tb9  1  0.451037  0.250002  0.997191  1
  Tb  Tb10  1  0.549108  0.749998  0.003153  1
  Dy  Dy11  1  0.150450  0.250002  0.198210  1
  Dy  Dy12  1  0.678200  0.044061  0.565170  1
  Dy  Dy13  1  0.325125  0.966608  0.437895  1
  Dy  Dy14  1  0.174743  0.965445  0.937207  1
  Dy  Dy15  1  0.325119  0.533394  0.437893  1
  Dy  Dy16  1  0.823944  0.036811  0.062943  1
  Dy  Dy17  1  0.678205  0.455927  0.565171  1
  Dy  Dy18  1  0.823945  0.463190  0.062941  1
  Dy  Dy19  1  0.174741  0.534559  0.937206  1
  Co  Co20  1  0.429378  0.249995  0.489468  1
  Co  Co21  1  0.059978  0.250002  0.991994  1
  Co  Co22  1  0.937456  0.750000  0.006879  1
  Tc  Tc23  1  0.575786  0.749996  0.512324  1
  Bi  Bi24  1  0.572039  0.492044  0.827342  1
  Bi  Bi25  1  0.425979  0.507225  0.173239  1
  Bi  Bi26  1  0.073693  0.507962  0.673773  1
  Bi  Bi27  1  0.425978  0.992776  0.173238  1
  Bi  Bi28  1  0.928422  0.492159  0.326262  1
  Bi  Bi29  1  0.572041  0.007956  0.827342  1
  Bi  Bi30  1  0.928426  0.007842  0.326263  1
  Bi  Bi31  1  0.073691  0.992041  0.673773  1
