# generated using pymatgen
data_Yb5Y2Er3Ru4
_symmetry_space_group_name_H-M   'P 1'
_cell_length_a   6.40036194
_cell_length_b   7.25498739
_cell_length_c   8.43483309
_cell_angle_alpha   97.31492847
_cell_angle_beta   111.54625906
_cell_angle_gamma   89.66841896
_symmetry_Int_Tables_number   1
_chemical_formula_structural   Yb5Y2Er3Ru4
_chemical_formula_sum   'Yb5 Y2 Er3 Ru4'
_cell_volume   360.97699100
_cell_formula_units_Z   1
loop_
 _symmetry_equiv_pos_site_id
 _symmetry_equiv_pos_as_xyz
  1  'x, y, z'
loop_
 _atom_site_type_symbol
 _atom_site_label
 _atom_site_symmetry_multiplicity
 _atom_site_fract_x
 _atom_site_fract_y
 _atom_site_fract_z
 _atom_site_occupancy
  Yb  Yb0  1  0.797109  0.579110  0.820828  1
  Yb  Yb1  1  0.975661  0.919209  0.179580  1
  Yb  Yb2  1  0.201854  0.419358  0.179541  1
  Yb  Yb3  1  0.023800  0.081501  0.819111  1
  Yb  Yb4  1  0.204057  0.684232  0.564171  1
  Y  Y5  1  0.637071  0.818786  0.433872  1
  Y  Y6  1  0.801204  0.317497  0.433897  1
  Er  Er7  1  0.365587  0.182218  0.569104  1
  Er  Er8  1  0.430510  0.748801  0.998484  1
  Er  Er9  1  0.565468  0.249259  0.998885  1
  Ru  Ru10  1  0.597862  0.931213  0.777083  1
  Ru  Ru11  1  0.806051  0.572987  0.217485  1
  Ru  Ru12  1  0.408253  0.074633  0.231648  1
  Ru  Ru13  1  0.185515  0.421197  0.776312  1
