# generated using pymatgen
data_Rb6Cr3RhBr18
_symmetry_space_group_name_H-M   'P 1'
_cell_length_a   7.56188300
_cell_length_b   7.56188381
_cell_length_c   19.13812700
_cell_angle_alpha   90.00000000
_cell_angle_beta   90.00000000
_cell_angle_gamma   119.99999209
_symmetry_Int_Tables_number   1
_chemical_formula_structural   Rb6Cr3RhBr18
_chemical_formula_sum   'Rb6 Cr3 Rh1 Br18'
_cell_volume   947.74183589
_cell_formula_units_Z   1
loop_
 _symmetry_equiv_pos_site_id
 _symmetry_equiv_pos_as_xyz
  1  'x, y, z'
loop_
 _atom_site_type_symbol
 _atom_site_label
 _atom_site_symmetry_multiplicity
 _atom_site_fract_x
 _atom_site_fract_y
 _atom_site_fract_z
 _atom_site_occupancy
  Rb  Rb0  1  0.666667  0.333333  0.567227  1
  Rb  Rb1  1  0.333333  0.666667  0.067205  1
  Rb  Rb2  1  0.333333  0.666667  0.433742  1
  Rb  Rb3  1  0.666667  0.333333  0.934776  1
  Rb  Rb4  1  0.000000  0.000000  0.250165  1
  Rb  Rb5  1  0.000000  0.000000  0.748348  1
  Cr  Cr6  1  0.666667  0.333333  0.337628  1
  Cr  Cr7  1  0.333333  0.666667  0.836895  1
  Cr  Cr8  1  0.666667  0.333333  0.162501  1
  Rh  Rh9  1  0.333333  0.666667  0.666328  1
  Br  Br10  1  0.824544  0.649089  0.407479  1
  Br  Br11  1  0.177390  0.822610  0.592289  1
  Br  Br12  1  0.645221  0.822610  0.592289  1
  Br  Br13  1  0.824544  0.175456  0.407479  1
  Br  Br14  1  0.350911  0.175456  0.407479  1
  Br  Br15  1  0.175659  0.351319  0.906991  1
  Br  Br16  1  0.028372  0.514186  0.749286  1
  Br  Br17  1  0.648681  0.824341  0.906991  1
  Br  Br18  1  0.824530  0.649060  0.092425  1
  Br  Br19  1  0.177390  0.354779  0.592289  1
  Br  Br20  1  0.485814  0.971628  0.749286  1
  Br  Br21  1  0.514624  0.485376  0.249923  1
  Br  Br22  1  0.485814  0.514186  0.749286  1
  Br  Br23  1  0.175659  0.824341  0.906991  1
  Br  Br24  1  0.350940  0.175470  0.092425  1
  Br  Br25  1  0.970753  0.485376  0.249923  1
  Br  Br26  1  0.514624  0.029247  0.249923  1
  Br  Br27  1  0.824530  0.175470  0.092425  1
