# generated using pymatgen
data_HoPa2Cu3Sn4
_symmetry_space_group_name_H-M   'P 1'
_cell_length_a   8.25218944
_cell_length_b   8.26703709
_cell_length_c   8.25035200
_cell_angle_alpha   109.76342447
_cell_angle_beta   109.30088735
_cell_angle_gamma   109.37996239
_symmetry_Int_Tables_number   1
_chemical_formula_structural   HoPa2Cu3Sn4
_chemical_formula_sum   'Ho2 Pa4 Cu6 Sn8'
_cell_volume   433.11118576
_cell_formula_units_Z   2
loop_
 _symmetry_equiv_pos_site_id
 _symmetry_equiv_pos_as_xyz
  1  'x, y, z'
loop_
 _atom_site_type_symbol
 _atom_site_label
 _atom_site_symmetry_multiplicity
 _atom_site_fract_x
 _atom_site_fract_y
 _atom_site_fract_z
 _atom_site_occupancy
  Ho  Ho0  1  0.876978  0.751026  0.125617  1
  Ho  Ho1  1  0.123075  0.373950  0.248556  1
  Pa  Pa2  1  0.626065  0.251767  0.374647  1
  Pa  Pa3  1  0.750233  0.873810  0.626504  1
  Pa  Pa4  1  0.373958  0.125696  0.748480  1
  Pa  Pa5  1  0.249775  0.623594  0.876320  1
  Cu  Cu6  1  0.748071  0.373123  0.124370  1
  Cu  Cu7  1  0.625174  0.876299  0.250123  1
  Cu  Cu8  1  0.251791  0.125401  0.376081  1
  Cu  Cu9  1  0.374196  0.750708  0.624949  1
  Cu  Cu10  1  0.874779  0.623726  0.749303  1
  Cu  Cu11  1  0.125850  0.249768  0.874684  1
  Sn  Sn12  1  0.169278  0.001579  0.001175  1
  Sn  Sn13  1  0.668508  0.999482  0.998534  1
  Sn  Sn14  1  0.502882  0.500703  0.170093  1
  Sn  Sn15  1  0.331330  0.831032  0.330120  1
  Sn  Sn16  1  0.001443  0.669769  0.501168  1
  Sn  Sn17  1  0.998309  0.168230  0.499606  1
  Sn  Sn18  1  0.497492  0.498076  0.667527  1
  Sn  Sn19  1  0.830816  0.332266  0.832145  1
