# generated using pymatgen
data_HoEr2(PRu)3
_symmetry_space_group_name_H-M   'P 1'
_cell_length_a   6.82685300
_cell_length_b   6.82790749
_cell_length_c   3.75188700
_cell_angle_alpha   90.00000000
_cell_angle_beta   90.00000000
_cell_angle_gamma   119.99488653
_symmetry_Int_Tables_number   1
_chemical_formula_structural   HoEr2(PRu)3
_chemical_formula_sum   'Ho1 Er2 P3 Ru3'
_cell_volume   151.46452824
_cell_formula_units_Z   1
loop_
 _symmetry_equiv_pos_site_id
 _symmetry_equiv_pos_as_xyz
  1  'x, y, z'
loop_
 _atom_site_type_symbol
 _atom_site_label
 _atom_site_symmetry_multiplicity
 _atom_site_fract_x
 _atom_site_fract_y
 _atom_site_fract_z
 _atom_site_occupancy
  Ho  Ho0  1  0.409617  0.000000  0.500000  1
  Er  Er1  1  0.000059  0.409394  0.500000  1
  Er  Er2  1  0.590666  0.590607  0.500000  1
  P  P3  1  0.667178  0.334028  0.000000  1
  P  P4  1  0.333149  0.665972  0.000000  1
  P  P5  1  0.999607  0.000000  0.500000  1
  Ru  Ru6  1  0.763705  0.000000  0.000000  1
  Ru  Ru7  1  0.236388  0.236758  0.000000  1
  Ru  Ru8  1  0.999631  0.763242  0.000000  1
