# generated using pymatgen
data_Er12Tm8(Ir3Rh)3
_symmetry_space_group_name_H-M   'P 1'
_cell_length_a   10.75315001
_cell_length_b   10.75155101
_cell_length_c   6.32583700
_cell_angle_alpha   90.00000000
_cell_angle_beta   90.00000000
_cell_angle_gamma   89.99623796
_symmetry_Int_Tables_number   1
_chemical_formula_structural   Er12Tm8(Ir3Rh)3
_chemical_formula_sum   'Er12 Tm8 Ir9 Rh3'
_cell_volume   731.34924935
_cell_formula_units_Z   1
loop_
 _symmetry_equiv_pos_site_id
 _symmetry_equiv_pos_as_xyz
  1  'x, y, z'
loop_
 _atom_site_type_symbol
 _atom_site_label
 _atom_site_symmetry_multiplicity
 _atom_site_fract_x
 _atom_site_fract_y
 _atom_site_fract_z
 _atom_site_occupancy
  Er  Er0  1  0.290284  0.088114  0.377747  1
  Er  Er1  1  0.290217  0.911651  0.877614  1
  Er  Er2  1  0.709783  0.088349  0.877614  1
  Er  Er3  1  0.709716  0.911886  0.377747  1
  Er  Er4  1  0.588296  0.790288  0.877728  1
  Er  Er5  1  0.588052  0.209646  0.377838  1
  Er  Er6  1  0.411948  0.790354  0.377838  1
  Er  Er7  1  0.411704  0.209712  0.877728  1
  Er  Er8  1  0.208791  0.412015  0.621183  1
  Er  Er9  1  0.209061  0.588177  0.123265  1
  Er  Er10  1  0.790939  0.411823  0.123265  1
  Er  Er11  1  0.791209  0.587985  0.621183  1
  Tm  Tm12  1  0.911926  0.709094  0.123162  1
  Tm  Tm13  1  0.912106  0.291162  0.620961  1
  Tm  Tm14  1  0.087894  0.708838  0.620961  1
  Tm  Tm15  1  0.088074  0.290906  0.123162  1
  Tm  Tm16  1  0.000000  0.000000  0.500460  1
  Tm  Tm17  1  0.000000  0.000000  0.000309  1
  Tm  Tm18  1  0.500000  0.500000  0.000287  1
  Tm  Tm19  1  0.500000  0.500000  0.500418  1
  Ir  Ir20  1  0.846086  0.153282  0.249974  1
  Ir  Ir21  1  0.846241  0.846462  0.750218  1
  Ir  Ir22  1  0.153759  0.153538  0.750218  1
  Ir  Ir23  1  0.153914  0.846718  0.249974  1
  Ir  Ir24  1  0.653547  0.345963  0.749857  1
  Ir  Ir25  1  0.653297  0.654187  0.249629  1
  Ir  Ir26  1  0.346703  0.345813  0.249629  1
  Ir  Ir27  1  0.346453  0.654037  0.749857  1
  Ir  Ir28  1  0.000000  0.500000  0.376795  1
  Rh  Rh29  1  0.500000  0.000000  0.122900  1
  Rh  Rh30  1  0.500000  0.000000  0.622987  1
  Rh  Rh31  1  0.000000  0.500000  0.877491  1
