# generated using pymatgen
data_Hf2AgPdF11
_symmetry_space_group_name_H-M   'P 1'
_cell_length_a   5.91915197
_cell_length_b   5.91915199
_cell_length_c   7.86870563
_cell_angle_alpha   69.64428144
_cell_angle_beta   69.64428717
_cell_angle_gamma   73.28818149
_symmetry_Int_Tables_number   1
_chemical_formula_structural   Hf2AgPdF11
_chemical_formula_sum   'Hf2 Ag1 Pd1 F11'
_cell_volume   237.94247240
_cell_formula_units_Z   1
loop_
 _symmetry_equiv_pos_site_id
 _symmetry_equiv_pos_as_xyz
  1  'x, y, z'
loop_
 _atom_site_type_symbol
 _atom_site_label
 _atom_site_symmetry_multiplicity
 _atom_site_fract_x
 _atom_site_fract_y
 _atom_site_fract_z
 _atom_site_occupancy
  Hf  Hf0  1  0.507088  0.507088  0.763163  1
  Hf  Hf1  1  0.492912  0.492912  0.236837  1
  Ag  Ag2  1  0.000000  0.000000  0.000000  1
  Pd  Pd3  1  0.000000  0.000000  0.500000  1
  F  F4  1  0.200752  0.764716  0.306849  1
  F  F5  1  0.235284  0.799248  0.693151  1
  F  F6  1  0.799248  0.235284  0.693151  1
  F  F7  1  0.764716  0.200752  0.306849  1
  F  F8  1  0.500000  0.500000  0.500000  1
  F  F9  1  0.660773  0.339227  0.000000  1
  F  F10  1  0.339227  0.660773  0.000000  1
  F  F11  1  0.742189  0.742189  0.654036  1
  F  F12  1  0.257811  0.257811  0.345964  1
  F  F13  1  0.721155  0.721155  0.113662  1
  F  F14  1  0.278845  0.278845  0.886338  1
