# generated using pymatgen
data_Mg3UGe6Rh7
_symmetry_space_group_name_H-M   'P 1'
_cell_length_a   7.05543386
_cell_length_b   7.12363217
_cell_length_c   7.13044754
_cell_angle_alpha   109.68072217
_cell_angle_beta   109.28397627
_cell_angle_gamma   109.24998085
_symmetry_Int_Tables_number   1
_chemical_formula_structural   Mg3UGe6Rh7
_chemical_formula_sum   'Mg3 U1 Ge6 Rh7'
_cell_volume   276.55170825
_cell_formula_units_Z   1
loop_
 _symmetry_equiv_pos_site_id
 _symmetry_equiv_pos_as_xyz
  1  'x, y, z'
loop_
 _atom_site_type_symbol
 _atom_site_label
 _atom_site_symmetry_multiplicity
 _atom_site_fract_x
 _atom_site_fract_y
 _atom_site_fract_z
 _atom_site_occupancy
  Mg  Mg0  1  0.500000  0.500000  0.500000  1
  Mg  Mg1  1  0.000000  0.000000  0.500000  1
  Mg  Mg2  1  0.000000  0.500000  0.000000  1
  U  U3  1  0.500000  0.000000  0.000000  1
  Ge  Ge4  1  0.305148  0.318503  0.999909  1
  Ge  Ge5  1  0.013343  0.318517  0.318575  1
  Ge  Ge6  1  0.986657  0.681483  0.681425  1
  Ge  Ge7  1  0.694871  0.000045  0.681449  1
  Ge  Ge8  1  0.305129  0.999955  0.318551  1
  Ge  Ge9  1  0.694852  0.681497  0.000091  1
  Rh  Rh10  1  0.747437  0.247427  0.494846  1
  Rh  Rh11  1  0.500012  0.247480  0.752565  1
  Rh  Rh12  1  0.499988  0.752520  0.247435  1
  Rh  Rh13  1  0.252603  0.505203  0.752617  1
  Rh  Rh14  1  0.747397  0.494797  0.247383  1
  Rh  Rh15  1  0.252563  0.752573  0.505154  1
  Rh  Rh16  1  0.000000  0.000000  0.000000  1
