# generated using pymatgen
data_Y4Al18(PtRh)3
_symmetry_space_group_name_H-M   'P 1'
_cell_length_a   7.59869921
_cell_length_b   7.59870030
_cell_length_c   9.44228912
_cell_angle_alpha   89.99072129
_cell_angle_beta   89.99071686
_cell_angle_gamma   119.58512909
_symmetry_Int_Tables_number   1
_chemical_formula_structural   Y4Al18(PtRh)3
_chemical_formula_sum   'Y4 Al18 Pt3 Rh3'
_cell_volume   474.11850807
_cell_formula_units_Z   1
loop_
 _symmetry_equiv_pos_site_id
 _symmetry_equiv_pos_as_xyz
  1  'x, y, z'
loop_
 _atom_site_type_symbol
 _atom_site_label
 _atom_site_symmetry_multiplicity
 _atom_site_fract_x
 _atom_site_fract_y
 _atom_site_fract_z
 _atom_site_occupancy
  Y  Y0  1  0.995630  0.670115  0.250248  1
  Y  Y1  1  0.005670  0.331079  0.749936  1
  Y  Y2  1  0.668921  0.994330  0.250064  1
  Y  Y3  1  0.329885  0.004370  0.749752  1
  Al  Al4  1  0.125335  0.126074  0.250670  1
  Al  Al5  1  0.873926  0.874665  0.749330  1
  Al  Al6  1  0.999980  0.330908  0.076036  1
  Al  Al7  1  0.999263  0.669304  0.923618  1
  Al  Al8  1  0.996343  0.665010  0.574778  1
  Al  Al9  1  0.334990  0.003657  0.425222  1
  Al  Al10  1  0.996363  0.331092  0.425299  1
  Al  Al11  1  0.668908  0.003637  0.574701  1
  Al  Al12  1  0.669092  0.000020  0.923964  1
  Al  Al13  1  0.330696  0.000737  0.076382  1
  Al  Al14  1  0.332435  0.329141  0.552456  1
  Al  Al15  1  0.670859  0.667565  0.447544  1
  Al  Al16  1  0.670031  0.669987  0.054670  1
  Al  Al17  1  0.330013  0.329969  0.945330  1
  Al  Al18  1  0.339911  0.544772  0.250491  1
  Al  Al19  1  0.659650  0.451767  0.746639  1
  Al  Al20  1  0.548233  0.340350  0.253361  1
  Al  Al21  1  0.455228  0.660089  0.749509  1
  Pt  Pt22  1  0.671977  0.328023  0.000000  1
  Pt  Pt23  1  0.327397  0.672603  0.000000  1
  Pt  Pt24  1  0.327426  0.672574  0.500000  1
  Rh  Rh25  1  0.671869  0.328131  0.500000  1
  Rh  Rh26  1  0.999883  0.000117  0.000000  1
  Rh  Rh27  1  0.000087  0.999913  0.500000  1
