# generated using pymatgen
data_Tb16Al4Ir3Pd
_symmetry_space_group_name_H-M   'P 1'
_cell_length_a   9.56061080
_cell_length_b   9.56061032
_cell_length_c   9.56060944
_cell_angle_alpha   60.70917762
_cell_angle_beta   60.70917775
_cell_angle_gamma   60.70917606
_symmetry_Int_Tables_number   1
_chemical_formula_structural   Tb16Al4Ir3Pd
_chemical_formula_sum   'Tb16 Al4 Ir3 Pd1'
_cell_volume   627.82383555
_cell_formula_units_Z   1
loop_
 _symmetry_equiv_pos_site_id
 _symmetry_equiv_pos_as_xyz
  1  'x, y, z'
loop_
 _atom_site_type_symbol
 _atom_site_label
 _atom_site_symmetry_multiplicity
 _atom_site_fract_x
 _atom_site_fract_y
 _atom_site_fract_z
 _atom_site_occupancy
  Tb  Tb0  1  0.106573  0.687690  0.106573  1
  Tb  Tb1  1  0.944582  0.944582  0.550490  1
  Tb  Tb2  1  0.944582  0.550490  0.944582  1
  Tb  Tb3  1  0.313230  0.689788  0.313230  1
  Tb  Tb4  1  0.945302  0.556584  0.556584  1
  Tb  Tb5  1  0.313230  0.313230  0.689788  1
  Tb  Tb6  1  0.098000  0.098000  0.098000  1
  Tb  Tb7  1  0.556584  0.556584  0.945302  1
  Tb  Tb8  1  0.106573  0.106573  0.687690  1
  Tb  Tb9  1  0.688894  0.315148  0.688894  1
  Tb  Tb10  1  0.688894  0.688894  0.315148  1
  Tb  Tb11  1  0.689788  0.313230  0.313230  1
  Tb  Tb12  1  0.315148  0.688894  0.688894  1
  Tb  Tb13  1  0.556584  0.945302  0.556584  1
  Tb  Tb14  1  0.687690  0.106573  0.106573  1
  Tb  Tb15  1  0.550490  0.944582  0.944582  1
  Al  Al16  1  0.326773  0.326773  0.326773  1
  Al  Al17  1  0.019944  0.326021  0.326021  1
  Al  Al18  1  0.326021  0.019944  0.326021  1
  Al  Al19  1  0.326021  0.326021  0.019944  1
  Ir  Ir20  1  0.888998  0.888998  0.323870  1
  Ir  Ir21  1  0.323870  0.888998  0.888998  1
  Ir  Ir22  1  0.888998  0.323870  0.888998  1
  Pd  Pd23  1  0.893232  0.893232  0.893232  1
