# generated using pymatgen
data_NaEu3(PPt)4
_symmetry_space_group_name_H-M   'P 1'
_cell_length_a   6.34434031
_cell_length_b   6.34434059
_cell_length_c   6.34434098
_cell_angle_alpha   89.98009479
_cell_angle_beta   90.01990270
_cell_angle_gamma   90.01991160
_symmetry_Int_Tables_number   1
_chemical_formula_structural   NaEu3(PPt)4
_chemical_formula_sum   'Na1 Eu3 P4 Pt4'
_cell_volume   255.36383863
_cell_formula_units_Z   1
loop_
 _symmetry_equiv_pos_site_id
 _symmetry_equiv_pos_as_xyz
  1  'x, y, z'
loop_
 _atom_site_type_symbol
 _atom_site_label
 _atom_site_symmetry_multiplicity
 _atom_site_fract_x
 _atom_site_fract_y
 _atom_site_fract_z
 _atom_site_occupancy
  Na  Na0  1  0.644597  0.355403  0.855403  1
  Eu  Eu1  1  0.349405  0.844526  0.656467  1
  Eu  Eu2  1  0.155474  0.156467  0.150595  1
  Eu  Eu3  1  0.843533  0.650595  0.344526  1
  P  P4  1  0.569429  0.931203  0.067309  1
  P  P5  1  0.068797  0.567309  0.930571  1
  P  P6  1  0.932031  0.067969  0.567969  1
  P  P7  1  0.432691  0.430571  0.431203  1
  Pt  Pt8  1  0.163760  0.336964  0.660444  1
  Pt  Pt9  1  0.663036  0.160444  0.336240  1
  Pt  Pt10  1  0.839556  0.836240  0.836964  1
  Pt  Pt11  1  0.337691  0.662309  0.162309  1
