# generated using pymatgen
data_Ac2Tb2Zn10SiGe
_symmetry_space_group_name_H-M   'P 1'
_cell_length_a   8.43485774
_cell_length_b   8.43486008
_cell_length_c   8.94405600
_cell_angle_alpha   90.00000000
_cell_angle_beta   90.00000000
_cell_angle_gamma   149.31080104
_symmetry_Int_Tables_number   1
_chemical_formula_structural   Ac2Tb2Zn10SiGe
_chemical_formula_sum   'Ac2 Tb2 Zn10 Si1 Ge1'
_cell_volume   324.77642401
_cell_formula_units_Z   1
loop_
 _symmetry_equiv_pos_site_id
 _symmetry_equiv_pos_as_xyz
  1  'x, y, z'
loop_
 _atom_site_type_symbol
 _atom_site_label
 _atom_site_symmetry_multiplicity
 _atom_site_fract_x
 _atom_site_fract_y
 _atom_site_fract_z
 _atom_site_occupancy
  Ac  Ac0  1  0.000114  0.999886  0.498486  1
  Ac  Ac1  1  0.000114  0.999886  0.001514  1
  Tb  Tb2  1  0.203585  0.796415  0.250000  1
  Tb  Tb3  1  0.795649  0.204351  0.750000  1
  Zn  Zn4  1  0.810608  0.189392  0.390186  1
  Zn  Zn5  1  0.189164  0.810836  0.609406  1
  Zn  Zn6  1  0.810608  0.189392  0.109814  1
  Zn  Zn7  1  0.189164  0.810836  0.890594  1
  Zn  Zn8  1  0.655792  0.344208  0.476007  1
  Zn  Zn9  1  0.342505  0.657495  0.520106  1
  Zn  Zn10  1  0.655792  0.344208  0.023993  1
  Zn  Zn11  1  0.342505  0.657495  0.979894  1
  Zn  Zn12  1  0.403683  0.596317  0.250000  1
  Zn  Zn13  1  0.599776  0.400224  0.750000  1
  Si  Si14  1  0.563943  0.436057  0.250000  1
  Ge  Ge15  1  0.436999  0.563001  0.750000  1
