# generated using pymatgen
data_Y8Ag4Hg3Ir
_symmetry_space_group_name_H-M   'P 1'
_cell_length_a   7.34028700
_cell_length_b   7.25725200
_cell_length_c   7.32129800
_cell_angle_alpha   90.00000000
_cell_angle_beta   89.99745197
_cell_angle_gamma   90.00000000
_symmetry_Int_Tables_number   1
_chemical_formula_structural   Y8Ag4Hg3Ir
_chemical_formula_sum   'Y8 Ag4 Hg3 Ir1'
_cell_volume   390.00783226
_cell_formula_units_Z   1
loop_
 _symmetry_equiv_pos_site_id
 _symmetry_equiv_pos_as_xyz
  1  'x, y, z'
loop_
 _atom_site_type_symbol
 _atom_site_label
 _atom_site_symmetry_multiplicity
 _atom_site_fract_x
 _atom_site_fract_y
 _atom_site_fract_z
 _atom_site_occupancy
  Y  Y0  1  0.257863  0.492426  0.241801  1
  Y  Y1  1  0.257863  0.007573  0.241801  1
  Y  Y2  1  0.742017  0.008716  0.241958  1
  Y  Y3  1  0.742017  0.491283  0.241958  1
  Y  Y4  1  0.257942  0.492388  0.758072  1
  Y  Y5  1  0.257942  0.007611  0.758072  1
  Y  Y6  1  0.741969  0.008808  0.758290  1
  Y  Y7  1  0.741969  0.491191  0.758290  1
  Ag  Ag8  1  0.001653  0.250001  0.000398  1
  Ag  Ag9  1  0.501576  0.750000  0.499569  1
  Ag  Ag10  1  0.498400  0.250001  0.500365  1
  Ag  Ag11  1  0.998404  0.750000  0.999614  1
  Hg  Hg12  1  0.500990  0.750000  0.000321  1
  Hg  Hg13  1  0.000955  0.250001  0.499661  1
  Hg  Hg14  1  0.999018  0.750000  0.500321  1
  Ir  Ir15  1  0.499429  0.250001  0.999512  1
