# generated using pymatgen
data_Tb10Fe9Ru11
_symmetry_space_group_name_H-M   'P 1'
_cell_length_a   9.20764131
_cell_length_b   9.16725762
_cell_length_c   9.07114573
_cell_angle_alpha   99.07659328
_cell_angle_beta   99.61800587
_cell_angle_gamma   132.05833470
_symmetry_Int_Tables_number   1
_chemical_formula_structural   Tb10Fe9Ru11
_chemical_formula_sum   'Tb10 Fe9 Ru11'
_cell_volume   521.08024595
_cell_formula_units_Z   1
loop_
 _symmetry_equiv_pos_site_id
 _symmetry_equiv_pos_as_xyz
  1  'x, y, z'
loop_
 _atom_site_type_symbol
 _atom_site_label
 _atom_site_symmetry_multiplicity
 _atom_site_fract_x
 _atom_site_fract_y
 _atom_site_fract_z
 _atom_site_occupancy
  Tb  Tb0  1  0.003048  0.003876  0.000249  1
  Tb  Tb1  1  0.247684  0.747027  0.499462  1
  Tb  Tb2  1  0.053345  0.154130  0.699875  1
  Tb  Tb3  1  0.452984  0.352943  0.299905  1
  Tb  Tb4  1  0.648218  0.949624  0.099609  1
  Tb  Tb5  1  0.849080  0.547709  0.900095  1
  Tb  Tb6  1  0.198623  0.596928  0.799889  1
  Tb  Tb7  1  0.797910  0.398119  0.200605  1
  Tb  Tb8  1  0.599236  0.800603  0.398664  1
  Tb  Tb9  1  0.402085  0.201218  0.602230  1
  Fe  Fe10  1  0.736998  0.685013  0.153972  1
  Fe  Fe11  1  0.721568  0.168217  0.649842  1
  Fe  Fe12  1  0.318568  0.970125  0.050179  1
  Fe  Fe13  1  0.026991  0.075469  0.345672  1
  Fe  Fe14  1  0.734033  0.684478  0.652670  1
  Fe  Fe15  1  0.122119  0.371076  0.248885  1
  Fe  Fe16  1  0.122511  0.873974  0.753069  1
  Fe  Fe17  1  0.118351  0.877406  0.248428  1
  Fe  Fe18  1  0.626927  0.873224  0.745260  1
  Ru  Ru19  1  0.533285  0.582509  0.851641  1
  Ru  Ru20  1  0.425883  0.272227  0.951827  1
  Ru  Ru21  1  0.331484  0.480529  0.055838  1
  Ru  Ru22  1  0.516265  0.072720  0.348402  1
  Ru  Ru23  1  0.924450  0.271525  0.447828  1
  Ru  Ru24  1  0.827252  0.479138  0.556687  1
  Ru  Ru25  1  0.929004  0.781656  0.450153  1
  Ru  Ru26  1  0.331280  0.476728  0.546268  1
  Ru  Ru27  1  0.515133  0.062065  0.846517  1
  Ru  Ru28  1  0.218307  0.673100  0.150391  1
  Ru  Ru29  1  0.917378  0.266647  0.945885  1
