# generated using pymatgen
data_HoEr11Co4CuBi
_symmetry_space_group_name_H-M   'P 1'
_cell_length_a   8.26471754
_cell_length_b   8.26471681
_cell_length_c   8.26320450
_cell_angle_alpha   109.94706133
_cell_angle_beta   111.32213256
_cell_angle_gamma   107.17949287
_symmetry_Int_Tables_number   1
_chemical_formula_structural   HoEr11Co4CuBi
_chemical_formula_sum   'Ho1 Er11 Co4 Cu1 Bi1'
_cell_volume   433.86561840
_cell_formula_units_Z   1
loop_
 _symmetry_equiv_pos_site_id
 _symmetry_equiv_pos_as_xyz
  1  'x, y, z'
loop_
 _atom_site_type_symbol
 _atom_site_label
 _atom_site_symmetry_multiplicity
 _atom_site_fract_x
 _atom_site_fract_y
 _atom_site_fract_z
 _atom_site_occupancy
  Ho  Ho0  1  0.288545  0.182712  0.471257  1
  Er  Er1  1  0.711635  0.817348  0.528983  1
  Er  Er2  1  0.288600  0.817186  0.105785  1
  Er  Er3  1  0.711771  0.182414  0.894186  1
  Er  Er4  1  0.621454  0.313332  0.307926  1
  Er  Er5  1  0.378888  0.686980  0.692230  1
  Er  Er6  1  0.005252  0.313342  0.692230  1
  Er  Er7  1  0.994592  0.686471  0.307926  1
  Er  Er8  1  0.212144  0.414239  0.201958  1
  Er  Er9  1  0.788543  0.586599  0.798566  1
  Er  Er10  1  0.211967  0.010023  0.798566  1
  Er  Er11  1  0.787719  0.989815  0.201958  1
  Co  Co12  1  0.999491  0.376693  0.376184  1
  Co  Co13  1  0.000255  0.623124  0.623379  1
  Co  Co14  1  0.387241  0.886223  0.499710  1
  Co  Co15  1  0.613487  0.112469  0.499710  1
  Cu  Cu16  1  0.998404  0.001175  0.999579  1
  Bi  Bi17  1  0.500012  0.499855  0.999867  1
