# generated using pymatgen
data_Lu4InPbAu4
_symmetry_space_group_name_H-M   'P 1'
_cell_length_a   7.97598000
_cell_length_b   7.97598000
_cell_length_c   7.21815100
_cell_angle_alpha   90.00000000
_cell_angle_beta   90.00000000
_cell_angle_gamma   90.00000000
_symmetry_Int_Tables_number   1
_chemical_formula_structural   Lu4InPbAu4
_chemical_formula_sum   'Lu8 In2 Pb2 Au8'
_cell_volume   459.19174879
_cell_formula_units_Z   2
loop_
 _symmetry_equiv_pos_site_id
 _symmetry_equiv_pos_as_xyz
  1  'x, y, z'
loop_
 _atom_site_type_symbol
 _atom_site_label
 _atom_site_symmetry_multiplicity
 _atom_site_fract_x
 _atom_site_fract_y
 _atom_site_fract_z
 _atom_site_occupancy
  Lu  Lu0  1  0.844512  0.155488  0.500000  1
  Lu  Lu1  1  0.155488  0.844512  0.500000  1
  Lu  Lu2  1  0.344512  0.344512  0.000000  1
  Lu  Lu3  1  0.655488  0.655488  0.000000  1
  Lu  Lu4  1  0.681566  0.681566  0.500000  1
  Lu  Lu5  1  0.318434  0.318434  0.500000  1
  Lu  Lu6  1  0.181567  0.818434  0.000000  1
  Lu  Lu7  1  0.818434  0.181567  0.000000  1
  In  In8  1  0.500000  0.000000  0.750000  1
  In  In9  1  0.000000  0.500000  0.250000  1
  Pb  Pb10  1  0.500000  0.000000  0.250000  1
  Pb  Pb11  1  0.000000  0.500000  0.750000  1
  Au  Au12  1  0.631688  0.375224  0.276384  1
  Au  Au13  1  0.368312  0.624776  0.276384  1
  Au  Au14  1  0.131688  0.124776  0.776384  1
  Au  Au15  1  0.868312  0.875224  0.776384  1
  Au  Au16  1  0.375224  0.631688  0.723616  1
  Au  Au17  1  0.624776  0.368312  0.723616  1
  Au  Au18  1  0.875224  0.868312  0.223616  1
  Au  Au19  1  0.124776  0.131688  0.223616  1
