# generated using pymatgen
data_Lu5Pt8Rh
_symmetry_space_group_name_H-M   'P 1'
_cell_length_a   9.59620542
_cell_length_b   9.59620542
_cell_length_c   5.73604181
_cell_angle_alpha   90.41682470
_cell_angle_beta   89.58317530
_cell_angle_gamma   90.24775900
_symmetry_Int_Tables_number   1
_chemical_formula_structural   Lu5Pt8Rh
_chemical_formula_sum   'Lu10 Pt16 Rh2'
_cell_volume   528.18301699
_cell_formula_units_Z   2
loop_
 _symmetry_equiv_pos_site_id
 _symmetry_equiv_pos_as_xyz
  1  'x, y, z'
loop_
 _atom_site_type_symbol
 _atom_site_label
 _atom_site_symmetry_multiplicity
 _atom_site_fract_x
 _atom_site_fract_y
 _atom_site_fract_z
 _atom_site_occupancy
  Lu  Lu0  1  0.451009  0.809693  0.001261  1
  Lu  Lu1  1  0.548991  0.190307  0.998739  1
  Lu  Lu2  1  0.190307  0.548991  0.001261  1
  Lu  Lu3  1  0.809693  0.451009  0.998739  1
  Lu  Lu4  1  0.500000  0.500000  0.500000  1
  Lu  Lu5  1  0.308585  0.046404  0.498463  1
  Lu  Lu6  1  0.691415  0.953596  0.501537  1
  Lu  Lu7  1  0.953596  0.691415  0.498463  1
  Lu  Lu8  1  0.046404  0.308585  0.501537  1
  Lu  Lu9  1  0.000000  0.000000  0.000000  1
  Pt  Pt10  1  0.808340  0.191660  0.249688  1
  Pt  Pt11  1  0.191660  0.808340  0.750312  1
  Pt  Pt12  1  0.440188  0.782388  0.498242  1
  Pt  Pt13  1  0.559812  0.217612  0.501758  1
  Pt  Pt14  1  0.217612  0.559812  0.498242  1
  Pt  Pt15  1  0.782388  0.440188  0.501758  1
  Pt  Pt16  1  0.308303  0.308995  0.250218  1
  Pt  Pt17  1  0.691697  0.691005  0.749782  1
  Pt  Pt18  1  0.691005  0.691697  0.250218  1
  Pt  Pt19  1  0.308995  0.308303  0.749782  1
  Pt  Pt20  1  0.282201  0.058185  0.000803  1
  Pt  Pt21  1  0.717799  0.941815  0.999197  1
  Pt  Pt22  1  0.941815  0.717799  0.000803  1
  Pt  Pt23  1  0.058185  0.282201  0.999197  1
  Pt  Pt24  1  0.000000  0.000000  0.500000  1
  Pt  Pt25  1  0.500000  0.500000  0.000000  1
  Rh  Rh26  1  0.191566  0.808434  0.252239  1
  Rh  Rh27  1  0.808434  0.191566  0.747761  1
