# generated using pymatgen
data_HoEr11IrOs3
_symmetry_space_group_name_H-M   'P 1'
_cell_length_a   6.32497001
_cell_length_b   7.32539540
_cell_length_c   8.96690600
_cell_angle_alpha   90.00000000
_cell_angle_beta   90.00000000
_cell_angle_gamma   90.10372525
_symmetry_Int_Tables_number   1
_chemical_formula_structural   HoEr11IrOs3
_chemical_formula_sum   'Ho1 Er11 Ir1 Os3'
_cell_volume   415.46213347
_cell_formula_units_Z   1
loop_
 _symmetry_equiv_pos_site_id
 _symmetry_equiv_pos_as_xyz
  1  'x, y, z'
loop_
 _atom_site_type_symbol
 _atom_site_label
 _atom_site_symmetry_multiplicity
 _atom_site_fract_x
 _atom_site_fract_y
 _atom_site_fract_z
 _atom_site_occupancy
  Ho  Ho0  1  0.873025  0.537685  0.250000  1
  Er  Er1  1  0.331989  0.673530  0.061705  1
  Er  Er2  1  0.170490  0.176319  0.438396  1
  Er  Er3  1  0.669733  0.324854  0.562565  1
  Er  Er4  1  0.827482  0.824649  0.935793  1
  Er  Er5  1  0.669733  0.324854  0.937435  1
  Er  Er6  1  0.827482  0.824649  0.564207  1
  Er  Er7  1  0.331989  0.673530  0.438295  1
  Er  Er8  1  0.170490  0.176319  0.061604  1
  Er  Er9  1  0.628576  0.038951  0.250000  1
  Er  Er10  1  0.127739  0.461965  0.750000  1
  Er  Er11  1  0.370497  0.961763  0.750000  1
  Ir  Ir12  1  0.039516  0.884805  0.250000  1
  Os  Os13  1  0.462171  0.383510  0.250000  1
  Os  Os14  1  0.962926  0.115827  0.750000  1
  Os  Os15  1  0.536163  0.616795  0.750000  1
