# generated using pymatgen
data_Dy4GaNi13
_symmetry_space_group_name_H-M   'P 1'
_cell_length_a   4.93031325
_cell_length_b   4.91066815
_cell_length_c   12.48621256
_cell_angle_alpha   78.76421617
_cell_angle_beta   78.61326563
_cell_angle_gamma   59.86758291
_symmetry_Int_Tables_number   1
_chemical_formula_structural   Dy4GaNi13
_chemical_formula_sum   'Dy4 Ga1 Ni13'
_cell_volume   254.66858778
_cell_formula_units_Z   1
loop_
 _symmetry_equiv_pos_site_id
 _symmetry_equiv_pos_as_xyz
  1  'x, y, z'
loop_
 _atom_site_type_symbol
 _atom_site_label
 _atom_site_symmetry_multiplicity
 _atom_site_fract_x
 _atom_site_fract_y
 _atom_site_fract_z
 _atom_site_occupancy
  Dy  Dy0  1  0.947203  0.946822  0.158773  1
  Dy  Dy1  1  0.052797  0.053178  0.841227  1
  Dy  Dy2  1  0.852535  0.852598  0.442332  1
  Dy  Dy3  1  0.147465  0.147402  0.557668  1
  Ga  Ga4  1  0.500000  0.000000  0.000000  1
  Ni  Ni5  1  0.500000  0.500000  0.500000  1
  Ni  Ni6  1  0.724361  0.717827  0.833453  1
  Ni  Ni7  1  0.275639  0.282173  0.166547  1
  Ni  Ni8  1  0.613203  0.607136  0.166457  1
  Ni  Ni9  1  0.386797  0.392864  0.833543  1
  Ni  Ni10  1  0.000000  0.500000  0.000000  1
  Ni  Ni11  1  0.500000  0.500000  0.000000  1
  Ni  Ni12  1  0.389849  0.390283  0.329787  1
  Ni  Ni13  1  0.890079  0.390283  0.329787  1
  Ni  Ni14  1  0.389399  0.891440  0.329762  1
  Ni  Ni15  1  0.610151  0.609717  0.670213  1
  Ni  Ni16  1  0.109921  0.609717  0.670213  1
  Ni  Ni17  1  0.610601  0.108560  0.670238  1
