# generated using pymatgen
data_Yb5Ge6P6Rh19
_symmetry_space_group_name_H-M   'P 1'
_cell_length_a   12.78038800
_cell_length_b   12.78038705
_cell_length_c   3.90846600
_cell_angle_alpha   90.00000000
_cell_angle_beta   90.00000000
_cell_angle_gamma   120.00000764
_symmetry_Int_Tables_number   1
_chemical_formula_structural   Yb5Ge6P6Rh19
_chemical_formula_sum   'Yb5 Ge6 P6 Rh19'
_cell_volume   552.87249131
_cell_formula_units_Z   1
loop_
 _symmetry_equiv_pos_site_id
 _symmetry_equiv_pos_as_xyz
  1  'x, y, z'
loop_
 _atom_site_type_symbol
 _atom_site_label
 _atom_site_symmetry_multiplicity
 _atom_site_fract_x
 _atom_site_fract_y
 _atom_site_fract_z
 _atom_site_occupancy
  Yb  Yb0  1  0.666667  0.333333  0.000000  1
  Yb  Yb1  1  0.333333  0.666667  0.000000  1
  Yb  Yb2  1  0.820067  0.817094  0.500000  1
  Yb  Yb3  1  0.182906  0.002973  0.500000  1
  Yb  Yb4  1  0.997027  0.179933  0.500000  1
  Ge  Ge5  1  0.679019  0.158184  0.500000  1
  Ge  Ge6  1  0.841816  0.520835  0.500000  1
  Ge  Ge7  1  0.479165  0.320981  0.500000  1
  Ge  Ge8  1  0.635308  0.635796  0.000000  1
  Ge  Ge9  1  0.364204  0.999513  0.000000  1
  Ge  Ge10  1  0.000487  0.364692  0.000000  1
  P  P11  1  0.172673  0.691442  0.500000  1
  P  P12  1  0.518769  0.827327  0.500000  1
  P  P13  1  0.308558  0.481231  0.500000  1
  P  P14  1  0.175853  0.181919  0.000000  1
  P  P15  1  0.818081  0.993933  0.000000  1
  P  P16  1  0.006067  0.824147  0.000000  1
  Rh  Rh17  1  0.808827  0.170971  0.000000  1
  Rh  Rh18  1  0.829029  0.637856  0.000000  1
  Rh  Rh19  1  0.362144  0.191173  0.000000  1
  Rh  Rh20  1  0.181803  0.799646  0.000000  1
  Rh  Rh21  1  0.617842  0.818197  0.000000  1
  Rh  Rh22  1  0.200354  0.382158  0.000000  1
  Rh  Rh23  1  0.446439  0.445041  0.000000  1
  Rh  Rh24  1  0.554959  0.001398  0.000000  1
  Rh  Rh25  1  0.998602  0.553561  0.000000  1
  Rh  Rh26  1  0.270235  0.280664  0.500000  1
  Rh  Rh27  1  0.719336  0.989571  0.500000  1
  Rh  Rh28  1  0.010429  0.729765  0.500000  1
  Rh  Rh29  1  0.871990  0.350780  0.500000  1
  Rh  Rh30  1  0.649220  0.521210  0.500000  1
  Rh  Rh31  1  0.478790  0.128010  0.500000  1
  Rh  Rh32  1  0.364086  0.867542  0.500000  1
  Rh  Rh33  1  0.503458  0.635914  0.500000  1
  Rh  Rh34  1  0.132458  0.496542  0.500000  1
  Rh  Rh35  1  0.000000  0.000000  0.000000  1
