# generated using pymatgen
data_Sm8Y7Lu4ScSi15Hg
_symmetry_space_group_name_H-M   'P 1'
_cell_length_a   7.41682199
_cell_length_b   7.73100857
_cell_length_c   14.76408568
_cell_angle_alpha   90.09487153
_cell_angle_beta   89.62546331
_cell_angle_gamma   90.32264204
_symmetry_Int_Tables_number   1
_chemical_formula_structural   Sm8Y7Lu4ScSi15Hg
_chemical_formula_sum   'Sm8 Y7 Lu4 Sc1 Si15 Hg1'
_cell_volume   846.53288438
_cell_formula_units_Z   1
loop_
 _symmetry_equiv_pos_site_id
 _symmetry_equiv_pos_as_xyz
  1  'x, y, z'
loop_
 _atom_site_type_symbol
 _atom_site_label
 _atom_site_symmetry_multiplicity
 _atom_site_fract_x
 _atom_site_fract_y
 _atom_site_fract_z
 _atom_site_occupancy
  Sm  Sm0  1  0.018662  0.178892  0.099284  1
  Sm  Sm1  1  0.983020  0.822745  0.905655  1
  Sm  Sm2  1  0.479789  0.681202  0.903049  1
  Sm  Sm3  1  0.982372  0.827790  0.599231  1
  Sm  Sm4  1  0.516745  0.319939  0.097330  1
  Sm  Sm5  1  0.014071  0.174451  0.395943  1
  Sm  Sm6  1  0.515892  0.319144  0.397023  1
  Sm  Sm7  1  0.490034  0.685594  0.600992  1
  Y  Y8  1  0.337077  0.171008  0.626145  1
  Y  Y9  1  0.667443  0.822341  0.374094  1
  Y  Y10  1  0.169308  0.678938  0.372241  1
  Y  Y11  1  0.671855  0.820128  0.121702  1
  Y  Y12  1  0.824734  0.324751  0.622878  1
  Y  Y13  1  0.325918  0.178775  0.879913  1
  Y  Y14  1  0.826952  0.321798  0.880127  1
  Lu  Lu15  1  0.161249  0.510372  0.754132  1
  Lu  Lu16  1  0.839477  0.491048  0.248699  1
  Lu  Lu17  1  0.337919  0.006104  0.246563  1
  Lu  Lu18  1  0.664230  0.988635  0.752602  1
  Sc  Sc19  1  0.172026  0.677683  0.125207  1
  Si  Si20  1  0.033516  0.114035  0.752314  1
  Si  Si21  1  0.969155  0.886375  0.245825  1
  Si  Si22  1  0.463168  0.608321  0.244437  1
  Si  Si23  1  0.532841  0.394564  0.752845  1
  Si  Si24  1  0.276944  0.874763  0.752559  1
  Si  Si25  1  0.719295  0.126053  0.246815  1
  Si  Si26  1  0.219689  0.374645  0.245962  1
  Si  Si27  1  0.781558  0.626232  0.753200  1
  Si  Si28  1  0.834874  0.533372  0.457448  1
  Si  Si29  1  0.342590  0.967247  0.459393  1
  Si  Si30  1  0.857608  0.533447  0.042050  1
  Si  Si31  1  0.656584  0.033639  0.536887  1
  Si  Si32  1  0.155308  0.471758  0.967040  1
  Si  Si33  1  0.651557  0.029827  0.960781  1
  Si  Si34  1  0.338464  0.960597  0.040836  1
  Hg  Hg35  1  0.168076  0.463788  0.538794  1
