# generated using pymatgen
data_TbCeDy8(Al2Ru3)2
_symmetry_space_group_name_H-M   'P 1'
_cell_length_a   8.41381156
_cell_length_b   8.41198338
_cell_length_c   8.29299500
_cell_angle_alpha   110.11937646
_cell_angle_beta   109.20136289
_cell_angle_gamma   109.66399419
_symmetry_Int_Tables_number   1
_chemical_formula_structural   TbCeDy8(Al2Ru3)2
_chemical_formula_sum   'Tb1 Ce1 Dy8 Al4 Ru6'
_cell_volume   448.60162693
_cell_formula_units_Z   1
loop_
 _symmetry_equiv_pos_site_id
 _symmetry_equiv_pos_as_xyz
  1  'x, y, z'
loop_
 _atom_site_type_symbol
 _atom_site_label
 _atom_site_symmetry_multiplicity
 _atom_site_fract_x
 _atom_site_fract_y
 _atom_site_fract_z
 _atom_site_occupancy
  Tb  Tb0  1  0.931397  0.252374  0.183495  1
  Ce  Ce1  1  0.194104  0.943954  0.249896  1
  Dy  Dy2  1  0.780943  0.787291  0.784610  1
  Dy  Dy3  1  0.316662  0.566527  0.750005  1
  Dy  Dy4  1  0.754045  0.320411  0.569379  1
  Dy  Dy5  1  0.569005  0.748125  0.316556  1
  Dy  Dy6  1  0.715629  0.499944  0.997472  1
  Dy  Dy7  1  0.002177  0.718440  0.502564  1
  Dy  Dy8  1  0.502365  0.995790  0.714761  1
  Dy  Dy9  1  0.251113  0.184693  0.930668  1
  Al  Al10  1  0.413042  0.413709  0.408027  1
  Al  Al11  1  0.092875  0.497978  0.005188  1
  Al  Al12  1  0.992783  0.087675  0.495119  1
  Al  Al13  1  0.505403  0.004613  0.091965  1
  Ru  Ru14  1  0.875987  0.126027  0.749798  1
  Ru  Ru15  1  0.739723  0.870376  0.117934  1
  Ru  Ru16  1  0.129667  0.763196  0.908417  1
  Ru  Ru17  1  0.252782  0.621905  0.382324  1
  Ru  Ru18  1  0.354954  0.221356  0.591865  1
  Ru  Ru19  1  0.625347  0.375616  0.249959  1
