# generated using pymatgen
data_La3Ho3Th2MgCdIr2
_symmetry_space_group_name_H-M   'P 1'
_cell_length_a   9.90496088
_cell_length_b   9.90496065
_cell_length_c   9.90496100
_cell_angle_alpha   60.00000216
_cell_angle_beta   60.00000294
_cell_angle_gamma   60.00000696
_symmetry_Int_Tables_number   1
_chemical_formula_structural   La3Ho3Th2MgCdIr2
_chemical_formula_sum   'La6 Ho6 Th4 Mg2 Cd2 Ir4'
_cell_volume   687.13699399
_cell_formula_units_Z   2
loop_
 _symmetry_equiv_pos_site_id
 _symmetry_equiv_pos_as_xyz
  1  'x, y, z'
loop_
 _atom_site_type_symbol
 _atom_site_label
 _atom_site_symmetry_multiplicity
 _atom_site_fract_x
 _atom_site_fract_y
 _atom_site_fract_z
 _atom_site_occupancy
  La  La0  1  0.191982  0.809164  0.808395  1
  La  La1  1  0.809164  0.191982  0.190460  1
  La  La2  1  0.809164  0.191982  0.808395  1
  La  La3  1  0.191982  0.809164  0.190460  1
  La  La4  1  0.809632  0.809632  0.190368  1
  La  La5  1  0.191747  0.191747  0.808253  1
  Ho  Ho6  1  0.066266  0.434235  0.433123  1
  Ho  Ho7  1  0.434235  0.066266  0.066375  1
  Ho  Ho8  1  0.434235  0.066266  0.433123  1
  Ho  Ho9  1  0.066266  0.434235  0.066375  1
  Ho  Ho10  1  0.434382  0.434382  0.065618  1
  Ho  Ho11  1  0.066765  0.066765  0.433235  1
  Th  Th12  1  0.597812  0.597812  0.598266  1
  Th  Th13  1  0.597812  0.597812  0.206109  1
  Th  Th14  1  0.597483  0.206700  0.597908  1
  Th  Th15  1  0.206700  0.597483  0.597908  1
  Mg  Mg16  1  0.825702  0.825702  0.828516  1
  Mg  Mg17  1  0.825702  0.825702  0.520079  1
  Cd  Cd18  1  0.829320  0.513490  0.828594  1
  Cd  Cd19  1  0.513490  0.829320  0.828594  1
  Ir  Ir20  1  0.393625  0.393625  0.393518  1
  Ir  Ir21  1  0.393625  0.393625  0.819232  1
  Ir  Ir22  1  0.393703  0.819203  0.393547  1
  Ir  Ir23  1  0.819203  0.393703  0.393547  1
