# generated using pymatgen
data_Sc20Si12P
_symmetry_space_group_name_H-M   'P 1'
_cell_length_a   5.83013283
_cell_length_b   7.96199014
_cell_length_c   13.82075900
_cell_angle_alpha   90.00000720
_cell_angle_beta   90.00000000
_cell_angle_gamma   89.97973919
_symmetry_Int_Tables_number   1
_chemical_formula_structural   Sc20Si12P
_chemical_formula_sum   'Sc20 Si12 P1'
_cell_volume   641.55213169
_cell_formula_units_Z   1
loop_
 _symmetry_equiv_pos_site_id
 _symmetry_equiv_pos_as_xyz
  1  'x, y, z'
loop_
 _atom_site_type_symbol
 _atom_site_label
 _atom_site_symmetry_multiplicity
 _atom_site_fract_x
 _atom_site_fract_y
 _atom_site_fract_z
 _atom_site_occupancy
  Sc  Sc0  1  0.500002  0.000000  0.335317  1
  Sc  Sc1  1  0.499999  0.500003  0.829895  1
  Sc  Sc2  1  0.499999  0.500003  0.170105  1
  Sc  Sc3  1  0.500002  0.000000  0.664683  1
  Sc  Sc4  1  0.000002  0.499999  0.166321  1
  Sc  Sc5  1  0.000004  0.000002  0.665756  1
  Sc  Sc6  1  0.000004  0.000002  0.334244  1
  Sc  Sc7  1  0.000002  0.499999  0.833679  1
  Sc  Sc8  1  0.750535  0.254779  0.000000  1
  Sc  Sc9  1  0.749347  0.743006  0.500000  1
  Sc  Sc10  1  0.751540  0.378901  0.380179  1
  Sc  Sc11  1  0.750465  0.872266  0.871566  1
  Sc  Sc12  1  0.750465  0.872266  0.128434  1
  Sc  Sc13  1  0.751540  0.378901  0.619821  1
  Sc  Sc14  1  0.249461  0.745218  0.000000  1
  Sc  Sc15  1  0.250647  0.256997  0.500000  1
  Sc  Sc16  1  0.249536  0.127729  0.128437  1
  Sc  Sc17  1  0.248459  0.621103  0.619823  1
  Sc  Sc18  1  0.248459  0.621103  0.380177  1
  Sc  Sc19  1  0.249536  0.127729  0.871563  1
  Si  Si20  1  0.745005  0.605931  0.000000  1
  Si  Si21  1  0.751529  0.105767  0.500000  1
  Si  Si22  1  0.749664  0.198130  0.199420  1
  Si  Si23  1  0.753348  0.694778  0.694867  1
  Si  Si24  1  0.753348  0.694778  0.305133  1
  Si  Si25  1  0.749664  0.198130  0.800580  1
  Si  Si26  1  0.254994  0.394069  0.000000  1
  Si  Si27  1  0.248471  0.894229  0.500000  1
  Si  Si28  1  0.246655  0.305224  0.305133  1
  Si  Si29  1  0.250334  0.801869  0.800580  1
  Si  Si30  1  0.250334  0.801869  0.199420  1
  Si  Si31  1  0.246655  0.305224  0.694867  1
  P  P32  1  0.499998  0.000000  0.000000  1
