# generated using pymatgen
data_Pr10ZnBi6Te
_symmetry_space_group_name_H-M   'P 1'
_cell_length_a   9.79176900
_cell_length_b   9.79176987
_cell_length_c   6.72827800
_cell_angle_alpha   90.00000000
_cell_angle_beta   90.00000000
_cell_angle_gamma   119.99999367
_symmetry_Int_Tables_number   1
_chemical_formula_structural   Pr10ZnBi6Te
_chemical_formula_sum   'Pr10 Zn1 Bi6 Te1'
_cell_volume   558.67204987
_cell_formula_units_Z   1
loop_
 _symmetry_equiv_pos_site_id
 _symmetry_equiv_pos_as_xyz
  1  'x, y, z'
loop_
 _atom_site_type_symbol
 _atom_site_label
 _atom_site_symmetry_multiplicity
 _atom_site_fract_x
 _atom_site_fract_y
 _atom_site_fract_z
 _atom_site_occupancy
  Pr  Pr0  1  0.666667  0.333333  0.000000  1
  Pr  Pr1  1  0.333333  0.666667  0.000000  1
  Pr  Pr2  1  0.333333  0.666667  0.500000  1
  Pr  Pr3  1  0.666667  0.333333  0.500000  1
  Pr  Pr4  1  0.731144  0.731144  0.741271  1
  Pr  Pr5  1  0.268856  0.000000  0.741271  1
  Pr  Pr6  1  0.000000  0.268856  0.741271  1
  Pr  Pr7  1  0.268856  0.268856  0.258729  1
  Pr  Pr8  1  0.731144  0.000000  0.258729  1
  Pr  Pr9  1  0.000000  0.731144  0.258729  1
  Zn  Zn10  1  0.000000  0.000000  0.500000  1
  Bi  Bi11  1  0.384422  0.384422  0.750865  1
  Bi  Bi12  1  0.615578  0.000000  0.750865  1
  Bi  Bi13  1  0.000000  0.615578  0.750865  1
  Bi  Bi14  1  0.615578  0.615578  0.249135  1
  Bi  Bi15  1  0.384422  0.000000  0.249135  1
  Bi  Bi16  1  0.000000  0.384422  0.249135  1
  Te  Te17  1  0.000000  0.000000  0.000000  1
