# generated using pymatgen
data_Tm4TaNb(B2Ru5)2
_symmetry_space_group_name_H-M   'P 1'
_cell_length_a   9.63575700
_cell_length_b   9.63575700
_cell_length_c   3.11799600
_cell_angle_alpha   90.00000000
_cell_angle_beta   90.00000000
_cell_angle_gamma   90.00000000
_symmetry_Int_Tables_number   1
_chemical_formula_structural   Tm4TaNb(B2Ru5)2
_chemical_formula_sum   'Tm4 Ta1 Nb1 B4 Ru10'
_cell_volume   289.49910943
_cell_formula_units_Z   1
loop_
 _symmetry_equiv_pos_site_id
 _symmetry_equiv_pos_as_xyz
  1  'x, y, z'
loop_
 _atom_site_type_symbol
 _atom_site_label
 _atom_site_symmetry_multiplicity
 _atom_site_fract_x
 _atom_site_fract_y
 _atom_site_fract_z
 _atom_site_occupancy
  Tm  Tm0  1  0.825691  0.675055  0.000000  1
  Tm  Tm1  1  0.174309  0.324945  0.000000  1
  Tm  Tm2  1  0.324945  0.825691  0.000000  1
  Tm  Tm3  1  0.675055  0.174309  0.000000  1
  Ta  Ta4  1  0.000000  0.000000  0.000000  1
  Nb  Nb5  1  0.500000  0.500000  0.000000  1
  B  B6  1  0.620450  0.880066  0.000000  1
  B  B7  1  0.379550  0.119934  0.000000  1
  B  B8  1  0.119934  0.620450  0.000000  1
  B  B9  1  0.880066  0.379550  0.000000  1
  Ru  Ru10  1  0.571303  0.718170  0.500000  1
  Ru  Ru11  1  0.428697  0.281830  0.500000  1
  Ru  Ru12  1  0.071345  0.781787  0.500000  1
  Ru  Ru13  1  0.928655  0.218213  0.500000  1
  Ru  Ru14  1  0.281830  0.571303  0.500000  1
  Ru  Ru15  1  0.718170  0.428697  0.500000  1
  Ru  Ru16  1  0.218213  0.071345  0.500000  1
  Ru  Ru17  1  0.781787  0.928655  0.500000  1
  Ru  Ru18  1  0.500000  0.000000  0.500000  1
  Ru  Ru19  1  0.000000  0.500000  0.500000  1
