# generated using pymatgen
data_Tb3ErTm4Ga3Co
_symmetry_space_group_name_H-M   'P 1'
_cell_length_a   9.92147900
_cell_length_b   9.92425503
_cell_length_c   6.94054000
_cell_angle_alpha   89.99845537
_cell_angle_beta   89.99993030
_cell_angle_gamma   119.99042612
_symmetry_Int_Tables_number   1
_chemical_formula_structural   Tb3ErTm4Ga3Co
_chemical_formula_sum   'Tb6 Er2 Tm8 Ga6 Co2'
_cell_volume   591.88879201
_cell_formula_units_Z   2
loop_
 _symmetry_equiv_pos_site_id
 _symmetry_equiv_pos_as_xyz
  1  'x, y, z'
loop_
 _atom_site_type_symbol
 _atom_site_label
 _atom_site_symmetry_multiplicity
 _atom_site_fract_x
 _atom_site_fract_y
 _atom_site_fract_z
 _atom_site_occupancy
  Tb  Tb0  1  0.463458  0.926898  0.208265  1
  Tb  Tb1  1  0.536103  0.463904  0.707999  1
  Tb  Tb2  1  0.927803  0.463901  0.707975  1
  Tb  Tb3  1  0.536229  0.072462  0.708085  1
  Tb  Tb4  1  0.000006  0.000029  0.231357  1
  Tb  Tb5  1  0.999944  0.999907  0.731312  1
  Er  Er6  1  0.463208  0.536598  0.207919  1
  Er  Er7  1  0.073399  0.536598  0.207887  1
  Tm  Tm8  1  0.173460  0.826101  0.511517  1
  Tm  Tm9  1  0.652638  0.826099  0.511526  1
  Tm  Tm10  1  0.173870  0.347729  0.511146  1
  Tm  Tm11  1  0.826755  0.173957  0.012225  1
  Tm  Tm12  1  0.347196  0.173950  0.012212  1
  Tm  Tm13  1  0.826327  0.652652  0.012559  1
  Tm  Tm14  1  0.333115  0.666230  0.826431  1
  Tm  Tm15  1  0.666852  0.333710  0.325757  1
  Ga  Ga16  1  0.163390  0.836182  0.958205  1
  Ga  Ga17  1  0.672787  0.836176  0.958211  1
  Ga  Ga18  1  0.163771  0.327538  0.958602  1
  Ga  Ga19  1  0.836543  0.163512  0.457903  1
  Ga  Ga20  1  0.326981  0.163516  0.457904  1
  Ga  Ga21  1  0.836500  0.673005  0.457661  1
  Co  Co22  1  0.332997  0.665998  0.445243  1
  Co  Co23  1  0.666670  0.333345  0.946141  1
