# generated using pymatgen
data_Pr12B3AsCl12
_symmetry_space_group_name_H-M   'P 1'
_cell_length_a   10.09428745
_cell_length_b   10.09428876
_cell_length_c   10.09428825
_cell_angle_alpha   109.95038059
_cell_angle_beta   109.95038569
_cell_angle_gamma   109.95038479
_symmetry_Int_Tables_number   1
_chemical_formula_structural   Pr12B3AsCl12
_chemical_formula_sum   'Pr12 B3 As1 Cl12'
_cell_volume   777.41755008
_cell_formula_units_Z   1
loop_
 _symmetry_equiv_pos_site_id
 _symmetry_equiv_pos_as_xyz
  1  'x, y, z'
loop_
 _atom_site_type_symbol
 _atom_site_label
 _atom_site_symmetry_multiplicity
 _atom_site_fract_x
 _atom_site_fract_y
 _atom_site_fract_z
 _atom_site_occupancy
  Pr  Pr0  1  0.481598  0.503146  0.231974  1
  Pr  Pr1  1  0.750000  0.234359  0.265641  1
  Pr  Pr2  1  0.750000  0.013566  0.486434  1
  Pr  Pr3  1  0.231974  0.481598  0.503146  1
  Pr  Pr4  1  0.265641  0.750000  0.234359  1
  Pr  Pr5  1  0.018402  0.268026  0.996854  1
  Pr  Pr6  1  0.996854  0.018402  0.268026  1
  Pr  Pr7  1  0.486434  0.750000  0.013566  1
  Pr  Pr8  1  0.503146  0.231974  0.481598  1
  Pr  Pr9  1  0.013566  0.486434  0.750000  1
  Pr  Pr10  1  0.268026  0.996854  0.018402  1
  Pr  Pr11  1  0.234359  0.265641  0.750000  1
  B  B12  1  0.498379  0.001621  0.250000  1
  B  B13  1  0.001621  0.250000  0.498379  1
  B  B14  1  0.250000  0.498379  0.001621  1
  As  As15  1  0.250000  0.250000  0.250000  1
  Cl  Cl16  1  0.250000  0.754488  0.745512  1
  Cl  Cl17  1  0.504918  0.503263  0.753599  1
  Cl  Cl18  1  0.995082  0.746401  0.996737  1
  Cl  Cl19  1  0.745512  0.250000  0.754488  1
  Cl  Cl20  1  0.996737  0.995082  0.746401  1
  Cl  Cl21  1  0.250000  0.999178  0.500822  1
  Cl  Cl22  1  0.753599  0.504918  0.503263  1
  Cl  Cl23  1  0.500822  0.250000  0.999178  1
  Cl  Cl24  1  0.754488  0.745512  0.250000  1
  Cl  Cl25  1  0.746401  0.996737  0.995082  1
  Cl  Cl26  1  0.999178  0.500822  0.250000  1
  Cl  Cl27  1  0.503263  0.753599  0.504918  1
