# generated using pymatgen
data_Y2Er3(OsO6)2
_symmetry_space_group_name_H-M   'P 1'
_cell_length_a   6.85500282
_cell_length_b   6.85500283
_cell_length_c   7.46387556
_cell_angle_alpha   74.09265609
_cell_angle_beta   74.09265777
_cell_angle_gamma   48.75744804
_symmetry_Int_Tables_number   1
_chemical_formula_structural   Y2Er3(OsO6)2
_chemical_formula_sum   'Y2 Er3 Os2 O12'
_cell_volume   251.50363183
_cell_formula_units_Z   1
loop_
 _symmetry_equiv_pos_site_id
 _symmetry_equiv_pos_as_xyz
  1  'x, y, z'
loop_
 _atom_site_type_symbol
 _atom_site_label
 _atom_site_symmetry_multiplicity
 _atom_site_fract_x
 _atom_site_fract_y
 _atom_site_fract_z
 _atom_site_occupancy
  Y  Y0  1  0.698830  0.698830  0.641959  1
  Y  Y1  1  0.301170  0.301170  0.358041  1
  Er  Er2  1  0.688041  0.688041  0.171164  1
  Er  Er3  1  0.311959  0.311959  0.828836  1
  Er  Er4  1  0.000000  0.000000  0.500000  1
  Os  Os5  1  0.781120  0.218880  0.000000  1
  Os  Os6  1  0.218880  0.781120  0.000000  1
  O  O7  1  0.000927  0.000927  0.203944  1
  O  O8  1  0.999073  0.999073  0.796056  1
  O  O9  1  0.580936  0.085261  0.085002  1
  O  O10  1  0.419064  0.914739  0.914998  1
  O  O11  1  0.914739  0.419064  0.914998  1
  O  O12  1  0.085261  0.580936  0.085002  1
  O  O13  1  0.500066  0.500066  0.175023  1
  O  O14  1  0.499934  0.499934  0.824977  1
  O  O15  1  0.402885  0.899448  0.425784  1
  O  O16  1  0.597115  0.100552  0.574216  1
  O  O17  1  0.100552  0.597115  0.574216  1
  O  O18  1  0.899448  0.402885  0.425784  1
