# generated using pymatgen
data_La4Al3GaRh4
_symmetry_space_group_name_H-M   'P 1'
_cell_length_a   4.28352400
_cell_length_b   7.30774247
_cell_length_c   16.19263158
_cell_angle_alpha   89.77105135
_cell_angle_beta   90.00000000
_cell_angle_gamma   90.00000000
_symmetry_Int_Tables_number   1
_chemical_formula_structural   La4Al3GaRh4
_chemical_formula_sum   'La8 Al6 Ga2 Rh8'
_cell_volume   506.87212248
_cell_formula_units_Z   2
loop_
 _symmetry_equiv_pos_site_id
 _symmetry_equiv_pos_as_xyz
  1  'x, y, z'
loop_
 _atom_site_type_symbol
 _atom_site_label
 _atom_site_symmetry_multiplicity
 _atom_site_fract_x
 _atom_site_fract_y
 _atom_site_fract_z
 _atom_site_occupancy
  La  La0  1  0.250000  0.513372  0.779369  1
  La  La1  1  0.750000  0.486628  0.220631  1
  La  La2  1  0.750000  0.982329  0.281092  1
  La  La3  1  0.250000  0.017671  0.718908  1
  La  La4  1  0.250000  0.654779  0.560574  1
  La  La5  1  0.750000  0.345221  0.439426  1
  La  La6  1  0.750000  0.845354  0.059683  1
  La  La7  1  0.250000  0.154646  0.940317  1
  Al  Al8  1  0.750000  0.843263  0.850625  1
  Al  Al9  1  0.250000  0.156737  0.149375  1
  Al  Al10  1  0.250000  0.506235  0.060454  1
  Al  Al11  1  0.750000  0.493765  0.939546  1
  Al  Al12  1  0.750000  0.994970  0.560288  1
  Al  Al13  1  0.250000  0.005030  0.439712  1
  Ga  Ga14  1  0.250000  0.654044  0.351541  1
  Ga  Ga15  1  0.750000  0.345956  0.648459  1
  Rh  Rh16  1  0.250000  0.774891  0.176391  1
  Rh  Rh17  1  0.750000  0.225109  0.823609  1
  Rh  Rh18  1  0.750000  0.734293  0.679388  1
  Rh  Rh19  1  0.250000  0.265707  0.320612  1
  Rh  Rh20  1  0.250000  0.714298  0.926195  1
  Rh  Rh21  1  0.750000  0.285702  0.073805  1
  Rh  Rh22  1  0.750000  0.785696  0.429068  1
  Rh  Rh23  1  0.250000  0.214304  0.570932  1
