# generated using pymatgen
data_Eu2AlCrO6
_symmetry_space_group_name_H-M   'P 1'
_cell_length_a   5.40621108
_cell_length_b   5.42000600
_cell_length_c   7.65523000
_cell_angle_alpha   90.00000000
_cell_angle_beta   90.01165447
_cell_angle_gamma   90.00000000
_symmetry_Int_Tables_number   1
_chemical_formula_structural   Eu2AlCrO6
_chemical_formula_sum   'Eu4 Al2 Cr2 O12'
_cell_volume   224.31122145
_cell_formula_units_Z   2
loop_
 _symmetry_equiv_pos_site_id
 _symmetry_equiv_pos_as_xyz
  1  'x, y, z'
loop_
 _atom_site_type_symbol
 _atom_site_label
 _atom_site_symmetry_multiplicity
 _atom_site_fract_x
 _atom_site_fract_y
 _atom_site_fract_z
 _atom_site_occupancy
  Eu  Eu0  1  0.503551  0.530469  0.250279  1
  Eu  Eu1  1  0.996449  0.030469  0.249721  1
  Eu  Eu2  1  0.496449  0.469531  0.749721  1
  Eu  Eu3  1  0.003551  0.969531  0.750279  1
  Al  Al4  1  0.000000  0.500000  0.000000  1
  Al  Al5  1  0.500000  0.000000  0.500000  1
  Cr  Cr6  1  0.000000  0.500000  0.500000  1
  Cr  Cr7  1  0.500000  0.000000  0.000000  1
  O  O8  1  0.434051  0.987319  0.255442  1
  O  O9  1  0.065949  0.487319  0.244558  1
  O  O10  1  0.565949  0.012681  0.744558  1
  O  O11  1  0.934051  0.512681  0.755442  1
  O  O12  1  0.795602  0.785938  0.033851  1
  O  O13  1  0.704398  0.285938  0.466149  1
  O  O14  1  0.214920  0.204521  0.533591  1
  O  O15  1  0.285080  0.704521  0.966409  1
  O  O16  1  0.204398  0.214062  0.966149  1
  O  O17  1  0.295602  0.714062  0.533851  1
  O  O18  1  0.785080  0.795479  0.466409  1
  O  O19  1  0.714920  0.295479  0.033591  1
