# generated using pymatgen
data_Pr6Al24Tc3Pt5
_symmetry_space_group_name_H-M   'P 1'
_cell_length_a   8.96477200
_cell_length_b   9.01327943
_cell_length_c   9.70917978
_cell_angle_alpha   90.29456525
_cell_angle_beta   90.00000000
_cell_angle_gamma   119.82212416
_symmetry_Int_Tables_number   1
_chemical_formula_structural   Pr6Al24Tc3Pt5
_chemical_formula_sum   'Pr6 Al24 Tc3 Pt5'
_cell_volume   680.61775331
_cell_formula_units_Z   1
loop_
 _symmetry_equiv_pos_site_id
 _symmetry_equiv_pos_as_xyz
  1  'x, y, z'
loop_
 _atom_site_type_symbol
 _atom_site_label
 _atom_site_symmetry_multiplicity
 _atom_site_fract_x
 _atom_site_fract_y
 _atom_site_fract_z
 _atom_site_occupancy
  Pr  Pr0  1  0.189471  0.378943  0.251144  1
  Pr  Pr1  1  0.810529  0.621057  0.748856  1
  Pr  Pr2  1  0.620689  0.811632  0.249714  1
  Pr  Pr3  1  0.379311  0.188368  0.750286  1
  Pr  Pr4  1  0.190945  0.811632  0.249714  1
  Pr  Pr5  1  0.809055  0.188368  0.750286  1
  Al  Al6  1  0.333327  0.666655  0.023829  1
  Al  Al7  1  0.666673  0.333345  0.976171  1
  Al  Al8  1  0.663628  0.327255  0.523647  1
  Al  Al9  1  0.336372  0.672745  0.476353  1
  Al  Al10  1  0.161888  0.323774  0.574382  1
  Al  Al11  1  0.838112  0.676226  0.425618  1
  Al  Al12  1  0.674640  0.842748  0.574703  1
  Al  Al13  1  0.838749  0.677500  0.075313  1
  Al  Al14  1  0.325360  0.157252  0.425297  1
  Al  Al15  1  0.161251  0.322500  0.924687  1
  Al  Al16  1  0.168109  0.842748  0.574703  1
  Al  Al17  1  0.323365  0.162299  0.078137  1
  Al  Al18  1  0.831891  0.157252  0.425297  1
  Al  Al19  1  0.676635  0.837701  0.921863  1
  Al  Al20  1  0.838933  0.162299  0.078137  1
  Al  Al21  1  0.161067  0.837701  0.921863  1
  Al  Al22  1  0.563987  0.127973  0.253682  1
  Al  Al23  1  0.436013  0.872027  0.746318  1
  Al  Al24  1  0.870576  0.434554  0.249729  1
  Al  Al25  1  0.129424  0.565446  0.750271  1
  Al  Al26  1  0.563978  0.434554  0.249729  1
  Al  Al27  1  0.436022  0.565446  0.750271  1
  Al  Al28  1  0.001333  0.002665  0.250253  1
  Al  Al29  1  0.998667  0.997335  0.749747  1
  Tc  Tc30  1  0.500000  0.000000  0.500000  1
  Tc  Tc31  1  0.000000  0.000000  0.000000  1
  Tc  Tc32  1  0.000000  0.000000  0.500000  1
  Pt  Pt33  1  0.500000  0.000000  0.000000  1
  Pt  Pt34  1  0.000000  0.500000  0.000000  1
  Pt  Pt35  1  0.500000  0.500000  0.000000  1
  Pt  Pt36  1  0.000000  0.500000  0.500000  1
  Pt  Pt37  1  0.500000  0.500000  0.500000  1
