# generated using pymatgen
data_TbLu5ZrCo17P12
_symmetry_space_group_name_H-M   'P 1'
_cell_length_a   3.67933900
_cell_length_b   10.53656900
_cell_length_c   12.22384000
_cell_angle_alpha   90.00000000
_cell_angle_beta   90.00000000
_cell_angle_gamma   90.00000000
_symmetry_Int_Tables_number   1
_chemical_formula_structural   TbLu5ZrCo17P12
_chemical_formula_sum   'Tb1 Lu5 Zr1 Co17 P12'
_cell_volume   473.88905263
_cell_formula_units_Z   1
loop_
 _symmetry_equiv_pos_site_id
 _symmetry_equiv_pos_as_xyz
  1  'x, y, z'
loop_
 _atom_site_type_symbol
 _atom_site_label
 _atom_site_symmetry_multiplicity
 _atom_site_fract_x
 _atom_site_fract_y
 _atom_site_fract_z
 _atom_site_occupancy
  Tb  Tb0  1  0.500000  0.000000  0.476612  1
  Lu  Lu1  1  0.000000  0.500000  0.530078  1
  Lu  Lu2  1  0.500000  0.822041  0.207011  1
  Lu  Lu3  1  0.500000  0.177959  0.207011  1
  Lu  Lu4  1  0.000000  0.681981  0.796079  1
  Lu  Lu5  1  0.000000  0.318019  0.796079  1
  Zr  Zr6  1  0.500000  0.500000  0.155504  1
  Co  Co7  1  0.000000  0.000000  0.836546  1
  Co  Co8  1  0.500000  0.500000  0.702698  1
  Co  Co9  1  0.000000  0.000000  0.294367  1
  Co  Co10  1  0.000000  0.500000  0.982907  1
  Co  Co11  1  0.500000  0.000000  0.013520  1
  Co  Co12  1  0.500000  0.326989  0.987404  1
  Co  Co13  1  0.500000  0.673011  0.987404  1
  Co  Co14  1  0.000000  0.161699  0.001277  1
  Co  Co15  1  0.000000  0.838301  0.001277  1
  Co  Co16  1  0.500000  0.295519  0.434962  1
  Co  Co17  1  0.500000  0.704481  0.434962  1
  Co  Co18  1  0.000000  0.203458  0.570878  1
  Co  Co19  1  0.000000  0.796542  0.570878  1
  Co  Co20  1  0.500000  0.878904  0.707995  1
  Co  Co21  1  0.500000  0.121096  0.707995  1
  Co  Co22  1  0.000000  0.623650  0.297223  1
  Co  Co23  1  0.000000  0.376350  0.297223  1
  P  P24  1  0.500000  0.500000  0.880367  1
  P  P25  1  0.000000  0.000000  0.116658  1
  P  P26  1  0.500000  0.500000  0.364368  1
  P  P27  1  0.000000  0.000000  0.654785  1
  P  P28  1  0.500000  0.311149  0.619075  1
  P  P29  1  0.500000  0.688851  0.619075  1
  P  P30  1  0.000000  0.188304  0.385010  1
  P  P31  1  0.000000  0.811696  0.385010  1
  P  P32  1  0.500000  0.851328  0.887563  1
  P  P33  1  0.500000  0.148672  0.887563  1
  P  P34  1  0.000000  0.666188  0.101318  1
  P  P35  1  0.000000  0.333812  0.101318  1
