# generated using pymatgen
data_HfZr(ScPt)2
_symmetry_space_group_name_H-M   'P 1'
_cell_length_a   4.54162700
_cell_length_b   6.85176700
_cell_length_c   8.01331600
_cell_angle_alpha   90.00000000
_cell_angle_beta   90.00000000
_cell_angle_gamma   90.00000000
_symmetry_Int_Tables_number   1
_chemical_formula_structural   HfZr(ScPt)2
_chemical_formula_sum   'Hf2 Zr2 Sc4 Pt4'
_cell_volume   249.35972959
_cell_formula_units_Z   2
loop_
 _symmetry_equiv_pos_site_id
 _symmetry_equiv_pos_as_xyz
  1  'x, y, z'
loop_
 _atom_site_type_symbol
 _atom_site_label
 _atom_site_symmetry_multiplicity
 _atom_site_fract_x
 _atom_site_fract_y
 _atom_site_fract_z
 _atom_site_occupancy
  Hf  Hf0  1  0.750000  0.150078  0.079585  1
  Hf  Hf1  1  0.750000  0.650078  0.420415  1
  Zr  Zr2  1  0.250000  0.848413  0.919713  1
  Zr  Zr3  1  0.250000  0.348413  0.580287  1
  Sc  Sc4  1  0.250000  0.982994  0.321151  1
  Sc  Sc5  1  0.250000  0.482994  0.178849  1
  Sc  Sc6  1  0.750000  0.015624  0.677300  1
  Sc  Sc7  1  0.750000  0.515624  0.822700  1
  Pt  Pt8  1  0.250000  0.242983  0.910428  1
  Pt  Pt9  1  0.250000  0.742983  0.589572  1
  Pt  Pt10  1  0.750000  0.759906  0.097155  1
  Pt  Pt11  1  0.750000  0.259906  0.402845  1
