# generated using pymatgen
data_Li2YbTmSi4
_symmetry_space_group_name_H-M   'P 1'
_cell_length_a   3.76708800
_cell_length_b   7.74639207
_cell_length_c   10.33042682
_cell_angle_alpha   89.36578106
_cell_angle_beta   90.00000000
_cell_angle_gamma   90.00000000
_symmetry_Int_Tables_number   1
_chemical_formula_structural   Li2YbTmSi4
_chemical_formula_sum   'Li4 Yb2 Tm2 Si8'
_cell_volume   301.43723579
_cell_formula_units_Z   2
loop_
 _symmetry_equiv_pos_site_id
 _symmetry_equiv_pos_as_xyz
  1  'x, y, z'
loop_
 _atom_site_type_symbol
 _atom_site_label
 _atom_site_symmetry_multiplicity
 _atom_site_fract_x
 _atom_site_fract_y
 _atom_site_fract_z
 _atom_site_occupancy
  Li  Li0  1  0.250000  0.998679  0.390372  1
  Li  Li1  1  0.750000  0.001321  0.609628  1
  Li  Li2  1  0.250000  0.489635  0.108700  1
  Li  Li3  1  0.750000  0.510365  0.891300  1
  Yb  Yb4  1  0.250000  0.637015  0.634478  1
  Yb  Yb5  1  0.750000  0.362985  0.365522  1
  Tm  Tm6  1  0.250000  0.128860  0.865218  1
  Tm  Tm7  1  0.750000  0.871140  0.134782  1
  Si  Si8  1  0.750000  0.259760  0.060726  1
  Si  Si9  1  0.250000  0.740240  0.939274  1
  Si  Si10  1  0.750000  0.771416  0.426302  1
  Si  Si11  1  0.250000  0.228584  0.573698  1
  Si  Si12  1  0.750000  0.845010  0.825724  1
  Si  Si13  1  0.250000  0.154990  0.174276  1
  Si  Si14  1  0.750000  0.334815  0.684855  1
  Si  Si15  1  0.250000  0.665185  0.315145  1
