# generated using pymatgen
data_Tb4Lu16SnBi11
_symmetry_space_group_name_H-M   'P 1'
_cell_length_a   8.15399784
_cell_length_b   9.37546500
_cell_length_c   11.87873077
_cell_angle_alpha   90.00000000
_cell_angle_beta   90.16840952
_cell_angle_gamma   90.00000000
_symmetry_Int_Tables_number   1
_chemical_formula_structural   Tb4Lu16SnBi11
_chemical_formula_sum   'Tb4 Lu16 Sn1 Bi11'
_cell_volume   908.09560216
_cell_formula_units_Z   1
loop_
 _symmetry_equiv_pos_site_id
 _symmetry_equiv_pos_as_xyz
  1  'x, y, z'
loop_
 _atom_site_type_symbol
 _atom_site_label
 _atom_site_symmetry_multiplicity
 _atom_site_fract_x
 _atom_site_fract_y
 _atom_site_fract_z
 _atom_site_occupancy
  Tb  Tb0  1  0.313420  0.250000  0.218377  1
  Tb  Tb1  1  0.813198  0.250000  0.282107  1
  Tb  Tb2  1  0.683478  0.750000  0.783711  1
  Tb  Tb3  1  0.188168  0.750000  0.719941  1
  Lu  Lu4  1  0.352529  0.750000  0.215000  1
  Lu  Lu5  1  0.852788  0.750000  0.282074  1
  Lu  Lu6  1  0.648124  0.250000  0.781541  1
  Lu  Lu7  1  0.148207  0.250000  0.718037  1
  Lu  Lu8  1  0.689306  0.569318  0.059338  1
  Lu  Lu9  1  0.192567  0.933022  0.439424  1
  Lu  Lu10  1  0.307723  0.062682  0.939727  1
  Lu  Lu11  1  0.807367  0.432899  0.560245  1
  Lu  Lu12  1  0.307723  0.437318  0.939727  1
  Lu  Lu13  1  0.807367  0.067101  0.560245  1
  Lu  Lu14  1  0.689306  0.930682  0.059338  1
  Lu  Lu15  1  0.192567  0.566978  0.439424  1
  Lu  Lu16  1  0.477233  0.250000  0.489408  1
  Lu  Lu17  1  0.977564  0.250000  0.010755  1
  Lu  Lu18  1  0.522921  0.750000  0.510648  1
  Lu  Lu19  1  0.028464  0.750000  0.989179  1
  Sn  Sn20  1  0.404360  0.750000  0.960836  1
  Bi  Bi21  1  0.903589  0.750000  0.540430  1
  Bi  Bi22  1  0.596332  0.250000  0.039881  1
  Bi  Bi23  1  0.096819  0.250000  0.460039  1
  Bi  Bi24  1  0.565257  0.993677  0.326504  1
  Bi  Bi25  1  0.064775  0.505521  0.174030  1
  Bi  Bi26  1  0.434698  0.493732  0.673346  1
  Bi  Bi27  1  0.934709  0.006021  0.826404  1
  Bi  Bi28  1  0.434698  0.006268  0.673346  1
  Bi  Bi29  1  0.934709  0.493979  0.826404  1
  Bi  Bi30  1  0.565257  0.506323  0.326504  1
  Bi  Bi31  1  0.064775  0.994479  0.174030  1
