# generated using pymatgen
data_SmCoMo(PRh)3
_symmetry_space_group_name_H-M   'P 1'
_cell_length_a   3.87980400
_cell_length_b   10.77915900
_cell_length_c   12.43656500
_cell_angle_alpha   90.00000000
_cell_angle_beta   90.00000000
_cell_angle_gamma   90.00000000
_symmetry_Int_Tables_number   1
_chemical_formula_structural   SmCoMo(PRh)3
_chemical_formula_sum   'Sm4 Co4 Mo4 P12 Rh12'
_cell_volume   520.10988589
_cell_formula_units_Z   4
loop_
 _symmetry_equiv_pos_site_id
 _symmetry_equiv_pos_as_xyz
  1  'x, y, z'
loop_
 _atom_site_type_symbol
 _atom_site_label
 _atom_site_symmetry_multiplicity
 _atom_site_fract_x
 _atom_site_fract_y
 _atom_site_fract_z
 _atom_site_occupancy
  Sm  Sm0  1  0.250000  0.582938  0.706916  1
  Sm  Sm1  1  0.250000  0.917062  0.206916  1
  Sm  Sm2  1  0.750000  0.417062  0.293084  1
  Sm  Sm3  1  0.750000  0.082938  0.793084  1
  Co  Co4  1  0.250000  0.464547  0.935774  1
  Co  Co5  1  0.250000  0.035453  0.435774  1
  Co  Co6  1  0.750000  0.535453  0.064226  1
  Co  Co7  1  0.750000  0.964547  0.564226  1
  Mo  Mo8  1  0.250000  0.705866  0.985241  1
  Mo  Mo9  1  0.250000  0.794134  0.485241  1
  Mo  Mo10  1  0.750000  0.294134  0.014759  1
  Mo  Mo11  1  0.750000  0.205866  0.514759  1
  P  P12  1  0.250000  0.423616  0.107375  1
  P  P13  1  0.250000  0.076384  0.607375  1
  P  P14  1  0.750000  0.576384  0.892625  1
  P  P15  1  0.750000  0.923616  0.392625  1
  P  P16  1  0.250000  0.271651  0.872338  1
  P  P17  1  0.250000  0.228349  0.372338  1
  P  P18  1  0.750000  0.728349  0.127662  1
  P  P19  1  0.750000  0.771651  0.627662  1
  P  P20  1  0.250000  0.601112  0.391945  1
  P  P21  1  0.250000  0.898888  0.891945  1
  P  P22  1  0.750000  0.398888  0.608055  1
  P  P23  1  0.750000  0.101112  0.108055  1
  Rh  Rh24  1  0.250000  0.404290  0.487244  1
  Rh  Rh25  1  0.250000  0.095710  0.987244  1
  Rh  Rh26  1  0.750000  0.595710  0.512756  1
  Rh  Rh27  1  0.750000  0.904290  0.012756  1
  Rh  Rh28  1  0.250000  0.228758  0.179880  1
  Rh  Rh29  1  0.250000  0.271242  0.679880  1
  Rh  Rh30  1  0.750000  0.771242  0.820120  1
  Rh  Rh31  1  0.750000  0.728758  0.320120  1
  Rh  Rh32  1  0.250000  0.888072  0.698745  1
  Rh  Rh33  1  0.250000  0.611928  0.198745  1
  Rh  Rh34  1  0.750000  0.111928  0.301255  1
  Rh  Rh35  1  0.750000  0.388072  0.801255  1
