# generated using pymatgen
data_Hf6Ti4Al12CoIr6
_symmetry_space_group_name_H-M   'P 1'
_cell_length_a   8.71812462
_cell_length_b   8.71812478
_cell_length_c   8.71812500
_cell_angle_alpha   59.99999537
_cell_angle_beta   59.99999478
_cell_angle_gamma   60.00000149
_symmetry_Int_Tables_number   1
_chemical_formula_structural   Hf6Ti4Al12CoIr6
_chemical_formula_sum   'Hf6 Ti4 Al12 Co1 Ir6'
_cell_volume   468.54814181
_cell_formula_units_Z   1
loop_
 _symmetry_equiv_pos_site_id
 _symmetry_equiv_pos_as_xyz
  1  'x, y, z'
loop_
 _atom_site_type_symbol
 _atom_site_label
 _atom_site_symmetry_multiplicity
 _atom_site_fract_x
 _atom_site_fract_y
 _atom_site_fract_z
 _atom_site_occupancy
  Hf  Hf0  1  0.687637  0.687637  0.312363  1
  Hf  Hf1  1  0.312363  0.687637  0.312363  1
  Hf  Hf2  1  0.687637  0.312363  0.312363  1
  Hf  Hf3  1  0.312363  0.312363  0.687637  1
  Hf  Hf4  1  0.687637  0.312363  0.687637  1
  Hf  Hf5  1  0.312363  0.687637  0.687637  1
  Ti  Ti6  1  0.882802  0.882802  0.351594  1
  Ti  Ti7  1  0.882802  0.351594  0.882802  1
  Ti  Ti8  1  0.351594  0.882802  0.882802  1
  Ti  Ti9  1  0.882802  0.882802  0.882802  1
  Al  Al10  1  0.117726  0.117726  0.646824  1
  Al  Al11  1  0.117726  0.646824  0.117726  1
  Al  Al12  1  0.646824  0.117726  0.117726  1
  Al  Al13  1  0.117726  0.117726  0.117726  1
  Al  Al14  1  0.662903  0.662903  0.011290  1
  Al  Al15  1  0.662903  0.011290  0.662903  1
  Al  Al16  1  0.011290  0.662903  0.662903  1
  Al  Al17  1  0.662903  0.662903  0.662903  1
  Al  Al18  1  0.336331  0.336331  0.991008  1
  Al  Al19  1  0.336331  0.991008  0.336331  1
  Al  Al20  1  0.991008  0.336331  0.336331  1
  Al  Al21  1  0.336331  0.336331  0.336331  1
  Co  Co22  1  0.000000  0.000000  0.000000  1
  Ir  Ir23  1  0.998839  0.998839  0.501161  1
  Ir  Ir24  1  0.501161  0.998839  0.501161  1
  Ir  Ir25  1  0.998839  0.501161  0.501161  1
  Ir  Ir26  1  0.501161  0.501161  0.998839  1
  Ir  Ir27  1  0.998839  0.501161  0.998839  1
  Ir  Ir28  1  0.501161  0.998839  0.998839  1
