# generated using pymatgen
data_ErNpTcB6
_symmetry_space_group_name_H-M   'P 1'
_cell_length_a   3.61278400
_cell_length_b   9.24968600
_cell_length_c   11.31630900
_cell_angle_alpha   90.00000000
_cell_angle_beta   90.00000000
_cell_angle_gamma   90.00000000
_symmetry_Int_Tables_number   1
_chemical_formula_structural   ErNpTcB6
_chemical_formula_sum   'Er4 Np4 Tc4 B24'
_cell_volume   378.15842849
_cell_formula_units_Z   4
loop_
 _symmetry_equiv_pos_site_id
 _symmetry_equiv_pos_as_xyz
  1  'x, y, z'
loop_
 _atom_site_type_symbol
 _atom_site_label
 _atom_site_symmetry_multiplicity
 _atom_site_fract_x
 _atom_site_fract_y
 _atom_site_fract_z
 _atom_site_occupancy
  Er  Er0  1  0.000000  0.337928  0.406913  1
  Er  Er1  1  0.000000  0.662072  0.593087  1
  Er  Er2  1  0.000000  0.837928  0.093087  1
  Er  Er3  1  0.000000  0.162072  0.906913  1
  Np  Np4  1  0.000000  0.959035  0.400849  1
  Np  Np5  1  0.000000  0.040965  0.599151  1
  Np  Np6  1  0.000000  0.459035  0.099151  1
  Np  Np7  1  0.000000  0.540965  0.900849  1
  Tc  Tc8  1  0.000000  0.646315  0.318880  1
  Tc  Tc9  1  0.000000  0.353685  0.681120  1
  Tc  Tc10  1  0.000000  0.146315  0.181120  1
  Tc  Tc11  1  0.000000  0.853685  0.818880  1
  B  B12  1  0.500000  0.552116  0.431468  1
  B  B13  1  0.500000  0.447884  0.568532  1
  B  B14  1  0.500000  0.052116  0.068532  1
  B  B15  1  0.500000  0.947884  0.931468  1
  B  B16  1  0.500000  0.744140  0.423045  1
  B  B17  1  0.500000  0.255860  0.576955  1
  B  B18  1  0.500000  0.244140  0.076955  1
  B  B19  1  0.500000  0.755860  0.923045  1
  B  B20  1  0.500000  0.804543  0.274721  1
  B  B21  1  0.500000  0.195457  0.725279  1
  B  B22  1  0.500000  0.304543  0.225279  1
  B  B23  1  0.500000  0.695457  0.774721  1
  B  B24  1  0.500000  0.644588  0.188345  1
  B  B25  1  0.500000  0.355412  0.811655  1
  B  B26  1  0.500000  0.144588  0.311655  1
  B  B27  1  0.500000  0.855412  0.688345  1
  B  B28  1  0.500000  0.988880  0.220160  1
  B  B29  1  0.500000  0.011120  0.779840  1
  B  B30  1  0.500000  0.488880  0.279840  1
  B  B31  1  0.500000  0.511120  0.720160  1
  B  B32  1  0.500000  0.640648  0.039002  1
  B  B33  1  0.500000  0.359352  0.960998  1
  B  B34  1  0.500000  0.140648  0.460998  1
  B  B35  1  0.500000  0.859352  0.539002  1
