# generated using pymatgen
data_Ba3Tm(BO3)3
_symmetry_space_group_name_H-M   'P 1'
_cell_length_a   8.20270041
_cell_length_b   8.20269989
_cell_length_c   8.20270035
_cell_angle_alpha   105.67107767
_cell_angle_beta   105.67106884
_cell_angle_gamma   105.67107203
_symmetry_Int_Tables_number   1
_chemical_formula_structural   Ba3Tm(BO3)3
_chemical_formula_sum   'Ba6 Tm2 B6 O18'
_cell_volume   475.31799549
_cell_formula_units_Z   2
loop_
 _symmetry_equiv_pos_site_id
 _symmetry_equiv_pos_as_xyz
  1  'x, y, z'
loop_
 _atom_site_type_symbol
 _atom_site_label
 _atom_site_symmetry_multiplicity
 _atom_site_fract_x
 _atom_site_fract_y
 _atom_site_fract_z
 _atom_site_occupancy
  Ba  Ba0  1  0.347205  0.734484  0.839530  1
  Ba  Ba1  1  0.839530  0.347205  0.734484  1
  Ba  Ba2  1  0.734484  0.839530  0.347205  1
  Ba  Ba3  1  0.652795  0.265516  0.160470  1
  Ba  Ba4  1  0.160470  0.652795  0.265516  1
  Ba  Ba5  1  0.265516  0.160470  0.652795  1
  Tm  Tm6  1  0.500000  0.500000  0.500000  1
  Tm  Tm7  1  0.000000  0.000000  0.000000  1
  B  B8  1  0.712453  0.625086  0.954250  1
  B  B9  1  0.954250  0.712453  0.625086  1
  B  B10  1  0.625086  0.954250  0.712453  1
  B  B11  1  0.045750  0.287547  0.374914  1
  B  B12  1  0.374914  0.045750  0.287547  1
  B  B13  1  0.287547  0.374914  0.045750  1
  O  O14  1  0.061309  0.805084  0.550218  1
  O  O15  1  0.550218  0.061309  0.805084  1
  O  O16  1  0.425896  0.488826  0.215289  1
  O  O17  1  0.488826  0.215289  0.425896  1
  O  O18  1  0.215289  0.425896  0.488826  1
  O  O19  1  0.784711  0.574104  0.511174  1
  O  O20  1  0.574104  0.511174  0.784711  1
  O  O21  1  0.511174  0.784711  0.574104  1
  O  O22  1  0.251595  0.187734  0.984672  1
  O  O23  1  0.187734  0.984672  0.251595  1
  O  O24  1  0.984672  0.251595  0.187734  1
  O  O25  1  0.748405  0.812266  0.015328  1
  O  O26  1  0.812266  0.015328  0.748405  1
  O  O27  1  0.015328  0.748405  0.812266  1
  O  O28  1  0.194916  0.449782  0.938691  1
  O  O29  1  0.449782  0.938691  0.194916  1
  O  O30  1  0.938691  0.194916  0.449782  1
  O  O31  1  0.805084  0.550218  0.061309  1
