# generated using pymatgen
data_Tb4Ho12MgCd2InPd4
_symmetry_space_group_name_H-M   'P 1'
_cell_length_a   9.68831179
_cell_length_b   9.68831169
_cell_length_c   9.71440300
_cell_angle_alpha   59.91087728
_cell_angle_beta   59.91087763
_cell_angle_gamma   59.88294026
_symmetry_Int_Tables_number   1
_chemical_formula_structural   Tb4Ho12MgCd2InPd4
_chemical_formula_sum   'Tb4 Ho12 Mg1 Cd2 In1 Pd4'
_cell_volume   643.31893078
_cell_formula_units_Z   1
loop_
 _symmetry_equiv_pos_site_id
 _symmetry_equiv_pos_as_xyz
  1  'x, y, z'
loop_
 _atom_site_type_symbol
 _atom_site_label
 _atom_site_symmetry_multiplicity
 _atom_site_fract_x
 _atom_site_fract_y
 _atom_site_fract_z
 _atom_site_occupancy
  Tb  Tb0  1  0.353621  0.353621  0.351799  1
  Tb  Tb1  1  0.352454  0.352454  0.942622  1
  Tb  Tb2  1  0.355135  0.938145  0.352430  1
  Tb  Tb3  1  0.938145  0.355135  0.352430  1
  Ho  Ho4  1  0.809575  0.190455  0.190637  1
  Ho  Ho5  1  0.188767  0.811857  0.811795  1
  Ho  Ho6  1  0.190455  0.809575  0.190637  1
  Ho  Ho7  1  0.811857  0.188767  0.811795  1
  Ho  Ho8  1  0.189641  0.189641  0.810991  1
  Ho  Ho9  1  0.810702  0.810702  0.189836  1
  Ho  Ho10  1  0.935759  0.566782  0.566212  1
  Ho  Ho11  1  0.565987  0.936572  0.930990  1
  Ho  Ho12  1  0.566782  0.935759  0.566212  1
  Ho  Ho13  1  0.936572  0.565987  0.930990  1
  Ho  Ho14  1  0.567544  0.567544  0.932850  1
  Ho  Ho15  1  0.935514  0.935514  0.563942  1
  Mg  Mg16  1  0.577769  0.577769  0.580777  1
  Cd  Cd17  1  0.581145  0.252120  0.584340  1
  Cd  Cd18  1  0.252120  0.581145  0.584340  1
  In  In19  1  0.582028  0.582028  0.252657  1
  Pd  Pd20  1  0.143241  0.143241  0.145170  1
  Pd  Pd21  1  0.143348  0.143348  0.568069  1
  Pd  Pd22  1  0.142372  0.569462  0.144238  1
  Pd  Pd23  1  0.569462  0.142372  0.144238  1
