# generated using pymatgen
data_Dy2Ho(Ga2Ni3)3
_symmetry_space_group_name_H-M   'P 1'
_cell_length_a   4.08565000
_cell_length_b   8.75008228
_cell_length_c   8.75008336
_cell_angle_alpha   60.27033609
_cell_angle_beta   90.00000000
_cell_angle_gamma   90.00000000
_symmetry_Int_Tables_number   1
_chemical_formula_structural   Dy2Ho(Ga2Ni3)3
_chemical_formula_sum   'Dy2 Ho1 Ga6 Ni9'
_cell_volume   271.63938601
_cell_formula_units_Z   1
loop_
 _symmetry_equiv_pos_site_id
 _symmetry_equiv_pos_as_xyz
  1  'x, y, z'
loop_
 _atom_site_type_symbol
 _atom_site_label
 _atom_site_symmetry_multiplicity
 _atom_site_fract_x
 _atom_site_fract_y
 _atom_site_fract_z
 _atom_site_occupancy
  Dy  Dy0  1  0.500000  0.333898  0.333357  1
  Dy  Dy1  1  0.500000  0.666643  0.666102  1
  Ho  Ho2  1  0.000000  0.001331  0.998669  1
  Ga  Ga3  1  0.000000  0.521256  0.478744  1
  Ga  Ga4  1  0.000000  0.478050  0.000874  1
  Ga  Ga5  1  0.000000  0.999126  0.521950  1
  Ga  Ga6  1  0.500000  0.270991  0.729009  1
  Ga  Ga7  1  0.500000  0.729641  0.999879  1
  Ga  Ga8  1  0.500000  0.000121  0.270359  1
  Ni  Ni9  1  0.000000  0.172293  0.202859  1
  Ni  Ni10  1  0.000000  0.202109  0.625308  1
  Ni  Ni11  1  0.000000  0.627650  0.172163  1
  Ni  Ni12  1  0.000000  0.797141  0.827707  1
  Ni  Ni13  1  0.000000  0.374692  0.797891  1
  Ni  Ni14  1  0.000000  0.827837  0.372350  1
  Ni  Ni15  1  0.500000  0.707207  0.292793  1
  Ni  Ni16  1  0.500000  0.290617  0.000704  1
  Ni  Ni17  1  0.500000  0.999296  0.709383  1
