# generated using pymatgen
data_Li5Ag4Hg
_symmetry_space_group_name_H-M   'P 1'
_cell_length_a   3.34893100
_cell_length_b   3.34893100
_cell_length_c   14.79654300
_cell_angle_alpha   90.00000000
_cell_angle_beta   90.00000000
_cell_angle_gamma   90.00000000
_symmetry_Int_Tables_number   1
_chemical_formula_structural   Li5Ag4Hg
_chemical_formula_sum   'Li5 Ag4 Hg1'
_cell_volume   165.94824345
_cell_formula_units_Z   1
loop_
 _symmetry_equiv_pos_site_id
 _symmetry_equiv_pos_as_xyz
  1  'x, y, z'
loop_
 _atom_site_type_symbol
 _atom_site_label
 _atom_site_symmetry_multiplicity
 _atom_site_fract_x
 _atom_site_fract_y
 _atom_site_fract_z
 _atom_site_occupancy
  Li  Li0  1  0.500000  0.500000  0.104756  1
  Li  Li1  1  0.500000  0.500000  0.301583  1
  Li  Li2  1  0.500000  0.500000  0.500000  1
  Li  Li3  1  0.500000  0.500000  0.698417  1
  Li  Li4  1  0.500000  0.500000  0.895244  1
  Ag  Ag5  1  0.000000  0.000000  0.206047  1
  Ag  Ag6  1  0.000000  0.000000  0.402554  1
  Ag  Ag7  1  0.000000  0.000000  0.597446  1
  Ag  Ag8  1  0.000000  0.000000  0.793953  1
  Hg  Hg9  1  0.000000  0.000000  0.000000  1
