# generated using pymatgen
data_CrCo2Sb12Pt
_symmetry_space_group_name_H-M   'P 1'
_cell_length_a   8.03040739
_cell_length_b   8.06832779
_cell_length_c   9.33802132
_cell_angle_alpha   55.00956906
_cell_angle_beta   55.03592627
_cell_angle_gamma   70.73564184
_symmetry_Int_Tables_number   1
_chemical_formula_structural   CrCo2Sb12Pt
_chemical_formula_sum   'Cr1 Co2 Sb12 Pt1'
_cell_volume   406.20523307
_cell_formula_units_Z   1
loop_
 _symmetry_equiv_pos_site_id
 _symmetry_equiv_pos_as_xyz
  1  'x, y, z'
loop_
 _atom_site_type_symbol
 _atom_site_label
 _atom_site_symmetry_multiplicity
 _atom_site_fract_x
 _atom_site_fract_y
 _atom_site_fract_z
 _atom_site_occupancy
  Cr  Cr0  1  0.500000  0.000000  0.000000  1
  Co  Co1  1  0.500000  0.000000  0.500000  1
  Co  Co2  1  0.000000  0.500000  0.500000  1
  Sb  Sb3  1  0.668803  0.669892  0.489380  1
  Sb  Sb4  1  0.331197  0.330108  0.510620  1
  Sb  Sb5  1  0.651670  0.657865  0.191518  1
  Sb  Sb6  1  0.348330  0.342135  0.808482  1
  Sb  Sb7  1  0.164029  0.853661  0.651797  1
  Sb  Sb8  1  0.835971  0.146339  0.348203  1
  Sb  Sb9  1  0.848417  0.165160  0.656812  1
  Sb  Sb10  1  0.151583  0.834840  0.343188  1
  Sb  Sb11  1  0.815771  0.492989  0.835319  1
  Sb  Sb12  1  0.184229  0.507011  0.164681  1
  Sb  Sb13  1  0.505844  0.177542  0.165456  1
  Sb  Sb14  1  0.494156  0.822458  0.834544  1
  Pt  Pt15  1  0.000000  0.500000  0.000000  1
