# generated using pymatgen
data_Hf4TaTi2Re5
_symmetry_space_group_name_H-M   'P 1'
_cell_length_a   5.30519200
_cell_length_b   5.34012857
_cell_length_c   8.73560800
_cell_angle_alpha   90.00000000
_cell_angle_beta   90.00000000
_cell_angle_gamma   119.78380600
_symmetry_Int_Tables_number   1
_chemical_formula_structural   Hf4TaTi2Re5
_chemical_formula_sum   'Hf4 Ta1 Ti2 Re5'
_cell_volume   214.79224079
_cell_formula_units_Z   1
loop_
 _symmetry_equiv_pos_site_id
 _symmetry_equiv_pos_as_xyz
  1  'x, y, z'
loop_
 _atom_site_type_symbol
 _atom_site_label
 _atom_site_symmetry_multiplicity
 _atom_site_fract_x
 _atom_site_fract_y
 _atom_site_fract_z
 _atom_site_occupancy
  Hf  Hf0  1  0.332972  0.665945  0.058461  1
  Hf  Hf1  1  0.665560  0.331117  0.568218  1
  Hf  Hf2  1  0.665560  0.331117  0.931782  1
  Hf  Hf3  1  0.332972  0.665945  0.441539  1
  Ta  Ta4  1  0.829263  0.658528  0.250000  1
  Ti  Ti5  1  0.002901  0.005802  0.996725  1
  Ti  Ti6  1  0.002901  0.005802  0.503275  1
  Re  Re7  1  0.168786  0.830952  0.750000  1
  Re  Re8  1  0.662167  0.830952  0.750000  1
  Re  Re9  1  0.338374  0.166034  0.250000  1
  Re  Re10  1  0.827660  0.166034  0.250000  1
  Re  Re11  1  0.170886  0.341771  0.750000  1
