# generated using pymatgen
data_CeAlSiAu2
_symmetry_space_group_name_H-M   'P 1'
_cell_length_a   4.33637400
_cell_length_b   4.33637400
_cell_length_c   10.57235400
_cell_angle_alpha   90.00000000
_cell_angle_beta   90.00000000
_cell_angle_gamma   90.00000000
_symmetry_Int_Tables_number   1
_chemical_formula_structural   CeAlSiAu2
_chemical_formula_sum   'Ce2 Al2 Si2 Au4'
_cell_volume   198.80401912
_cell_formula_units_Z   2
loop_
 _symmetry_equiv_pos_site_id
 _symmetry_equiv_pos_as_xyz
  1  'x, y, z'
loop_
 _atom_site_type_symbol
 _atom_site_label
 _atom_site_symmetry_multiplicity
 _atom_site_fract_x
 _atom_site_fract_y
 _atom_site_fract_z
 _atom_site_occupancy
  Ce  Ce0  1  0.000000  0.500000  0.239392  1
  Ce  Ce1  1  0.500000  0.000000  0.760608  1
  Al  Al2  1  0.000000  0.000000  0.500000  1
  Al  Al3  1  0.500000  0.500000  0.500000  1
  Si  Si4  1  0.000000  0.500000  0.865282  1
  Si  Si5  1  0.500000  0.000000  0.134718  1
  Au  Au6  1  0.000000  0.000000  0.000000  1
  Au  Au7  1  0.500000  0.500000  0.000000  1
  Au  Au8  1  0.000000  0.500000  0.634340  1
  Au  Au9  1  0.500000  0.000000  0.365660  1
