# generated using pymatgen
data_Ce3ErCu3SiRh9
_symmetry_space_group_name_H-M   'P 1'
_cell_length_a   7.11669513
_cell_length_b   7.11669508
_cell_length_c   7.25535200
_cell_angle_alpha   109.86638449
_cell_angle_beta   109.86638436
_cell_angle_gamma   109.07318272
_symmetry_Int_Tables_number   1
_chemical_formula_structural   Ce3ErCu3SiRh9
_chemical_formula_sum   'Ce3 Er1 Cu3 Si1 Rh9'
_cell_volume   281.48292024
_cell_formula_units_Z   1
loop_
 _symmetry_equiv_pos_site_id
 _symmetry_equiv_pos_as_xyz
  1  'x, y, z'
loop_
 _atom_site_type_symbol
 _atom_site_label
 _atom_site_symmetry_multiplicity
 _atom_site_fract_x
 _atom_site_fract_y
 _atom_site_fract_z
 _atom_site_occupancy
  Ce  Ce0  1  0.023137  0.511569  0.011569  1
  Ce  Ce1  1  0.488431  0.976863  0.988431  1
  Ce  Ce2  1  0.488431  0.511569  0.500000  1
  Er  Er3  1  0.000000  0.000000  0.500000  1
  Cu  Cu4  1  0.750275  0.249725  0.500000  1
  Cu  Cu5  1  0.750275  0.500550  0.250275  1
  Cu  Cu6  1  0.499450  0.249725  0.749725  1
  Si  Si7  1  0.000000  0.000000  0.000000  1
  Rh  Rh8  1  0.247672  0.495344  0.747672  1
  Rh  Rh9  1  0.247672  0.752328  0.500000  1
  Rh  Rh10  1  0.504656  0.752328  0.252328  1
  Rh  Rh11  1  0.731922  0.706680  0.002242  1
  Rh  Rh12  1  0.293320  0.025244  0.295562  1
  Rh  Rh13  1  0.974756  0.268078  0.270318  1
  Rh  Rh14  1  0.293320  0.268078  0.997758  1
  Rh  Rh15  1  0.731922  0.025244  0.729682  1
  Rh  Rh16  1  0.974756  0.706680  0.704438  1
