# generated using pymatgen
data_Ho20IrPd6Ru5
_symmetry_space_group_name_H-M   'P 1'
_cell_length_a   10.94149643
_cell_length_b   10.94149657
_cell_length_c   6.38880401
_cell_angle_alpha   89.97350678
_cell_angle_beta   89.97350739
_cell_angle_gamma   90.76531418
_symmetry_Int_Tables_number   1
_chemical_formula_structural   Ho20IrPd6Ru5
_chemical_formula_sum   'Ho20 Ir1 Pd6 Ru5'
_cell_volume   764.77587414
_cell_formula_units_Z   1
loop_
 _symmetry_equiv_pos_site_id
 _symmetry_equiv_pos_as_xyz
  1  'x, y, z'
loop_
 _atom_site_type_symbol
 _atom_site_label
 _atom_site_symmetry_multiplicity
 _atom_site_fract_x
 _atom_site_fract_y
 _atom_site_fract_z
 _atom_site_occupancy
  Ho  Ho0  1  0.300208  0.084394  0.370374  1
  Ho  Ho1  1  0.296243  0.909163  0.872135  1
  Ho  Ho2  1  0.706613  0.087677  0.875487  1
  Ho  Ho3  1  0.705555  0.920309  0.365993  1
  Ho  Ho4  1  0.579973  0.795520  0.866709  1
  Ho  Ho5  1  0.592519  0.204018  0.371944  1
  Ho  Ho6  1  0.413139  0.794500  0.375738  1
  Ho  Ho7  1  0.416469  0.200779  0.870570  1
  Ho  Ho8  1  0.204480  0.420027  0.633291  1
  Ho  Ho9  1  0.205500  0.586861  0.124262  1
  Ho  Ho10  1  0.795982  0.407481  0.128056  1
  Ho  Ho11  1  0.799221  0.583531  0.629430  1
  Ho  Ho12  1  0.915606  0.699792  0.129626  1
  Ho  Ho13  1  0.912323  0.293387  0.624513  1
  Ho  Ho14  1  0.090837  0.703757  0.627865  1
  Ho  Ho15  1  0.079691  0.294445  0.134007  1
  Ho  Ho16  1  0.997861  0.004811  0.499350  1
  Ho  Ho17  1  0.995189  0.002139  0.000650  1
  Ho  Ho18  1  0.496740  0.502536  0.000227  1
  Ho  Ho19  1  0.497464  0.503260  0.499773  1
  Ir  Ir20  1  0.347883  0.652117  0.750000  1
  Pd  Pd21  1  0.844296  0.843489  0.749680  1
  Pd  Pd22  1  0.156511  0.155704  0.750320  1
  Pd  Pd23  1  0.151750  0.848250  0.250000  1
  Pd  Pd24  1  0.650837  0.349163  0.750000  1
  Pd  Pd25  1  0.655712  0.655666  0.250348  1
  Pd  Pd26  1  0.344334  0.344288  0.249652  1
  Ru  Ru27  1  0.848827  0.151173  0.250000  1
  Ru  Ru28  1  0.500004  0.000716  0.120807  1
  Ru  Ru29  1  0.499582  0.000634  0.621176  1
  Ru  Ru30  1  0.999366  0.500418  0.878824  1
  Ru  Ru31  1  0.999284  0.499996  0.379193  1
