# generated using pymatgen
data_Pa2Mn8P7Rh4
_symmetry_space_group_name_H-M   'P 1'
_cell_length_a   9.47848268
_cell_length_b   9.41560721
_cell_length_c   3.73514900
_cell_angle_alpha   90.00000000
_cell_angle_beta   90.00000000
_cell_angle_gamma   120.43952497
_symmetry_Int_Tables_number   1
_chemical_formula_structural   Pa2Mn8P7Rh4
_chemical_formula_sum   'Pa2 Mn8 P7 Rh4'
_cell_volume   287.39893954
_cell_formula_units_Z   1
loop_
 _symmetry_equiv_pos_site_id
 _symmetry_equiv_pos_as_xyz
  1  'x, y, z'
loop_
 _atom_site_type_symbol
 _atom_site_label
 _atom_site_symmetry_multiplicity
 _atom_site_fract_x
 _atom_site_fract_y
 _atom_site_fract_z
 _atom_site_occupancy
  Pa  Pa0  1  0.667856  0.340633  0.000000  1
  Pa  Pa1  1  0.001547  0.998839  0.500000  1
  Mn  Mn2  1  0.488187  0.939786  0.000000  1
  Mn  Mn3  1  0.060469  0.546861  0.000000  1
  Mn  Mn4  1  0.452803  0.510989  0.000000  1
  Mn  Mn5  1  0.891868  0.613194  0.500000  1
  Mn  Mn6  1  0.387310  0.283074  0.500000  1
  Mn  Mn7  1  0.552427  0.767341  0.500000  1
  Mn  Mn8  1  0.227670  0.780897  0.500000  1
  Mn  Mn9  1  0.217325  0.446508  0.500000  1
  P  P10  1  0.450401  0.071695  0.500000  1
  P  P11  1  0.936027  0.399356  0.500000  1
  P  P12  1  0.615957  0.542403  0.500000  1
  P  P13  1  0.734205  0.960906  0.000000  1
  P  P14  1  0.028942  0.762864  0.000000  1
  P  P15  1  0.232818  0.263099  0.000000  1
  P  P16  1  0.332475  0.665281  0.000000  1
  Rh  Rh17  1  0.764613  0.731544  0.000000  1
  Rh  Rh18  1  0.264670  0.030710  0.000000  1
  Rh  Rh19  1  0.972274  0.231488  0.000000  1
  Rh  Rh20  1  0.720152  0.112531  0.500000  1
