# generated using pymatgen
data_YbSm2Lu(Ir2O7)2
_symmetry_space_group_name_H-M   'P 1'
_cell_length_a   7.25354648
_cell_length_b   7.23535031
_cell_length_c   7.25354684
_cell_angle_alpha   60.24160219
_cell_angle_beta   60.40946155
_cell_angle_gamma   60.24159746
_symmetry_Int_Tables_number   1
_chemical_formula_structural   YbSm2Lu(Ir2O7)2
_chemical_formula_sum   'Yb1 Sm2 Lu1 Ir4 O14'
_cell_volume   270.99260810
_cell_formula_units_Z   1
loop_
 _symmetry_equiv_pos_site_id
 _symmetry_equiv_pos_as_xyz
  1  'x, y, z'
loop_
 _atom_site_type_symbol
 _atom_site_label
 _atom_site_symmetry_multiplicity
 _atom_site_fract_x
 _atom_site_fract_y
 _atom_site_fract_z
 _atom_site_occupancy
  Yb  Yb0  1  0.125000  0.625000  0.125000  1
  Sm  Sm1  1  0.625000  0.125000  0.125000  1
  Sm  Sm2  1  0.125000  0.125000  0.625000  1
  Lu  Lu3  1  0.125000  0.125000  0.125000  1
  Ir  Ir4  1  0.125000  0.625000  0.625000  1
  Ir  Ir5  1  0.625000  0.125000  0.625000  1
  Ir  Ir6  1  0.625000  0.625000  0.125000  1
  Ir  Ir7  1  0.625000  0.625000  0.625000  1
  O  O8  1  0.706125  0.708415  0.292306  1
  O  O9  1  0.290949  0.290311  0.718310  1
  O  O10  1  0.709501  0.289918  0.709501  1
  O  O11  1  0.292802  0.719054  0.292802  1
  O  O12  1  0.292306  0.708415  0.706125  1
  O  O13  1  0.718310  0.290311  0.290949  1
  O  O14  1  0.543875  0.541585  0.957694  1
  O  O15  1  0.959051  0.959689  0.531690  1
  O  O16  1  0.540499  0.960082  0.540499  1
  O  O17  1  0.957198  0.530946  0.957198  1
  O  O18  1  0.957694  0.541585  0.543875  1
  O  O19  1  0.531690  0.959689  0.959051  1
  O  O20  1  0.245504  0.246307  0.245504  1
  O  O21  1  0.004496  0.003693  0.004496  1
