# generated using pymatgen
data_Sm7Lu3(Sn3Se)2
_symmetry_space_group_name_H-M   'P 1'
_cell_length_a   9.23115800
_cell_length_b   9.23115858
_cell_length_c   6.75653200
_cell_angle_alpha   90.00000000
_cell_angle_beta   90.00000000
_cell_angle_gamma   119.99999793
_symmetry_Int_Tables_number   1
_chemical_formula_structural   Sm7Lu3(Sn3Se)2
_chemical_formula_sum   'Sm7 Lu3 Sn6 Se2'
_cell_volume   498.61676262
_cell_formula_units_Z   1
loop_
 _symmetry_equiv_pos_site_id
 _symmetry_equiv_pos_as_xyz
  1  'x, y, z'
loop_
 _atom_site_type_symbol
 _atom_site_label
 _atom_site_symmetry_multiplicity
 _atom_site_fract_x
 _atom_site_fract_y
 _atom_site_fract_z
 _atom_site_occupancy
  Sm  Sm0  1  0.666667  0.333333  0.000000  1
  Sm  Sm1  1  0.745767  0.746291  0.749467  1
  Sm  Sm2  1  0.253709  0.999476  0.749467  1
  Sm  Sm3  1  0.000524  0.254233  0.749467  1
  Sm  Sm4  1  0.253709  0.254233  0.250533  1
  Sm  Sm5  1  0.745767  0.999476  0.250533  1
  Sm  Sm6  1  0.000524  0.746291  0.250533  1
  Lu  Lu7  1  0.333333  0.666667  0.000000  1
  Lu  Lu8  1  0.333333  0.666667  0.500000  1
  Lu  Lu9  1  0.666667  0.333333  0.500000  1
  Sn  Sn10  1  0.396863  0.399005  0.748229  1
  Sn  Sn11  1  0.600995  0.997858  0.748229  1
  Sn  Sn12  1  0.002142  0.603137  0.748229  1
  Sn  Sn13  1  0.600995  0.603137  0.251771  1
  Sn  Sn14  1  0.396863  0.997858  0.251771  1
  Sn  Sn15  1  0.002142  0.399005  0.251771  1
  Se  Se16  1  0.000000  0.000000  0.000000  1
  Se  Se17  1  0.000000  0.000000  0.500000  1
