# generated using pymatgen
data_Hf3ZrP4Ir3Ru
_symmetry_space_group_name_H-M   'P 1'
_cell_length_a   3.83524100
_cell_length_b   6.49160678
_cell_length_c   7.39046811
_cell_angle_alpha   90.21244368
_cell_angle_beta   90.00000000
_cell_angle_gamma   90.00000000
_symmetry_Int_Tables_number   1
_chemical_formula_structural   Hf3ZrP4Ir3Ru
_chemical_formula_sum   'Hf3 Zr1 P4 Ir3 Ru1'
_cell_volume   183.99830674
_cell_formula_units_Z   1
loop_
 _symmetry_equiv_pos_site_id
 _symmetry_equiv_pos_as_xyz
  1  'x, y, z'
loop_
 _atom_site_type_symbol
 _atom_site_label
 _atom_site_symmetry_multiplicity
 _atom_site_fract_x
 _atom_site_fract_y
 _atom_site_fract_z
 _atom_site_occupancy
  Hf  Hf0  1  0.750000  0.527457  0.322616  1
  Hf  Hf1  1  0.250000  0.974320  0.821919  1
  Hf  Hf2  1  0.750000  0.024511  0.176222  1
  Zr  Zr3  1  0.250000  0.476629  0.677368  1
  P  P4  1  0.250000  0.736614  0.116625  1
  P  P5  1  0.250000  0.238853  0.376533  1
  P  P6  1  0.750000  0.266020  0.877191  1
  P  P7  1  0.750000  0.763813  0.628836  1
  Ir  Ir8  1  0.250000  0.348275  0.064859  1
  Ir  Ir9  1  0.250000  0.854012  0.431501  1
  Ir  Ir10  1  0.750000  0.144240  0.561601  1
  Ru  Ru11  1  0.750000  0.645258  0.944726  1
