# generated using pymatgen
data_PuP4N7
_symmetry_space_group_name_H-M   'P 1'
_cell_length_a   5.11194278
_cell_length_b   7.52639039
_cell_length_c   8.60097669
_cell_angle_alpha   72.95959934
_cell_angle_beta   107.90956613
_cell_angle_gamma   98.73280683
_symmetry_Int_Tables_number   1
_chemical_formula_structural   PuP4N7
_chemical_formula_sum   'Pu2 P8 N14'
_cell_volume   300.36554165
_cell_formula_units_Z   2
loop_
 _symmetry_equiv_pos_site_id
 _symmetry_equiv_pos_as_xyz
  1  'x, y, z'
loop_
 _atom_site_type_symbol
 _atom_site_label
 _atom_site_symmetry_multiplicity
 _atom_site_fract_x
 _atom_site_fract_y
 _atom_site_fract_z
 _atom_site_occupancy
  Pu  Pu0  1  0.336129  0.799269  0.196990  1
  Pu  Pu1  1  0.663870  0.200728  0.803012  1
  P  P2  1  0.292332  0.280512  0.078751  1
  P  P3  1  0.838832  0.126795  0.240129  1
  P  P4  1  0.726508  0.490526  0.256028  1
  P  P5  1  0.015283  0.243935  0.570182  1
  P  P6  1  0.984715  0.756065  0.429818  1
  P  P7  1  0.273490  0.509473  0.743970  1
  P  P8  1  0.161169  0.873206  0.759870  1
  P  P9  1  0.707668  0.719488  0.921249  1
  N  N10  1  0.551666  0.166466  0.084584  1
  N  N11  1  0.876931  0.636730  0.119248  1
  N  N12  1  0.082405  0.115994  0.158548  1
  N  N13  1  0.404953  0.444451  0.173738  1
  N  N14  1  0.900181  0.293572  0.344414  1
  N  N15  1  0.778473  0.930130  0.367491  1
  N  N16  1  0.734775  0.585981  0.402767  1
  N  N17  1  0.265224  0.414020  0.597233  1
  N  N18  1  0.221527  0.069870  0.632510  1
  N  N19  1  0.099820  0.706428  0.655586  1
  N  N20  1  0.595047  0.555551  0.826262  1
  N  N21  1  0.917596  0.884006  0.841453  1
  N  N22  1  0.123068  0.363269  0.880751  1
  N  N23  1  0.448336  0.833535  0.915416  1
