# generated using pymatgen
data_TbPr4P12Ru17Pt2
_symmetry_space_group_name_H-M   'P 1'
_cell_length_a   4.03091000
_cell_length_b   12.64036980
_cell_length_c   12.63861069
_cell_angle_alpha   119.50526305
_cell_angle_beta   90.00000000
_cell_angle_gamma   90.00000000
_symmetry_Int_Tables_number   1
_chemical_formula_structural   TbPr4P12Ru17Pt2
_chemical_formula_sum   'Tb1 Pr4 P12 Ru17 Pt2'
_cell_volume   560.44941568
_cell_formula_units_Z   1
loop_
 _symmetry_equiv_pos_site_id
 _symmetry_equiv_pos_as_xyz
  1  'x, y, z'
loop_
 _atom_site_type_symbol
 _atom_site_label
 _atom_site_symmetry_multiplicity
 _atom_site_fract_x
 _atom_site_fract_y
 _atom_site_fract_z
 _atom_site_occupancy
  Tb  Tb0  1  0.000000  0.663146  0.335557  1
  Pr  Pr1  1  0.500000  0.998169  0.182039  1
  Pr  Pr2  1  0.500000  0.181856  0.998045  1
  Pr  Pr3  1  0.500000  0.815302  0.815239  1
  Pr  Pr4  1  0.000000  0.335664  0.664013  1
  P  P5  1  0.000000  0.999883  0.809703  1
  P  P6  1  0.000000  0.811060  0.002851  1
  P  P7  1  0.000000  0.186707  0.185311  1
  P  P8  1  0.500000  0.305823  0.474803  1
  P  P9  1  0.500000  0.182917  0.701943  1
  P  P10  1  0.500000  0.524604  0.821951  1
  P  P11  1  0.500000  0.818405  0.520732  1
  P  P12  1  0.500000  0.477978  0.305294  1
  P  P13  1  0.500000  0.701678  0.186914  1
  P  P14  1  0.000000  0.000514  0.367603  1
  P  P15  1  0.000000  0.367023  0.999369  1
  P  P16  1  0.000000  0.624136  0.623990  1
  Ru  Ru17  1  0.000000  0.445071  0.444589  1
  Ru  Ru18  1  0.500000  0.000925  0.707581  1
  Ru  Ru19  1  0.500000  0.709062  0.004233  1
  Ru  Ru20  1  0.500000  0.285883  0.284153  1
  Ru  Ru21  1  0.000000  0.193698  0.377157  1
  Ru  Ru22  1  0.000000  0.185681  0.803207  1
  Ru  Ru23  1  0.000000  0.622359  0.817483  1
  Ru  Ru24  1  0.000000  0.815052  0.618818  1
  Ru  Ru25  1  0.000000  0.380233  0.193748  1
  Ru  Ru26  1  0.000000  0.802383  0.188662  1
  Ru  Ru27  1  0.500000  0.126916  0.493241  1
  Ru  Ru28  1  0.500000  0.372248  0.880061  1
  Ru  Ru29  1  0.500000  0.509471  0.631139  1
  Ru  Ru30  1  0.500000  0.630090  0.505882  1
  Ru  Ru31  1  0.500000  0.497133  0.129670  1
  Ru  Ru32  1  0.500000  0.877587  0.373740  1
  Ru  Ru33  1  0.000000  0.997236  0.997267  1
  Pt  Pt34  1  0.000000  0.002174  0.551939  1
  Pt  Pt35  1  0.000000  0.551830  0.002072  1
