# generated using pymatgen
data_AcNd3(Zn5Sn)2
_symmetry_space_group_name_H-M   'P 1'
_cell_length_a   8.61029246
_cell_length_b   8.61029257
_cell_length_c   9.13020766
_cell_angle_alpha   88.98812489
_cell_angle_beta   91.01187600
_cell_angle_gamma   149.42146894
_symmetry_Int_Tables_number   1
_chemical_formula_structural   AcNd3(Zn5Sn)2
_chemical_formula_sum   'Ac1 Nd3 Zn10 Sn2'
_cell_volume   344.28770223
_cell_formula_units_Z   1
loop_
 _symmetry_equiv_pos_site_id
 _symmetry_equiv_pos_as_xyz
  1  'x, y, z'
loop_
 _atom_site_type_symbol
 _atom_site_label
 _atom_site_symmetry_multiplicity
 _atom_site_fract_x
 _atom_site_fract_y
 _atom_site_fract_z
 _atom_site_occupancy
  Ac  Ac0  1  0.000000  0.000000  0.500000  1
  Nd  Nd1  1  0.206455  0.793545  0.246374  1
  Nd  Nd2  1  0.793545  0.206455  0.753626  1
  Nd  Nd3  1  0.000000  0.000000  0.000000  1
  Zn  Zn4  1  0.809830  0.190170  0.392651  1
  Zn  Zn5  1  0.190170  0.809830  0.607349  1
  Zn  Zn6  1  0.816125  0.183875  0.113050  1
  Zn  Zn7  1  0.183875  0.816125  0.886950  1
  Zn  Zn8  1  0.658105  0.341895  0.482662  1
  Zn  Zn9  1  0.341895  0.658105  0.517338  1
  Zn  Zn10  1  0.659504  0.340496  0.012195  1
  Zn  Zn11  1  0.340496  0.659504  0.987805  1
  Zn  Zn12  1  0.396540  0.603460  0.251520  1
  Zn  Zn13  1  0.603460  0.396540  0.748480  1
  Sn  Sn14  1  0.558942  0.441058  0.240221  1
  Sn  Sn15  1  0.441058  0.558942  0.759779  1
