# generated using pymatgen
data_Lu5In2SnSe
_symmetry_space_group_name_H-M   'P 1'
_cell_length_a   8.94835632
_cell_length_b   8.94835649
_cell_length_c   6.65617800
_cell_angle_alpha   90.00000000
_cell_angle_beta   90.00000000
_cell_angle_gamma   120.23812305
_symmetry_Int_Tables_number   1
_chemical_formula_structural   Lu5In2SnSe
_chemical_formula_sum   'Lu10 In4 Sn2 Se2'
_cell_volume   460.46329124
_cell_formula_units_Z   2
loop_
 _symmetry_equiv_pos_site_id
 _symmetry_equiv_pos_as_xyz
  1  'x, y, z'
loop_
 _atom_site_type_symbol
 _atom_site_label
 _atom_site_symmetry_multiplicity
 _atom_site_fract_x
 _atom_site_fract_y
 _atom_site_fract_z
 _atom_site_occupancy
  Lu  Lu0  1  0.668144  0.331947  0.997250  1
  Lu  Lu1  1  0.331947  0.668144  0.997250  1
  Lu  Lu2  1  0.331947  0.668144  0.502750  1
  Lu  Lu3  1  0.668144  0.331947  0.502750  1
  Lu  Lu4  1  0.749298  0.749298  0.750000  1
  Lu  Lu5  1  0.254043  0.999219  0.750000  1
  Lu  Lu6  1  0.999219  0.254043  0.750000  1
  Lu  Lu7  1  0.248870  0.248870  0.250000  1
  Lu  Lu8  1  0.746000  0.998871  0.250000  1
  Lu  Lu9  1  0.998871  0.746000  0.250000  1
  In  In10  1  0.402738  0.402738  0.750000  1
  In  In11  1  0.602724  0.001018  0.750000  1
  In  In12  1  0.001018  0.602724  0.750000  1
  In  In13  1  0.597872  0.597872  0.250000  1
  Sn  Sn14  1  0.398102  0.000876  0.250000  1
  Sn  Sn15  1  0.000876  0.398102  0.250000  1
  Se  Se16  1  0.000094  0.000094  0.000801  1
  Se  Se17  1  0.000094  0.000094  0.499199  1
