# generated using pymatgen
data_Ho4(PbO4)3
_symmetry_space_group_name_H-M   'P 1'
_cell_length_a   6.46217234
_cell_length_b   6.54259431
_cell_length_c   6.72884690
_cell_angle_alpha   100.46433929
_cell_angle_beta   98.37844920
_cell_angle_gamma   99.64675770
_symmetry_Int_Tables_number   1
_chemical_formula_structural   Ho4(PbO4)3
_chemical_formula_sum   'Ho4 Pb3 O12'
_cell_volume   271.21313417
_cell_formula_units_Z   1
loop_
 _symmetry_equiv_pos_site_id
 _symmetry_equiv_pos_as_xyz
  1  'x, y, z'
loop_
 _atom_site_type_symbol
 _atom_site_label
 _atom_site_symmetry_multiplicity
 _atom_site_fract_x
 _atom_site_fract_y
 _atom_site_fract_z
 _atom_site_occupancy
  Ho  Ho0  1  0.393900  0.699892  0.863172  1
  Ho  Ho1  1  0.694348  0.868421  0.389072  1
  Ho  Ho2  1  0.606100  0.300108  0.136828  1
  Ho  Ho3  1  0.305652  0.131579  0.610928  1
  Pb  Pb4  1  0.000000  0.000000  0.000000  1
  Pb  Pb5  1  0.850072  0.398128  0.674219  1
  Pb  Pb6  1  0.149928  0.601872  0.325781  1
  O  O7  1  0.044601  0.676460  0.890810  1
  O  O8  1  0.679880  0.934506  0.063695  1
  O  O9  1  0.921752  0.075838  0.685667  1
  O  O10  1  0.955399  0.323540  0.109190  1
  O  O11  1  0.320120  0.065494  0.936305  1
  O  O12  1  0.078248  0.924162  0.314333  1
  O  O13  1  0.576769  0.183423  0.427146  1
  O  O14  1  0.177095  0.423566  0.580853  1
  O  O15  1  0.423527  0.585268  0.174981  1
  O  O16  1  0.423231  0.816577  0.572854  1
  O  O17  1  0.822905  0.576434  0.419147  1
  O  O18  1  0.576473  0.414732  0.825019  1
