# generated using pymatgen
data_Sr3LuAl18OsPd5
_symmetry_space_group_name_H-M   'P 1'
_cell_length_a   7.70556471
_cell_length_b   7.71382959
_cell_length_c   9.68288474
_cell_angle_alpha   90.04546955
_cell_angle_beta   90.16042220
_cell_angle_gamma   119.45305392
_symmetry_Int_Tables_number   1
_chemical_formula_structural   Sr3LuAl18OsPd5
_chemical_formula_sum   'Sr3 Lu1 Al18 Os1 Pd5'
_cell_volume   501.15738469
_cell_formula_units_Z   1
loop_
 _symmetry_equiv_pos_site_id
 _symmetry_equiv_pos_as_xyz
  1  'x, y, z'
loop_
 _atom_site_type_symbol
 _atom_site_label
 _atom_site_symmetry_multiplicity
 _atom_site_fract_x
 _atom_site_fract_y
 _atom_site_fract_z
 _atom_site_occupancy
  Sr  Sr0  1  0.993791  0.670270  0.249059  1
  Sr  Sr1  1  0.004198  0.329916  0.749864  1
  Sr  Sr2  1  0.670897  0.994087  0.249765  1
  Lu  Lu3  1  0.329737  0.002388  0.752662  1
  Al  Al4  1  0.136654  0.136362  0.249319  1
  Al  Al5  1  0.871344  0.868063  0.750702  1
  Al  Al6  1  0.997158  0.334481  0.070362  1
  Al  Al7  1  0.995296  0.661264  0.922819  1
  Al  Al8  1  0.000590  0.670243  0.579889  1
  Al  Al9  1  0.334788  0.005765  0.430324  1
  Al  Al10  1  0.007064  0.335824  0.427015  1
  Al  Al11  1  0.660543  0.996377  0.579424  1
  Al  Al12  1  0.662829  0.003084  0.923095  1
  Al  Al13  1  0.340692  0.007481  0.067888  1
  Al  Al14  1  0.335491  0.332007  0.558319  1
  Al  Al15  1  0.662241  0.662529  0.456470  1
  Al  Al16  1  0.664901  0.659871  0.037590  1
  Al  Al17  1  0.336709  0.329860  0.948879  1
  Al  Al18  1  0.339115  0.541229  0.249099  1
  Al  Al19  1  0.653383  0.449779  0.753572  1
  Al  Al20  1  0.543165  0.338802  0.244164  1
  Al  Al21  1  0.459778  0.669278  0.751081  1
  Os  Os22  1  0.667689  0.327264  0.996414  1
  Pd  Pd23  1  0.328740  0.671187  0.997006  1
  Pd  Pd24  1  0.328708  0.671731  0.502877  1
  Pd  Pd25  1  0.670272  0.329003  0.502394  1
  Pd  Pd26  1  0.002490  0.000713  0.996790  1
  Pd  Pd27  1  0.001737  0.001140  0.503158  1
