# generated using pymatgen
data_NaCe(Si7Rh3)2
_symmetry_space_group_name_H-M   'P 1'
_cell_length_a   7.99362947
_cell_length_b   7.99362912
_cell_length_c   7.99363019
_cell_angle_alpha   57.18055366
_cell_angle_beta   57.18054989
_cell_angle_gamma   57.18055206
_symmetry_Int_Tables_number   1
_chemical_formula_structural   NaCe(Si7Rh3)2
_chemical_formula_sum   'Na1 Ce1 Si14 Rh6'
_cell_volume   337.71566634
_cell_formula_units_Z   1
loop_
 _symmetry_equiv_pos_site_id
 _symmetry_equiv_pos_as_xyz
  1  'x, y, z'
loop_
 _atom_site_type_symbol
 _atom_site_label
 _atom_site_symmetry_multiplicity
 _atom_site_fract_x
 _atom_site_fract_y
 _atom_site_fract_z
 _atom_site_occupancy
  Na  Na0  1  0.000000  0.000000  0.000000  1
  Ce  Ce1  1  0.500000  0.500000  0.500000  1
  Si  Si2  1  0.749964  0.749964  0.749964  1
  Si  Si3  1  0.250036  0.250036  0.250036  1
  Si  Si4  1  0.854427  0.064369  0.675670  1
  Si  Si5  1  0.675670  0.854427  0.064369  1
  Si  Si6  1  0.064369  0.675670  0.854427  1
  Si  Si7  1  0.652735  0.828205  0.433435  1
  Si  Si8  1  0.433435  0.652735  0.828205  1
  Si  Si9  1  0.828205  0.433435  0.652735  1
  Si  Si10  1  0.171795  0.566565  0.347265  1
  Si  Si11  1  0.566565  0.347265  0.171795  1
  Si  Si12  1  0.347265  0.171795  0.566565  1
  Si  Si13  1  0.935631  0.324330  0.145573  1
  Si  Si14  1  0.324330  0.145573  0.935631  1
  Si  Si15  1  0.145573  0.935631  0.324330  1
  Rh  Rh16  1  0.072649  0.433952  0.746818  1
  Rh  Rh17  1  0.253182  0.927351  0.566048  1
  Rh  Rh18  1  0.566048  0.253182  0.927351  1
  Rh  Rh19  1  0.927351  0.566048  0.253182  1
  Rh  Rh20  1  0.433952  0.746818  0.072649  1
  Rh  Rh21  1  0.746818  0.072649  0.433952  1
