# generated using pymatgen
data_HoEr9(In2Ni)4
_symmetry_space_group_name_H-M   'P 1'
_cell_length_a   7.96516100
_cell_length_b   17.88317800
_cell_length_c   3.56846700
_cell_angle_alpha   90.00000000
_cell_angle_beta   90.00000000
_cell_angle_gamma   89.99895265
_symmetry_Int_Tables_number   1
_chemical_formula_structural   HoEr9(In2Ni)4
_chemical_formula_sum   'Ho1 Er9 In8 Ni4'
_cell_volume   508.30097507
_cell_formula_units_Z   1
loop_
 _symmetry_equiv_pos_site_id
 _symmetry_equiv_pos_as_xyz
  1  'x, y, z'
loop_
 _atom_site_type_symbol
 _atom_site_label
 _atom_site_symmetry_multiplicity
 _atom_site_fract_x
 _atom_site_fract_y
 _atom_site_fract_z
 _atom_site_occupancy
  Ho  Ho0  1  0.000000  0.000000  0.000000  1
  Er  Er1  1  0.500000  0.500000  0.000000  1
  Er  Er2  1  0.749272  0.277950  0.000000  1
  Er  Er3  1  0.250728  0.722050  0.000000  1
  Er  Er4  1  0.750661  0.777975  0.000000  1
  Er  Er5  1  0.249339  0.222025  0.000000  1
  Er  Er6  1  0.618454  0.088383  0.000000  1
  Er  Er7  1  0.381546  0.911617  0.000000  1
  Er  Er8  1  0.881474  0.588313  0.000000  1
  Er  Er9  1  0.118526  0.411687  0.000000  1
  In  In10  1  0.704390  0.930769  0.500000  1
  In  In11  1  0.295610  0.069231  0.500000  1
  In  In12  1  0.795267  0.430889  0.500000  1
  In  In13  1  0.204733  0.569111  0.500000  1
  In  In14  1  0.569931  0.651192  0.500000  1
  In  In15  1  0.430069  0.348808  0.500000  1
  In  In16  1  0.929993  0.151369  0.500000  1
  In  In17  1  0.070007  0.848631  0.500000  1
  Ni  Ni18  1  0.527480  0.196203  0.500000  1
  Ni  Ni19  1  0.472520  0.803797  0.500000  1
  Ni  Ni20  1  0.972484  0.696180  0.500000  1
  Ni  Ni21  1  0.027516  0.303820  0.500000  1
