# generated using pymatgen
data_Th3Si6Pd17Rh3
_symmetry_space_group_name_H-M   'P 1'
_cell_length_a   8.77357633
_cell_length_b   8.77357725
_cell_length_c   8.78603750
_cell_angle_alpha   59.83056317
_cell_angle_beta   59.83056149
_cell_angle_gamma   59.73984922
_symmetry_Int_Tables_number   1
_chemical_formula_structural   Th3Si6Pd17Rh3
_chemical_formula_sum   'Th3 Si6 Pd17 Rh3'
_cell_volume   476.05556477
_cell_formula_units_Z   1
loop_
 _symmetry_equiv_pos_site_id
 _symmetry_equiv_pos_as_xyz
  1  'x, y, z'
loop_
 _atom_site_type_symbol
 _atom_site_label
 _atom_site_symmetry_multiplicity
 _atom_site_fract_x
 _atom_site_fract_y
 _atom_site_fract_z
 _atom_site_occupancy
  Th  Th0  1  0.256148  0.256148  0.243457  1
  Th  Th1  1  0.746840  0.746840  0.746739  1
  Th  Th2  1  0.000301  0.000301  0.998818  1
  Si  Si3  1  0.725301  0.271829  0.271308  1
  Si  Si4  1  0.277053  0.722843  0.729352  1
  Si  Si5  1  0.271829  0.725301  0.271308  1
  Si  Si6  1  0.722843  0.277053  0.729352  1
  Si  Si7  1  0.273852  0.273852  0.726345  1
  Si  Si8  1  0.728537  0.728537  0.274346  1
  Pd  Pd9  1  0.382819  0.848599  0.383498  1
  Pd  Pd10  1  0.617172  0.617172  0.151409  1
  Pd  Pd11  1  0.617971  0.150610  0.616036  1
  Pd  Pd12  1  0.848599  0.382819  0.383498  1
  Pd  Pd13  1  0.150610  0.617971  0.616036  1
  Pd  Pd14  1  0.344498  0.999855  0.001057  1
  Pd  Pd15  1  0.655249  0.999064  0.000101  1
  Pd  Pd16  1  0.000090  0.344133  0.655670  1
  Pd  Pd17  1  0.999441  0.655297  0.345877  1
  Pd  Pd18  1  0.999855  0.344498  0.001057  1
  Pd  Pd19  1  0.655297  0.999441  0.345877  1
  Pd  Pd20  1  0.999064  0.655249  0.000101  1
  Pd  Pd21  1  0.344133  0.000090  0.655670  1
  Pd  Pd22  1  0.999828  0.999828  0.345931  1
  Pd  Pd23  1  0.999557  0.999557  0.655770  1
  Pd  Pd24  1  0.655291  0.344731  0.000241  1
  Pd  Pd25  1  0.344731  0.655291  0.000241  1
  Rh  Rh26  1  0.382762  0.382762  0.383607  1
  Rh  Rh27  1  0.618187  0.618187  0.615891  1
  Rh  Rh28  1  0.382142  0.382142  0.851406  1
