# generated using pymatgen
data_Tb7Er13Sn16
_symmetry_space_group_name_H-M   'P 1'
_cell_length_a   8.01020485
_cell_length_b   8.14950434
_cell_length_c   15.40298307
_cell_angle_alpha   90.00815798
_cell_angle_beta   90.04190996
_cell_angle_gamma   89.96803114
_symmetry_Int_Tables_number   1
_chemical_formula_structural   Tb7Er13Sn16
_chemical_formula_sum   'Tb7 Er13 Sn16'
_cell_volume   1005.49396363
_cell_formula_units_Z   1
loop_
 _symmetry_equiv_pos_site_id
 _symmetry_equiv_pos_as_xyz
  1  'x, y, z'
loop_
 _atom_site_type_symbol
 _atom_site_label
 _atom_site_symmetry_multiplicity
 _atom_site_fract_x
 _atom_site_fract_y
 _atom_site_fract_z
 _atom_site_occupancy
  Tb  Tb0  1  0.020451  0.180329  0.597610  1
  Tb  Tb1  1  0.479543  0.680259  0.402512  1
  Tb  Tb2  1  0.979454  0.819809  0.097460  1
  Tb  Tb3  1  0.479418  0.680132  0.097409  1
  Tb  Tb4  1  0.979545  0.819736  0.402517  1
  Tb  Tb5  1  0.520402  0.319809  0.597381  1
  Tb  Tb6  1  0.020488  0.180370  0.902523  1
  Er  Er7  1  0.367644  0.835740  0.878053  1
  Er  Er8  1  0.867511  0.664271  0.622018  1
  Er  Er9  1  0.632435  0.164341  0.378037  1
  Er  Er10  1  0.132284  0.335631  0.121909  1
  Er  Er11  1  0.632264  0.164464  0.121812  1
  Er  Er12  1  0.132469  0.335642  0.378022  1
  Er  Er13  1  0.367581  0.835727  0.622053  1
  Er  Er14  1  0.867576  0.664177  0.878070  1
  Er  Er15  1  0.520778  0.319814  0.902371  1
  Er  Er16  1  0.198034  0.503103  0.750180  1
  Er  Er17  1  0.697723  0.996867  0.750133  1
  Er  Er18  1  0.802141  0.496680  0.249969  1
  Er  Er19  1  0.302147  0.003297  0.249933  1
  Sn  Sn20  1  0.293466  0.035669  0.041904  1
  Sn  Sn21  1  0.793460  0.464357  0.458092  1
  Sn  Sn22  1  0.706563  0.964352  0.541933  1
  Sn  Sn23  1  0.207704  0.534821  0.957853  1
  Sn  Sn24  1  0.706193  0.964999  0.957956  1
  Sn  Sn25  1  0.206473  0.535746  0.541923  1
  Sn  Sn26  1  0.293480  0.035606  0.458100  1
  Sn  Sn27  1  0.792641  0.463992  0.041529  1
  Sn  Sn28  1  0.564708  0.619903  0.750065  1
  Sn  Sn29  1  0.064753  0.879646  0.750042  1
  Sn  Sn30  1  0.435234  0.379753  0.249937  1
  Sn  Sn31  1  0.935209  0.120365  0.249984  1
  Sn  Sn32  1  0.329298  0.146593  0.750532  1
  Sn  Sn33  1  0.828159  0.353978  0.750228  1
  Sn  Sn34  1  0.671386  0.853997  0.249959  1
  Sn  Sn35  1  0.171386  0.646024  0.249993  1
