# generated using pymatgen
data_Ca4YHo5(AgPb3)2
_symmetry_space_group_name_H-M   'P 1'
_cell_length_a   9.31889105
_cell_length_b   9.31889182
_cell_length_c   6.82402900
_cell_angle_alpha   90.00000000
_cell_angle_beta   90.00000000
_cell_angle_gamma   119.98785712
_symmetry_Int_Tables_number   1
_chemical_formula_structural   Ca4YHo5(AgPb3)2
_chemical_formula_sum   'Ca4 Y1 Ho5 Ag2 Pb6'
_cell_volume   513.27856412
_cell_formula_units_Z   1
loop_
 _symmetry_equiv_pos_site_id
 _symmetry_equiv_pos_as_xyz
  1  'x, y, z'
loop_
 _atom_site_type_symbol
 _atom_site_label
 _atom_site_symmetry_multiplicity
 _atom_site_fract_x
 _atom_site_fract_y
 _atom_site_fract_z
 _atom_site_occupancy
  Ca  Ca0  1  0.666652  0.333246  0.500036  1
  Ca  Ca1  1  0.333246  0.666652  0.500036  1
  Ca  Ca2  1  0.333246  0.666652  0.999964  1
  Ca  Ca3  1  0.666652  0.333246  0.999964  1
  Y  Y4  1  0.729145  0.729145  0.250000  1
  Ho  Ho5  1  0.270437  0.999990  0.250000  1
  Ho  Ho6  1  0.999990  0.270437  0.250000  1
  Ho  Ho7  1  0.270580  0.270580  0.750000  1
  Ho  Ho8  1  0.729507  0.999988  0.750000  1
  Ho  Ho9  1  0.999988  0.729507  0.750000  1
  Ag  Ag10  1  0.000410  0.000410  0.500320  1
  Ag  Ag11  1  0.000410  0.000410  0.999680  1
  Pb  Pb12  1  0.378666  0.378666  0.250000  1
  Pb  Pb13  1  0.620892  0.000252  0.250000  1
  Pb  Pb14  1  0.000252  0.620892  0.250000  1
  Pb  Pb15  1  0.620940  0.620940  0.750000  1
  Pb  Pb16  1  0.378999  0.999989  0.750000  1
  Pb  Pb17  1  0.999989  0.378999  0.750000  1
