# generated using pymatgen
data_Y18Lu2Cd5InNi2
_symmetry_space_group_name_H-M   'P 1'
_cell_length_a   9.65150214
_cell_length_b   9.65150246
_cell_length_c   9.71707600
_cell_angle_alpha   90.00000000
_cell_angle_beta   90.00000000
_cell_angle_gamma   120.12099232
_symmetry_Int_Tables_number   1
_chemical_formula_structural   Y18Lu2Cd5InNi2
_chemical_formula_sum   'Y18 Lu2 Cd5 In1 Ni2'
_cell_volume   782.93423730
_cell_formula_units_Z   1
loop_
 _symmetry_equiv_pos_site_id
 _symmetry_equiv_pos_as_xyz
  1  'x, y, z'
loop_
 _atom_site_type_symbol
 _atom_site_label
 _atom_site_symmetry_multiplicity
 _atom_site_fract_x
 _atom_site_fract_y
 _atom_site_fract_z
 _atom_site_occupancy
  Y  Y0  1  0.542728  0.457272  0.250000  1
  Y  Y1  1  0.540053  0.087288  0.250000  1
  Y  Y2  1  0.912712  0.459947  0.250000  1
  Y  Y3  1  0.456178  0.543822  0.750000  1
  Y  Y4  1  0.456863  0.912875  0.750000  1
  Y  Y5  1  0.087125  0.543137  0.750000  1
  Y  Y6  1  0.209488  0.790512  0.437227  1
  Y  Y7  1  0.208994  0.418092  0.436448  1
  Y  Y8  1  0.581908  0.791006  0.436448  1
  Y  Y9  1  0.790640  0.209360  0.562969  1
  Y  Y10  1  0.790303  0.581099  0.564123  1
  Y  Y11  1  0.418901  0.209697  0.564123  1
  Y  Y12  1  0.790640  0.209360  0.937031  1
  Y  Y13  1  0.790303  0.581099  0.935877  1
  Y  Y14  1  0.418901  0.209697  0.935877  1
  Y  Y15  1  0.209488  0.790512  0.062773  1
  Y  Y16  1  0.208994  0.418092  0.063552  1
  Y  Y17  1  0.581908  0.791006  0.063552  1
  Lu  Lu18  1  0.001762  0.998238  0.501733  1
  Lu  Lu19  1  0.001762  0.998238  0.998267  1
  Cd  Cd20  1  0.885868  0.771058  0.250000  1
  Cd  Cd21  1  0.228942  0.114132  0.250000  1
  Cd  Cd22  1  0.115487  0.884513  0.750000  1
  Cd  Cd23  1  0.114136  0.229268  0.750000  1
  Cd  Cd24  1  0.770732  0.885864  0.750000  1
  In  In25  1  0.885264  0.114736  0.250000  1
  Ni  Ni26  1  0.332852  0.667148  0.250000  1
  Ni  Ni27  1  0.667069  0.332931  0.750000  1
