# generated using pymatgen
data_La6TcAuBr6
_symmetry_space_group_name_H-M   'P 1'
_cell_length_a   10.66742881
_cell_length_b   10.66742831
_cell_length_c   10.80856791
_cell_angle_alpha   109.52881851
_cell_angle_beta   109.52881836
_cell_angle_gamma   108.81978304
_symmetry_Int_Tables_number   1
_chemical_formula_structural   La6TcAuBr6
_chemical_formula_sum   'La12 Tc2 Au2 Br12'
_cell_volume   952.99433465
_cell_formula_units_Z   2
loop_
 _symmetry_equiv_pos_site_id
 _symmetry_equiv_pos_as_xyz
  1  'x, y, z'
loop_
 _atom_site_type_symbol
 _atom_site_label
 _atom_site_symmetry_multiplicity
 _atom_site_fract_x
 _atom_site_fract_y
 _atom_site_fract_z
 _atom_site_occupancy
  La  La0  1  0.472891  0.479013  0.245307  1
  La  La1  1  0.733705  0.227584  0.254693  1
  La  La2  1  0.732098  0.003591  0.473246  1
  La  La3  1  0.241148  0.469654  0.473246  1
  La  La4  1  0.272416  0.766295  0.245307  1
  La  La5  1  0.030346  0.258852  0.026754  1
  La  La6  1  0.020987  0.027109  0.254693  1
  La  La7  1  0.496409  0.767902  0.026754  1
  La  La8  1  0.484735  0.234735  0.469467  1
  La  La9  1  0.010173  0.489827  0.750000  1
  La  La10  1  0.265265  0.015265  0.030533  1
  La  La11  1  0.239827  0.260173  0.750000  1
  Tc  Tc12  1  0.244879  0.255121  0.250000  1
  Tc  Tc13  1  0.505121  0.994879  0.250000  1
  Au  Au14  1  0.999039  0.249039  0.498077  1
  Au  Au15  1  0.250961  0.500961  0.001923  1
  Br  Br16  1  0.250625  0.754275  0.750643  1
  Br  Br17  1  0.503633  0.499981  0.749357  1
  Br  Br18  1  0.990182  0.743321  0.992610  1
  Br  Br19  1  0.745725  0.249375  0.749357  1
  Br  Br20  1  0.000019  0.996367  0.750643  1
  Br  Br21  1  0.250712  0.997573  0.507390  1
  Br  Br22  1  0.756679  0.509818  0.507390  1
  Br  Br23  1  0.502427  0.249288  0.992610  1
  Br  Br24  1  0.754097  0.745903  0.250000  1
  Br  Br25  1  0.743814  0.993814  0.987627  1
  Br  Br26  1  0.995903  0.504097  0.250000  1
  Br  Br27  1  0.506186  0.756186  0.512373  1
