# generated using pymatgen
data_Tb5Zr3(Co4As3)4
_symmetry_space_group_name_H-M   'P 1'
_cell_length_a   12.76139900
_cell_length_b   12.76139776
_cell_length_c   3.84626600
_cell_angle_alpha   90.00000000
_cell_angle_beta   90.00000000
_cell_angle_gamma   120.00000581
_symmetry_Int_Tables_number   1
_chemical_formula_structural   Tb5Zr3(Co4As3)4
_chemical_formula_sum   'Tb5 Zr3 Co16 As12'
_cell_volume   542.45842055
_cell_formula_units_Z   1
loop_
 _symmetry_equiv_pos_site_id
 _symmetry_equiv_pos_as_xyz
  1  'x, y, z'
loop_
 _atom_site_type_symbol
 _atom_site_label
 _atom_site_symmetry_multiplicity
 _atom_site_fract_x
 _atom_site_fract_y
 _atom_site_fract_z
 _atom_site_occupancy
  Tb  Tb0  1  0.183463  0.183463  0.500000  1
  Tb  Tb1  1  0.816537  0.000000  0.500000  1
  Tb  Tb2  1  0.000000  0.816537  0.500000  1
  Tb  Tb3  1  0.333333  0.666667  0.000000  1
  Tb  Tb4  1  0.666667  0.333333  0.000000  1
  Zr  Zr5  1  0.562337  0.562337  0.000000  1
  Zr  Zr6  1  0.437663  0.000000  0.000000  1
  Zr  Zr7  1  0.000000  0.437663  0.000000  1
  Co  Co8  1  0.720272  0.720272  0.500000  1
  Co  Co9  1  0.279728  0.000000  0.500000  1
  Co  Co10  1  0.000000  0.279728  0.500000  1
  Co  Co11  1  0.178207  0.373837  0.000000  1
  Co  Co12  1  0.626163  0.804370  0.000000  1
  Co  Co13  1  0.195630  0.821793  0.000000  1
  Co  Co14  1  0.804370  0.626163  0.000000  1
  Co  Co15  1  0.821793  0.195630  0.000000  1
  Co  Co16  1  0.373837  0.178207  0.000000  1
  Co  Co17  1  0.358002  0.480175  0.500000  1
  Co  Co18  1  0.519825  0.877828  0.500000  1
  Co  Co19  1  0.122172  0.641998  0.500000  1
  Co  Co20  1  0.877828  0.519825  0.500000  1
  Co  Co21  1  0.641998  0.122172  0.500000  1
  Co  Co22  1  0.480175  0.358002  0.500000  1
  Co  Co23  1  0.000000  0.000000  0.000000  1
  As  As24  1  0.822555  0.822555  0.000000  1
  As  As25  1  0.177445  0.000000  0.000000  1
  As  As26  1  0.000000  0.177445  0.000000  1
  As  As27  1  0.173500  0.480947  0.500000  1
  As  As28  1  0.519053  0.692554  0.500000  1
  As  As29  1  0.307446  0.826500  0.500000  1
  As  As30  1  0.692554  0.519053  0.500000  1
  As  As31  1  0.826500  0.307446  0.500000  1
  As  As32  1  0.480947  0.173500  0.500000  1
  As  As33  1  0.353259  0.353259  0.000000  1
  As  As34  1  0.646741  0.000000  0.000000  1
  As  As35  1  0.000000  0.646741  0.000000  1
