# generated using pymatgen
data_LaPr9(Si2Sn)2
_symmetry_space_group_name_H-M   'P 1'
_cell_length_a   8.00312300
_cell_length_b   9.24149917
_cell_length_c   8.00312300
_cell_angle_alpha   115.65804978
_cell_angle_beta   90.00000000
_cell_angle_gamma   115.65804978
_symmetry_Int_Tables_number   1
_chemical_formula_structural   LaPr9(Si2Sn)2
_chemical_formula_sum   'La1 Pr9 Si4 Sn2'
_cell_volume   467.96085861
_cell_formula_units_Z   1
loop_
 _symmetry_equiv_pos_site_id
 _symmetry_equiv_pos_as_xyz
  1  'x, y, z'
loop_
 _atom_site_type_symbol
 _atom_site_label
 _atom_site_symmetry_multiplicity
 _atom_site_fract_x
 _atom_site_fract_y
 _atom_site_fract_z
 _atom_site_occupancy
  La  La0  1  0.000000  0.000000  0.000000  1
  Pr  Pr1  1  0.500000  0.000000  0.500000  1
  Pr  Pr2  1  0.535210  0.720903  0.685593  1
  Pr  Pr3  1  0.185695  0.720903  0.035312  1
  Pr  Pr4  1  0.685593  0.720903  0.185695  1
  Pr  Pr5  1  0.035312  0.720903  0.535210  1
  Pr  Pr6  1  0.464790  0.279097  0.314407  1
  Pr  Pr7  1  0.814305  0.279097  0.964688  1
  Pr  Pr8  1  0.314407  0.279097  0.814305  1
  Pr  Pr9  1  0.964688  0.279097  0.464790  1
  Si  Si10  1  0.884054  0.000000  0.615800  1
  Si  Si11  1  0.115946  0.000000  0.384200  1
  Si  Si12  1  0.615800  0.000000  0.115946  1
  Si  Si13  1  0.384200  0.000000  0.884054  1
  Sn  Sn14  1  0.749904  0.499808  0.749904  1
  Sn  Sn15  1  0.250096  0.500192  0.250096  1
