# generated using pymatgen
data_SrScSiGe3N7
_symmetry_space_group_name_H-M   'P 1'
_cell_length_a   6.14705900
_cell_length_b   6.14705890
_cell_length_c   9.93144500
_cell_angle_alpha   90.00000000
_cell_angle_beta   90.00000000
_cell_angle_gamma   119.99998441
_symmetry_Int_Tables_number   1
_chemical_formula_structural   SrScSiGe3N7
_chemical_formula_sum   'Sr2 Sc2 Si2 Ge6 N14'
_cell_volume   324.99591155
_cell_formula_units_Z   2
loop_
 _symmetry_equiv_pos_site_id
 _symmetry_equiv_pos_as_xyz
  1  'x, y, z'
loop_
 _atom_site_type_symbol
 _atom_site_label
 _atom_site_symmetry_multiplicity
 _atom_site_fract_x
 _atom_site_fract_y
 _atom_site_fract_z
 _atom_site_occupancy
  Sr  Sr0  1  0.666667  0.333333  0.579127  1
  Sr  Sr1  1  0.333333  0.666667  0.079127  1
  Sc  Sc2  1  0.666667  0.333333  0.951338  1
  Sc  Sc3  1  0.333333  0.666667  0.451338  1
  Si  Si4  1  0.000000  0.000000  0.024854  1
  Si  Si5  1  0.000000  0.000000  0.524854  1
  Ge  Ge6  1  0.171802  0.343602  0.761372  1
  Ge  Ge7  1  0.828198  0.171802  0.261372  1
  Ge  Ge8  1  0.343602  0.171802  0.261372  1
  Ge  Ge9  1  0.656398  0.828198  0.761372  1
  Ge  Ge10  1  0.171802  0.828198  0.761372  1
  Ge  Ge11  1  0.828198  0.656398  0.261372  1
  N  N12  1  0.000000  0.000000  0.839868  1
  N  N13  1  0.000000  0.000000  0.339868  1
  N  N14  1  0.844492  0.688986  0.075994  1
  N  N15  1  0.155508  0.844492  0.575994  1
  N  N16  1  0.688986  0.844492  0.575994  1
  N  N17  1  0.311014  0.155508  0.075994  1
  N  N18  1  0.844492  0.155508  0.075994  1
  N  N19  1  0.155508  0.311014  0.575994  1
  N  N20  1  0.499002  0.500998  0.821847  1
  N  N21  1  0.998007  0.499002  0.321847  1
  N  N22  1  0.500998  0.001993  0.321847  1
  N  N23  1  0.499002  0.998007  0.821847  1
  N  N24  1  0.500998  0.499002  0.321847  1
  N  N25  1  0.001993  0.500998  0.821847  1
