# generated using pymatgen
data_Mn4(HgPd3)3
_symmetry_space_group_name_H-M   'P 1'
_cell_length_a   6.97808168
_cell_length_b   6.97808228
_cell_length_c   6.97808187
_cell_angle_alpha   107.14058367
_cell_angle_beta   107.14059438
_cell_angle_gamma   114.24035105
_symmetry_Int_Tables_number   1
_chemical_formula_structural   Mn4(HgPd3)3
_chemical_formula_sum   'Mn4 Hg3 Pd9'
_cell_volume   260.19817429
_cell_formula_units_Z   1
loop_
 _symmetry_equiv_pos_site_id
 _symmetry_equiv_pos_as_xyz
  1  'x, y, z'
loop_
 _atom_site_type_symbol
 _atom_site_label
 _atom_site_symmetry_multiplicity
 _atom_site_fract_x
 _atom_site_fract_y
 _atom_site_fract_z
 _atom_site_occupancy
  Mn  Mn0  1  0.241794  0.241794  0.483588  1
  Mn  Mn1  1  0.758206  0.758206  0.516412  1
  Mn  Mn2  1  0.241794  0.758206  0.000000  1
  Mn  Mn3  1  0.758206  0.241794  0.000000  1
  Hg  Hg4  1  0.500000  0.000000  0.500000  1
  Hg  Hg5  1  0.000000  0.500000  0.500000  1
  Hg  Hg6  1  0.500000  0.500000  0.000000  1
  Pd  Pd7  1  0.498919  0.250524  0.248395  1
  Pd  Pd8  1  0.501081  0.749476  0.751605  1
  Pd  Pd9  1  0.002129  0.250524  0.751605  1
  Pd  Pd10  1  0.250524  0.002129  0.751605  1
  Pd  Pd11  1  0.997871  0.749476  0.248395  1
  Pd  Pd12  1  0.749476  0.997871  0.248395  1
  Pd  Pd13  1  0.250524  0.498919  0.248395  1
  Pd  Pd14  1  0.749476  0.501081  0.751605  1
  Pd  Pd15  1  0.000000  0.000000  0.000000  1
