# generated using pymatgen
data_Tb9NdSn8
_symmetry_space_group_name_H-M   'P 1'
_cell_length_a   8.09941925
_cell_length_b   8.24879100
_cell_length_c   15.58267308
_cell_angle_alpha   90.00000000
_cell_angle_beta   89.77078397
_cell_angle_gamma   90.00000000
_symmetry_Int_Tables_number   1
_chemical_formula_structural   Tb9NdSn8
_chemical_formula_sum   'Tb18 Nd2 Sn16'
_cell_volume   1041.07654971
_cell_formula_units_Z   2
loop_
 _symmetry_equiv_pos_site_id
 _symmetry_equiv_pos_as_xyz
  1  'x, y, z'
loop_
 _atom_site_type_symbol
 _atom_site_label
 _atom_site_symmetry_multiplicity
 _atom_site_fract_x
 _atom_site_fract_y
 _atom_site_fract_z
 _atom_site_occupancy
  Tb  Tb0  1  0.018481  0.180104  0.401395  1
  Tb  Tb1  1  0.368428  0.836646  0.120971  1
  Tb  Tb2  1  0.132719  0.336694  0.621817  1
  Tb  Tb3  1  0.480965  0.679843  0.902072  1
  Tb  Tb4  1  0.868484  0.663426  0.121170  1
  Tb  Tb5  1  0.131572  0.336646  0.879029  1
  Tb  Tb6  1  0.198847  0.503102  0.249273  1
  Tb  Tb7  1  0.699279  0.997094  0.249448  1
  Tb  Tb8  1  0.481519  0.680104  0.598605  1
  Tb  Tb9  1  0.301153  0.003102  0.750727  1
  Tb  Tb10  1  0.632637  0.163292  0.622057  1
  Tb  Tb11  1  0.800721  0.497094  0.750552  1
  Tb  Tb12  1  0.867363  0.663292  0.377943  1
  Tb  Tb13  1  0.019035  0.179843  0.097928  1
  Tb  Tb14  1  0.980739  0.819800  0.901317  1
  Tb  Tb15  1  0.631516  0.163426  0.878830  1
  Tb  Tb16  1  0.519261  0.319800  0.098683  1
  Tb  Tb17  1  0.367281  0.836694  0.378183  1
  Nd  Nd18  1  0.982593  0.819230  0.597613  1
  Nd  Nd19  1  0.517407  0.319230  0.402387  1
  Sn  Sn20  1  0.793404  0.462965  0.542628  1
  Sn  Sn21  1  0.706596  0.962965  0.457372  1
  Sn  Sn22  1  0.671257  0.854086  0.750777  1
  Sn  Sn23  1  0.205063  0.538859  0.458822  1
  Sn  Sn24  1  0.291169  0.036016  0.958125  1
  Sn  Sn25  1  0.828743  0.354086  0.249223  1
  Sn  Sn26  1  0.791424  0.463743  0.958259  1
  Sn  Sn27  1  0.565968  0.620130  0.249522  1
  Sn  Sn28  1  0.208831  0.536016  0.041875  1
  Sn  Sn29  1  0.434354  0.380719  0.750226  1
  Sn  Sn30  1  0.175023  0.644252  0.751486  1
  Sn  Sn31  1  0.934032  0.120130  0.750478  1
  Sn  Sn32  1  0.294937  0.038859  0.541178  1
  Sn  Sn33  1  0.708576  0.963743  0.041741  1
  Sn  Sn34  1  0.324977  0.144252  0.248514  1
  Sn  Sn35  1  0.065646  0.880719  0.249774  1
