# generated using pymatgen
data_Hf2Nb2P4IrRu3
_symmetry_space_group_name_H-M   'P 1'
_cell_length_a   3.79549800
_cell_length_b   6.41845941
_cell_length_c   7.28084980
_cell_angle_alpha   89.80324683
_cell_angle_beta   90.00000000
_cell_angle_gamma   90.00000000
_symmetry_Int_Tables_number   1
_chemical_formula_structural   Hf2Nb2P4IrRu3
_chemical_formula_sum   'Hf2 Nb2 P4 Ir1 Ru3'
_cell_volume   177.36955509
_cell_formula_units_Z   1
loop_
 _symmetry_equiv_pos_site_id
 _symmetry_equiv_pos_as_xyz
  1  'x, y, z'
loop_
 _atom_site_type_symbol
 _atom_site_label
 _atom_site_symmetry_multiplicity
 _atom_site_fract_x
 _atom_site_fract_y
 _atom_site_fract_z
 _atom_site_occupancy
  Hf  Hf0  1  0.250000  0.026556  0.825061  1
  Hf  Hf1  1  0.250000  0.523958  0.675031  1
  Nb  Nb2  1  0.750000  0.977273  0.175122  1
  Nb  Nb3  1  0.750000  0.475141  0.324079  1
  P  P4  1  0.250000  0.272386  0.127784  1
  P  P5  1  0.250000  0.769293  0.367690  1
  P  P6  1  0.750000  0.731117  0.885388  1
  P  P7  1  0.750000  0.236456  0.617991  1
  Ir  Ir8  1  0.750000  0.849498  0.563323  1
  Ru  Ru9  1  0.250000  0.142072  0.438173  1
  Ru  Ru10  1  0.250000  0.645611  0.060353  1
  Ru  Ru11  1  0.750000  0.350639  0.940008  1
