# generated using pymatgen
data_Eu5BiRh2
_symmetry_space_group_name_H-M   'P 1'
_cell_length_a   7.98721800
_cell_length_b   7.98721800
_cell_length_c   15.12515600
_cell_angle_alpha   90.00000000
_cell_angle_beta   90.00000000
_cell_angle_gamma   90.00000000
_symmetry_Int_Tables_number   1
_chemical_formula_structural   Eu5BiRh2
_chemical_formula_sum   'Eu20 Bi4 Rh8'
_cell_volume   964.91917924
_cell_formula_units_Z   4
loop_
 _symmetry_equiv_pos_site_id
 _symmetry_equiv_pos_as_xyz
  1  'x, y, z'
loop_
 _atom_site_type_symbol
 _atom_site_label
 _atom_site_symmetry_multiplicity
 _atom_site_fract_x
 _atom_site_fract_y
 _atom_site_fract_z
 _atom_site_occupancy
  Eu  Eu0  1  0.168293  0.170053  0.120208  1
  Eu  Eu1  1  0.670052  0.331707  0.120208  1
  Eu  Eu2  1  0.329947  0.668293  0.120208  1
  Eu  Eu3  1  0.831707  0.829947  0.120208  1
  Eu  Eu4  1  0.500000  0.000000  0.248218  1
  Eu  Eu5  1  0.000000  0.500000  0.251782  1
  Eu  Eu6  1  0.170053  0.168293  0.379792  1
  Eu  Eu7  1  0.668293  0.329947  0.379792  1
  Eu  Eu8  1  0.331707  0.670052  0.379792  1
  Eu  Eu9  1  0.829947  0.831707  0.379792  1
  Eu  Eu10  1  0.831707  0.170053  0.620208  1
  Eu  Eu11  1  0.329947  0.331707  0.620208  1
  Eu  Eu12  1  0.670052  0.668293  0.620208  1
  Eu  Eu13  1  0.168293  0.829947  0.620208  1
  Eu  Eu14  1  0.500000  0.000000  0.748218  1
  Eu  Eu15  1  0.000000  0.500000  0.751782  1
  Eu  Eu16  1  0.829947  0.168293  0.879792  1
  Eu  Eu17  1  0.331707  0.329947  0.879792  1
  Eu  Eu18  1  0.668293  0.670052  0.879792  1
  Eu  Eu19  1  0.170053  0.831707  0.879792  1
  Bi  Bi20  1  0.500000  0.000000  0.000789  1
  Bi  Bi21  1  0.000000  0.500000  0.499211  1
  Bi  Bi22  1  0.500000  0.000000  0.500789  1
  Bi  Bi23  1  0.000000  0.500000  0.999211  1
  Rh  Rh24  1  0.873190  0.126811  0.250000  1
  Rh  Rh25  1  0.373189  0.373189  0.250000  1
  Rh  Rh26  1  0.626811  0.626811  0.250000  1
  Rh  Rh27  1  0.126811  0.873190  0.250000  1
  Rh  Rh28  1  0.126811  0.126811  0.750000  1
  Rh  Rh29  1  0.626811  0.373189  0.750000  1
  Rh  Rh30  1  0.373189  0.626811  0.750000  1
  Rh  Rh31  1  0.873190  0.873190  0.750000  1
