# generated using pymatgen
data_Pr2Tc7Ni5P7
_symmetry_space_group_name_H-M   'P 1'
_cell_length_a   9.48103265
_cell_length_b   3.80810000
_cell_length_c   9.50612952
_cell_angle_alpha   90.00000000
_cell_angle_beta   120.34803887
_cell_angle_gamma   90.00000000
_symmetry_Int_Tables_number   1
_chemical_formula_structural   Pr2Tc7Ni5P7
_chemical_formula_sum   'Pr2 Tc7 Ni5 P7'
_cell_volume   296.18600616
_cell_formula_units_Z   1
loop_
 _symmetry_equiv_pos_site_id
 _symmetry_equiv_pos_as_xyz
  1  'x, y, z'
loop_
 _atom_site_type_symbol
 _atom_site_label
 _atom_site_symmetry_multiplicity
 _atom_site_fract_x
 _atom_site_fract_y
 _atom_site_fract_z
 _atom_site_occupancy
  Pr  Pr0  1  0.333600  0.000000  0.664906  1
  Pr  Pr1  1  0.670663  0.500000  0.339020  1
  Tc  Tc2  1  0.426696  0.000000  0.059611  1
  Tc  Tc3  1  0.387273  0.500000  0.431044  1
  Tc  Tc4  1  0.044160  0.500000  0.612745  1
  Tc  Tc5  1  0.574377  0.500000  0.953178  1
  Tc  Tc6  1  0.198446  0.500000  0.083123  1
  Tc  Tc7  1  0.880700  0.500000  0.792046  1
  Tc  Tc8  1  0.908816  0.500000  0.121330  1
  Ni  Ni9  1  0.637566  0.000000  0.577147  1
  Ni  Ni10  1  0.941414  0.000000  0.363309  1
  Ni  Ni11  1  0.153489  0.000000  0.272316  1
  Ni  Ni12  1  0.111192  0.000000  0.843362  1
  Ni  Ni13  1  0.731854  0.000000  0.882732  1
  P  P14  1  0.402987  0.000000  0.295039  1
  P  P15  1  0.888364  0.000000  0.594815  1
  P  P16  1  0.706977  0.000000  0.112117  1
  P  P17  1  0.113440  0.500000  0.400718  1
  P  P18  1  0.287962  0.500000  0.888408  1
  P  P19  1  0.600176  0.500000  0.711820  1
  P  P20  1  0.999843  0.000000  0.001212  1
