# generated using pymatgen
data_Pr3GeSe2
_symmetry_space_group_name_H-M   'P 1'
_cell_length_a   7.49255994
_cell_length_b   7.49255997
_cell_length_c   7.49256023
_cell_angle_alpha   146.53325098
_cell_angle_beta   132.27516177
_cell_angle_gamma   59.54258361
_symmetry_Int_Tables_number   1
_chemical_formula_structural   Pr3GeSe2
_chemical_formula_sum   'Pr3 Ge1 Se2'
_cell_volume   170.10240260
_cell_formula_units_Z   1
loop_
 _symmetry_equiv_pos_site_id
 _symmetry_equiv_pos_as_xyz
  1  'x, y, z'
loop_
 _atom_site_type_symbol
 _atom_site_label
 _atom_site_symmetry_multiplicity
 _atom_site_fract_x
 _atom_site_fract_y
 _atom_site_fract_z
 _atom_site_occupancy
  Pr  Pr0  1  0.340301  0.340301  0.000000  1
  Pr  Pr1  1  0.000000  0.000000  0.000000  1
  Pr  Pr2  1  0.659699  0.659699  0.000000  1
  Ge  Ge3  1  0.500000  0.000000  0.500000  1
  Se  Se4  1  0.167171  0.667171  0.500000  1
  Se  Se5  1  0.832829  0.332829  0.500000  1
