# generated using pymatgen
data_Hf6Ti3NbGe6
_symmetry_space_group_name_H-M   'P 1'
_cell_length_a   7.86418300
_cell_length_b   7.86418339
_cell_length_c   5.36113000
_cell_angle_alpha   90.00000000
_cell_angle_beta   90.00000000
_cell_angle_gamma   119.99999414
_symmetry_Int_Tables_number   1
_chemical_formula_structural   Hf6Ti3NbGe6
_chemical_formula_sum   'Hf6 Ti3 Nb1 Ge6'
_cell_volume   287.14035925
_cell_formula_units_Z   1
loop_
 _symmetry_equiv_pos_site_id
 _symmetry_equiv_pos_as_xyz
  1  'x, y, z'
loop_
 _atom_site_type_symbol
 _atom_site_label
 _atom_site_symmetry_multiplicity
 _atom_site_fract_x
 _atom_site_fract_y
 _atom_site_fract_z
 _atom_site_occupancy
  Hf  Hf0  1  0.000244  0.749321  0.748486  1
  Hf  Hf1  1  0.250679  0.250924  0.748486  1
  Hf  Hf2  1  0.000244  0.250924  0.251514  1
  Hf  Hf3  1  0.749076  0.999756  0.748486  1
  Hf  Hf4  1  0.749076  0.749321  0.251514  1
  Hf  Hf5  1  0.250679  0.999756  0.251514  1
  Ti  Ti6  1  0.333333  0.666667  0.000000  1
  Ti  Ti7  1  0.666667  0.333333  0.500000  1
  Ti  Ti8  1  0.666667  0.333333  0.000000  1
  Nb  Nb9  1  0.333333  0.666667  0.500000  1
  Ge  Ge10  1  0.605641  0.603882  0.752202  1
  Ge  Ge11  1  0.396118  0.001759  0.752202  1
  Ge  Ge12  1  0.998241  0.603882  0.247798  1
  Ge  Ge13  1  0.605641  0.001759  0.247798  1
  Ge  Ge14  1  0.998241  0.394359  0.752202  1
  Ge  Ge15  1  0.396118  0.394359  0.247798  1
