# generated using pymatgen
data_Sr4LaYPa2O12
_symmetry_space_group_name_H-M   'P 1'
_cell_length_a   6.21399003
_cell_length_b   6.06265417
_cell_length_c   10.59305265
_cell_angle_alpha   55.13719438
_cell_angle_beta   89.55800515
_cell_angle_gamma   89.89636903
_symmetry_Int_Tables_number   1
_chemical_formula_structural   Sr4LaYPa2O12
_chemical_formula_sum   'Sr4 La1 Y1 Pa2 O12'
_cell_volume   327.43884226
_cell_formula_units_Z   1
loop_
 _symmetry_equiv_pos_site_id
 _symmetry_equiv_pos_as_xyz
  1  'x, y, z'
loop_
 _atom_site_type_symbol
 _atom_site_label
 _atom_site_symmetry_multiplicity
 _atom_site_fract_x
 _atom_site_fract_y
 _atom_site_fract_z
 _atom_site_occupancy
  Sr  Sr0  1  0.453309  0.254720  0.757260  1
  Sr  Sr1  1  0.957519  0.732887  0.755636  1
  Sr  Sr2  1  0.042481  0.267113  0.244364  1
  Sr  Sr3  1  0.546691  0.745280  0.242740  1
  La  La4  1  0.500000  0.000000  0.500000  1
  Y  Y5  1  0.000000  0.000000  0.000000  1
  Pa  Pa6  1  0.000000  0.500000  0.500000  1
  Pa  Pa7  1  0.500000  0.500000  0.000000  1
  O  O8  1  0.183986  0.734119  0.557919  1
  O  O9  1  0.698089  0.261171  0.947608  1
  O  O10  1  0.816014  0.265881  0.442081  1
  O  O11  1  0.301911  0.738829  0.052392  1
  O  O12  1  0.708840  0.617448  0.563573  1
  O  O13  1  0.210269  0.360894  0.941883  1
  O  O14  1  0.291160  0.382552  0.436427  1
  O  O15  1  0.789731  0.639106  0.058117  1
  O  O16  1  0.044344  0.149076  0.744847  1
  O  O17  1  0.546458  0.845877  0.764292  1
  O  O18  1  0.955656  0.850924  0.255153  1
  O  O19  1  0.453542  0.154123  0.235708  1
