# generated using pymatgen
data_TbDy3Tm4(B6Os)4
_symmetry_space_group_name_H-M   'P 1'
_cell_length_a   3.63760400
_cell_length_b   9.11320400
_cell_length_c   11.50608500
_cell_angle_alpha   90.00175661
_cell_angle_beta   90.00000000
_cell_angle_gamma   90.00000000
_symmetry_Int_Tables_number   1
_chemical_formula_structural   TbDy3Tm4(B6Os)4
_chemical_formula_sum   'Tb1 Dy3 Tm4 B24 Os4'
_cell_volume   381.42933326
_cell_formula_units_Z   1
loop_
 _symmetry_equiv_pos_site_id
 _symmetry_equiv_pos_as_xyz
  1  'x, y, z'
loop_
 _atom_site_type_symbol
 _atom_site_label
 _atom_site_symmetry_multiplicity
 _atom_site_fract_x
 _atom_site_fract_y
 _atom_site_fract_z
 _atom_site_occupancy
  Tb  Tb0  1  0.000000  0.321997  0.413956  1
  Dy  Dy1  1  0.000000  0.678093  0.586047  1
  Dy  Dy2  1  0.000000  0.821925  0.085960  1
  Dy  Dy3  1  0.000000  0.178071  0.913999  1
  Tm  Tm4  1  0.000000  0.944008  0.372998  1
  Tm  Tm5  1  0.000000  0.055872  0.627075  1
  Tm  Tm6  1  0.000000  0.444084  0.126905  1
  Tm  Tm7  1  0.000000  0.555970  0.873081  1
  B  B8  1  0.500000  0.554436  0.432864  1
  B  B9  1  0.500000  0.445905  0.567328  1
  B  B10  1  0.500000  0.054127  0.067026  1
  B  B11  1  0.500000  0.945811  0.932902  1
  B  B12  1  0.500000  0.749056  0.419632  1
  B  B13  1  0.500000  0.250963  0.580659  1
  B  B14  1  0.500000  0.248939  0.080285  1
  B  B15  1  0.500000  0.751051  0.919628  1
  B  B16  1  0.500000  0.791544  0.266246  1
  B  B17  1  0.500000  0.208484  0.733837  1
  B  B18  1  0.500000  0.291358  0.233479  1
  B  B19  1  0.500000  0.708519  0.766319  1
  B  B20  1  0.500000  0.631297  0.184776  1
  B  B21  1  0.500000  0.368815  0.815209  1
  B  B22  1  0.500000  0.130990  0.314982  1
  B  B23  1  0.500000  0.868769  0.684880  1
  B  B24  1  0.500000  0.982810  0.213377  1
  B  B25  1  0.500000  0.017068  0.786581  1
  B  B26  1  0.500000  0.483168  0.286390  1
  B  B27  1  0.500000  0.517148  0.713551  1
  B  B28  1  0.500000  0.605514  0.029101  1
  B  B29  1  0.500000  0.394525  0.970870  1
  B  B30  1  0.500000  0.105009  0.471012  1
  B  B31  1  0.500000  0.894586  0.529115  1
  Os  Os32  1  0.000000  0.638051  0.320631  1
  Os  Os33  1  0.000000  0.362186  0.679449  1
  Os  Os34  1  0.000000  0.137660  0.179077  1
  Os  Os35  1  0.000000  0.862191  0.820777  1
