# generated using pymatgen
data_Ho4TmPt9
_symmetry_space_group_name_H-M   'P 1'
_cell_length_a   9.72850000
_cell_length_b   9.72850000
_cell_length_c   5.76042100
_cell_angle_alpha   90.00000000
_cell_angle_beta   90.00000000
_cell_angle_gamma   90.00000000
_symmetry_Int_Tables_number   1
_chemical_formula_structural   Ho4TmPt9
_chemical_formula_sum   'Ho8 Tm2 Pt18'
_cell_volume   545.18762756
_cell_formula_units_Z   2
loop_
 _symmetry_equiv_pos_site_id
 _symmetry_equiv_pos_as_xyz
  1  'x, y, z'
loop_
 _atom_site_type_symbol
 _atom_site_label
 _atom_site_symmetry_multiplicity
 _atom_site_fract_x
 _atom_site_fract_y
 _atom_site_fract_z
 _atom_site_occupancy
  Ho  Ho0  1  0.452413  0.808931  0.000000  1
  Ho  Ho1  1  0.547587  0.191069  0.000000  1
  Ho  Ho2  1  0.191069  0.547587  0.000000  1
  Ho  Ho3  1  0.808931  0.452413  0.000000  1
  Ho  Ho4  1  0.308931  0.047587  0.500000  1
  Ho  Ho5  1  0.691069  0.952413  0.500000  1
  Ho  Ho6  1  0.952413  0.691069  0.500000  1
  Ho  Ho7  1  0.047587  0.308931  0.500000  1
  Tm  Tm8  1  0.500000  0.500000  0.500000  1
  Tm  Tm9  1  0.000000  0.000000  0.000000  1
  Pt  Pt10  1  0.191562  0.808438  0.250651  1
  Pt  Pt11  1  0.808438  0.191562  0.749349  1
  Pt  Pt12  1  0.808438  0.191562  0.250651  1
  Pt  Pt13  1  0.191562  0.808438  0.749349  1
  Pt  Pt14  1  0.441293  0.781871  0.500000  1
  Pt  Pt15  1  0.558707  0.218129  0.500000  1
  Pt  Pt16  1  0.218129  0.558707  0.500000  1
  Pt  Pt17  1  0.781871  0.441293  0.500000  1
  Pt  Pt18  1  0.308438  0.308438  0.249349  1
  Pt  Pt19  1  0.691562  0.691562  0.750651  1
  Pt  Pt20  1  0.691562  0.691562  0.249349  1
  Pt  Pt21  1  0.308438  0.308438  0.750651  1
  Pt  Pt22  1  0.281871  0.058707  0.000000  1
  Pt  Pt23  1  0.718129  0.941293  0.000000  1
  Pt  Pt24  1  0.941293  0.718129  0.000000  1
  Pt  Pt25  1  0.058707  0.281871  0.000000  1
  Pt  Pt26  1  0.000000  0.000000  0.500000  1
  Pt  Pt27  1  0.500000  0.500000  0.000000  1
