# generated using pymatgen
data_Pr3Er2P12Ru14Rh5
_symmetry_space_group_name_H-M   'P 1'
_cell_length_a   12.61401761
_cell_length_b   12.65093018
_cell_length_c   3.99461800
_cell_angle_alpha   90.00000000
_cell_angle_beta   90.00000000
_cell_angle_gamma   119.83293037
_symmetry_Int_Tables_number   1
_chemical_formula_structural   Pr3Er2P12Ru14Rh5
_chemical_formula_sum   'Pr3 Er2 P12 Ru14 Rh5'
_cell_volume   552.98131367
_cell_formula_units_Z   1
loop_
 _symmetry_equiv_pos_site_id
 _symmetry_equiv_pos_as_xyz
  1  'x, y, z'
loop_
 _atom_site_type_symbol
 _atom_site_label
 _atom_site_symmetry_multiplicity
 _atom_site_fract_x
 _atom_site_fract_y
 _atom_site_fract_z
 _atom_site_occupancy
  Pr  Pr0  1  0.183607  0.182341  0.500000  1
  Pr  Pr1  1  0.816183  0.999208  0.500000  1
  Pr  Pr2  1  0.001133  0.816450  0.500000  1
  Er  Er3  1  0.332859  0.666724  0.000000  1
  Er  Er4  1  0.667183  0.333520  0.000000  1
  P  P5  1  0.813294  0.810291  0.000000  1
  P  P6  1  0.190478  0.000310  0.000000  1
  P  P7  1  0.997623  0.186542  0.000000  1
  P  P8  1  0.174375  0.482547  0.500000  1
  P  P9  1  0.516026  0.692240  0.500000  1
  P  P10  1  0.303530  0.822580  0.500000  1
  P  P11  1  0.697083  0.519319  0.500000  1
  P  P12  1  0.822093  0.303000  0.500000  1
  P  P13  1  0.481579  0.178860  0.500000  1
  P  P14  1  0.375209  0.371276  0.000000  1
  P  P15  1  0.629070  0.004162  0.000000  1
  P  P16  1  0.999834  0.627895  0.000000  1
  Ru  Ru17  1  0.709538  0.711307  0.500000  1
  Ru  Ru18  1  0.290621  0.000657  0.500000  1
  Ru  Ru19  1  0.001574  0.289935  0.500000  1
  Ru  Ru20  1  0.196673  0.814548  0.000000  1
  Ru  Ru21  1  0.801818  0.617156  0.000000  1
  Ru  Ru22  1  0.815954  0.198105  0.000000  1
  Ru  Ru23  1  0.383700  0.185781  0.000000  1
  Ru  Ru24  1  0.363607  0.491934  0.500000  1
  Ru  Ru25  1  0.506401  0.872285  0.500000  1
  Ru  Ru26  1  0.125125  0.633207  0.500000  1
  Ru  Ru27  1  0.874443  0.505431  0.500000  1
  Ru  Ru28  1  0.631283  0.124604  0.500000  1
  Ru  Ru29  1  0.493769  0.369964  0.500000  1
  Ru  Ru30  1  0.000013  0.999753  0.000000  1
  Rh  Rh31  1  0.549042  0.554884  0.000000  1
  Rh  Rh32  1  0.446789  0.998253  0.000000  1
  Rh  Rh33  1  0.002971  0.449238  0.000000  1
  Rh  Rh34  1  0.186047  0.379524  0.000000  1
  Rh  Rh35  1  0.619471  0.806169  0.000000  1
