# generated using pymatgen
data_Er2Al3Pt4
_symmetry_space_group_name_H-M   'P 1'
_cell_length_a   8.09742507
_cell_length_b   8.09742483
_cell_length_c   7.63679000
_cell_angle_alpha   90.00000000
_cell_angle_beta   90.00000000
_cell_angle_gamma   139.97423892
_symmetry_Int_Tables_number   1
_chemical_formula_structural   Er2Al3Pt4
_chemical_formula_sum   'Er4 Al6 Pt8'
_cell_volume   322.03628673
_cell_formula_units_Z   2
loop_
 _symmetry_equiv_pos_site_id
 _symmetry_equiv_pos_as_xyz
  1  'x, y, z'
loop_
 _atom_site_type_symbol
 _atom_site_label
 _atom_site_symmetry_multiplicity
 _atom_site_fract_x
 _atom_site_fract_y
 _atom_site_fract_z
 _atom_site_occupancy
  Er  Er0  1  0.107460  0.892540  0.408764  1
  Er  Er1  1  0.892540  0.107460  0.591236  1
  Er  Er2  1  0.392540  0.607460  0.908764  1
  Er  Er3  1  0.607460  0.392540  0.091236  1
  Al  Al4  1  0.000000  0.000000  0.000000  1
  Al  Al5  1  0.500000  0.500000  0.500000  1
  Al  Al6  1  0.023582  0.476418  0.250000  1
  Al  Al7  1  0.476418  0.023582  0.750000  1
  Al  Al8  1  0.976418  0.523582  0.750000  1
  Al  Al9  1  0.523582  0.976418  0.250000  1
  Pt  Pt10  1  0.193037  0.306963  0.250000  1
  Pt  Pt11  1  0.306963  0.193037  0.750000  1
  Pt  Pt12  1  0.806963  0.693037  0.750000  1
  Pt  Pt13  1  0.693037  0.806963  0.250000  1
  Pt  Pt14  1  0.185299  0.814701  0.029444  1
  Pt  Pt15  1  0.814701  0.185299  0.970556  1
  Pt  Pt16  1  0.314701  0.685299  0.529444  1
  Pt  Pt17  1  0.685299  0.314701  0.470556  1
