# generated using pymatgen
data_CeNiAsH
_symmetry_space_group_name_H-M   'P 1'
_cell_length_a   4.03818100
_cell_length_b   8.26195600
_cell_length_c   7.13574600
_cell_angle_alpha   90.00000000
_cell_angle_beta   90.00000000
_cell_angle_gamma   90.00000000
_symmetry_Int_Tables_number   1
_chemical_formula_structural   CeNiAsH
_chemical_formula_sum   'Ce4 Ni4 As4 H4'
_cell_volume   238.07184715
_cell_formula_units_Z   4
loop_
 _symmetry_equiv_pos_site_id
 _symmetry_equiv_pos_as_xyz
  1  'x, y, z'
loop_
 _atom_site_type_symbol
 _atom_site_label
 _atom_site_symmetry_multiplicity
 _atom_site_fract_x
 _atom_site_fract_y
 _atom_site_fract_z
 _atom_site_occupancy
  Ce  Ce0  1  0.750000  0.505556  0.754807  1
  Ce  Ce1  1  0.250000  0.494444  0.245193  1
  Ce  Ce2  1  0.250000  0.994444  0.254807  1
  Ce  Ce3  1  0.750000  0.005556  0.745193  1
  Ni  Ni4  1  0.750000  0.236674  0.409257  1
  Ni  Ni5  1  0.250000  0.763326  0.590743  1
  Ni  Ni6  1  0.250000  0.263326  0.909257  1
  Ni  Ni7  1  0.750000  0.736674  0.090743  1
  As  As8  1  0.750000  0.225958  0.077892  1
  As  As9  1  0.250000  0.774042  0.922108  1
  As  As10  1  0.250000  0.274042  0.577892  1
  As  As11  1  0.750000  0.725958  0.422108  1
  H  H12  1  0.250000  0.958358  0.579772  1
  H  H13  1  0.750000  0.041642  0.420228  1
  H  H14  1  0.750000  0.541642  0.079772  1
  H  H15  1  0.250000  0.458358  0.920228  1
