# generated using pymatgen
data_Sm5Nb3(Co4P3)4
_symmetry_space_group_name_H-M   'P 1'
_cell_length_a   12.26368800
_cell_length_b   12.26368856
_cell_length_c   3.73411400
_cell_angle_alpha   90.00000000
_cell_angle_beta   90.00000000
_cell_angle_gamma   119.99999849
_symmetry_Int_Tables_number   1
_chemical_formula_structural   Sm5Nb3(Co4P3)4
_chemical_formula_sum   'Sm5 Nb3 Co16 P12'
_cell_volume   486.36287495
_cell_formula_units_Z   1
loop_
 _symmetry_equiv_pos_site_id
 _symmetry_equiv_pos_as_xyz
  1  'x, y, z'
loop_
 _atom_site_type_symbol
 _atom_site_label
 _atom_site_symmetry_multiplicity
 _atom_site_fract_x
 _atom_site_fract_y
 _atom_site_fract_z
 _atom_site_occupancy
  Sm  Sm0  1  0.816204  0.000000  0.500000  1
  Sm  Sm1  1  0.000000  0.816204  0.500000  1
  Sm  Sm2  1  0.183796  0.183796  0.500000  1
  Sm  Sm3  1  0.333333  0.666667  0.000000  1
  Sm  Sm4  1  0.666667  0.333333  0.000000  1
  Nb  Nb5  1  0.443311  0.000000  0.000000  1
  Nb  Nb6  1  0.000000  0.443311  0.000000  1
  Nb  Nb7  1  0.556689  0.556689  0.000000  1
  Co  Co8  1  0.280439  0.000000  0.500000  1
  Co  Co9  1  0.000000  0.280439  0.500000  1
  Co  Co10  1  0.719561  0.719561  0.500000  1
  Co  Co11  1  0.625352  0.802282  0.000000  1
  Co  Co12  1  0.197718  0.823070  0.000000  1
  Co  Co13  1  0.176930  0.374648  0.000000  1
  Co  Co14  1  0.374648  0.176930  0.000000  1
  Co  Co15  1  0.802282  0.625352  0.000000  1
  Co  Co16  1  0.823070  0.197718  0.000000  1
  Co  Co17  1  0.520135  0.874190  0.500000  1
  Co  Co18  1  0.125810  0.645945  0.500000  1
  Co  Co19  1  0.354055  0.479865  0.500000  1
  Co  Co20  1  0.479865  0.354055  0.500000  1
  Co  Co21  1  0.874190  0.520135  0.500000  1
  Co  Co22  1  0.645945  0.125810  0.500000  1
  Co  Co23  1  0.000000  0.000000  0.000000  1
  P  P24  1  0.180107  0.000000  0.000000  1
  P  P25  1  0.000000  0.180107  0.000000  1
  P  P26  1  0.819893  0.819893  0.000000  1
  P  P27  1  0.522301  0.689240  0.500000  1
  P  P28  1  0.310760  0.833061  0.500000  1
  P  P29  1  0.166939  0.477699  0.500000  1
  P  P30  1  0.477699  0.166939  0.500000  1
  P  P31  1  0.689240  0.522301  0.500000  1
  P  P32  1  0.833061  0.310760  0.500000  1
  P  P33  1  0.641742  0.000000  0.000000  1
  P  P34  1  0.000000  0.641742  0.000000  1
  P  P35  1  0.358258  0.358258  0.000000  1
