# generated using pymatgen
data_Dy11HoCoTc3
_symmetry_space_group_name_H-M   'P 1'
_cell_length_a   6.27287625
_cell_length_b   7.30704107
_cell_length_c   9.15740151
_cell_angle_alpha   90.01668671
_cell_angle_beta   89.96575099
_cell_angle_gamma   90.03419397
_symmetry_Int_Tables_number   1
_chemical_formula_structural   Dy11HoCoTc3
_chemical_formula_sum   'Dy11 Ho1 Co1 Tc3'
_cell_volume   419.73999306
_cell_formula_units_Z   1
loop_
 _symmetry_equiv_pos_site_id
 _symmetry_equiv_pos_as_xyz
  1  'x, y, z'
loop_
 _atom_site_type_symbol
 _atom_site_label
 _atom_site_symmetry_multiplicity
 _atom_site_fract_x
 _atom_site_fract_y
 _atom_site_fract_z
 _atom_site_occupancy
  Dy  Dy0  1  0.663479  0.175955  0.061605  1
  Dy  Dy1  1  0.371926  0.541283  0.249749  1
  Dy  Dy2  1  0.126713  0.041079  0.249817  1
  Dy  Dy3  1  0.830773  0.677764  0.435229  1
  Dy  Dy4  1  0.332156  0.821597  0.936512  1
  Dy  Dy5  1  0.165736  0.326138  0.565028  1
  Dy  Dy6  1  0.663185  0.175937  0.438347  1
  Dy  Dy7  1  0.165334  0.326496  0.935131  1
  Dy  Dy8  1  0.332112  0.821676  0.563654  1
  Dy  Dy9  1  0.873778  0.951929  0.750193  1
  Dy  Dy10  1  0.641237  0.457645  0.750248  1
  Ho  Ho11  1  0.830723  0.677665  0.064722  1
  Co  Co12  1  0.039238  0.615794  0.750273  1
  Tc  Tc13  1  0.959764  0.389433  0.249823  1
  Tc  Tc14  1  0.464045  0.112894  0.749930  1
  Tc  Tc15  1  0.539802  0.886716  0.249739  1
