# generated using pymatgen
data_Tb5Ho3(GeI6)2
_symmetry_space_group_name_H-M   'P 1'
_cell_length_a   4.22539200
_cell_length_b   14.07542109
_cell_length_c   14.85240726
_cell_angle_alpha   89.92404523
_cell_angle_beta   90.00000000
_cell_angle_gamma   90.00000000
_symmetry_Int_Tables_number   1
_chemical_formula_structural   Tb5Ho3(GeI6)2
_chemical_formula_sum   'Tb5 Ho3 Ge2 I12'
_cell_volume   883.33384321
_cell_formula_units_Z   1
loop_
 _symmetry_equiv_pos_site_id
 _symmetry_equiv_pos_as_xyz
  1  'x, y, z'
loop_
 _atom_site_type_symbol
 _atom_site_label
 _atom_site_symmetry_multiplicity
 _atom_site_fract_x
 _atom_site_fract_y
 _atom_site_fract_z
 _atom_site_occupancy
  Tb  Tb0  1  0.500000  0.385189  0.847049  1
  Tb  Tb1  1  0.000000  0.112164  0.575289  1
  Tb  Tb2  1  0.000000  0.887664  0.424497  1
  Tb  Tb3  1  0.000000  0.612389  0.924262  1
  Tb  Tb4  1  0.000000  0.387446  0.075507  1
  Ho  Ho5  1  0.500000  0.114387  0.347477  1
  Ho  Ho6  1  0.500000  0.885578  0.652438  1
  Ho  Ho7  1  0.500000  0.614832  0.153017  1
  Ge  Ge8  1  0.500000  0.999957  0.499958  1
  Ge  Ge9  1  0.500000  0.500600  0.000819  1
  I  I10  1  0.500000  0.244261  0.163015  1
  I  I11  1  0.500000  0.755883  0.837255  1
  I  I12  1  0.500000  0.744320  0.337273  1
  I  I13  1  0.500000  0.255152  0.661772  1
  I  I14  1  0.000000  0.257267  0.413161  1
  I  I15  1  0.000000  0.742765  0.586658  1
  I  I16  1  0.000000  0.757430  0.086680  1
  I  I17  1  0.000000  0.240907  0.914944  1
  I  I18  1  0.000000  0.001018  0.241165  1
  I  I19  1  0.000000  0.998907  0.758706  1
  I  I20  1  0.000000  0.500958  0.258909  1
  I  I21  1  0.000000  0.500927  0.740148  1
