# generated using pymatgen
data_Y6Hf2BePd24
_symmetry_space_group_name_H-M   'P 1'
_cell_length_a   8.32819910
_cell_length_b   8.32819905
_cell_length_c   8.32820100
_cell_angle_alpha   89.85115683
_cell_angle_beta   90.14883629
_cell_angle_gamma   90.14883030
_symmetry_Int_Tables_number   1
_chemical_formula_structural   Y6Hf2BePd24
_chemical_formula_sum   'Y6 Hf2 Be1 Pd24'
_cell_volume   577.62902241
_cell_formula_units_Z   1
loop_
 _symmetry_equiv_pos_site_id
 _symmetry_equiv_pos_as_xyz
  1  'x, y, z'
loop_
 _atom_site_type_symbol
 _atom_site_label
 _atom_site_symmetry_multiplicity
 _atom_site_fract_x
 _atom_site_fract_y
 _atom_site_fract_z
 _atom_site_occupancy
  Y  Y0  1  0.250708  0.251311  0.251311  1
  Y  Y1  1  0.749292  0.748689  0.748689  1
  Y  Y2  1  0.748689  0.749292  0.251311  1
  Y  Y3  1  0.748689  0.251311  0.749292  1
  Y  Y4  1  0.251311  0.250708  0.748689  1
  Y  Y5  1  0.251311  0.748689  0.250708  1
  Hf  Hf6  1  0.254000  0.746000  0.746000  1
  Hf  Hf7  1  0.746000  0.254000  0.254000  1
  Be  Be8  1  0.000000  0.000000  0.000000  1
  Pd  Pd9  1  0.254141  0.504438  0.994491  1
  Pd  Pd10  1  0.745859  0.495562  0.005509  1
  Pd  Pd11  1  0.994491  0.254141  0.495562  1
  Pd  Pd12  1  0.504438  0.254141  0.005509  1
  Pd  Pd13  1  0.005509  0.745859  0.504438  1
  Pd  Pd14  1  0.495562  0.745859  0.994491  1
  Pd  Pd15  1  0.504438  0.005509  0.254141  1
  Pd  Pd16  1  0.254141  0.994491  0.504438  1
  Pd  Pd17  1  0.495562  0.994491  0.745859  1
  Pd  Pd18  1  0.745859  0.005509  0.495562  1
  Pd  Pd19  1  0.994491  0.495562  0.254141  1
  Pd  Pd20  1  0.005509  0.504438  0.745859  1
  Pd  Pd21  1  0.251240  0.504409  0.504409  1
  Pd  Pd22  1  0.748760  0.495591  0.495591  1
  Pd  Pd23  1  0.504409  0.251240  0.495591  1
  Pd  Pd24  1  0.495591  0.748760  0.504409  1
  Pd  Pd25  1  0.504409  0.495591  0.251240  1
  Pd  Pd26  1  0.495591  0.504409  0.748760  1
  Pd  Pd27  1  0.268047  0.994847  0.994847  1
  Pd  Pd28  1  0.731953  0.005153  0.005153  1
  Pd  Pd29  1  0.994847  0.268047  0.005153  1
  Pd  Pd30  1  0.005153  0.731953  0.994847  1
  Pd  Pd31  1  0.994847  0.005153  0.268047  1
  Pd  Pd32  1  0.005153  0.994847  0.731953  1
