# generated using pymatgen
data_DyTa8TiS16
_symmetry_space_group_name_H-M   'P 1'
_cell_length_a   6.67177600
_cell_length_b   6.67177239
_cell_length_c   13.09500500
_cell_angle_alpha   89.99965649
_cell_angle_beta   90.00030057
_cell_angle_gamma   119.99986914
_symmetry_Int_Tables_number   1
_chemical_formula_structural   DyTa8TiS16
_chemical_formula_sum   'Dy1 Ta8 Ti1 S16'
_cell_volume   504.80023882
_cell_formula_units_Z   1
loop_
 _symmetry_equiv_pos_site_id
 _symmetry_equiv_pos_as_xyz
  1  'x, y, z'
loop_
 _atom_site_type_symbol
 _atom_site_label
 _atom_site_symmetry_multiplicity
 _atom_site_fract_x
 _atom_site_fract_y
 _atom_site_fract_z
 _atom_site_occupancy
  Dy  Dy0  1  0.000000  0.000000  0.500000  1
  Ta  Ta1  1  0.504885  0.495123  0.765356  1
  Ta  Ta2  1  0.009773  0.504887  0.234643  1
  Ta  Ta3  1  0.495109  0.990229  0.234642  1
  Ta  Ta4  1  0.504891  0.009771  0.765358  1
  Ta  Ta5  1  0.990227  0.495113  0.765357  1
  Ta  Ta6  1  0.495115  0.504877  0.234644  1
  Ta  Ta7  1  0.999997  0.999999  0.763415  1
  Ta  Ta8  1  0.000003  0.000001  0.236585  1
  Ti  Ti9  1  0.000000  0.000000  0.000000  1
  S  S10  1  0.830556  0.169443  0.355666  1
  S  S11  1  0.830557  0.661110  0.355663  1
  S  S12  1  0.338888  0.169441  0.355664  1
  S  S13  1  0.666665  0.833351  0.884487  1
  S  S14  1  0.169443  0.338890  0.644337  1
  S  S15  1  0.166679  0.833331  0.884490  1
  S  S16  1  0.166643  0.333313  0.884496  1
  S  S17  1  0.833321  0.166669  0.115510  1
  S  S18  1  0.333335  0.166649  0.115513  1
  S  S19  1  0.661112  0.830559  0.644336  1
  S  S20  1  0.333333  0.666665  0.113065  1
  S  S21  1  0.666665  0.333334  0.642563  1
  S  S22  1  0.666667  0.333335  0.886935  1
  S  S23  1  0.333335  0.666666  0.357437  1
  S  S24  1  0.833357  0.666687  0.115504  1
  S  S25  1  0.169444  0.830557  0.644334  1
