# generated using pymatgen
data_Yb3Zr(Ru2O7)2
_symmetry_space_group_name_H-M   'P 1'
_cell_length_a   7.15246227
_cell_length_b   7.18776457
_cell_length_c   7.18776500
_cell_angle_alpha   60.00000260
_cell_angle_beta   59.83659674
_cell_angle_gamma   59.83659617
_symmetry_Int_Tables_number   1
_chemical_formula_structural   Yb3Zr(Ru2O7)2
_chemical_formula_sum   'Yb3 Zr1 Ru4 O14'
_cell_volume   260.64610090
_cell_formula_units_Z   1
loop_
 _symmetry_equiv_pos_site_id
 _symmetry_equiv_pos_as_xyz
  1  'x, y, z'
loop_
 _atom_site_type_symbol
 _atom_site_label
 _atom_site_symmetry_multiplicity
 _atom_site_fract_x
 _atom_site_fract_y
 _atom_site_fract_z
 _atom_site_occupancy
  Yb  Yb0  1  0.125000  0.125000  0.125000  1
  Yb  Yb1  1  0.125000  0.125000  0.625000  1
  Yb  Yb2  1  0.125000  0.625000  0.125000  1
  Zr  Zr3  1  0.625000  0.125000  0.125000  1
  Ru  Ru4  1  0.625000  0.625000  0.625000  1
  Ru  Ru5  1  0.125000  0.625000  0.625000  1
  Ru  Ru6  1  0.625000  0.625000  0.125000  1
  Ru  Ru7  1  0.625000  0.125000  0.625000  1
  O  O8  1  0.975664  0.008112  0.008112  1
  O  O9  1  0.274336  0.241888  0.241888  1
  O  O10  1  0.300713  0.296497  0.701395  1
  O  O11  1  0.554214  0.528576  0.958605  1
  O  O12  1  0.695786  0.291395  0.721424  1
  O  O13  1  0.695786  0.291395  0.291395  1
  O  O14  1  0.300713  0.701395  0.701395  1
  O  O15  1  0.300713  0.701395  0.296497  1
  O  O16  1  0.695786  0.721424  0.291395  1
  O  O17  1  0.949287  0.548605  0.548605  1
  O  O18  1  0.554214  0.958605  0.958605  1
  O  O19  1  0.949287  0.953503  0.548605  1
  O  O20  1  0.949287  0.548605  0.953503  1
  O  O21  1  0.554214  0.958605  0.528576  1
