# generated using pymatgen
data_CsKZrO3
_symmetry_space_group_name_H-M   'P 1'
_cell_length_a   7.16720096
_cell_length_b   7.16720072
_cell_length_c   6.03671900
_cell_angle_alpha   90.00000000
_cell_angle_beta   90.00000000
_cell_angle_gamma   125.21867456
_symmetry_Int_Tables_number   1
_chemical_formula_structural   CsKZrO3
_chemical_formula_sum   'Cs2 K2 Zr2 O6'
_cell_volume   253.33739205
_cell_formula_units_Z   2
loop_
 _symmetry_equiv_pos_site_id
 _symmetry_equiv_pos_as_xyz
  1  'x, y, z'
loop_
 _atom_site_type_symbol
 _atom_site_label
 _atom_site_symmetry_multiplicity
 _atom_site_fract_x
 _atom_site_fract_y
 _atom_site_fract_z
 _atom_site_occupancy
  Cs  Cs0  1  0.739917  0.260083  0.750000  1
  Cs  Cs1  1  0.260083  0.739917  0.250000  1
  K  K2  1  0.581743  0.418257  0.250000  1
  K  K3  1  0.418257  0.581743  0.750000  1
  Zr  Zr4  1  0.949068  0.050932  0.250000  1
  Zr  Zr5  1  0.050932  0.949068  0.750000  1
  O  O6  1  0.795651  0.204349  0.250000  1
  O  O7  1  0.203540  0.203540  0.000000  1
  O  O8  1  0.796460  0.796460  0.500000  1
  O  O9  1  0.203540  0.203540  0.500000  1
  O  O10  1  0.796460  0.796460  0.000000  1
  O  O11  1  0.204349  0.795651  0.750000  1
