# generated using pymatgen
data_Ho2ErNb(Co4P3)2
_symmetry_space_group_name_H-M   'P 1'
_cell_length_a   3.69215700
_cell_length_b   10.60675500
_cell_length_c   12.29495600
_cell_angle_alpha   90.00000000
_cell_angle_beta   90.00000000
_cell_angle_gamma   90.00000000
_symmetry_Int_Tables_number   1
_chemical_formula_structural   Ho2ErNb(Co4P3)2
_chemical_formula_sum   'Ho4 Er2 Nb2 Co16 P12'
_cell_volume   481.49266592
_cell_formula_units_Z   2
loop_
 _symmetry_equiv_pos_site_id
 _symmetry_equiv_pos_as_xyz
  1  'x, y, z'
loop_
 _atom_site_type_symbol
 _atom_site_label
 _atom_site_symmetry_multiplicity
 _atom_site_fract_x
 _atom_site_fract_y
 _atom_site_fract_z
 _atom_site_occupancy
  Ho  Ho0  1  0.000000  0.500000  0.526471  1
  Ho  Ho1  1  0.500000  0.000000  0.473118  1
  Ho  Ho2  1  0.000000  0.679738  0.794844  1
  Ho  Ho3  1  0.000000  0.320262  0.794844  1
  Er  Er4  1  0.500000  0.820529  0.205118  1
  Er  Er5  1  0.500000  0.179471  0.205118  1
  Nb  Nb6  1  0.500000  0.500000  0.157231  1
  Nb  Nb7  1  0.000000  0.000000  0.842965  1
  Co  Co8  1  0.000000  0.500000  0.985850  1
  Co  Co9  1  0.500000  0.000000  0.014652  1
  Co  Co10  1  0.500000  0.295256  0.432184  1
  Co  Co11  1  0.500000  0.704744  0.432184  1
  Co  Co12  1  0.000000  0.204730  0.567421  1
  Co  Co13  1  0.000000  0.795270  0.567421  1
  Co  Co14  1  0.500000  0.877144  0.704464  1
  Co  Co15  1  0.500000  0.122856  0.704464  1
  Co  Co16  1  0.000000  0.623137  0.295392  1
  Co  Co17  1  0.000000  0.376863  0.295392  1
  Co  Co18  1  0.500000  0.332420  0.991603  1
  Co  Co19  1  0.500000  0.667580  0.991603  1
  Co  Co20  1  0.000000  0.167312  0.008939  1
  Co  Co21  1  0.000000  0.832688  0.008939  1
  Co  Co22  1  0.500000  0.500000  0.701780  1
  Co  Co23  1  0.000000  0.000000  0.297881  1
  P  P24  1  0.500000  0.311490  0.615581  1
  P  P25  1  0.500000  0.688510  0.615581  1
  P  P26  1  0.000000  0.188382  0.383923  1
  P  P27  1  0.000000  0.811618  0.383923  1
  P  P28  1  0.500000  0.500000  0.881469  1
  P  P29  1  0.000000  0.000000  0.118900  1
  P  P30  1  0.500000  0.840981  0.893072  1
  P  P31  1  0.500000  0.159019  0.893072  1
  P  P32  1  0.000000  0.659325  0.107265  1
  P  P33  1  0.000000  0.340675  0.107265  1
  P  P34  1  0.500000  0.500000  0.356556  1
  P  P35  1  0.000000  0.000000  0.643520  1
