# generated using pymatgen
data_Ho2LuZr(Al3Ir)6
_symmetry_space_group_name_H-M   'P 1'
_cell_length_a   7.52725323
_cell_length_b   7.51983494
_cell_length_c   9.39735600
_cell_angle_alpha   90.00000000
_cell_angle_beta   90.00000000
_cell_angle_gamma   119.59801030
_symmetry_Int_Tables_number   1
_chemical_formula_structural   Ho2LuZr(Al3Ir)6
_chemical_formula_sum   'Ho2 Lu1 Zr1 Al18 Ir6'
_cell_volume   462.51533349
_cell_formula_units_Z   1
loop_
 _symmetry_equiv_pos_site_id
 _symmetry_equiv_pos_as_xyz
  1  'x, y, z'
loop_
 _atom_site_type_symbol
 _atom_site_label
 _atom_site_symmetry_multiplicity
 _atom_site_fract_x
 _atom_site_fract_y
 _atom_site_fract_z
 _atom_site_occupancy
  Ho  Ho0  1  0.005869  0.327531  0.750000  1
  Ho  Ho1  1  0.328788  0.006461  0.750000  1
  Lu  Lu2  1  0.671390  0.995701  0.250000  1
  Zr  Zr3  1  0.996466  0.671926  0.250000  1
  Al  Al4  1  0.124937  0.122895  0.250000  1
  Al  Al5  1  0.870057  0.868882  0.750000  1
  Al  Al6  1  0.999674  0.337152  0.079561  1
  Al  Al7  1  0.999076  0.664942  0.930060  1
  Al  Al8  1  0.999076  0.664942  0.569940  1
  Al  Al9  1  0.333155  0.998265  0.420226  1
  Al  Al10  1  0.999674  0.337152  0.420439  1
  Al  Al11  1  0.664519  0.998093  0.573227  1
  Al  Al12  1  0.664519  0.998093  0.926773  1
  Al  Al13  1  0.333155  0.998265  0.079774  1
  Al  Al14  1  0.334146  0.334258  0.550327  1
  Al  Al15  1  0.668904  0.667540  0.442287  1
  Al  Al16  1  0.668904  0.667540  0.057713  1
  Al  Al17  1  0.334146  0.334258  0.949673  1
  Al  Al18  1  0.336596  0.550646  0.250000  1
  Al  Al19  1  0.661103  0.452267  0.750000  1
  Al  Al20  1  0.555232  0.343533  0.250000  1
  Al  Al21  1  0.451251  0.659773  0.750000  1
  Ir  Ir22  1  0.672335  0.327823  0.001095  1
  Ir  Ir23  1  0.328230  0.672607  0.001824  1
  Ir  Ir24  1  0.328230  0.672607  0.498176  1
  Ir  Ir25  1  0.672335  0.327823  0.498905  1
  Ir  Ir26  1  0.999115  0.999512  0.001076  1
  Ir  Ir27  1  0.999115  0.999512  0.498924  1
