# generated using pymatgen
data_Tm12Co3Si8Ni
_symmetry_space_group_name_H-M   'P 1'
_cell_length_a   4.05161900
_cell_length_b   11.03147692
_cell_length_c   11.17240811
_cell_angle_alpha   90.13708788
_cell_angle_beta   90.00000000
_cell_angle_gamma   90.00000000
_symmetry_Int_Tables_number   1
_chemical_formula_structural   Tm12Co3Si8Ni
_chemical_formula_sum   'Tm12 Co3 Si8 Ni1'
_cell_volume   499.35316632
_cell_formula_units_Z   1
loop_
 _symmetry_equiv_pos_site_id
 _symmetry_equiv_pos_as_xyz
  1  'x, y, z'
loop_
 _atom_site_type_symbol
 _atom_site_label
 _atom_site_symmetry_multiplicity
 _atom_site_fract_x
 _atom_site_fract_y
 _atom_site_fract_z
 _atom_site_occupancy
  Tm  Tm0  1  0.250000  0.059444  0.881251  1
  Tm  Tm1  1  0.250000  0.441399  0.382504  1
  Tm  Tm2  1  0.750000  0.942211  0.118474  1
  Tm  Tm3  1  0.750000  0.558447  0.618294  1
  Tm  Tm4  1  0.250000  0.124856  0.557784  1
  Tm  Tm5  1  0.250000  0.372994  0.057562  1
  Tm  Tm6  1  0.750000  0.873882  0.442050  1
  Tm  Tm7  1  0.750000  0.623781  0.944120  1
  Tm  Tm8  1  0.250000  0.802900  0.715293  1
  Tm  Tm9  1  0.250000  0.700697  0.218127  1
  Tm  Tm10  1  0.750000  0.201150  0.281707  1
  Tm  Tm11  1  0.750000  0.299361  0.782481  1
  Co  Co12  1  0.250000  0.364082  0.630999  1
  Co  Co13  1  0.250000  0.135928  0.130345  1
  Co  Co14  1  0.750000  0.634776  0.369481  1
  Si  Si15  1  0.250000  0.814364  0.976578  1
  Si  Si16  1  0.250000  0.684856  0.476552  1
  Si  Si17  1  0.750000  0.183972  0.023180  1
  Si  Si18  1  0.750000  0.315105  0.524150  1
  Si  Si19  1  0.250000  0.494228  0.802389  1
  Si  Si20  1  0.250000  0.005936  0.302184  1
  Si  Si21  1  0.750000  0.506000  0.197223  1
  Si  Si22  1  0.750000  0.995587  0.695799  1
  Ni  Ni23  1  0.750000  0.864044  0.871472  1
