# generated using pymatgen
data_NaFe(IO3)4
_symmetry_space_group_name_H-M   'P 1'
_cell_length_a   4.99673900
_cell_length_b   7.21177096
_cell_length_c   15.61014296
_cell_angle_alpha   78.28585755
_cell_angle_beta   90.00000000
_cell_angle_gamma   90.00000000
_symmetry_Int_Tables_number   1
_chemical_formula_structural   NaFe(IO3)4
_chemical_formula_sum   'Na2 Fe2 I8 O24'
_cell_volume   550.80107461
_cell_formula_units_Z   2
loop_
 _symmetry_equiv_pos_site_id
 _symmetry_equiv_pos_as_xyz
  1  'x, y, z'
loop_
 _atom_site_type_symbol
 _atom_site_label
 _atom_site_symmetry_multiplicity
 _atom_site_fract_x
 _atom_site_fract_y
 _atom_site_fract_z
 _atom_site_occupancy
  Na  Na0  1  0.500000  0.500000  0.000000  1
  Na  Na1  1  0.000000  0.500000  0.500000  1
  Fe  Fe2  1  0.500000  0.000000  0.000000  1
  Fe  Fe3  1  0.000000  0.000000  0.500000  1
  I  I4  1  0.902782  0.668151  0.162552  1
  I  I5  1  0.402782  0.331849  0.337448  1
  I  I6  1  0.097218  0.331849  0.837448  1
  I  I7  1  0.597218  0.668151  0.662552  1
  I  I8  1  0.987458  0.175080  0.135962  1
  I  I9  1  0.487458  0.824920  0.364038  1
  I  I10  1  0.012542  0.824920  0.864038  1
  I  I11  1  0.512542  0.175080  0.635962  1
  O  O12  1  0.666728  0.759357  0.070499  1
  O  O13  1  0.166728  0.240643  0.429501  1
  O  O14  1  0.333272  0.240643  0.929501  1
  O  O15  1  0.833272  0.759357  0.570499  1
  O  O16  1  0.801934  0.832242  0.232706  1
  O  O17  1  0.301934  0.167758  0.267294  1
  O  O18  1  0.198066  0.167758  0.767294  1
  O  O19  1  0.698066  0.832242  0.732706  1
  O  O20  1  0.708698  0.452945  0.205161  1
  O  O21  1  0.208698  0.547055  0.294839  1
  O  O22  1  0.291302  0.547055  0.794839  1
  O  O23  1  0.791302  0.452945  0.705161  1
  O  O24  1  0.726176  0.184147  0.049021  1
  O  O25  1  0.226176  0.815853  0.450979  1
  O  O26  1  0.273824  0.815853  0.950979  1
  O  O27  1  0.773824  0.184147  0.549021  1
  O  O28  1  0.217182  0.001504  0.100555  1
  O  O29  1  0.717182  0.998496  0.399445  1
  O  O30  1  0.782818  0.998496  0.899445  1
  O  O31  1  0.282818  0.001504  0.600555  1
  O  O32  1  0.137656  0.401000  0.088537  1
  O  O33  1  0.637656  0.599000  0.411463  1
  O  O34  1  0.862344  0.599000  0.911463  1
  O  O35  1  0.362344  0.401000  0.588537  1
