# generated using pymatgen
data_PrNd5CoCl10
_symmetry_space_group_name_H-M   'P 1'
_cell_length_a   7.39668032
_cell_length_b   9.06930230
_cell_length_c   9.29171624
_cell_angle_alpha   109.59272847
_cell_angle_beta   96.87614256
_cell_angle_gamma   106.63682337
_symmetry_Int_Tables_number   1
_chemical_formula_structural   PrNd5CoCl10
_chemical_formula_sum   'Pr1 Nd5 Co1 Cl10'
_cell_volume   546.33722864
_cell_formula_units_Z   1
loop_
 _symmetry_equiv_pos_site_id
 _symmetry_equiv_pos_as_xyz
  1  'x, y, z'
loop_
 _atom_site_type_symbol
 _atom_site_label
 _atom_site_symmetry_multiplicity
 _atom_site_fract_x
 _atom_site_fract_y
 _atom_site_fract_z
 _atom_site_occupancy
  Pr  Pr0  1  0.969732  0.299017  0.097174  1
  Nd  Nd1  1  0.138985  0.057003  0.754096  1
  Nd  Nd2  1  0.629807  0.852125  0.804787  1
  Nd  Nd3  1  0.860169  0.943070  0.245580  1
  Nd  Nd4  1  0.030736  0.702920  0.903518  1
  Nd  Nd5  1  0.369999  0.146669  0.194950  1
  Co  Co6  1  0.999778  0.999960  0.999882  1
  Cl  Cl7  1  0.204521  0.749548  0.655167  1
  Cl  Cl8  1  0.647938  0.540069  0.727889  1
  Cl  Cl9  1  0.238319  0.078859  0.447780  1
  Cl  Cl10  1  0.793751  0.249821  0.346145  1
  Cl  Cl11  1  0.548487  0.168750  0.925806  1
  Cl  Cl12  1  0.760731  0.920213  0.551900  1
  Cl  Cl13  1  0.910164  0.631202  0.161918  1
  Cl  Cl14  1  0.356438  0.460163  0.273403  1
  Cl  Cl15  1  0.090596  0.370821  0.836616  1
  Cl  Cl16  1  0.449849  0.829794  0.073388  1
