# generated using pymatgen
data_CaFe3Sb12Rh
_symmetry_space_group_name_H-M   'P 1'
_cell_length_a   7.99586388
_cell_length_b   7.99586444
_cell_length_c   7.99586426
_cell_angle_alpha   109.48584128
_cell_angle_beta   109.48585293
_cell_angle_gamma   109.48584712
_symmetry_Int_Tables_number   1
_chemical_formula_structural   CaFe3Sb12Rh
_chemical_formula_sum   'Ca1 Fe3 Sb12 Rh1'
_cell_volume   393.31356924
_cell_formula_units_Z   1
loop_
 _symmetry_equiv_pos_site_id
 _symmetry_equiv_pos_as_xyz
  1  'x, y, z'
loop_
 _atom_site_type_symbol
 _atom_site_label
 _atom_site_symmetry_multiplicity
 _atom_site_fract_x
 _atom_site_fract_y
 _atom_site_fract_z
 _atom_site_occupancy
  Ca  Ca0  1  0.000000  0.000000  0.000000  1
  Fe  Fe1  1  0.000000  0.000000  0.500000  1
  Fe  Fe2  1  0.000000  0.500000  0.000000  1
  Fe  Fe3  1  0.500000  0.000000  0.000000  1
  Sb  Sb4  1  0.334030  0.172399  0.837614  1
  Sb  Sb5  1  0.151719  0.330761  0.496604  1
  Sb  Sb6  1  0.665970  0.827601  0.162386  1
  Sb  Sb7  1  0.330761  0.496604  0.151719  1
  Sb  Sb8  1  0.669239  0.503396  0.848281  1
  Sb  Sb9  1  0.503396  0.848281  0.669239  1
  Sb  Sb10  1  0.848281  0.669239  0.503396  1
  Sb  Sb11  1  0.837614  0.334030  0.172399  1
  Sb  Sb12  1  0.172399  0.837614  0.334030  1
  Sb  Sb13  1  0.496604  0.151719  0.330761  1
  Sb  Sb14  1  0.827601  0.162386  0.665970  1
  Sb  Sb15  1  0.162386  0.665970  0.827601  1
  Rh  Rh16  1  0.500000  0.500000  0.500000  1
