# generated using pymatgen
data_Zr5Nb3As4
_symmetry_space_group_name_H-M   'P 1'
_cell_length_a   3.66200100
_cell_length_b   7.12535069
_cell_length_c   8.69346549
_cell_angle_alpha   89.82387786
_cell_angle_beta   90.00000000
_cell_angle_gamma   90.00000000
_symmetry_Int_Tables_number   1
_chemical_formula_structural   Zr5Nb3As4
_chemical_formula_sum   'Zr5 Nb3 As4'
_cell_volume   226.83788287
_cell_formula_units_Z   1
loop_
 _symmetry_equiv_pos_site_id
 _symmetry_equiv_pos_as_xyz
  1  'x, y, z'
loop_
 _atom_site_type_symbol
 _atom_site_label
 _atom_site_symmetry_multiplicity
 _atom_site_fract_x
 _atom_site_fract_y
 _atom_site_fract_z
 _atom_site_occupancy
  Zr  Zr0  1  0.250000  0.135882  0.060361  1
  Zr  Zr1  1  0.250000  0.542264  0.832308  1
  Zr  Zr2  1  0.750000  0.957935  0.335888  1
  Zr  Zr3  1  0.250000  0.039404  0.664185  1
  Zr  Zr4  1  0.750000  0.465530  0.172425  1
  Nb  Nb5  1  0.750000  0.856694  0.937777  1
  Nb  Nb6  1  0.250000  0.636657  0.441245  1
  Nb  Nb7  1  0.750000  0.367200  0.559395  1
  As  As8  1  0.750000  0.743027  0.642605  1
  As  As9  1  0.250000  0.755824  0.142728  1
  As  As10  1  0.750000  0.241555  0.850347  1
  As  As11  1  0.250000  0.258028  0.360740  1
