# generated using pymatgen
data_Tb2Al20IrRu2Rh
_symmetry_space_group_name_H-M   'P 1'
_cell_length_a   6.84190048
_cell_length_b   6.85859938
_cell_length_c   9.17437358
_cell_angle_alpha   90.23162590
_cell_angle_beta   90.20852348
_cell_angle_gamma   97.03637003
_symmetry_Int_Tables_number   1
_chemical_formula_structural   Tb2Al20IrRu2Rh
_chemical_formula_sum   'Tb2 Al20 Ir1 Ru2 Rh1'
_cell_volume   427.26573317
_cell_formula_units_Z   1
loop_
 _symmetry_equiv_pos_site_id
 _symmetry_equiv_pos_as_xyz
  1  'x, y, z'
loop_
 _atom_site_type_symbol
 _atom_site_label
 _atom_site_symmetry_multiplicity
 _atom_site_fract_x
 _atom_site_fract_y
 _atom_site_fract_z
 _atom_site_occupancy
  Tb  Tb0  1  0.871944  0.128104  0.749988  1
  Tb  Tb1  1  0.128056  0.871896  0.250012  1
  Al  Al2  1  0.621453  0.375851  0.550788  1
  Al  Al3  1  0.378547  0.624149  0.449212  1
  Al  Al4  1  0.376068  0.621618  0.050256  1
  Al  Al5  1  0.623932  0.378382  0.949744  1
  Al  Al6  1  0.224509  0.223541  0.498893  1
  Al  Al7  1  0.775491  0.776459  0.501107  1
  Al  Al8  1  0.777794  0.775533  0.000897  1
  Al  Al9  1  0.222206  0.224467  0.999103  1
  Al  Al10  1  0.846472  0.156933  0.101544  1
  Al  Al11  1  0.153528  0.843067  0.898456  1
  Al  Al12  1  0.157059  0.845656  0.601722  1
  Al  Al13  1  0.842941  0.154344  0.398278  1
  Al  Al14  1  0.857281  0.587813  0.750407  1
  Al  Al15  1  0.142719  0.412187  0.249593  1
  Al  Al16  1  0.411200  0.143190  0.748940  1
  Al  Al17  1  0.588800  0.856810  0.251060  1
  Al  Al18  1  0.223837  0.481212  0.753149  1
  Al  Al19  1  0.776163  0.518788  0.246851  1
  Al  Al20  1  0.518354  0.777599  0.747532  1
  Al  Al21  1  0.481646  0.222401  0.252468  1
  Ir  Ir22  1  0.500000  0.000000  0.000000  1
  Ru  Ru23  1  0.000000  0.500000  0.000000  1
  Ru  Ru24  1  0.500000  0.000000  0.500000  1
  Rh  Rh25  1  0.000000  0.500000  0.500000  1
