# generated using pymatgen
data_Nb2Si2OsPt
_symmetry_space_group_name_H-M   'P 1'
_cell_length_a   3.83454400
_cell_length_b   6.49506800
_cell_length_c   7.37307300
_cell_angle_alpha   90.00000000
_cell_angle_beta   90.00000000
_cell_angle_gamma   90.00000000
_symmetry_Int_Tables_number   1
_chemical_formula_structural   Nb2Si2OsPt
_chemical_formula_sum   'Nb4 Si4 Os2 Pt2'
_cell_volume   183.63098408
_cell_formula_units_Z   2
loop_
 _symmetry_equiv_pos_site_id
 _symmetry_equiv_pos_as_xyz
  1  'x, y, z'
loop_
 _atom_site_type_symbol
 _atom_site_label
 _atom_site_symmetry_multiplicity
 _atom_site_fract_x
 _atom_site_fract_y
 _atom_site_fract_z
 _atom_site_occupancy
  Nb  Nb0  1  0.750000  0.476674  0.328405  1
  Nb  Nb1  1  0.250000  0.026645  0.827672  1
  Nb  Nb2  1  0.750000  0.976674  0.171595  1
  Nb  Nb3  1  0.250000  0.526645  0.672328  1
  Si  Si4  1  0.250000  0.271225  0.133084  1
  Si  Si5  1  0.250000  0.771225  0.366916  1
  Si  Si6  1  0.750000  0.734482  0.880660  1
  Si  Si7  1  0.750000  0.234482  0.619340  1
  Os  Os8  1  0.250000  0.641724  0.059115  1
  Os  Os9  1  0.250000  0.141724  0.440885  1
  Pt  Pt10  1  0.750000  0.849250  0.565533  1
  Pt  Pt11  1  0.750000  0.349250  0.934467  1
