# generated using pymatgen
data_Sc5Si7(Pt2Rh)3
_symmetry_space_group_name_H-M   'P 1'
_cell_length_a   10.00229800
_cell_length_b   10.00229736
_cell_length_c   3.87654200
_cell_angle_alpha   90.00000000
_cell_angle_beta   90.00000000
_cell_angle_gamma   119.99999551
_symmetry_Int_Tables_number   1
_chemical_formula_structural   Sc5Si7(Pt2Rh)3
_chemical_formula_sum   'Sc5 Si7 Pt6 Rh3'
_cell_volume   335.87269261
_cell_formula_units_Z   1
loop_
 _symmetry_equiv_pos_site_id
 _symmetry_equiv_pos_as_xyz
  1  'x, y, z'
loop_
 _atom_site_type_symbol
 _atom_site_label
 _atom_site_symmetry_multiplicity
 _atom_site_fract_x
 _atom_site_fract_y
 _atom_site_fract_z
 _atom_site_occupancy
  Sc  Sc0  1  0.000000  0.000000  0.000000  1
  Sc  Sc1  1  0.333333  0.666667  0.500000  1
  Sc  Sc2  1  0.896418  0.458313  0.500000  1
  Sc  Sc3  1  0.561895  0.103582  0.500000  1
  Sc  Sc4  1  0.541687  0.438105  0.500000  1
  Si  Si5  1  0.238160  0.190098  0.500000  1
  Si  Si6  1  0.809902  0.048063  0.500000  1
  Si  Si7  1  0.951937  0.761840  0.500000  1
  Si  Si8  1  0.555792  0.650169  0.000000  1
  Si  Si9  1  0.349831  0.905622  0.000000  1
  Si  Si10  1  0.094378  0.444208  0.000000  1
  Si  Si11  1  0.666667  0.333333  0.000000  1
  Pt  Pt12  1  0.314353  0.413387  0.000000  1
  Pt  Pt13  1  0.586613  0.900966  0.000000  1
  Pt  Pt14  1  0.099034  0.685647  0.000000  1
  Pt  Pt15  1  0.382474  0.172173  0.000000  1
  Pt  Pt16  1  0.827827  0.210301  0.000000  1
  Pt  Pt17  1  0.789699  0.617526  0.000000  1
  Rh  Rh18  1  0.219365  0.936497  0.500000  1
  Rh  Rh19  1  0.063503  0.282869  0.500000  1
  Rh  Rh20  1  0.717131  0.780635  0.500000  1
