# generated using pymatgen
data_La4DySn3
_symmetry_space_group_name_H-M   'P 1'
_cell_length_a   9.48864132
_cell_length_b   9.48864142
_cell_length_c   9.48864161
_cell_angle_alpha   96.23433811
_cell_angle_beta   96.23433816
_cell_angle_gamma   141.51856322
_symmetry_Int_Tables_number   1
_chemical_formula_structural   La4DySn3
_chemical_formula_sum   'La8 Dy2 Sn6'
_cell_volume   501.90579544
_cell_formula_units_Z   2
loop_
 _symmetry_equiv_pos_site_id
 _symmetry_equiv_pos_as_xyz
  1  'x, y, z'
loop_
 _atom_site_type_symbol
 _atom_site_label
 _atom_site_symmetry_multiplicity
 _atom_site_fract_x
 _atom_site_fract_y
 _atom_site_fract_z
 _atom_site_occupancy
  La  La0  1  0.911556  0.222464  0.134020  1
  La  La1  1  0.222464  0.088444  0.310908  1
  La  La2  1  0.777536  0.911556  0.689092  1
  La  La3  1  0.088444  0.777536  0.865980  1
  La  La4  1  0.722464  0.411556  0.134020  1
  La  La5  1  0.277536  0.588444  0.865980  1
  La  La6  1  0.588444  0.722464  0.310908  1
  La  La7  1  0.411556  0.277536  0.689092  1
  Dy  Dy8  1  0.750000  0.250000  0.500000  1
  Dy  Dy9  1  0.250000  0.750000  0.500000  1
  Sn  Sn10  1  0.750000  0.750000  0.000000  1
  Sn  Sn11  1  0.250000  0.250000  0.000000  1
  Sn  Sn12  1  0.845040  0.654960  0.500000  1
  Sn  Sn13  1  0.654960  0.154960  0.809919  1
  Sn  Sn14  1  0.345040  0.845040  0.190081  1
  Sn  Sn15  1  0.154960  0.345040  0.500000  1
