# generated using pymatgen
data_YErCo2(P3Rh4)2
_symmetry_space_group_name_H-M   'P 1'
_cell_length_a   3.84554700
_cell_length_b   10.76200246
_cell_length_c   12.39330353
_cell_angle_alpha   90.03356888
_cell_angle_beta   90.00000000
_cell_angle_gamma   90.00000000
_symmetry_Int_Tables_number   1
_chemical_formula_structural   YErCo2(P3Rh4)2
_chemical_formula_sum   'Y2 Er2 Co4 P12 Rh16'
_cell_volume   512.90652325
_cell_formula_units_Z   2
loop_
 _symmetry_equiv_pos_site_id
 _symmetry_equiv_pos_as_xyz
  1  'x, y, z'
loop_
 _atom_site_type_symbol
 _atom_site_label
 _atom_site_symmetry_multiplicity
 _atom_site_fract_x
 _atom_site_fract_y
 _atom_site_fract_z
 _atom_site_occupancy
  Y  Y0  1  0.750000  0.414777  0.292335  1
  Y  Y1  1  0.250000  0.585223  0.707665  1
  Er  Er2  1  0.250000  0.914792  0.207431  1
  Er  Er3  1  0.750000  0.085208  0.792569  1
  Co  Co4  1  0.250000  0.035480  0.433649  1
  Co  Co5  1  0.750000  0.964520  0.566351  1
  Co  Co6  1  0.750000  0.535791  0.066186  1
  Co  Co7  1  0.250000  0.464209  0.933814  1
  P  P8  1  0.250000  0.075716  0.606379  1
  P  P9  1  0.750000  0.924284  0.393621  1
  P  P10  1  0.750000  0.575720  0.893975  1
  P  P11  1  0.250000  0.424280  0.106025  1
  P  P12  1  0.250000  0.227706  0.372797  1
  P  P13  1  0.750000  0.772294  0.627203  1
  P  P14  1  0.750000  0.728443  0.127577  1
  P  P15  1  0.250000  0.271557  0.872423  1
  P  P16  1  0.250000  0.901075  0.887934  1
  P  P17  1  0.750000  0.098925  0.112066  1
  P  P18  1  0.750000  0.400582  0.611693  1
  P  P19  1  0.250000  0.599418  0.388307  1
  Rh  Rh20  1  0.250000  0.783980  0.487611  1
  Rh  Rh21  1  0.750000  0.216020  0.512389  1
  Rh  Rh22  1  0.750000  0.283697  0.012413  1
  Rh  Rh23  1  0.250000  0.716303  0.987587  1
  Rh  Rh24  1  0.250000  0.091764  0.979437  1
  Rh  Rh25  1  0.750000  0.908236  0.020563  1
  Rh  Rh26  1  0.750000  0.592001  0.519237  1
  Rh  Rh27  1  0.250000  0.407999  0.480763  1
  Rh  Rh28  1  0.250000  0.271305  0.678569  1
  Rh  Rh29  1  0.750000  0.728695  0.321431  1
  Rh  Rh30  1  0.750000  0.772521  0.821987  1
  Rh  Rh31  1  0.250000  0.227479  0.178013  1
  Rh  Rh32  1  0.250000  0.613697  0.198944  1
  Rh  Rh33  1  0.750000  0.386303  0.801056  1
  Rh  Rh34  1  0.750000  0.112363  0.300660  1
  Rh  Rh35  1  0.250000  0.887637  0.699340  1
