# generated using pymatgen
data_Li4LaP12Ir19
_symmetry_space_group_name_H-M   'P 1'
_cell_length_a   12.62144317
_cell_length_b   12.61066831
_cell_length_c   3.93911900
_cell_angle_alpha   90.00000000
_cell_angle_beta   90.00000000
_cell_angle_gamma   119.97176633
_symmetry_Int_Tables_number   1
_chemical_formula_structural   Li4LaP12Ir19
_chemical_formula_sum   'Li4 La1 P12 Ir19'
_cell_volume   543.12568157
_cell_formula_units_Z   1
loop_
 _symmetry_equiv_pos_site_id
 _symmetry_equiv_pos_as_xyz
  1  'x, y, z'
loop_
 _atom_site_type_symbol
 _atom_site_label
 _atom_site_symmetry_multiplicity
 _atom_site_fract_x
 _atom_site_fract_y
 _atom_site_fract_z
 _atom_site_occupancy
  Li  Li0  1  0.668406  0.334751  0.000000  1
  Li  Li1  1  0.331594  0.666346  0.000000  1
  Li  Li2  1  0.823049  0.821096  0.500000  1
  Li  Li3  1  0.176951  0.998047  0.500000  1
  La  La4  1  0.000000  0.175683  0.500000  1
  P  P5  1  0.688169  0.177410  0.500000  1
  P  P6  1  0.822579  0.512855  0.500000  1
  P  P7  1  0.491115  0.313046  0.500000  1
  P  P8  1  0.177421  0.690276  0.500000  1
  P  P9  1  0.508885  0.821932  0.500000  1
  P  P10  1  0.311831  0.489242  0.500000  1
  P  P11  1  0.641102  0.641368  0.000000  1
  P  P12  1  0.358898  0.000266  0.000000  1
  P  P13  1  0.000000  0.363336  0.000000  1
  P  P14  1  0.186298  0.175307  0.000000  1
  P  P15  1  0.813702  0.989008  0.000000  1
  P  P16  1  0.000000  0.818536  0.000000  1
  Ir  Ir17  1  0.801413  0.179758  0.000000  1
  Ir  Ir18  1  0.817220  0.622771  0.000000  1
  Ir  Ir19  1  0.380419  0.196062  0.000000  1
  Ir  Ir20  1  0.182780  0.805551  0.000000  1
  Ir  Ir21  1  0.619581  0.815642  0.000000  1
  Ir  Ir22  1  0.198587  0.378345  0.000000  1
  Ir  Ir23  1  0.457063  0.460471  0.000000  1
  Ir  Ir24  1  0.542937  0.003408  0.000000  1
  Ir  Ir25  1  0.000000  0.543786  0.000000  1
  Ir  Ir26  1  0.293693  0.292423  0.500000  1
  Ir  Ir27  1  0.706307  0.998730  0.500000  1
  Ir  Ir28  1  0.000000  0.708826  0.500000  1
  Ir  Ir29  1  0.868099  0.361357  0.500000  1
  Ir  Ir30  1  0.639175  0.510652  0.500000  1
  Ir  Ir31  1  0.492382  0.131976  0.500000  1
  Ir  Ir32  1  0.360825  0.871476  0.500000  1
  Ir  Ir33  1  0.507618  0.639594  0.500000  1
  Ir  Ir34  1  0.131901  0.493257  0.500000  1
  Ir  Ir35  1  0.000000  0.997408  0.000000  1
