# generated using pymatgen
data_DyY4IrOs
_symmetry_space_group_name_H-M   'P 1'
_cell_length_a   6.44498468
_cell_length_b   7.32740973
_cell_length_c   8.50951685
_cell_angle_alpha   96.65082087
_cell_angle_beta   112.25274706
_cell_angle_gamma   89.99999072
_symmetry_Int_Tables_number   1
_chemical_formula_structural   DyY4IrOs
_chemical_formula_sum   'Dy2 Y8 Ir2 Os2'
_cell_volume   369.00890178
_cell_formula_units_Z   2
loop_
 _symmetry_equiv_pos_site_id
 _symmetry_equiv_pos_as_xyz
  1  'x, y, z'
loop_
 _atom_site_type_symbol
 _atom_site_label
 _atom_site_symmetry_multiplicity
 _atom_site_fract_x
 _atom_site_fract_y
 _atom_site_fract_z
 _atom_site_occupancy
  Dy  Dy0  1  0.427477  0.250000  0.000000  1
  Dy  Dy1  1  0.574272  0.750000  0.000000  1
  Y  Y2  1  0.791278  0.084872  0.819112  1
  Y  Y3  1  0.972166  0.415128  0.180888  1
  Y  Y4  1  0.208831  0.917940  0.184449  1
  Y  Y5  1  0.024382  0.582060  0.815551  1
  Y  Y6  1  0.210998  0.183800  0.560598  1
  Y  Y7  1  0.650400  0.316200  0.439402  1
  Y  Y8  1  0.789693  0.818509  0.437241  1
  Y  Y9  1  0.352454  0.681491  0.562759  1
  Ir  Ir10  1  0.395449  0.575754  0.220034  1
  Ir  Ir11  1  0.175415  0.924246  0.779966  1
  Os  Os12  1  0.604930  0.426411  0.782676  1
  Os  Os13  1  0.822254  0.073589  0.217324  1
