# generated using pymatgen
data_Zr12Al8Co3NiC4
_symmetry_space_group_name_H-M   'P 1'
_cell_length_a   8.58529286
_cell_length_b   8.58529301
_cell_length_c   8.58529390
_cell_angle_alpha   60.04294813
_cell_angle_beta   60.04295054
_cell_angle_gamma   60.04294340
_symmetry_Int_Tables_number   1
_chemical_formula_structural   Zr12Al8Co3NiC4
_chemical_formula_sum   'Zr12 Al8 Co3 Ni1 C4'
_cell_volume   447.89165234
_cell_formula_units_Z   1
loop_
 _symmetry_equiv_pos_site_id
 _symmetry_equiv_pos_as_xyz
  1  'x, y, z'
loop_
 _atom_site_type_symbol
 _atom_site_label
 _atom_site_symmetry_multiplicity
 _atom_site_fract_x
 _atom_site_fract_y
 _atom_site_fract_z
 _atom_site_occupancy
  Zr  Zr0  1  0.551599  0.948838  0.551599  1
  Zr  Zr1  1  0.301162  0.698401  0.698401  1
  Zr  Zr2  1  0.696829  0.302107  0.302107  1
  Zr  Zr3  1  0.302107  0.696829  0.302107  1
  Zr  Zr4  1  0.698401  0.698401  0.301162  1
  Zr  Zr5  1  0.302107  0.302107  0.696829  1
  Zr  Zr6  1  0.551599  0.551599  0.948838  1
  Zr  Zr7  1  0.948838  0.551599  0.551599  1
  Zr  Zr8  1  0.553171  0.947893  0.947893  1
  Zr  Zr9  1  0.947893  0.947893  0.553171  1
  Zr  Zr10  1  0.698401  0.301162  0.698401  1
  Zr  Zr11  1  0.947893  0.553171  0.947893  1
  Al  Al12  1  0.921486  0.921486  0.921486  1
  Al  Al13  1  0.013916  0.329492  0.329492  1
  Al  Al14  1  0.329492  0.013916  0.329492  1
  Al  Al15  1  0.329492  0.329492  0.013916  1
  Al  Al16  1  0.920508  0.236084  0.920508  1
  Al  Al17  1  0.920508  0.920508  0.236084  1
  Al  Al18  1  0.236084  0.920508  0.920508  1
  Al  Al19  1  0.328514  0.328514  0.328514  1
  Co  Co20  1  0.625000  0.125000  0.125000  1
  Co  Co21  1  0.125000  0.625000  0.125000  1
  Co  Co22  1  0.125000  0.125000  0.625000  1
  Ni  Ni23  1  0.125000  0.125000  0.125000  1
  C  C24  1  0.625000  0.625000  0.625000  1
  C  C25  1  0.125000  0.625000  0.625000  1
  C  C26  1  0.625000  0.125000  0.625000  1
  C  C27  1  0.625000  0.625000  0.125000  1
