# generated using pymatgen
data_Er(FeTc2)4
_symmetry_space_group_name_H-M   'P 1'
_cell_length_a   6.71793026
_cell_length_b   6.71795332
_cell_length_c   6.71783267
_cell_angle_alpha   97.20916950
_cell_angle_beta   97.20910654
_cell_angle_gamma   138.50514154
_symmetry_Int_Tables_number   1
_chemical_formula_structural   Er(FeTc2)4
_chemical_formula_sum   'Er1 Fe4 Tc8'
_cell_volume   187.84707393
_cell_formula_units_Z   1
loop_
 _symmetry_equiv_pos_site_id
 _symmetry_equiv_pos_as_xyz
  1  'x, y, z'
loop_
 _atom_site_type_symbol
 _atom_site_label
 _atom_site_symmetry_multiplicity
 _atom_site_fract_x
 _atom_site_fract_y
 _atom_site_fract_z
 _atom_site_occupancy
  Er  Er0  1  0.000000  0.000000  0.000000  1
  Fe  Fe1  1  0.500000  0.500000  0.500000  1
  Fe  Fe2  1  0.000000  0.000000  0.500000  1
  Fe  Fe3  1  0.500000  0.000000  0.000000  1
  Fe  Fe4  1  0.000000  0.500000  0.000000  1
  Tc  Tc5  1  0.642093  0.999993  0.642089  1
  Tc  Tc6  1  0.999997  0.642095  0.642091  1
  Tc  Tc7  1  0.000003  0.357906  0.357909  1
  Tc  Tc8  1  0.357908  0.000007  0.357910  1
  Tc  Tc9  1  0.714453  0.500002  0.214460  1
  Tc  Tc10  1  0.500004  0.714456  0.214460  1
  Tc  Tc11  1  0.499996  0.285544  0.785540  1
  Tc  Tc12  1  0.285547  0.499998  0.785540  1
