# generated using pymatgen
data_Ce4MnTc2Os5
_symmetry_space_group_name_H-M   'P 1'
_cell_length_a   5.30261478
_cell_length_b   5.13563348
_cell_length_c   9.08594400
_cell_angle_alpha   90.00000000
_cell_angle_beta   90.00000000
_cell_angle_gamma   117.21174935
_symmetry_Int_Tables_number   1
_chemical_formula_structural   Ce4MnTc2Os5
_chemical_formula_sum   'Ce4 Mn1 Tc2 Os5'
_cell_volume   220.04600808
_cell_formula_units_Z   1
loop_
 _symmetry_equiv_pos_site_id
 _symmetry_equiv_pos_as_xyz
  1  'x, y, z'
loop_
 _atom_site_type_symbol
 _atom_site_label
 _atom_site_symmetry_multiplicity
 _atom_site_fract_x
 _atom_site_fract_y
 _atom_site_fract_z
 _atom_site_occupancy
  Ce  Ce0  1  0.330483  0.667043  0.436640  1
  Ce  Ce1  1  0.667379  0.333285  0.569862  1
  Ce  Ce2  1  0.667379  0.333285  0.930138  1
  Ce  Ce3  1  0.330483  0.667043  0.063360  1
  Mn  Mn4  1  0.168732  0.831716  0.750000  1
  Tc  Tc5  1  0.831171  0.169631  0.250000  1
  Tc  Tc6  1  0.829432  0.659552  0.250000  1
  Os  Os7  1  0.000815  0.999668  0.503917  1
  Os  Os8  1  0.000815  0.999668  0.996083  1
  Os  Os9  1  0.340497  0.170005  0.250000  1
  Os  Os10  1  0.173070  0.341959  0.750000  1
  Os  Os11  1  0.659742  0.827144  0.750000  1
