# generated using pymatgen
data_Tb12TlNi6
_symmetry_space_group_name_H-M   'P 1'
_cell_length_a   8.42764053
_cell_length_b   8.42764008
_cell_length_c   8.42764000
_cell_angle_alpha   109.43321354
_cell_angle_beta   109.64032305
_cell_angle_gamma   109.34026627
_symmetry_Int_Tables_number   1
_chemical_formula_structural   Tb12TlNi6
_chemical_formula_sum   'Tb12 Tl1 Ni6'
_cell_volume   460.77931014
_cell_formula_units_Z   1
loop_
 _symmetry_equiv_pos_site_id
 _symmetry_equiv_pos_as_xyz
  1  'x, y, z'
loop_
 _atom_site_type_symbol
 _atom_site_label
 _atom_site_symmetry_multiplicity
 _atom_site_fract_x
 _atom_site_fract_y
 _atom_site_fract_z
 _atom_site_occupancy
  Tb  Tb0  1  0.812537  0.696235  0.508774  1
  Tb  Tb1  1  0.187004  0.303985  0.490989  1
  Tb  Tb2  1  0.187463  0.696235  0.883697  1
  Tb  Tb3  1  0.812996  0.303985  0.116981  1
  Tb  Tb4  1  0.696227  0.508768  0.812542  1
  Tb  Tb5  1  0.303937  0.490839  0.186902  1
  Tb  Tb6  1  0.696063  0.882962  0.186902  1
  Tb  Tb7  1  0.303773  0.116314  0.812542  1
  Tb  Tb8  1  0.508774  0.812675  0.695975  1
  Tb  Tb9  1  0.491226  0.187202  0.303902  1
  Tb  Tb10  1  0.116701  0.812675  0.303902  1
  Tb  Tb11  1  0.883299  0.187202  0.695975  1
  Tl  Tl12  1  0.000000  0.999779  0.999779  1
  Ni  Ni13  1  0.876465  0.377784  0.501319  1
  Ni  Ni14  1  0.123535  0.624855  0.501319  1
  Ni  Ni15  1  0.376338  0.499519  0.875858  1
  Ni  Ni16  1  0.623662  0.499519  0.123181  1
  Ni  Ni17  1  0.500000  0.876114  0.376114  1
  Ni  Ni18  1  0.500000  0.123349  0.623349  1
