# generated using pymatgen
data_Rb2CrCu3F10
_symmetry_space_group_name_H-M   'P 1'
_cell_length_a   6.45297843
_cell_length_b   6.55317267
_cell_length_c   7.23047681
_cell_angle_alpha   64.52704928
_cell_angle_beta   64.40890087
_cell_angle_gamma   70.15027342
_symmetry_Int_Tables_number   1
_chemical_formula_structural   Rb2CrCu3F10
_chemical_formula_sum   'Rb2 Cr1 Cu3 F10'
_cell_volume   244.47560834
_cell_formula_units_Z   1
loop_
 _symmetry_equiv_pos_site_id
 _symmetry_equiv_pos_as_xyz
  1  'x, y, z'
loop_
 _atom_site_type_symbol
 _atom_site_label
 _atom_site_symmetry_multiplicity
 _atom_site_fract_x
 _atom_site_fract_y
 _atom_site_fract_z
 _atom_site_occupancy
  Rb  Rb0  1  0.612450  0.604748  0.646650  1
  Rb  Rb1  1  0.387550  0.395252  0.353350  1
  Cr  Cr2  1  0.000000  0.000000  0.500000  1
  Cu  Cu3  1  0.000000  0.000000  0.000000  1
  Cu  Cu4  1  0.000000  0.500000  0.000000  1
  Cu  Cu5  1  0.500000  0.000000  0.000000  1
  F  F6  1  0.280737  0.278182  0.909864  1
  F  F7  1  0.719263  0.721818  0.090136  1
  F  F8  1  0.080871  0.091815  0.679469  1
  F  F9  1  0.919129  0.908185  0.320531  1
  F  F10  1  0.052839  0.673968  0.674127  1
  F  F11  1  0.331936  0.962683  0.321434  1
  F  F12  1  0.947161  0.326032  0.325873  1
  F  F13  1  0.668064  0.037317  0.678566  1
  F  F14  1  0.760483  0.268223  0.001510  1
  F  F15  1  0.239517  0.731777  0.998490  1
