# generated using pymatgen
data_SiCl35
_symmetry_space_group_name_H-M   'P 1'
_cell_length_a   14.38377941
_cell_length_b   10.26025305
_cell_length_c   9.71269500
_cell_angle_alpha   88.81408388
_cell_angle_beta   66.02770759
_cell_angle_gamma   92.31545463
_symmetry_Int_Tables_number   1
_chemical_formula_structural   SiCl35
_chemical_formula_sum   'Si1 Cl35'
_cell_volume   1307.61722576
_cell_formula_units_Z   1
loop_
 _symmetry_equiv_pos_site_id
 _symmetry_equiv_pos_as_xyz
  1  'x, y, z'
loop_
 _atom_site_type_symbol
 _atom_site_label
 _atom_site_symmetry_multiplicity
 _atom_site_fract_x
 _atom_site_fract_y
 _atom_site_fract_z
 _atom_site_occupancy
  Si  Si0  1  0.221543  0.422211  0.482720  1
  Cl  Cl1  1  0.503717  0.270576  0.562989  1
  Cl  Cl2  1  0.772449  0.579472  0.543014  1
  Cl  Cl3  1  0.476454  0.667145  0.781050  1
  Cl  Cl4  1  0.076423  0.900662  0.795701  1
  Cl  Cl5  1  0.890272  0.150246  0.993110  1
  Cl  Cl6  1  0.658432  0.335343  0.276207  1
  Cl  Cl7  1  0.602862  0.337049  0.853443  1
  Cl  Cl8  1  0.339367  0.767413  0.678378  1
  Cl  Cl9  1  0.346799  0.621277  0.188061  1
  Cl  Cl10  1  0.632342  0.146344  0.825947  1
  Cl  Cl11  1  0.915326  0.544632  0.405974  1
  Cl  Cl12  1  0.092606  0.944171  0.583821  1
  Cl  Cl13  1  0.879318  0.086241  0.286227  1
  Cl  Cl14  1  0.889174  0.207982  0.794446  1
  Cl  Cl15  1  0.640294  0.050956  0.251867  1
  Cl  Cl16  1  0.031891  0.816757  0.110981  1
  Cl  Cl17  1  0.358625  0.956378  0.724588  1
  Cl  Cl18  1  0.896190  0.272752  0.340856  1
  Cl  Cl19  1  0.868883  0.920286  0.653258  1
  Cl  Cl20  1  0.883395  0.665201  0.844487  1
  Cl  Cl21  1  0.326722  0.052611  0.232719  1
  Cl  Cl22  1  0.340045  0.338357  0.279417  1
  Cl  Cl23  1  0.577491  0.611381  0.866122  1
  Cl  Cl24  1  0.124714  0.404956  0.363578  1
  Cl  Cl25  1  0.717205  0.888875  0.744468  1
  Cl  Cl26  1  0.875505  0.470405  0.827425  1
  Cl  Cl27  1  0.495993  0.050346  0.244934  1
  Cl  Cl28  1  0.169936  0.268875  0.637798  1
  Cl  Cl29  1  0.665561  0.770907  0.272328  1
  Cl  Cl30  1  0.877116  0.804212  0.183134  1
  Cl  Cl31  1  0.389985  0.223838  0.767372  1
  Cl  Cl32  1  0.351231  0.499632  0.520869  1
  Cl  Cl33  1  0.651216  0.550550  0.241253  1
  Cl  Cl34  1  0.144065  0.588868  0.587649  1
  Cl  Cl35  1  0.316855  0.813092  0.253810  1
