# generated using pymatgen
data_La(CuPd2)4
_symmetry_space_group_name_H-M   'P 1'
_cell_length_a   6.85866876
_cell_length_b   6.85866815
_cell_length_c   6.85866852
_cell_angle_alpha   97.81399733
_cell_angle_beta   97.81400028
_cell_angle_gamma   136.72607180
_symmetry_Int_Tables_number   1
_chemical_formula_structural   La(CuPd2)4
_chemical_formula_sum   'La1 Cu4 Pd8'
_cell_volume   205.58254927
_cell_formula_units_Z   1
loop_
 _symmetry_equiv_pos_site_id
 _symmetry_equiv_pos_as_xyz
  1  'x, y, z'
loop_
 _atom_site_type_symbol
 _atom_site_label
 _atom_site_symmetry_multiplicity
 _atom_site_fract_x
 _atom_site_fract_y
 _atom_site_fract_z
 _atom_site_occupancy
  La  La0  1  0.000000  0.000000  0.000000  1
  Cu  Cu1  1  0.500000  0.000000  0.000000  1
  Cu  Cu2  1  0.000000  0.500000  0.000000  1
  Cu  Cu3  1  0.000000  0.000000  0.500000  1
  Cu  Cu4  1  0.500000  0.500000  0.500000  1
  Pd  Pd5  1  0.500000  0.720858  0.220858  1
  Pd  Pd6  1  0.720858  0.500000  0.220858  1
  Pd  Pd7  1  0.348750  0.000000  0.348750  1
  Pd  Pd8  1  0.000000  0.348750  0.348750  1
  Pd  Pd9  1  0.651249  0.000000  0.651249  1
  Pd  Pd10  1  0.000000  0.651249  0.651249  1
  Pd  Pd11  1  0.500000  0.279142  0.779142  1
  Pd  Pd12  1  0.279142  0.500000  0.779142  1
