# generated using pymatgen
data_LaZr4NpF22
_symmetry_space_group_name_H-M   'P 1'
_cell_length_a   8.53542151
_cell_length_b   8.53735346
_cell_length_c   8.53609526
_cell_angle_alpha   124.80846860
_cell_angle_beta   106.38163868
_cell_angle_gamma   98.45641052
_symmetry_Int_Tables_number   1
_chemical_formula_structural   LaZr4NpF22
_chemical_formula_sum   'La1 Zr4 Np1 F22'
_cell_volume   450.96892844
_cell_formula_units_Z   1
loop_
 _symmetry_equiv_pos_site_id
 _symmetry_equiv_pos_as_xyz
  1  'x, y, z'
loop_
 _atom_site_type_symbol
 _atom_site_label
 _atom_site_symmetry_multiplicity
 _atom_site_fract_x
 _atom_site_fract_y
 _atom_site_fract_z
 _atom_site_occupancy
  La  La0  1  0.750017  0.749985  0.000000  1
  Zr  Zr1  1  0.820291  0.634085  0.453408  1
  Zr  Zr2  1  0.180535  0.366334  0.547969  1
  Zr  Zr3  1  0.319370  0.866261  0.186170  1
  Zr  Zr4  1  0.681263  0.133588  0.814174  1
  Np  Np5  1  0.251738  0.250496  0.002218  1
  F  F6  1  0.320942  0.033992  0.081756  1
  F  F7  1  0.719199  0.870189  0.589682  1
  F  F8  1  0.951788  0.238247  0.916754  1
  F  F9  1  0.947698  0.107105  0.313186  1
  F  F10  1  0.219464  0.629758  0.849050  1
  F  F11  1  0.793750  0.634321  0.686518  1
  F  F12  1  0.547818  0.465822  0.286815  1
  F  F13  1  0.446464  0.134375  0.840437  1
  F  F14  1  0.780379  0.370619  0.151263  1
  F  F15  1  0.292740  0.605086  0.157872  1
  F  F16  1  0.450640  0.533416  0.711915  1
  F  F17  1  0.706106  0.392893  0.840598  1
  F  F18  1  0.552209  0.865641  0.159427  1
  F  F19  1  0.049281  0.761426  0.082764  1
  F  F20  1  0.000197  0.500033  0.500102  1
  F  F21  1  0.821307  0.738559  0.287796  1
  F  F22  1  0.206153  0.365522  0.312069  1
  F  F23  1  0.678533  0.966552  0.917245  1
  F  F24  1  0.178593  0.261551  0.713427  1
  F  F25  1  0.280661  0.129458  0.409755  1
  F  F26  1  0.052877  0.894835  0.687679  1
  F  F27  1  0.499985  0.999849  0.499952  1
