# generated using pymatgen
data_Ho3Er4Tm5Rh4
_symmetry_space_group_name_H-M   'P 1'
_cell_length_a   6.26647331
_cell_length_b   7.12791102
_cell_length_c   9.29502734
_cell_angle_alpha   89.99072009
_cell_angle_beta   90.02965142
_cell_angle_gamma   89.99046605
_symmetry_Int_Tables_number   1
_chemical_formula_structural   Ho3Er4Tm5Rh4
_chemical_formula_sum   'Ho3 Er4 Tm5 Rh4'
_cell_volume   415.17965749
_cell_formula_units_Z   1
loop_
 _symmetry_equiv_pos_site_id
 _symmetry_equiv_pos_as_xyz
  1  'x, y, z'
loop_
 _atom_site_type_symbol
 _atom_site_label
 _atom_site_symmetry_multiplicity
 _atom_site_fract_x
 _atom_site_fract_y
 _atom_site_fract_z
 _atom_site_occupancy
  Ho  Ho0  1  0.867581  0.966262  0.750092  1
  Ho  Ho1  1  0.367127  0.533844  0.249941  1
  Ho  Ho2  1  0.632295  0.466371  0.750108  1
  Er  Er3  1  0.827559  0.678437  0.063061  1
  Er  Er4  1  0.172350  0.321491  0.562894  1
  Er  Er5  1  0.672742  0.178301  0.436801  1
  Er  Er6  1  0.132976  0.033919  0.249850  1
  Tm  Tm7  1  0.672708  0.178238  0.063180  1
  Tm  Tm8  1  0.172389  0.321420  0.937011  1
  Tm  Tm9  1  0.827706  0.678416  0.436836  1
  Tm  Tm10  1  0.327328  0.821781  0.563107  1
  Tm  Tm11  1  0.327309  0.821941  0.936864  1
  Rh  Rh12  1  0.054197  0.616078  0.750109  1
  Rh  Rh13  1  0.553068  0.884356  0.249957  1
  Rh  Rh14  1  0.446111  0.115518  0.750330  1
  Rh  Rh15  1  0.946553  0.383631  0.249861  1
