# generated using pymatgen
data_TmZr(Mn2Si)4
_symmetry_space_group_name_H-M   'P 1'
_cell_length_a   6.58124740
_cell_length_b   7.28353949
_cell_length_c   3.86721600
_cell_angle_alpha   90.00000000
_cell_angle_beta   90.00000000
_cell_angle_gamma   90.20363576
_symmetry_Int_Tables_number   1
_chemical_formula_structural   TmZr(Mn2Si)4
_chemical_formula_sum   'Tm1 Zr1 Mn8 Si4'
_cell_volume   185.37295935
_cell_formula_units_Z   1
loop_
 _symmetry_equiv_pos_site_id
 _symmetry_equiv_pos_as_xyz
  1  'x, y, z'
loop_
 _atom_site_type_symbol
 _atom_site_label
 _atom_site_symmetry_multiplicity
 _atom_site_fract_x
 _atom_site_fract_y
 _atom_site_fract_z
 _atom_site_occupancy
  Tm  Tm0  1  0.000000  0.000000  0.500000  1
  Zr  Zr1  1  0.500000  0.500000  0.000000  1
  Mn  Mn2  1  0.854222  0.388279  0.500000  1
  Mn  Mn3  1  0.145778  0.611721  0.500000  1
  Mn  Mn4  1  0.642605  0.887056  0.000000  1
  Mn  Mn5  1  0.357395  0.112944  0.000000  1
  Mn  Mn6  1  0.566954  0.152675  0.500000  1
  Mn  Mn7  1  0.433046  0.847325  0.500000  1
  Mn  Mn8  1  0.929312  0.650736  0.000000  1
  Mn  Mn9  1  0.070688  0.349264  0.000000  1
  Si  Si10  1  0.265302  0.311575  0.500000  1
  Si  Si11  1  0.734698  0.688425  0.500000  1
  Si  Si12  1  0.239651  0.806353  0.000000  1
  Si  Si13  1  0.760349  0.193647  0.000000  1
