# generated using pymatgen
data_LiCe8(Si4Pt)3
_symmetry_space_group_name_H-M   'P 1'
_cell_length_a   8.22781500
_cell_length_b   8.22781578
_cell_length_c   8.36566500
_cell_angle_alpha   90.00000000
_cell_angle_beta   90.00000000
_cell_angle_gamma   119.99999283
_symmetry_Int_Tables_number   1
_chemical_formula_structural   LiCe8(Si4Pt)3
_chemical_formula_sum   'Li1 Ce8 Si12 Pt3'
_cell_volume   490.45617871
_cell_formula_units_Z   1
loop_
 _symmetry_equiv_pos_site_id
 _symmetry_equiv_pos_as_xyz
  1  'x, y, z'
loop_
 _atom_site_type_symbol
 _atom_site_label
 _atom_site_symmetry_multiplicity
 _atom_site_fract_x
 _atom_site_fract_y
 _atom_site_fract_z
 _atom_site_occupancy
  Li  Li0  1  0.333333  0.666667  0.503833  1
  Ce  Ce1  1  0.000000  0.000000  0.251241  1
  Ce  Ce2  1  0.000000  0.000000  0.748478  1
  Ce  Ce3  1  0.501910  0.498090  0.250020  1
  Ce  Ce4  1  0.501910  0.003820  0.250020  1
  Ce  Ce5  1  0.996180  0.498090  0.250020  1
  Ce  Ce6  1  0.502187  0.497813  0.749847  1
  Ce  Ce7  1  0.502187  0.004373  0.749847  1
  Ce  Ce8  1  0.995627  0.497813  0.749847  1
  Si  Si9  1  0.166822  0.833178  0.500534  1
  Si  Si10  1  0.166822  0.333645  0.500534  1
  Si  Si11  1  0.666355  0.833178  0.500534  1
  Si  Si12  1  0.835832  0.164168  0.499898  1
  Si  Si13  1  0.835832  0.671664  0.499898  1
  Si  Si14  1  0.328336  0.164168  0.499898  1
  Si  Si15  1  0.835492  0.164508  0.999801  1
  Si  Si16  1  0.835492  0.670982  0.999801  1
  Si  Si17  1  0.329018  0.164508  0.999801  1
  Si  Si18  1  0.164974  0.835026  0.999075  1
  Si  Si19  1  0.164974  0.329950  0.999075  1
  Si  Si20  1  0.670050  0.835026  0.999075  1
  Pt  Pt21  1  0.666667  0.333333  0.500611  1
  Pt  Pt22  1  0.666667  0.333333  0.999191  1
  Pt  Pt23  1  0.333333  0.666667  0.999123  1
