# generated using pymatgen
data_Y5Nb3Co16Si5P7
_symmetry_space_group_name_H-M   'P 1'
_cell_length_a   12.28869364
_cell_length_b   12.29932316
_cell_length_c   3.73687800
_cell_angle_alpha   90.00000000
_cell_angle_beta   90.00000000
_cell_angle_gamma   120.04643231
_symmetry_Int_Tables_number   1
_chemical_formula_structural   Y5Nb3Co16Si5P7
_chemical_formula_sum   'Y5 Nb3 Co16 Si5 P7'
_cell_volume   488.90343886
_cell_formula_units_Z   1
loop_
 _symmetry_equiv_pos_site_id
 _symmetry_equiv_pos_as_xyz
  1  'x, y, z'
loop_
 _atom_site_type_symbol
 _atom_site_label
 _atom_site_symmetry_multiplicity
 _atom_site_fract_x
 _atom_site_fract_y
 _atom_site_fract_z
 _atom_site_occupancy
  Y  Y0  1  0.816897  0.999529  0.500000  1
  Y  Y1  1  0.999986  0.815781  0.500000  1
  Y  Y2  1  0.183122  0.183496  0.500000  1
  Y  Y3  1  0.333106  0.666803  0.000000  1
  Y  Y4  1  0.668989  0.333181  0.000000  1
  Nb  Nb5  1  0.441553  0.000741  0.000000  1
  Nb  Nb6  1  0.998081  0.439741  0.000000  1
  Nb  Nb7  1  0.559233  0.559324  0.000000  1
  Co  Co8  1  0.276736  0.999882  0.500000  1
  Co  Co9  1  0.996722  0.276745  0.500000  1
  Co  Co10  1  0.723691  0.723069  0.500000  1
  Co  Co11  1  0.629317  0.807304  0.000000  1
  Co  Co12  1  0.193085  0.821903  0.000000  1
  Co  Co13  1  0.176543  0.370462  0.000000  1
  Co  Co14  1  0.371015  0.178393  0.000000  1
  Co  Co15  1  0.807270  0.627812  0.000000  1
  Co  Co16  1  0.821968  0.195076  0.000000  1
  Co  Co17  1  0.525388  0.881160  0.500000  1
  Co  Co18  1  0.119883  0.644098  0.500000  1
  Co  Co19  1  0.355000  0.476021  0.500000  1
  Co  Co20  1  0.475919  0.355432  0.500000  1
  Co  Co21  1  0.877120  0.519095  0.500000  1
  Co  Co22  1  0.648427  0.125634  0.500000  1
  Co  Co23  1  0.000058  0.000270  0.000000  1
  Si  Si24  1  0.521999  0.691020  0.500000  1
  Si  Si25  1  0.309520  0.831497  0.500000  1
  Si  Si26  1  0.168592  0.478380  0.500000  1
  Si  Si27  1  0.478124  0.169340  0.500000  1
  Si  Si28  1  0.689998  0.521241  0.500000  1
  P  P29  1  0.180415  0.999860  0.000000  1
  P  P30  1  0.999739  0.179822  0.000000  1
  P  P31  1  0.819938  0.819146  0.000000  1
  P  P32  1  0.831872  0.309540  0.500000  1
  P  P33  1  0.643508  0.999753  0.000000  1
  P  P34  1  0.000476  0.642718  0.000000  1
  P  P35  1  0.356712  0.356733  0.000000  1
