# generated using pymatgen
data_PuTa6SbS12
_symmetry_space_group_name_H-M   'P 1'
_cell_length_a   5.80189628
_cell_length_b   5.81143772
_cell_length_c   14.20113219
_cell_angle_alpha   89.81760887
_cell_angle_beta   90.09134638
_cell_angle_gamma   120.05442829
_symmetry_Int_Tables_number   1
_chemical_formula_structural   PuTa6SbS12
_chemical_formula_sum   'Pu1 Ta6 Sb1 S12'
_cell_volume   414.44461189
_cell_formula_units_Z   1
loop_
 _symmetry_equiv_pos_site_id
 _symmetry_equiv_pos_as_xyz
  1  'x, y, z'
loop_
 _atom_site_type_symbol
 _atom_site_label
 _atom_site_symmetry_multiplicity
 _atom_site_fract_x
 _atom_site_fract_y
 _atom_site_fract_z
 _atom_site_occupancy
  Pu  Pu0  1  0.000000  0.000000  0.000000  1
  Ta  Ta1  1  0.333279  0.667254  0.251088  1
  Ta  Ta2  1  0.666721  0.332746  0.748912  1
  Ta  Ta3  1  0.666721  0.333975  0.251088  1
  Ta  Ta4  1  0.333279  0.666025  0.748912  1
  Ta  Ta5  1  0.000000  0.000011  0.250387  1
  Ta  Ta6  1  0.000000  0.999989  0.749613  1
  Sb  Sb7  1  0.000000  0.000000  0.500000  1
  S  S8  1  0.337082  0.001350  0.139977  1
  S  S9  1  0.000000  0.339150  0.139674  1
  S  S10  1  0.662918  0.664268  0.139977  1
  S  S11  1  0.337679  0.338627  0.638329  1
  S  S12  1  0.662321  0.661373  0.361671  1
  S  S13  1  0.662321  0.000948  0.638329  1
  S  S14  1  0.000000  0.663204  0.638592  1
  S  S15  1  0.000000  0.660850  0.860326  1
  S  S16  1  0.337082  0.335732  0.860023  1
  S  S17  1  0.000000  0.336796  0.361408  1
  S  S18  1  0.337679  0.999052  0.361671  1
  S  S19  1  0.662918  0.998650  0.860023  1
