# generated using pymatgen
data_Er3Al12(OsRh)2
_symmetry_space_group_name_H-M   'P 1'
_cell_length_a   8.82582500
_cell_length_b   8.82582575
_cell_length_c   9.49864300
_cell_angle_alpha   90.00000000
_cell_angle_beta   90.00000000
_cell_angle_gamma   120.41677825
_symmetry_Int_Tables_number   1
_chemical_formula_structural   Er3Al12(OsRh)2
_chemical_formula_sum   'Er6 Al24 Os4 Rh4'
_cell_volume   638.06301745
_cell_formula_units_Z   2
loop_
 _symmetry_equiv_pos_site_id
 _symmetry_equiv_pos_as_xyz
  1  'x, y, z'
loop_
 _atom_site_type_symbol
 _atom_site_label
 _atom_site_symmetry_multiplicity
 _atom_site_fract_x
 _atom_site_fract_y
 _atom_site_fract_z
 _atom_site_occupancy
  Er  Er0  1  0.198384  0.388544  0.250000  1
  Er  Er1  1  0.801616  0.611456  0.750000  1
  Er  Er2  1  0.611456  0.801616  0.250000  1
  Er  Er3  1  0.388544  0.198384  0.750000  1
  Er  Er4  1  0.193465  0.806535  0.250000  1
  Er  Er5  1  0.806535  0.193465  0.750000  1
  Al  Al6  1  0.334111  0.665889  0.024647  1
  Al  Al7  1  0.665889  0.334111  0.975353  1
  Al  Al8  1  0.665889  0.334111  0.524647  1
  Al  Al9  1  0.334111  0.665889  0.475353  1
  Al  Al10  1  0.164560  0.326537  0.576934  1
  Al  Al11  1  0.835440  0.673463  0.423066  1
  Al  Al12  1  0.673463  0.835440  0.576934  1
  Al  Al13  1  0.835440  0.673463  0.076934  1
  Al  Al14  1  0.326537  0.164560  0.423066  1
  Al  Al15  1  0.164560  0.326537  0.923066  1
  Al  Al16  1  0.162151  0.837849  0.578282  1
  Al  Al17  1  0.326537  0.164560  0.076934  1
  Al  Al18  1  0.837849  0.162151  0.421718  1
  Al  Al19  1  0.673463  0.835440  0.923066  1
  Al  Al20  1  0.837849  0.162151  0.078282  1
  Al  Al21  1  0.162151  0.837849  0.921718  1
  Al  Al22  1  0.561749  0.122150  0.250000  1
  Al  Al23  1  0.438251  0.877850  0.750000  1
  Al  Al24  1  0.877850  0.438251  0.250000  1
  Al  Al25  1  0.122150  0.561749  0.750000  1
  Al  Al26  1  0.561743  0.438257  0.250000  1
  Al  Al27  1  0.438257  0.561743  0.750000  1
  Al  Al28  1  0.001224  0.998776  0.250000  1
  Al  Al29  1  0.998776  0.001224  0.750000  1
  Os  Os30  1  0.500000  0.500000  0.000000  1
  Os  Os31  1  0.500000  0.500000  0.500000  1
  Os  Os32  1  0.000000  0.000000  0.000000  1
  Os  Os33  1  0.000000  0.000000  0.500000  1
  Rh  Rh34  1  0.500000  0.000000  0.000000  1
  Rh  Rh35  1  0.000000  0.500000  0.000000  1
  Rh  Rh36  1  0.500000  0.000000  0.500000  1
  Rh  Rh37  1  0.000000  0.500000  0.500000  1
