# generated using pymatgen
data_Li3CdGePt3
_symmetry_space_group_name_H-M   'P 1'
_cell_length_a   6.98614638
_cell_length_b   6.98614584
_cell_length_c   6.98614669
_cell_angle_alpha   62.37364702
_cell_angle_beta   62.37364776
_cell_angle_gamma   62.37365366
_symmetry_Int_Tables_number   1
_chemical_formula_structural   Li3CdGePt3
_chemical_formula_sum   'Li6 Cd2 Ge2 Pt6'
_cell_volume   253.86607964
_cell_formula_units_Z   2
loop_
 _symmetry_equiv_pos_site_id
 _symmetry_equiv_pos_as_xyz
  1  'x, y, z'
loop_
 _atom_site_type_symbol
 _atom_site_label
 _atom_site_symmetry_multiplicity
 _atom_site_fract_x
 _atom_site_fract_y
 _atom_site_fract_z
 _atom_site_occupancy
  Li  Li0  1  0.561227  0.837014  0.342776  1
  Li  Li1  1  0.342776  0.561227  0.837014  1
  Li  Li2  1  0.837014  0.342776  0.561227  1
  Li  Li3  1  0.657224  0.162986  0.438773  1
  Li  Li4  1  0.162986  0.438773  0.657224  1
  Li  Li5  1  0.438773  0.657224  0.162986  1
  Cd  Cd6  1  0.282014  0.282014  0.282014  1
  Cd  Cd7  1  0.717986  0.717986  0.717986  1
  Ge  Ge8  1  0.900806  0.900806  0.900806  1
  Ge  Ge9  1  0.099194  0.099194  0.099194  1
  Pt  Pt10  1  0.889057  0.500000  0.110943  1
  Pt  Pt11  1  0.110943  0.889057  0.500000  1
  Pt  Pt12  1  0.500000  0.110943  0.889057  1
  Pt  Pt13  1  0.268983  0.000000  0.731017  1
  Pt  Pt14  1  0.731017  0.268983  0.000000  1
  Pt  Pt15  1  0.000000  0.731017  0.268983  1
