# generated using pymatgen
data_Lu4Co3Si4Ru
_symmetry_space_group_name_H-M   'P 1'
_cell_length_a   4.15194100
_cell_length_b   6.71611978
_cell_length_c   6.98638309
_cell_angle_alpha   90.18507398
_cell_angle_beta   90.00000000
_cell_angle_gamma   90.00000000
_symmetry_Int_Tables_number   1
_chemical_formula_structural   Lu4Co3Si4Ru
_chemical_formula_sum   'Lu4 Co3 Si4 Ru1'
_cell_volume   194.81380858
_cell_formula_units_Z   1
loop_
 _symmetry_equiv_pos_site_id
 _symmetry_equiv_pos_as_xyz
  1  'x, y, z'
loop_
 _atom_site_type_symbol
 _atom_site_label
 _atom_site_symmetry_multiplicity
 _atom_site_fract_x
 _atom_site_fract_y
 _atom_site_fract_z
 _atom_site_occupancy
  Lu  Lu0  1  0.750000  0.015831  0.811400  1
  Lu  Lu1  1  0.250000  0.490360  0.305566  1
  Lu  Lu2  1  0.750000  0.511742  0.696571  1
  Lu  Lu3  1  0.250000  0.992086  0.187643  1
  Co  Co4  1  0.250000  0.151488  0.565714  1
  Co  Co5  1  0.750000  0.344181  0.061865  1
  Co  Co6  1  0.250000  0.647871  0.933223  1
  Si  Si7  1  0.750000  0.204823  0.397194  1
  Si  Si8  1  0.250000  0.301009  0.892324  1
  Si  Si9  1  0.750000  0.696373  0.100686  1
  Si  Si10  1  0.250000  0.801017  0.612855  1
  Ru  Ru11  1  0.750000  0.843218  0.434958  1
