# generated using pymatgen
data_SmDy9Sn8
_symmetry_space_group_name_H-M   'P 1'
_cell_length_a   8.05466172
_cell_length_b   8.19736300
_cell_length_c   15.48820358
_cell_angle_alpha   90.00000000
_cell_angle_beta   89.74473704
_cell_angle_gamma   90.00000000
_symmetry_Int_Tables_number   1
_chemical_formula_structural   SmDy9Sn8
_chemical_formula_sum   'Sm2 Dy18 Sn16'
_cell_volume   1022.62925102
_cell_formula_units_Z   2
loop_
 _symmetry_equiv_pos_site_id
 _symmetry_equiv_pos_as_xyz
  1  'x, y, z'
loop_
 _atom_site_type_symbol
 _atom_site_label
 _atom_site_symmetry_multiplicity
 _atom_site_fract_x
 _atom_site_fract_y
 _atom_site_fract_z
 _atom_site_occupancy
  Sm  Sm0  1  0.982570  0.819606  0.597378  1
  Sm  Sm1  1  0.517430  0.319606  0.402622  1
  Dy  Dy2  1  0.019017  0.179742  0.401677  1
  Dy  Dy3  1  0.368423  0.836888  0.121148  1
  Dy  Dy4  1  0.133262  0.336954  0.622365  1
  Dy  Dy5  1  0.480048  0.679402  0.902554  1
  Dy  Dy6  1  0.868617  0.663103  0.121396  1
  Dy  Dy7  1  0.131577  0.336888  0.878852  1
  Dy  Dy8  1  0.198959  0.503131  0.249148  1
  Dy  Dy9  1  0.699083  0.997180  0.249220  1
  Dy  Dy10  1  0.480983  0.679742  0.598323  1
  Dy  Dy11  1  0.301041  0.003131  0.750852  1
  Dy  Dy12  1  0.633386  0.162808  0.622533  1
  Dy  Dy13  1  0.800917  0.497180  0.750780  1
  Dy  Dy14  1  0.866614  0.662808  0.377467  1
  Dy  Dy15  1  0.019952  0.179402  0.097446  1
  Dy  Dy16  1  0.979622  0.820194  0.901566  1
  Dy  Dy17  1  0.631383  0.163103  0.878604  1
  Dy  Dy18  1  0.520378  0.320194  0.098434  1
  Dy  Dy19  1  0.366738  0.836954  0.377635  1
  Sn  Sn20  1  0.793935  0.462845  0.542505  1
  Sn  Sn21  1  0.706065  0.962845  0.457495  1
  Sn  Sn22  1  0.670339  0.853205  0.750748  1
  Sn  Sn23  1  0.204359  0.539375  0.458984  1
  Sn  Sn24  1  0.290987  0.035959  0.958283  1
  Sn  Sn25  1  0.829661  0.353205  0.249252  1
  Sn  Sn26  1  0.791362  0.463646  0.958440  1
  Sn  Sn27  1  0.565680  0.620541  0.249393  1
  Sn  Sn28  1  0.209013  0.535959  0.041717  1
  Sn  Sn29  1  0.434724  0.380158  0.750330  1
  Sn  Sn30  1  0.173876  0.645266  0.751539  1
  Sn  Sn31  1  0.934320  0.120541  0.750607  1
  Sn  Sn32  1  0.295641  0.039375  0.541016  1
  Sn  Sn33  1  0.708638  0.963646  0.041560  1
  Sn  Sn34  1  0.326124  0.145266  0.248461  1
  Sn  Sn35  1  0.065276  0.880158  0.249670  1
