# generated using pymatgen
data_Sr2CaCeTi4O12
_symmetry_space_group_name_H-M   'P 1'
_cell_length_a   7.84507400
_cell_length_b   5.52430081
_cell_length_c   5.55903994
_cell_angle_alpha   89.88691781
_cell_angle_beta   90.00000000
_cell_angle_gamma   90.00000000
_symmetry_Int_Tables_number   1
_chemical_formula_structural   Sr2CaCeTi4O12
_chemical_formula_sum   'Sr2 Ca1 Ce1 Ti4 O12'
_cell_volume   240.92025382
_cell_formula_units_Z   1
loop_
 _symmetry_equiv_pos_site_id
 _symmetry_equiv_pos_as_xyz
  1  'x, y, z'
loop_
 _atom_site_type_symbol
 _atom_site_label
 _atom_site_symmetry_multiplicity
 _atom_site_fract_x
 _atom_site_fract_y
 _atom_site_fract_z
 _atom_site_occupancy
  Sr  Sr0  1  0.000000  0.996386  0.976236  1
  Sr  Sr1  1  0.000000  0.504037  0.478124  1
  Ca  Ca2  1  0.500000  0.494011  0.538419  1
  Ce  Ce3  1  0.500000  0.005386  0.038696  1
  Ti  Ti4  1  0.251998  0.996407  0.500477  1
  Ti  Ti5  1  0.748220  0.503500  0.999531  1
  Ti  Ti6  1  0.748002  0.996407  0.500477  1
  Ti  Ti7  1  0.251780  0.503500  0.999531  1
  O  O8  1  0.500000  0.566884  0.980349  1
  O  O9  1  0.500000  0.931719  0.486797  1
  O  O10  1  0.000000  0.452466  0.007295  1
  O  O11  1  0.000000  0.048279  0.502889  1
  O  O12  1  0.768832  0.785595  0.213798  1
  O  O13  1  0.227565  0.718487  0.717767  1
  O  O14  1  0.288452  0.215291  0.784255  1
  O  O15  1  0.707607  0.281136  0.279770  1
  O  O16  1  0.711548  0.215291  0.784255  1
  O  O17  1  0.292393  0.281136  0.279770  1
  O  O18  1  0.231168  0.785595  0.213798  1
  O  O19  1  0.772435  0.718487  0.717767  1
