# generated using pymatgen
data_CeMnHgPt3
_symmetry_space_group_name_H-M   'P 1'
_cell_length_a   5.51840259
_cell_length_b   5.51840239
_cell_length_c   5.30598508
_cell_angle_alpha   58.66662242
_cell_angle_beta   58.66661748
_cell_angle_gamma   60.00000809
_symmetry_Int_Tables_number   1
_chemical_formula_structural   CeMnHgPt3
_chemical_formula_sum   'Ce1 Mn1 Hg1 Pt3'
_cell_volume   111.89855042
_cell_formula_units_Z   1
loop_
 _symmetry_equiv_pos_site_id
 _symmetry_equiv_pos_as_xyz
  1  'x, y, z'
loop_
 _atom_site_type_symbol
 _atom_site_label
 _atom_site_symmetry_multiplicity
 _atom_site_fract_x
 _atom_site_fract_y
 _atom_site_fract_z
 _atom_site_occupancy
  Ce  Ce0  1  0.002443  0.002443  0.992671  1
  Mn  Mn1  1  0.622980  0.622980  0.131060  1
  Hg  Hg2  1  0.252938  0.252938  0.241186  1
  Pt  Pt3  1  0.623260  0.125119  0.628361  1
  Pt  Pt4  1  0.125119  0.623260  0.628361  1
  Pt  Pt5  1  0.623260  0.623260  0.628361  1
