# generated using pymatgen
data_Cs6Lu3ScBr18
_symmetry_space_group_name_H-M   'P 1'
_cell_length_a   7.99813900
_cell_length_b   7.99813913
_cell_length_c   20.38211300
_cell_angle_alpha   90.00000000
_cell_angle_beta   90.00000000
_cell_angle_gamma   119.99999531
_symmetry_Int_Tables_number   1
_chemical_formula_structural   Cs6Lu3ScBr18
_chemical_formula_sum   'Cs6 Lu3 Sc1 Br18'
_cell_volume   1129.16591345
_cell_formula_units_Z   1
loop_
 _symmetry_equiv_pos_site_id
 _symmetry_equiv_pos_as_xyz
  1  'x, y, z'
loop_
 _atom_site_type_symbol
 _atom_site_label
 _atom_site_symmetry_multiplicity
 _atom_site_fract_x
 _atom_site_fract_y
 _atom_site_fract_z
 _atom_site_occupancy
  Cs  Cs0  1  0.333333  0.666667  0.070669  1
  Cs  Cs1  1  0.666667  0.333333  0.928243  1
  Cs  Cs2  1  0.666667  0.333333  0.571258  1
  Cs  Cs3  1  0.333333  0.666667  0.429621  1
  Cs  Cs4  1  0.000000  0.000000  0.250264  1
  Cs  Cs5  1  0.000000  0.000000  0.749402  1
  Lu  Lu6  1  0.333333  0.666667  0.658344  1
  Lu  Lu7  1  0.666667  0.333333  0.343228  1
  Lu  Lu8  1  0.666667  0.333333  0.156803  1
  Sc  Sc9  1  0.333333  0.666667  0.842717  1
  Br  Br10  1  0.169040  0.338081  0.590636  1
  Br  Br11  1  0.831325  0.662651  0.409735  1
  Br  Br12  1  0.661919  0.830960  0.590636  1
  Br  Br13  1  0.831236  0.662473  0.089897  1
  Br  Br14  1  0.337349  0.168675  0.409735  1
  Br  Br15  1  0.174071  0.348142  0.907388  1
  Br  Br16  1  0.169040  0.830960  0.590636  1
  Br  Br17  1  0.337527  0.168764  0.089897  1
  Br  Br18  1  0.831325  0.168675  0.409735  1
  Br  Br19  1  0.651858  0.825929  0.907388  1
  Br  Br20  1  0.831236  0.168764  0.089897  1
  Br  Br21  1  0.174071  0.825929  0.907388  1
  Br  Br22  1  0.511591  0.023181  0.249886  1
  Br  Br23  1  0.486229  0.972458  0.752273  1
  Br  Br24  1  0.976819  0.488409  0.249886  1
  Br  Br25  1  0.027542  0.513771  0.752273  1
  Br  Br26  1  0.511591  0.488409  0.249886  1
  Br  Br27  1  0.486229  0.513771  0.752273  1
