# generated using pymatgen
data_LiLu6Co16P12Ru
_symmetry_space_group_name_H-M   'P 1'
_cell_length_a   3.67591700
_cell_length_b   10.48993300
_cell_length_c   12.12426500
_cell_angle_alpha   90.00000000
_cell_angle_beta   90.00000000
_cell_angle_gamma   90.00000000
_symmetry_Int_Tables_number   1
_chemical_formula_structural   LiLu6Co16P12Ru
_chemical_formula_sum   'Li1 Lu6 Co16 P12 Ru1'
_cell_volume   467.51315021
_cell_formula_units_Z   1
loop_
 _symmetry_equiv_pos_site_id
 _symmetry_equiv_pos_as_xyz
  1  'x, y, z'
loop_
 _atom_site_type_symbol
 _atom_site_label
 _atom_site_symmetry_multiplicity
 _atom_site_fract_x
 _atom_site_fract_y
 _atom_site_fract_z
 _atom_site_occupancy
  Li  Li0  1  0.500000  0.500000  0.153861  1
  Lu  Lu1  1  0.000000  0.500000  0.522719  1
  Lu  Lu2  1  0.500000  0.000000  0.474271  1
  Lu  Lu3  1  0.500000  0.819643  0.206659  1
  Lu  Lu4  1  0.500000  0.180357  0.206659  1
  Lu  Lu5  1  0.000000  0.681493  0.793464  1
  Lu  Lu6  1  0.000000  0.318507  0.793464  1
  Co  Co7  1  0.500000  0.500000  0.704504  1
  Co  Co8  1  0.000000  0.000000  0.297050  1
  Co  Co9  1  0.000000  0.500000  0.986015  1
  Co  Co10  1  0.500000  0.000000  0.011534  1
  Co  Co11  1  0.500000  0.330976  0.995310  1
  Co  Co12  1  0.500000  0.669024  0.995310  1
  Co  Co13  1  0.000000  0.166349  0.007235  1
  Co  Co14  1  0.000000  0.833651  0.007235  1
  Co  Co15  1  0.500000  0.296384  0.432902  1
  Co  Co16  1  0.500000  0.703616  0.432902  1
  Co  Co17  1  0.000000  0.202406  0.570239  1
  Co  Co18  1  0.000000  0.797594  0.570239  1
  Co  Co19  1  0.500000  0.878260  0.706904  1
  Co  Co20  1  0.500000  0.121740  0.706904  1
  Co  Co21  1  0.000000  0.623482  0.293558  1
  Co  Co22  1  0.000000  0.376518  0.293558  1
  P  P23  1  0.500000  0.500000  0.883883  1
  P  P24  1  0.000000  0.000000  0.118832  1
  P  P25  1  0.500000  0.500000  0.347757  1
  P  P26  1  0.000000  0.000000  0.646566  1
  P  P27  1  0.500000  0.313088  0.617317  1
  P  P28  1  0.500000  0.686912  0.617317  1
  P  P29  1  0.000000  0.187864  0.383820  1
  P  P30  1  0.000000  0.812136  0.383820  1
  P  P31  1  0.500000  0.843880  0.891384  1
  P  P32  1  0.500000  0.156120  0.891384  1
  P  P33  1  0.000000  0.656641  0.108393  1
  P  P34  1  0.000000  0.343359  0.108393  1
  Ru  Ru35  1  0.000000  0.000000  0.838639  1
