# generated using pymatgen
data_Dy8Sc12Ga15Sn
_symmetry_space_group_name_H-M   'P 1'
_cell_length_a   7.31388608
_cell_length_b   7.57488198
_cell_length_c   14.52369000
_cell_angle_alpha   90.00000000
_cell_angle_beta   90.00000000
_cell_angle_gamma   89.97654740
_symmetry_Int_Tables_number   1
_chemical_formula_structural   Dy8Sc12Ga15Sn
_chemical_formula_sum   'Dy8 Sc12 Ga15 Sn1'
_cell_volume   804.63884811
_cell_formula_units_Z   1
loop_
 _symmetry_equiv_pos_site_id
 _symmetry_equiv_pos_as_xyz
  1  'x, y, z'
loop_
 _atom_site_type_symbol
 _atom_site_label
 _atom_site_symmetry_multiplicity
 _atom_site_fract_x
 _atom_site_fract_y
 _atom_site_fract_z
 _atom_site_occupancy
  Dy  Dy0  1  0.012170  0.179804  0.096282  1
  Dy  Dy1  1  0.993419  0.826416  0.908807  1
  Dy  Dy2  1  0.482814  0.679859  0.907250  1
  Dy  Dy3  1  0.993419  0.826416  0.591193  1
  Dy  Dy4  1  0.512166  0.320791  0.095644  1
  Dy  Dy5  1  0.012170  0.179804  0.403718  1
  Dy  Dy6  1  0.512166  0.320791  0.404356  1
  Dy  Dy7  1  0.482814  0.679859  0.592750  1
  Sc  Sc8  1  0.170117  0.498993  0.750000  1
  Sc  Sc9  1  0.837139  0.497279  0.250000  1
  Sc  Sc10  1  0.337900  0.002223  0.250000  1
  Sc  Sc11  1  0.659623  0.006579  0.750000  1
  Sc  Sc12  1  0.329274  0.172095  0.622876  1
  Sc  Sc13  1  0.670101  0.826654  0.375723  1
  Sc  Sc14  1  0.169823  0.672897  0.375209  1
  Sc  Sc15  1  0.670101  0.826654  0.124277  1
  Sc  Sc16  1  0.830297  0.321520  0.621201  1
  Sc  Sc17  1  0.329274  0.172095  0.877124  1
  Sc  Sc18  1  0.830297  0.321520  0.878799  1
  Sc  Sc19  1  0.169823  0.672897  0.124791  1
  Ga  Ga20  1  0.031814  0.118456  0.750000  1
  Ga  Ga21  1  0.968240  0.882253  0.250000  1
  Ga  Ga22  1  0.468006  0.617980  0.250000  1
  Ga  Ga23  1  0.528162  0.375593  0.750000  1
  Ga  Ga24  1  0.285576  0.872346  0.750000  1
  Ga  Ga25  1  0.714887  0.127245  0.250000  1
  Ga  Ga26  1  0.215364  0.372367  0.250000  1
  Ga  Ga27  1  0.159684  0.464548  0.540237  1
  Ga  Ga28  1  0.839068  0.535130  0.459576  1
  Ga  Ga29  1  0.339186  0.964496  0.459134  1
  Ga  Ga30  1  0.839068  0.535130  0.040424  1
  Ga  Ga31  1  0.659950  0.033954  0.540233  1
  Ga  Ga32  1  0.159684  0.464548  0.959763  1
  Ga  Ga33  1  0.659950  0.033954  0.959767  1
  Ga  Ga34  1  0.339186  0.964496  0.040866  1
  Sn  Sn35  1  0.787270  0.632354  0.750000  1
