# generated using pymatgen
data_TbYb(ThPd6)2
_symmetry_space_group_name_H-M   'P 1'
_cell_length_a   5.88462600
_cell_length_b   5.88462497
_cell_length_c   9.63570500
_cell_angle_alpha   90.00000000
_cell_angle_beta   90.00000000
_cell_angle_gamma   119.99999453
_symmetry_Int_Tables_number   1
_chemical_formula_structural   TbYb(ThPd6)2
_chemical_formula_sum   'Tb1 Yb1 Th2 Pd12'
_cell_volume   288.96936789
_cell_formula_units_Z   1
loop_
 _symmetry_equiv_pos_site_id
 _symmetry_equiv_pos_as_xyz
  1  'x, y, z'
loop_
 _atom_site_type_symbol
 _atom_site_label
 _atom_site_symmetry_multiplicity
 _atom_site_fract_x
 _atom_site_fract_y
 _atom_site_fract_z
 _atom_site_occupancy
  Tb  Tb0  1  0.666667  0.333333  0.750000  1
  Yb  Yb1  1  0.333333  0.666667  0.250000  1
  Th  Th2  1  0.000000  0.000000  0.496994  1
  Th  Th3  1  0.000000  0.000000  0.003006  1
  Pd  Pd4  1  0.499675  0.500325  0.499531  1
  Pd  Pd5  1  0.499675  0.999351  0.499531  1
  Pd  Pd6  1  0.000649  0.500325  0.499531  1
  Pd  Pd7  1  0.499675  0.500325  0.000469  1
  Pd  Pd8  1  0.499675  0.999351  0.000469  1
  Pd  Pd9  1  0.000649  0.500325  0.000469  1
  Pd  Pd10  1  0.826718  0.653437  0.250000  1
  Pd  Pd11  1  0.346563  0.173282  0.250000  1
  Pd  Pd12  1  0.826718  0.173282  0.250000  1
  Pd  Pd13  1  0.173433  0.346866  0.750000  1
  Pd  Pd14  1  0.653134  0.826567  0.750000  1
  Pd  Pd15  1  0.173433  0.826567  0.750000  1
