# generated using pymatgen
data_EuSb12IrOs2Ru
_symmetry_space_group_name_H-M   'P 1'
_cell_length_a   8.15349860
_cell_length_b   8.15465048
_cell_length_c   8.17667709
_cell_angle_alpha   109.51043427
_cell_angle_beta   109.50389625
_cell_angle_gamma   109.37678677
_symmetry_Int_Tables_number   1
_chemical_formula_structural   EuSb12IrOs2Ru
_chemical_formula_sum   'Eu1 Sb12 Ir1 Os2 Ru1'
_cell_volume   418.62438330
_cell_formula_units_Z   1
loop_
 _symmetry_equiv_pos_site_id
 _symmetry_equiv_pos_as_xyz
  1  'x, y, z'
loop_
 _atom_site_type_symbol
 _atom_site_label
 _atom_site_symmetry_multiplicity
 _atom_site_fract_x
 _atom_site_fract_y
 _atom_site_fract_z
 _atom_site_occupancy
  Eu  Eu0  1  0.000000  0.000000  0.000000  1
  Sb  Sb1  1  0.342551  0.158017  0.496977  1
  Sb  Sb2  1  0.340015  0.842880  0.182891  1
  Sb  Sb3  1  0.659985  0.157120  0.817109  1
  Sb  Sb4  1  0.814787  0.657757  0.154883  1
  Sb  Sb5  1  0.158082  0.497060  0.340104  1
  Sb  Sb6  1  0.502826  0.659607  0.841912  1
  Sb  Sb7  1  0.842647  0.185151  0.339807  1
  Sb  Sb8  1  0.657449  0.841983  0.503023  1
  Sb  Sb9  1  0.185213  0.342243  0.845117  1
  Sb  Sb10  1  0.157353  0.814849  0.660193  1
  Sb  Sb11  1  0.497174  0.340393  0.158088  1
  Sb  Sb12  1  0.841918  0.502940  0.659896  1
  Ir  Ir13  1  0.000000  0.000000  0.500000  1
  Os  Os14  1  0.000000  0.500000  0.000000  1
  Os  Os15  1  0.500000  0.000000  0.000000  1
  Ru  Ru16  1  0.500000  0.500000  0.500000  1
