# generated using pymatgen
data_Sm3In2Pt3Pb
_symmetry_space_group_name_H-M   'P 1'
_cell_length_a   7.75608804
_cell_length_b   7.75608745
_cell_length_c   3.98558400
_cell_angle_alpha   90.00000000
_cell_angle_beta   90.00000000
_cell_angle_gamma   119.58044825
_symmetry_Int_Tables_number   1
_chemical_formula_structural   Sm3In2Pt3Pb
_chemical_formula_sum   'Sm3 In2 Pt3 Pb1'
_cell_volume   208.51082338
_cell_formula_units_Z   1
loop_
 _symmetry_equiv_pos_site_id
 _symmetry_equiv_pos_as_xyz
  1  'x, y, z'
loop_
 _atom_site_type_symbol
 _atom_site_label
 _atom_site_symmetry_multiplicity
 _atom_site_fract_x
 _atom_site_fract_y
 _atom_site_fract_z
 _atom_site_occupancy
  Sm  Sm0  1  0.404710  0.404710  0.500000  1
  Sm  Sm1  1  0.002847  0.591921  0.500000  1
  Sm  Sm2  1  0.591921  0.002847  0.500000  1
  In  In3  1  0.258419  0.000460  0.000000  1
  In  In4  1  0.000460  0.258419  0.000000  1
  Pt  Pt5  1  0.663783  0.323647  0.000000  1
  Pt  Pt6  1  0.323647  0.663783  0.000000  1
  Pt  Pt7  1  0.011364  0.011364  0.500000  1
  Pb  Pb8  1  0.742849  0.742849  0.000000  1
