# generated using pymatgen
data_Y2Pa(Co3As2)3
_symmetry_space_group_name_H-M   'P 1'
_cell_length_a   3.83372900
_cell_length_b   10.88557700
_cell_length_c   12.61871300
_cell_angle_alpha   90.00000000
_cell_angle_beta   90.00000000
_cell_angle_gamma   90.00000000
_symmetry_Int_Tables_number   1
_chemical_formula_structural   Y2Pa(Co3As2)3
_chemical_formula_sum   'Y4 Pa2 Co18 As12'
_cell_volume   526.60857556
_cell_formula_units_Z   2
loop_
 _symmetry_equiv_pos_site_id
 _symmetry_equiv_pos_as_xyz
  1  'x, y, z'
loop_
 _atom_site_type_symbol
 _atom_site_label
 _atom_site_symmetry_multiplicity
 _atom_site_fract_x
 _atom_site_fract_y
 _atom_site_fract_z
 _atom_site_occupancy
  Y  Y0  1  0.500000  0.814707  0.206204  1
  Y  Y1  1  0.500000  0.185293  0.206204  1
  Y  Y2  1  0.000000  0.685293  0.793796  1
  Y  Y3  1  0.000000  0.314707  0.793796  1
  Pa  Pa4  1  0.000000  0.500000  0.530182  1
  Pa  Pa5  1  0.500000  0.000000  0.469818  1
  Co  Co6  1  0.500000  0.500000  0.152608  1
  Co  Co7  1  0.000000  0.000000  0.847392  1
  Co  Co8  1  0.500000  0.500000  0.691500  1
  Co  Co9  1  0.000000  0.000000  0.308500  1
  Co  Co10  1  0.000000  0.500000  0.982521  1
  Co  Co11  1  0.500000  0.000000  0.017479  1
  Co  Co12  1  0.500000  0.334079  0.993825  1
  Co  Co13  1  0.500000  0.665921  0.993825  1
  Co  Co14  1  0.000000  0.165921  0.006175  1
  Co  Co15  1  0.000000  0.834079  0.006175  1
  Co  Co16  1  0.500000  0.305100  0.431412  1
  Co  Co17  1  0.500000  0.694900  0.431412  1
  Co  Co18  1  0.000000  0.194900  0.568588  1
  Co  Co19  1  0.000000  0.805100  0.568588  1
  Co  Co20  1  0.500000  0.882501  0.709864  1
  Co  Co21  1  0.500000  0.117499  0.709864  1
  Co  Co22  1  0.000000  0.617499  0.290136  1
  Co  Co23  1  0.000000  0.382501  0.290136  1
  As  As24  1  0.500000  0.500000  0.874537  1
  As  As25  1  0.000000  0.000000  0.125463  1
  As  As26  1  0.500000  0.500000  0.344713  1
  As  As27  1  0.000000  0.000000  0.655287  1
  As  As28  1  0.500000  0.306218  0.616382  1
  As  As29  1  0.500000  0.693782  0.616382  1
  As  As30  1  0.000000  0.193782  0.383618  1
  As  As31  1  0.000000  0.806218  0.383618  1
  As  As32  1  0.500000  0.847941  0.892783  1
  As  As33  1  0.500000  0.152059  0.892783  1
  As  As34  1  0.000000  0.652059  0.107217  1
  As  As35  1  0.000000  0.347941  0.107217  1
