# generated using pymatgen
data_Hf2Fe3Si4
_symmetry_space_group_name_H-M   'P 1'
_cell_length_a   9.61503211
_cell_length_b   9.61503152
_cell_length_c   12.87439313
_cell_angle_alpha   53.21931952
_cell_angle_beta   53.21932205
_cell_angle_gamma   31.07371946
_symmetry_Int_Tables_number   1
_chemical_formula_structural   Hf2Fe3Si4
_chemical_formula_sum   'Hf8 Fe12 Si16'
_cell_volume   481.28678192
_cell_formula_units_Z   4
loop_
 _symmetry_equiv_pos_site_id
 _symmetry_equiv_pos_as_xyz
  1  'x, y, z'
loop_
 _atom_site_type_symbol
 _atom_site_label
 _atom_site_symmetry_multiplicity
 _atom_site_fract_x
 _atom_site_fract_y
 _atom_site_fract_z
 _atom_site_occupancy
  Hf  Hf0  1  0.294614  0.562538  0.645076  1
  Hf  Hf1  1  0.437462  0.705386  0.854924  1
  Hf  Hf2  1  0.705386  0.437462  0.354924  1
  Hf  Hf3  1  0.562538  0.294614  0.145076  1
  Hf  Hf4  1  0.036953  0.293243  0.641998  1
  Hf  Hf5  1  0.706757  0.963047  0.858002  1
  Hf  Hf6  1  0.963047  0.706757  0.358002  1
  Hf  Hf7  1  0.293243  0.036953  0.141998  1
  Fe  Fe8  1  0.649473  0.827790  0.277759  1
  Fe  Fe9  1  0.172210  0.350527  0.222241  1
  Fe  Fe10  1  0.768293  0.478394  0.065837  1
  Fe  Fe11  1  0.827790  0.649473  0.777759  1
  Fe  Fe12  1  0.905856  0.134086  0.584681  1
  Fe  Fe13  1  0.865914  0.094144  0.915319  1
  Fe  Fe14  1  0.094144  0.865914  0.415319  1
  Fe  Fe15  1  0.134086  0.905856  0.084681  1
  Fe  Fe16  1  0.231707  0.521606  0.934163  1
  Fe  Fe17  1  0.478394  0.768293  0.565837  1
  Fe  Fe18  1  0.521606  0.231707  0.434163  1
  Fe  Fe19  1  0.350527  0.172210  0.722241  1
  Si  Si20  1  0.875449  0.124551  0.250000  1
  Si  Si21  1  0.124551  0.875449  0.750000  1
  Si  Si22  1  0.380556  0.619444  0.250000  1
  Si  Si23  1  0.619444  0.380556  0.750000  1
  Si  Si24  1  0.968491  0.257464  0.896798  1
  Si  Si25  1  0.742536  0.031509  0.603202  1
  Si  Si26  1  0.031509  0.742536  0.103202  1
  Si  Si27  1  0.257464  0.968491  0.396798  1
  Si  Si28  1  0.566798  0.096175  0.063298  1
  Si  Si29  1  0.903825  0.433202  0.436702  1
  Si  Si30  1  0.433202  0.903825  0.936702  1
  Si  Si31  1  0.096175  0.566798  0.563298  1
  Si  Si32  1  0.391634  0.135520  0.395350  1
  Si  Si33  1  0.864480  0.608366  0.104650  1
  Si  Si34  1  0.608366  0.864480  0.604650  1
  Si  Si35  1  0.135520  0.391634  0.895350  1
