# generated using pymatgen
data_Ca4Er4CdHg7
_symmetry_space_group_name_H-M   'P 1'
_cell_length_a   7.54190400
_cell_length_b   7.53389508
_cell_length_c   7.47794200
_cell_angle_alpha   90.00022055
_cell_angle_beta   89.99927069
_cell_angle_gamma   90.07278052
_symmetry_Int_Tables_number   1
_chemical_formula_structural   Ca4Er4CdHg7
_chemical_formula_sum   'Ca4 Er4 Cd1 Hg7'
_cell_volume   424.89567425
_cell_formula_units_Z   1
loop_
 _symmetry_equiv_pos_site_id
 _symmetry_equiv_pos_as_xyz
  1  'x, y, z'
loop_
 _atom_site_type_symbol
 _atom_site_label
 _atom_site_symmetry_multiplicity
 _atom_site_fract_x
 _atom_site_fract_y
 _atom_site_fract_z
 _atom_site_occupancy
  Ca  Ca0  1  0.748674  0.249142  0.999269  1
  Ca  Ca1  1  0.250360  0.750824  0.500734  1
  Ca  Ca2  1  0.749652  0.249189  0.500953  1
  Ca  Ca3  1  0.251333  0.750865  0.999022  1
  Er  Er4  1  0.251785  0.248951  0.999068  1
  Er  Er5  1  0.748215  0.751044  0.999075  1
  Er  Er6  1  0.749668  0.751019  0.500913  1
  Er  Er7  1  0.250332  0.248977  0.500942  1
  Cd  Cd8  1  0.000180  0.500118  0.248645  1
  Hg  Hg9  1  0.000202  0.999872  0.248666  1
  Hg  Hg10  1  0.500193  0.000123  0.251326  1
  Hg  Hg11  1  0.500192  0.499879  0.251314  1
  Hg  Hg12  1  0.499803  0.500123  0.748668  1
  Hg  Hg13  1  0.499804  0.999876  0.748659  1
  Hg  Hg14  1  0.999800  0.000120  0.751339  1
  Hg  Hg15  1  0.999805  0.499882  0.751410  1
