# generated using pymatgen
data_Lu6Fe2Co2Si5Ge
_symmetry_space_group_name_H-M   'P 1'
_cell_length_a   5.52381520
_cell_length_b   5.52381629
_cell_length_c   13.38780200
_cell_angle_alpha   90.30858422
_cell_angle_beta   89.69141552
_cell_angle_gamma   136.93860342
_symmetry_Int_Tables_number   1
_chemical_formula_structural   Lu6Fe2Co2Si5Ge
_chemical_formula_sum   'Lu6 Fe2 Co2 Si5 Ge1'
_cell_volume   278.90880200
_cell_formula_units_Z   1
loop_
 _symmetry_equiv_pos_site_id
 _symmetry_equiv_pos_as_xyz
  1  'x, y, z'
loop_
 _atom_site_type_symbol
 _atom_site_label
 _atom_site_symmetry_multiplicity
 _atom_site_fract_x
 _atom_site_fract_y
 _atom_site_fract_z
 _atom_site_occupancy
  Lu  Lu0  1  0.639076  0.360924  0.249696  1
  Lu  Lu1  1  0.362182  0.637818  0.750109  1
  Lu  Lu2  1  0.920898  0.079102  0.109413  1
  Lu  Lu3  1  0.079795  0.920205  0.887638  1
  Lu  Lu4  1  0.081747  0.918253  0.613320  1
  Lu  Lu5  1  0.918870  0.081130  0.389520  1
  Fe  Fe6  1  0.210659  0.789341  0.079242  1
  Fe  Fe7  1  0.786626  0.213374  0.917122  1
  Co  Co8  1  0.785291  0.214709  0.579901  1
  Co  Co9  1  0.212286  0.787714  0.423723  1
  Si  Si10  1  0.670497  0.329503  0.750539  1
  Si  Si11  1  0.621060  0.378940  0.038781  1
  Si  Si12  1  0.377362  0.622638  0.959773  1
  Si  Si13  1  0.382594  0.617406  0.540866  1
  Si  Si14  1  0.616341  0.383659  0.460522  1
  Ge  Ge15  1  0.334715  0.665285  0.249837  1
