# generated using pymatgen
data_Gd6Zn21Rh2S
_symmetry_space_group_name_H-M   'P 1'
_cell_length_a   9.28649870
_cell_length_b   9.17636423
_cell_length_c   9.28650000
_cell_angle_alpha   60.39154386
_cell_angle_beta   59.21690985
_cell_angle_gamma   60.39154199
_symmetry_Int_Tables_number   1
_chemical_formula_structural   Gd6Zn21Rh2S
_chemical_formula_sum   'Gd6 Zn21 Rh2 S1'
_cell_volume   559.42122515
_cell_formula_units_Z   1
loop_
 _symmetry_equiv_pos_site_id
 _symmetry_equiv_pos_as_xyz
  1  'x, y, z'
loop_
 _atom_site_type_symbol
 _atom_site_label
 _atom_site_symmetry_multiplicity
 _atom_site_fract_x
 _atom_site_fract_y
 _atom_site_fract_z
 _atom_site_occupancy
  Gd  Gd0  1  0.715807  0.284193  0.284193  1
  Gd  Gd1  1  0.718718  0.281282  0.718718  1
  Gd  Gd2  1  0.715807  0.715807  0.284193  1
  Gd  Gd3  1  0.284193  0.715807  0.715807  1
  Gd  Gd4  1  0.281282  0.718718  0.281282  1
  Gd  Gd5  1  0.284193  0.284193  0.715807  1
  Zn  Zn6  1  0.621358  0.124001  0.130639  1
  Zn  Zn7  1  0.124001  0.621358  0.124001  1
  Zn  Zn8  1  0.130639  0.124001  0.621358  1
  Zn  Zn9  1  0.124001  0.130639  0.124001  1
  Zn  Zn10  1  0.378642  0.875999  0.869361  1
  Zn  Zn11  1  0.875999  0.378642  0.875999  1
  Zn  Zn12  1  0.869361  0.875999  0.378642  1
  Zn  Zn13  1  0.875999  0.869361  0.875999  1
  Zn  Zn14  1  0.500000  0.000000  0.000000  1
  Zn  Zn15  1  0.500000  0.500000  0.000000  1
  Zn  Zn16  1  0.000000  0.500000  0.500000  1
  Zn  Zn17  1  0.000000  0.000000  0.500000  1
  Zn  Zn18  1  0.000000  0.000000  0.000000  1
  Zn  Zn19  1  0.011101  0.331530  0.325838  1
  Zn  Zn20  1  0.331530  0.011101  0.331530  1
  Zn  Zn21  1  0.325838  0.331530  0.011101  1
  Zn  Zn22  1  0.331530  0.325838  0.331530  1
  Zn  Zn23  1  0.988899  0.668470  0.674162  1
  Zn  Zn24  1  0.668470  0.988899  0.668470  1
  Zn  Zn25  1  0.674162  0.668470  0.988899  1
  Zn  Zn26  1  0.668470  0.674162  0.668470  1
  Rh  Rh27  1  0.500000  0.000000  0.500000  1
  Rh  Rh28  1  0.000000  0.500000  0.000000  1
  S  S29  1  0.500000  0.500000  0.500000  1
