# generated using pymatgen
data_K4SrAu6
_symmetry_space_group_name_H-M   'P 1'
_cell_length_a   16.05085025
_cell_length_b   16.05084923
_cell_length_c   4.63138300
_cell_angle_alpha   90.00000000
_cell_angle_beta   90.00000000
_cell_angle_gamma   162.52645868
_symmetry_Int_Tables_number   1
_chemical_formula_structural   K4SrAu6
_chemical_formula_sum   'K4 Sr1 Au6'
_cell_volume   358.27126156
_cell_formula_units_Z   1
loop_
 _symmetry_equiv_pos_site_id
 _symmetry_equiv_pos_as_xyz
  1  'x, y, z'
loop_
 _atom_site_type_symbol
 _atom_site_label
 _atom_site_symmetry_multiplicity
 _atom_site_fract_x
 _atom_site_fract_y
 _atom_site_fract_z
 _atom_site_occupancy
  K  K0  1  0.619898  0.380102  0.000000  1
  K  K1  1  0.380102  0.619898  0.000000  1
  K  K2  1  0.802800  0.197199  0.500000  1
  K  K3  1  0.197199  0.802800  0.500000  1
  Sr  Sr4  1  0.000000  0.000000  0.000000  1
  Au  Au5  1  0.728760  0.271240  0.000000  1
  Au  Au6  1  0.271240  0.728760  0.000000  1
  Au  Au7  1  0.922303  0.077697  0.500000  1
  Au  Au8  1  0.543451  0.456548  0.500000  1
  Au  Au9  1  0.456548  0.543451  0.500000  1
  Au  Au10  1  0.077697  0.922303  0.500000  1
