# generated using pymatgen
data_Lu2HfZrAl14(Ga2Ir3)2
_symmetry_space_group_name_H-M   'P 1'
_cell_length_a   7.50198000
_cell_length_b   7.49270403
_cell_length_c   9.31157300
_cell_angle_alpha   90.00000000
_cell_angle_beta   90.00000000
_cell_angle_gamma   119.74099538
_symmetry_Int_Tables_number   1
_chemical_formula_structural   Lu2HfZrAl14(Ga2Ir3)2
_chemical_formula_sum   'Lu2 Hf1 Zr1 Al14 Ga4 Ir6'
_cell_volume   454.46006260
_cell_formula_units_Z   1
loop_
 _symmetry_equiv_pos_site_id
 _symmetry_equiv_pos_as_xyz
  1  'x, y, z'
loop_
 _atom_site_type_symbol
 _atom_site_label
 _atom_site_symmetry_multiplicity
 _atom_site_fract_x
 _atom_site_fract_y
 _atom_site_fract_z
 _atom_site_occupancy
  Lu  Lu0  1  0.671010  0.993541  0.250000  1
  Lu  Lu1  1  0.325906  0.004997  0.750000  1
  Hf  Hf2  1  0.003632  0.325727  0.750000  1
  Zr  Zr3  1  0.994509  0.671647  0.250000  1
  Al  Al4  1  0.000622  0.336936  0.074853  1
  Al  Al5  1  0.001057  0.663089  0.923618  1
  Al  Al6  1  0.001057  0.663089  0.576382  1
  Al  Al7  1  0.333318  0.999771  0.422615  1
  Al  Al8  1  0.000622  0.336936  0.425147  1
  Al  Al9  1  0.666720  0.001562  0.578611  1
  Al  Al10  1  0.666720  0.001562  0.921389  1
  Al  Al11  1  0.333318  0.999771  0.077385  1
  Al  Al12  1  0.331637  0.333775  0.564027  1
  Al  Al13  1  0.668232  0.666281  0.443047  1
  Al  Al14  1  0.668232  0.666281  0.056953  1
  Al  Al15  1  0.331637  0.333775  0.935973  1
  Al  Al16  1  0.666360  0.450119  0.750000  1
  Al  Al17  1  0.444574  0.659260  0.750000  1
  Ga  Ga18  1  0.127841  0.127663  0.250000  1
  Ga  Ga19  1  0.866981  0.867923  0.750000  1
  Ga  Ga20  1  0.337960  0.548957  0.250000  1
  Ga  Ga21  1  0.554280  0.343055  0.250000  1
  Ir  Ir22  1  0.672601  0.327671  0.997279  1
  Ir  Ir23  1  0.328329  0.673056  0.998386  1
  Ir  Ir24  1  0.328329  0.673056  0.501614  1
  Ir  Ir25  1  0.672601  0.327671  0.502721  1
  Ir  Ir26  1  0.000957  0.001415  0.999530  1
  Ir  Ir27  1  0.000957  0.001415  0.500470  1
