# generated using pymatgen
data_Er2Ga2RuPt
_symmetry_space_group_name_H-M   'P 1'
_cell_length_a   4.35760900
_cell_length_b   6.82753600
_cell_length_c   7.71848900
_cell_angle_alpha   90.00000000
_cell_angle_beta   90.00000000
_cell_angle_gamma   90.00000000
_symmetry_Int_Tables_number   1
_chemical_formula_structural   Er2Ga2RuPt
_chemical_formula_sum   'Er4 Ga4 Ru2 Pt2'
_cell_volume   229.63841865
_cell_formula_units_Z   2
loop_
 _symmetry_equiv_pos_site_id
 _symmetry_equiv_pos_as_xyz
  1  'x, y, z'
loop_
 _atom_site_type_symbol
 _atom_site_label
 _atom_site_symmetry_multiplicity
 _atom_site_fract_x
 _atom_site_fract_y
 _atom_site_fract_z
 _atom_site_occupancy
  Er  Er0  1  0.250000  0.978145  0.311972  1
  Er  Er1  1  0.250000  0.478145  0.188028  1
  Er  Er2  1  0.750000  0.015568  0.697399  1
  Er  Er3  1  0.750000  0.515568  0.802601  1
  Ga  Ga4  1  0.250000  0.337651  0.576361  1
  Ga  Ga5  1  0.250000  0.837651  0.923639  1
  Ga  Ga6  1  0.750000  0.669850  0.431059  1
  Ga  Ga7  1  0.750000  0.169850  0.068941  1
  Ru  Ru8  1  0.250000  0.226800  0.896953  1
  Ru  Ru9  1  0.250000  0.726800  0.603047  1
  Pt  Pt10  1  0.750000  0.771986  0.103437  1
  Pt  Pt11  1  0.750000  0.271986  0.396563  1
