# generated using pymatgen
data_Th8Si15Ir
_symmetry_space_group_name_H-M   'P 1'
_cell_length_a   8.22432000
_cell_length_b   8.22432082
_cell_length_c   8.45878800
_cell_angle_alpha   90.00000000
_cell_angle_beta   90.00000000
_cell_angle_gamma   119.99999669
_symmetry_Int_Tables_number   1
_chemical_formula_structural   Th8Si15Ir
_chemical_formula_sum   'Th8 Si15 Ir1'
_cell_volume   495.49449077
_cell_formula_units_Z   1
loop_
 _symmetry_equiv_pos_site_id
 _symmetry_equiv_pos_as_xyz
  1  'x, y, z'
loop_
 _atom_site_type_symbol
 _atom_site_label
 _atom_site_symmetry_multiplicity
 _atom_site_fract_x
 _atom_site_fract_y
 _atom_site_fract_z
 _atom_site_occupancy
  Th  Th0  1  0.499622  0.500378  0.746333  1
  Th  Th1  1  0.499576  0.500424  0.253693  1
  Th  Th2  1  0.000758  0.500378  0.746333  1
  Th  Th3  1  0.000848  0.500424  0.253693  1
  Th  Th4  1  0.499622  0.999242  0.746333  1
  Th  Th5  1  0.499576  0.999152  0.253693  1
  Th  Th6  1  0.000000  0.000000  0.747132  1
  Th  Th7  1  0.000000  0.000000  0.252803  1
  Si  Si8  1  0.834214  0.165786  0.000060  1
  Si  Si9  1  0.167575  0.832425  0.999926  1
  Si  Si10  1  0.331574  0.165786  0.000060  1
  Si  Si11  1  0.168201  0.831799  0.500011  1
  Si  Si12  1  0.664853  0.832425  0.999926  1
  Si  Si13  1  0.834119  0.165881  0.499963  1
  Si  Si14  1  0.834214  0.668426  0.000060  1
  Si  Si15  1  0.663598  0.831799  0.500011  1
  Si  Si16  1  0.167575  0.335147  0.999926  1
  Si  Si17  1  0.331763  0.165881  0.499963  1
  Si  Si18  1  0.168201  0.336402  0.500011  1
  Si  Si19  1  0.834119  0.668237  0.499963  1
  Si  Si20  1  0.333333  0.666667  0.000107  1
  Si  Si21  1  0.333333  0.666667  0.500123  1
  Si  Si22  1  0.666667  0.333333  0.499957  1
  Ir  Ir23  1  0.666667  0.333333  0.999919  1
