# generated using pymatgen
data_Yb2YUN4
_symmetry_space_group_name_H-M   'P 1'
_cell_length_a   6.89462651
_cell_length_b   9.15589415
_cell_length_c   6.02449400
_cell_angle_alpha   29.13939042
_cell_angle_beta   55.09508038
_cell_angle_gamma   41.14681914
_symmetry_Int_Tables_number   1
_chemical_formula_structural   Yb2YUN4
_chemical_formula_sum   'Yb2 Y1 U1 N4'
_cell_volume   117.43033620
_cell_formula_units_Z   1
loop_
 _symmetry_equiv_pos_site_id
 _symmetry_equiv_pos_as_xyz
  1  'x, y, z'
loop_
 _atom_site_type_symbol
 _atom_site_label
 _atom_site_symmetry_multiplicity
 _atom_site_fract_x
 _atom_site_fract_y
 _atom_site_fract_z
 _atom_site_occupancy
  Yb  Yb0  1  0.750000  0.500000  0.000000  1
  Yb  Yb1  1  0.500000  0.000000  0.000000  1
  Y  Y2  1  0.250000  0.500000  0.000000  1
  U  U3  1  0.000000  0.000000  0.000000  1
  N  N4  1  0.492916  0.500000  0.514168  1
  N  N5  1  0.214543  0.000000  0.570912  1
  N  N6  1  0.007084  0.500000  0.485832  1
  N  N7  1  0.785457  0.000000  0.429088  1
