# generated using pymatgen
data_RbHoBiSbSe5
_symmetry_space_group_name_H-M   'P 1'
_cell_length_a   4.12337700
_cell_length_b   12.37077100
_cell_length_c   22.14739500
_cell_angle_alpha   90.00000000
_cell_angle_beta   90.00000000
_cell_angle_gamma   90.00000000
_symmetry_Int_Tables_number   1
_chemical_formula_structural   RbHoBiSbSe5
_chemical_formula_sum   'Rb4 Ho4 Bi4 Sb4 Se20'
_cell_volume   1129.72428103
_cell_formula_units_Z   4
loop_
 _symmetry_equiv_pos_site_id
 _symmetry_equiv_pos_as_xyz
  1  'x, y, z'
loop_
 _atom_site_type_symbol
 _atom_site_label
 _atom_site_symmetry_multiplicity
 _atom_site_fract_x
 _atom_site_fract_y
 _atom_site_fract_z
 _atom_site_occupancy
  Rb  Rb0  1  0.250000  0.488944  0.209562  1
  Rb  Rb1  1  0.750000  0.511056  0.790438  1
  Rb  Rb2  1  0.750000  0.988944  0.290438  1
  Rb  Rb3  1  0.250000  0.011056  0.709562  1
  Ho  Ho4  1  0.250000  0.365310  0.023857  1
  Ho  Ho5  1  0.750000  0.634690  0.976143  1
  Ho  Ho6  1  0.750000  0.865310  0.476143  1
  Ho  Ho7  1  0.250000  0.134690  0.523857  1
  Bi  Bi8  1  0.250000  0.596071  0.424971  1
  Bi  Bi9  1  0.750000  0.403929  0.575029  1
  Bi  Bi10  1  0.750000  0.096071  0.075029  1
  Bi  Bi11  1  0.250000  0.903929  0.924971  1
  Sb  Sb12  1  0.250000  0.805478  0.126830  1
  Sb  Sb13  1  0.750000  0.194522  0.873170  1
  Sb  Sb14  1  0.750000  0.305478  0.373170  1
  Sb  Sb15  1  0.250000  0.694522  0.626830  1
  Se  Se16  1  0.250000  0.812127  0.389362  1
  Se  Se17  1  0.750000  0.187873  0.610638  1
  Se  Se18  1  0.750000  0.312127  0.110638  1
  Se  Se19  1  0.250000  0.687873  0.889362  1
  Se  Se20  1  0.250000  0.250179  0.297824  1
  Se  Se21  1  0.750000  0.749821  0.702176  1
  Se  Se22  1  0.750000  0.750179  0.202176  1
  Se  Se23  1  0.250000  0.249821  0.797824  1
  Se  Se24  1  0.250000  0.355095  0.480039  1
  Se  Se25  1  0.750000  0.644905  0.519961  1
  Se  Se26  1  0.750000  0.855095  0.019961  1
  Se  Se27  1  0.250000  0.144905  0.980039  1
  Se  Se28  1  0.250000  0.019701  0.160364  1
  Se  Se29  1  0.750000  0.980299  0.839636  1
  Se  Se30  1  0.750000  0.519701  0.339636  1
  Se  Se31  1  0.250000  0.480299  0.660364  1
  Se  Se32  1  0.250000  0.583882  0.060375  1
  Se  Se33  1  0.750000  0.416118  0.939625  1
  Se  Se34  1  0.750000  0.083882  0.439625  1
  Se  Se35  1  0.250000  0.916118  0.560375  1
