# generated using pymatgen
data_Pu2BiAu2
_symmetry_space_group_name_H-M   'P 1'
_cell_length_a   8.11732400
_cell_length_b   8.11732400
_cell_length_c   3.93267700
_cell_angle_alpha   90.00000000
_cell_angle_beta   90.00000000
_cell_angle_gamma   90.00000000
_symmetry_Int_Tables_number   1
_chemical_formula_structural   Pu2BiAu2
_chemical_formula_sum   'Pu4 Bi2 Au4'
_cell_volume   259.12781933
_cell_formula_units_Z   2
loop_
 _symmetry_equiv_pos_site_id
 _symmetry_equiv_pos_as_xyz
  1  'x, y, z'
loop_
 _atom_site_type_symbol
 _atom_site_label
 _atom_site_symmetry_multiplicity
 _atom_site_fract_x
 _atom_site_fract_y
 _atom_site_fract_z
 _atom_site_occupancy
  Pu  Pu0  1  0.673729  0.173729  0.500000  1
  Pu  Pu1  1  0.326271  0.826271  0.500000  1
  Pu  Pu2  1  0.173729  0.326271  0.500000  1
  Pu  Pu3  1  0.826271  0.673729  0.500000  1
  Bi  Bi4  1  0.500000  0.500000  0.000000  1
  Bi  Bi5  1  0.000000  0.000000  0.000000  1
  Au  Au6  1  0.122759  0.622759  0.000000  1
  Au  Au7  1  0.877241  0.377241  0.000000  1
  Au  Au8  1  0.622759  0.877241  0.000000  1
  Au  Au9  1  0.377241  0.122759  0.000000  1
