# generated using pymatgen
data_Er3Tm13(LuRh3)4
_symmetry_space_group_name_H-M   'P 1'
_cell_length_a   10.73758500
_cell_length_b   10.73811512
_cell_length_c   6.29130100
_cell_angle_alpha   89.99858069
_cell_angle_beta   89.99943438
_cell_angle_gamma   90.00840911
_symmetry_Int_Tables_number   1
_chemical_formula_structural   Er3Tm13(LuRh3)4
_chemical_formula_sum   'Er3 Tm13 Lu4 Rh12'
_cell_volume   725.39595500
_cell_formula_units_Z   1
loop_
 _symmetry_equiv_pos_site_id
 _symmetry_equiv_pos_as_xyz
  1  'x, y, z'
loop_
 _atom_site_type_symbol
 _atom_site_label
 _atom_site_symmetry_multiplicity
 _atom_site_fract_x
 _atom_site_fract_y
 _atom_site_fract_z
 _atom_site_occupancy
  Er  Er0  1  0.290499  0.087954  0.377020  1
  Er  Er1  1  0.290520  0.912058  0.877103  1
  Er  Er2  1  0.709519  0.087874  0.877160  1
  Tm  Tm3  1  0.709257  0.912027  0.377380  1
  Tm  Tm4  1  0.588019  0.790385  0.877448  1
  Tm  Tm5  1  0.587954  0.209441  0.377334  1
  Tm  Tm6  1  0.412367  0.790406  0.377380  1
  Tm  Tm7  1  0.412156  0.209613  0.877447  1
  Tm  Tm8  1  0.209402  0.412204  0.622654  1
  Tm  Tm9  1  0.209367  0.587778  0.122633  1
  Tm  Tm10  1  0.790646  0.412200  0.122658  1
  Tm  Tm11  1  0.790637  0.587769  0.622566  1
  Tm  Tm12  1  0.912189  0.709306  0.122647  1
  Tm  Tm13  1  0.912334  0.290751  0.622468  1
  Tm  Tm14  1  0.087675  0.709204  0.622574  1
  Tm  Tm15  1  0.087682  0.290761  0.122518  1
  Lu  Lu16  1  0.999772  0.999893  0.500325  1
  Lu  Lu17  1  0.999909  0.999987  0.000392  1
  Lu  Lu18  1  0.500068  0.499979  0.000126  1
  Lu  Lu19  1  0.500079  0.499963  0.500140  1
  Rh  Rh20  1  0.847168  0.153087  0.250428  1
  Rh  Rh21  1  0.846905  0.847030  0.750199  1
  Rh  Rh22  1  0.152735  0.153254  0.750520  1
  Rh  Rh23  1  0.152728  0.846793  0.250318  1
  Rh  Rh24  1  0.652819  0.347212  0.749671  1
  Rh  Rh25  1  0.652719  0.653000  0.249824  1
  Rh  Rh26  1  0.347144  0.347302  0.249699  1
  Rh  Rh27  1  0.347148  0.652904  0.749788  1
  Rh  Rh28  1  0.500138  0.999888  0.122572  1
  Rh  Rh29  1  0.500221  0.999959  0.622228  1
  Rh  Rh30  1  0.000106  0.500003  0.877407  1
  Rh  Rh31  1  0.000116  0.500015  0.377371  1
