# generated using pymatgen
data_Hg2PH11
_symmetry_space_group_name_H-M   'P 1'
_cell_length_a   4.16580817
_cell_length_b   7.82978061
_cell_length_c   10.56862844
_cell_angle_alpha   81.05275947
_cell_angle_beta   103.36593275
_cell_angle_gamma   93.21540111
_symmetry_Int_Tables_number   1
_chemical_formula_structural   Hg2PH11
_chemical_formula_sum   'Hg2 P1 H11'
_cell_volume   331.22983256
_cell_formula_units_Z   1
loop_
 _symmetry_equiv_pos_site_id
 _symmetry_equiv_pos_as_xyz
  1  'x, y, z'
loop_
 _atom_site_type_symbol
 _atom_site_label
 _atom_site_symmetry_multiplicity
 _atom_site_fract_x
 _atom_site_fract_y
 _atom_site_fract_z
 _atom_site_occupancy
  Hg  Hg0  1  0.383374  0.355170  0.539764  1
  Hg  Hg1  1  0.479750  0.902260  0.892780  1
  P  P2  1  0.580386  0.922370  0.459491  1
  H  H3  1  0.252148  0.498101  0.123795  1
  H  H4  1  0.852745  0.616574  0.235597  1
  H  H5  1  0.925849  0.574676  0.304352  1
  H  H6  1  0.391921  0.833878  0.547533  1
  H  H7  1  0.304467  0.936569  0.349772  1
  H  H8  1  0.847927  0.187174  0.274697  1
  H  H9  1  0.126646  0.447931  0.780646  1
  H  H10  1  0.192982  0.483211  0.844032  1
  H  H11  1  0.931119  0.227886  0.221172  1
  H  H12  1  0.342197  0.416091  0.129297  1
  H  H13  1  0.686591  0.765920  0.429583  1
