# generated using pymatgen
data_Hf7ScCo7Si14Ni
_symmetry_space_group_name_H-M   'P 1'
_cell_length_a   9.47357485
_cell_length_b   9.46588035
_cell_length_c   9.47101788
_cell_angle_alpha   94.09717337
_cell_angle_beta   94.14057531
_cell_angle_gamma   148.90669626
_symmetry_Int_Tables_number   1
_chemical_formula_structural   Hf7ScCo7Si14Ni
_chemical_formula_sum   'Hf7 Sc1 Co7 Si14 Ni1'
_cell_volume   422.57404380
_cell_formula_units_Z   1
loop_
 _symmetry_equiv_pos_site_id
 _symmetry_equiv_pos_as_xyz
  1  'x, y, z'
loop_
 _atom_site_type_symbol
 _atom_site_label
 _atom_site_symmetry_multiplicity
 _atom_site_fract_x
 _atom_site_fract_y
 _atom_site_fract_z
 _atom_site_occupancy
  Hf  Hf0  1  0.862199  0.862209  0.724393  1
  Hf  Hf1  1  0.136094  0.861858  0.999376  1
  Hf  Hf2  1  0.863266  0.137506  0.999372  1
  Hf  Hf3  1  0.304558  0.500051  0.803244  1
  Hf  Hf4  1  0.697505  0.500895  0.195956  1
  Hf  Hf5  1  0.498453  0.695057  0.195950  1
  Hf  Hf6  1  0.498692  0.303205  0.803248  1
  Sc  Sc7  1  0.138042  0.138033  0.276072  1
  Co  Co8  1  0.397025  0.897046  0.794070  1
  Co  Co9  1  0.900183  0.102790  0.502076  1
  Co  Co10  1  0.601885  0.399278  0.502080  1
  Co  Co11  1  0.602411  0.102416  0.204790  1
  Co  Co12  1  0.898806  0.398807  0.797626  1
  Co  Co13  1  0.101349  0.895280  0.499124  1
  Co  Co14  1  0.397769  0.603850  0.499138  1
  Si  Si15  1  0.290065  0.290070  0.580122  1
  Si  Si16  1  0.709935  0.709939  0.419913  1
  Si  Si17  1  0.294534  0.713289  0.998877  1
  Si  Si18  1  0.704360  0.285605  0.998890  1
  Si  Si19  1  0.090852  0.498842  0.590797  1
  Si  Si20  1  0.897296  0.490345  0.410703  1
  Si  Si21  1  0.513420  0.920362  0.410707  1
  Si  Si22  1  0.499937  0.091958  0.590792  1
  Si  Si23  1  0.251519  0.251413  0.998869  1
  Si  Si24  1  0.747347  0.747459  0.998871  1
  Si  Si25  1  0.303418  0.005726  0.300389  1
  Si  Si26  1  0.701615  0.001376  0.700338  1
  Si  Si27  1  0.998717  0.698980  0.700345  1
  Si  Si28  1  0.996962  0.294626  0.300394  1
  Ni  Ni29  1  0.101784  0.601729  0.203475  1
