# generated using pymatgen
data_Nd5BeGe2P9Ir19
_symmetry_space_group_name_H-M   'P 1'
_cell_length_a   12.84197990
_cell_length_b   12.87634174
_cell_length_c   4.02138300
_cell_angle_alpha   90.00000000
_cell_angle_beta   90.00000000
_cell_angle_gamma   120.17517885
_symmetry_Int_Tables_number   1
_chemical_formula_structural   Nd5BeGe2P9Ir19
_chemical_formula_sum   'Nd5 Be1 Ge2 P9 Ir19'
_cell_volume   574.85884152
_cell_formula_units_Z   1
loop_
 _symmetry_equiv_pos_site_id
 _symmetry_equiv_pos_as_xyz
  1  'x, y, z'
loop_
 _atom_site_type_symbol
 _atom_site_label
 _atom_site_symmetry_multiplicity
 _atom_site_fract_x
 _atom_site_fract_y
 _atom_site_fract_z
 _atom_site_occupancy
  Nd  Nd0  1  0.343072  0.667230  0.500000  1
  Nd  Nd1  1  0.667364  0.334077  0.500000  1
  Nd  Nd2  1  0.998862  0.817213  0.000000  1
  Nd  Nd3  1  0.182200  0.182734  0.000000  1
  Nd  Nd4  1  0.809274  0.995801  0.000000  1
  Be  Be5  1  0.523086  0.687209  0.000000  1
  Ge  Ge6  1  0.001634  0.640755  0.500000  1
  Ge  Ge7  1  0.362184  0.364099  0.500000  1
  P  P8  1  0.635534  0.993598  0.500000  1
  P  P9  1  0.313941  0.826777  0.000000  1
  P  P10  1  0.172530  0.481474  0.000000  1
  P  P11  1  0.483036  0.176742  0.000000  1
  P  P12  1  0.691877  0.519794  0.000000  1
  P  P13  1  0.827217  0.309356  0.000000  1
  P  P14  1  0.995346  0.177270  0.500000  1
  P  P15  1  0.816536  0.818600  0.500000  1
  P  P16  1  0.182025  0.999468  0.500000  1
  Ir  Ir17  1  0.512560  0.874548  0.000000  1
  Ir  Ir18  1  0.132495  0.636375  0.000000  1
  Ir  Ir19  1  0.356879  0.487237  0.000000  1
  Ir  Ir20  1  0.494925  0.367599  0.000000  1
  Ir  Ir21  1  0.869195  0.506674  0.000000  1
  Ir  Ir22  1  0.636231  0.132234  0.000000  1
  Ir  Ir23  1  0.997379  0.450138  0.500000  1
  Ir  Ir24  1  0.545687  0.560968  0.500000  1
  Ir  Ir25  1  0.461768  0.001727  0.500000  1
  Ir  Ir26  1  0.995714  0.283465  0.000000  1
  Ir  Ir27  1  0.712414  0.713486  0.000000  1
  Ir  Ir28  1  0.286650  0.999722  0.000000  1
  Ir  Ir29  1  0.624976  0.805745  0.500000  1
  Ir  Ir30  1  0.208473  0.825410  0.500000  1
  Ir  Ir31  1  0.170395  0.376937  0.500000  1
  Ir  Ir32  1  0.380890  0.174864  0.500000  1
  Ir  Ir33  1  0.792861  0.618861  0.500000  1
  Ir  Ir34  1  0.814430  0.192140  0.500000  1
  Ir  Ir35  1  0.000364  0.999671  0.500000  1
