# generated using pymatgen
data_Ba2NdAlSe5
_symmetry_space_group_name_H-M   'P 1'
_cell_length_a   7.43769962
_cell_length_b   8.95404436
_cell_length_c   9.67064274
_cell_angle_alpha   103.80537629
_cell_angle_beta   102.66457083
_cell_angle_gamma   107.79488730
_symmetry_Int_Tables_number   1
_chemical_formula_structural   Ba2NdAlSe5
_chemical_formula_sum   'Ba4 Nd2 Al2 Se10'
_cell_volume   565.00238755
_cell_formula_units_Z   2
loop_
 _symmetry_equiv_pos_site_id
 _symmetry_equiv_pos_as_xyz
  1  'x, y, z'
loop_
 _atom_site_type_symbol
 _atom_site_label
 _atom_site_symmetry_multiplicity
 _atom_site_fract_x
 _atom_site_fract_y
 _atom_site_fract_z
 _atom_site_occupancy
  Ba  Ba0  1  0.633143  0.978133  0.295244  1
  Ba  Ba1  1  0.366857  0.021867  0.704756  1
  Ba  Ba2  1  0.337737  0.508215  0.701815  1
  Ba  Ba3  1  0.662263  0.491785  0.298185  1
  Nd  Nd4  1  0.996983  0.730168  0.997375  1
  Nd  Nd5  1  0.003017  0.269832  0.002625  1
  Al  Al6  1  0.806513  0.872380  0.689213  1
  Al  Al7  1  0.193487  0.127620  0.310787  1
  Se  Se8  1  0.989555  0.691299  0.680629  1
  Se  Se9  1  0.010445  0.308701  0.319371  1
  Se  Se10  1  0.985611  0.144860  0.685818  1
  Se  Se11  1  0.014389  0.855140  0.314182  1
  Se  Se12  1  0.704692  0.904073  0.916562  1
  Se  Se13  1  0.295308  0.095927  0.083438  1
  Se  Se14  1  0.698949  0.408699  0.946819  1
  Se  Se15  1  0.301051  0.591301  0.053181  1
  Se  Se16  1  0.496397  0.742849  0.494881  1
  Se  Se17  1  0.503603  0.257151  0.505119  1
