# generated using pymatgen
data_ReTc(OsSe4)2
_symmetry_space_group_name_H-M   'P 1'
_cell_length_a   6.78694379
_cell_length_b   7.08081286
_cell_length_c   7.36289448
_cell_angle_alpha   90.53833321
_cell_angle_beta   105.74736900
_cell_angle_gamma   121.45524812
_symmetry_Int_Tables_number   1
_chemical_formula_structural   ReTc(OsSe4)2
_chemical_formula_sum   'Re1 Tc1 Os2 Se8'
_cell_volume   285.55622535
_cell_formula_units_Z   1
loop_
 _symmetry_equiv_pos_site_id
 _symmetry_equiv_pos_as_xyz
  1  'x, y, z'
loop_
 _atom_site_type_symbol
 _atom_site_label
 _atom_site_symmetry_multiplicity
 _atom_site_fract_x
 _atom_site_fract_y
 _atom_site_fract_z
 _atom_site_occupancy
  Re  Re0  1  0.500025  0.700202  0.500015  1
  Tc  Tc1  1  0.500035  0.297298  0.500051  1
  Os  Os2  1  0.064327  0.283005  0.476603  1
  Os  Os3  1  0.935640  0.719083  0.523381  1
  Se  Se4  1  0.258525  0.375854  0.227477  1
  Se  Se5  1  0.741593  0.622838  0.772506  1
  Se  Se6  1  0.763728  0.376386  0.289632  1
  Se  Se7  1  0.238208  0.626613  0.712483  1
  Se  Se8  1  0.236195  0.116879  0.710228  1
  Se  Se9  1  0.761670  0.884241  0.287654  1
  Se  Se10  1  0.756449  0.128672  0.669494  1
  Se  Se11  1  0.243606  0.868930  0.330474  1
