# generated using pymatgen
data_CePrBeSi4Rh
_symmetry_space_group_name_H-M   'P 1'
_cell_length_a   8.65270378
_cell_length_b   8.65270394
_cell_length_c   4.04459800
_cell_angle_alpha   90.00000000
_cell_angle_beta   90.00000000
_cell_angle_gamma   151.75920845
_symmetry_Int_Tables_number   1
_chemical_formula_structural   CePrBeSi4Rh
_chemical_formula_sum   'Ce1 Pr1 Be1 Si4 Rh1'
_cell_volume   143.28596951
_cell_formula_units_Z   1
loop_
 _symmetry_equiv_pos_site_id
 _symmetry_equiv_pos_as_xyz
  1  'x, y, z'
loop_
 _atom_site_type_symbol
 _atom_site_label
 _atom_site_symmetry_multiplicity
 _atom_site_fract_x
 _atom_site_fract_y
 _atom_site_fract_z
 _atom_site_occupancy
  Ce  Ce0  1  0.388023  0.611977  0.750000  1
  Pr  Pr1  1  0.598994  0.401006  0.250000  1
  Be  Be2  1  0.827171  0.172829  0.250000  1
  Si  Si3  1  0.958968  0.041032  0.250000  1
  Si  Si4  1  0.037292  0.962708  0.750000  1
  Si  Si5  1  0.255816  0.744184  0.250000  1
  Si  Si6  1  0.751206  0.248794  0.750000  1
  Rh  Rh7  1  0.182530  0.817470  0.750000  1
