# generated using pymatgen
data_Yb3PrAl8
_symmetry_space_group_name_H-M   'P 1'
_cell_length_a   9.68118632
_cell_length_b   9.68118620
_cell_length_c   9.68118458
_cell_angle_alpha   34.08279987
_cell_angle_beta   34.08280132
_cell_angle_gamma   34.08279664
_symmetry_Int_Tables_number   1
_chemical_formula_structural   Yb3PrAl8
_chemical_formula_sum   'Yb3 Pr1 Al8'
_cell_volume   254.03169362
_cell_formula_units_Z   1
loop_
 _symmetry_equiv_pos_site_id
 _symmetry_equiv_pos_as_xyz
  1  'x, y, z'
loop_
 _atom_site_type_symbol
 _atom_site_label
 _atom_site_symmetry_multiplicity
 _atom_site_fract_x
 _atom_site_fract_y
 _atom_site_fract_z
 _atom_site_occupancy
  Yb  Yb0  1  0.188551  0.188551  0.188551  1
  Yb  Yb1  1  0.813410  0.813410  0.813410  1
  Yb  Yb2  1  0.310916  0.310916  0.310916  1
  Pr  Pr3  1  0.686702  0.686702  0.686702  1
  Al  Al4  1  0.999560  0.999560  0.999560  1
  Al  Al5  1  0.500388  0.500388  0.500388  1
  Al  Al6  1  0.749335  0.250235  0.250235  1
  Al  Al7  1  0.251522  0.749572  0.749572  1
  Al  Al8  1  0.250235  0.749335  0.250235  1
  Al  Al9  1  0.749572  0.251522  0.749572  1
  Al  Al10  1  0.250235  0.250235  0.749335  1
  Al  Al11  1  0.749572  0.749572  0.251522  1
