# generated using pymatgen
data_LaDySn5Rh3
_symmetry_space_group_name_H-M   'P 1'
_cell_length_a   13.62348301
_cell_length_b   13.62348285
_cell_length_c   7.29171000
_cell_angle_alpha   90.00000000
_cell_angle_beta   90.00000000
_cell_angle_gamma   161.00253460
_symmetry_Int_Tables_number   1
_chemical_formula_structural   LaDySn5Rh3
_chemical_formula_sum   'La2 Dy2 Sn10 Rh6'
_cell_volume   440.54655557
_cell_formula_units_Z   2
loop_
 _symmetry_equiv_pos_site_id
 _symmetry_equiv_pos_as_xyz
  1  'x, y, z'
loop_
 _atom_site_type_symbol
 _atom_site_label
 _atom_site_symmetry_multiplicity
 _atom_site_fract_x
 _atom_site_fract_y
 _atom_site_fract_z
 _atom_site_occupancy
  La  La0  1  0.171639  0.828361  0.753640  1
  La  La1  1  0.828361  0.171639  0.253640  1
  Dy  Dy2  1  0.475485  0.524515  0.737762  1
  Dy  Dy3  1  0.524515  0.475485  0.237762  1
  Sn  Sn4  1  0.881154  0.118846  0.733021  1
  Sn  Sn5  1  0.118846  0.881154  0.233021  1
  Sn  Sn6  1  0.704693  0.295307  0.051729  1
  Sn  Sn7  1  0.295307  0.704693  0.551729  1
  Sn  Sn8  1  0.593592  0.406408  0.614639  1
  Sn  Sn9  1  0.406408  0.593592  0.114639  1
  Sn  Sn10  1  0.953030  0.046970  0.397680  1
  Sn  Sn11  1  0.046970  0.953030  0.897680  1
  Sn  Sn12  1  0.289875  0.710125  0.973367  1
  Sn  Sn13  1  0.710125  0.289875  0.473367  1
  Rh  Rh14  1  0.049314  0.950686  0.516941  1
  Rh  Rh15  1  0.950686  0.049314  0.016941  1
  Rh  Rh16  1  0.778453  0.221547  0.762107  1
  Rh  Rh17  1  0.221547  0.778453  0.262107  1
  Rh  Rh18  1  0.395662  0.604338  0.487114  1
  Rh  Rh19  1  0.604338  0.395662  0.987114  1
