# generated using pymatgen
data_Tm6Fe6Co17
_symmetry_space_group_name_H-M   'P 1'
_cell_length_a   8.34403666
_cell_length_b   8.32835832
_cell_length_c   8.34403783
_cell_angle_alpha   119.93785610
_cell_angle_beta   90.24610790
_cell_angle_gamma   119.93786265
_symmetry_Int_Tables_number   1
_chemical_formula_structural   Tm6Fe6Co17
_chemical_formula_sum   'Tm6 Fe6 Co17'
_cell_volume   409.89716316
_cell_formula_units_Z   1
loop_
 _symmetry_equiv_pos_site_id
 _symmetry_equiv_pos_as_xyz
  1  'x, y, z'
loop_
 _atom_site_type_symbol
 _atom_site_label
 _atom_site_symmetry_multiplicity
 _atom_site_fract_x
 _atom_site_fract_y
 _atom_site_fract_z
 _atom_site_occupancy
  Tm  Tm0  1  0.711728  0.000000  0.288271  1
  Tm  Tm1  1  0.287817  0.001436  0.287817  1
  Tm  Tm2  1  0.287817  0.574197  0.287817  1
  Tm  Tm3  1  0.288271  0.000000  0.711728  1
  Tm  Tm4  1  0.712183  0.998564  0.712183  1
  Tm  Tm5  1  0.712183  0.425804  0.712183  1
  Fe  Fe6  1  0.000000  0.000000  0.000000  1
  Fe  Fe7  1  0.500001  0.000000  0.000000  1
  Fe  Fe8  1  0.000000  0.500001  0.000000  1
  Fe  Fe9  1  0.500001  0.500001  0.000000  1
  Fe  Fe10  1  0.000000  0.000000  0.500001  1
  Fe  Fe11  1  0.000000  0.500001  0.500001  1
  Co  Co12  1  0.677243  0.353378  0.029514  1
  Co  Co13  1  0.877181  0.754741  0.122819  1
  Co  Co14  1  0.370543  0.247592  0.124641  1
  Co  Co15  1  0.877181  0.245258  0.122819  1
  Co  Co16  1  0.676183  0.353991  0.323816  1
  Co  Co17  1  0.676183  0.646009  0.323816  1
  Co  Co18  1  0.970486  0.646622  0.322756  1
  Co  Co19  1  0.124641  0.247592  0.370543  1
  Co  Co20  1  0.500001  0.500001  0.500001  1
  Co  Co21  1  0.875359  0.752407  0.629456  1
  Co  Co22  1  0.029514  0.353378  0.677243  1
  Co  Co23  1  0.323816  0.353991  0.676183  1
  Co  Co24  1  0.323816  0.646009  0.676183  1
  Co  Co25  1  0.122819  0.245258  0.877181  1
  Co  Co26  1  0.122819  0.754741  0.877181  1
  Co  Co27  1  0.629456  0.752407  0.875359  1
  Co  Co28  1  0.322756  0.646622  0.970486  1
