# generated using pymatgen
data_Cs2Bi7(Te4Pb)3
_symmetry_space_group_name_H-M   'P 1'
_cell_length_a   24.38683168
_cell_length_b   24.38683152
_cell_length_c   6.87225365
_cell_angle_alpha   109.98763948
_cell_angle_beta   109.98763886
_cell_angle_gamma   13.90747250
_symmetry_Int_Tables_number   1
_chemical_formula_structural   Cs2Bi7(Te4Pb)3
_chemical_formula_sum   'Cs2 Bi7 Te12 Pb3'
_cell_volume   922.26260067
_cell_formula_units_Z   1
loop_
 _symmetry_equiv_pos_site_id
 _symmetry_equiv_pos_as_xyz
  1  'x, y, z'
loop_
 _atom_site_type_symbol
 _atom_site_label
 _atom_site_symmetry_multiplicity
 _atom_site_fract_x
 _atom_site_fract_y
 _atom_site_fract_z
 _atom_site_occupancy
  Cs  Cs0  1  0.063817  0.063817  0.969918  1
  Cs  Cs1  1  0.714911  0.714911  0.872692  1
  Bi  Bi2  1  0.247756  0.247756  0.448350  1
  Bi  Bi3  1  0.316837  0.316837  0.184557  1
  Bi  Bi4  1  0.751700  0.751700  0.461085  1
  Bi  Bi5  1  0.819591  0.819591  0.668460  1
  Bi  Bi6  1  0.385411  0.385411  0.364726  1
  Bi  Bi7  1  0.177177  0.177177  0.251628  1
  Bi  Bi8  1  0.604738  0.604738  0.561941  1
  Te  Te9  1  0.107896  0.107896  0.594350  1
  Te  Te10  1  0.610642  0.610642  0.148221  1
  Te  Te11  1  0.888695  0.888695  0.406019  1
  Te  Te12  1  0.392135  0.392135  0.946101  1
  Te  Te13  1  0.456825  0.456825  0.156375  1
  Te  Te14  1  0.953019  0.953019  0.643664  1
  Te  Te15  1  0.522753  0.522753  0.819171  1
  Te  Te16  1  0.026793  0.026793  0.364208  1
  Te  Te17  1  0.323405  0.323405  0.678635  1
  Te  Te18  1  0.812067  0.812067  0.180284  1
  Te  Te19  1  0.171206  0.171206  0.804342  1
  Te  Te20  1  0.673135  0.673135  0.271214  1
  Pb  Pb21  1  0.959317  0.959317  0.164032  1
  Pb  Pb22  1  0.458393  0.458393  0.664156  1
  Pb  Pb23  1  0.529867  0.529867  0.375872  1
