# generated using pymatgen
data_LiCe6(MnC4)3
_symmetry_space_group_name_H-M   'P 1'
_cell_length_a   8.24244500
_cell_length_b   8.24244373
_cell_length_c   5.11826600
_cell_angle_alpha   90.00000000
_cell_angle_beta   90.00000000
_cell_angle_gamma   120.00000912
_symmetry_Int_Tables_number   1
_chemical_formula_structural   LiCe6(MnC4)3
_chemical_formula_sum   'Li1 Ce6 Mn3 C12'
_cell_volume   301.13795245
_cell_formula_units_Z   1
loop_
 _symmetry_equiv_pos_site_id
 _symmetry_equiv_pos_as_xyz
  1  'x, y, z'
loop_
 _atom_site_type_symbol
 _atom_site_label
 _atom_site_symmetry_multiplicity
 _atom_site_fract_x
 _atom_site_fract_y
 _atom_site_fract_z
 _atom_site_occupancy
  Li  Li0  1  0.000000  0.000000  0.500000  1
  Ce  Ce1  1  0.626502  0.689712  0.745563  1
  Ce  Ce2  1  0.936790  0.626502  0.254437  1
  Ce  Ce3  1  0.689712  0.063210  0.254437  1
  Ce  Ce4  1  0.310288  0.936790  0.745563  1
  Ce  Ce5  1  0.063210  0.373498  0.745563  1
  Ce  Ce6  1  0.373498  0.310288  0.254437  1
  Mn  Mn7  1  0.000000  0.000000  0.000000  1
  Mn  Mn8  1  0.666667  0.333333  0.750351  1
  Mn  Mn9  1  0.333333  0.666667  0.249649  1
  C  C10  1  0.966339  0.765119  0.766776  1
  C  C11  1  0.201222  0.966339  0.233224  1
  C  C12  1  0.765119  0.798778  0.233224  1
  C  C13  1  0.234881  0.201222  0.766776  1
  C  C14  1  0.798778  0.033661  0.766776  1
  C  C15  1  0.033661  0.234881  0.233224  1
  C  C16  1  0.860444  0.573112  0.759426  1
  C  C17  1  0.287332  0.860444  0.240574  1
  C  C18  1  0.573112  0.712668  0.240574  1
  C  C19  1  0.426888  0.287332  0.759426  1
  C  C20  1  0.139556  0.426888  0.240574  1
  C  C21  1  0.712668  0.139556  0.759426  1
