# generated using pymatgen
data_LiHf8Ta11Ge16
_symmetry_space_group_name_H-M   'P 1'
_cell_length_a   6.83578979
_cell_length_b   6.93611134
_cell_length_c   13.22206071
_cell_angle_alpha   90.18075344
_cell_angle_beta   90.06742916
_cell_angle_gamma   89.88179570
_symmetry_Int_Tables_number   1
_chemical_formula_structural   LiHf8Ta11Ge16
_chemical_formula_sum   'Li1 Hf8 Ta11 Ge16'
_cell_volume   626.90324727
_cell_formula_units_Z   1
loop_
 _symmetry_equiv_pos_site_id
 _symmetry_equiv_pos_as_xyz
  1  'x, y, z'
loop_
 _atom_site_type_symbol
 _atom_site_label
 _atom_site_symmetry_multiplicity
 _atom_site_fract_x
 _atom_site_fract_y
 _atom_site_fract_z
 _atom_site_occupancy
  Li  Li0  1  0.658502  0.157737  0.627335  1
  Hf  Hf1  1  0.485954  0.674026  0.591876  1
  Hf  Hf2  1  0.985607  0.823518  0.908656  1
  Hf  Hf3  1  0.514997  0.323766  0.090120  1
  Hf  Hf4  1  0.015906  0.176781  0.409906  1
  Hf  Hf5  1  0.513442  0.328455  0.407670  1
  Hf  Hf6  1  0.013852  0.176063  0.090151  1
  Hf  Hf7  1  0.485743  0.672687  0.907906  1
  Hf  Hf8  1  0.993509  0.817524  0.589625  1
  Ta  Ta9  1  0.159233  0.333537  0.873808  1
  Ta  Ta10  1  0.341678  0.835506  0.125192  1
  Ta  Ta11  1  0.839775  0.665573  0.377166  1
  Ta  Ta12  1  0.347035  0.838741  0.376823  1
  Ta  Ta13  1  0.841859  0.665775  0.124434  1
  Ta  Ta14  1  0.651664  0.168491  0.871944  1
  Ta  Ta15  1  0.155973  0.339069  0.624082  1
  Ta  Ta16  1  0.833813  0.494769  0.751046  1
  Ta  Ta17  1  0.329443  0.005776  0.752832  1
  Ta  Ta18  1  0.166278  0.509967  0.249737  1
  Ta  Ta19  1  0.666546  0.991119  0.250718  1
  Ge  Ge20  1  0.689273  0.969893  0.464942  1
  Ge  Ge21  1  0.185551  0.538618  0.039056  1
  Ge  Ge22  1  0.313028  0.036084  0.959652  1
  Ge  Ge23  1  0.807659  0.449099  0.542864  1
  Ge  Ge24  1  0.317280  0.041118  0.543455  1
  Ge  Ge25  1  0.816279  0.459350  0.959903  1
  Ge  Ge26  1  0.684499  0.963210  0.039226  1
  Ge  Ge27  1  0.183839  0.542338  0.460119  1
  Ge  Ge28  1  0.464283  0.383363  0.742346  1
  Ge  Ge29  1  0.955391  0.111240  0.745378  1
  Ge  Ge30  1  0.539935  0.611785  0.250015  1
  Ge  Ge31  1  0.040419  0.889441  0.251798  1
  Ge  Ge32  1  0.690066  0.851556  0.747198  1
  Ge  Ge33  1  0.191124  0.651560  0.751899  1
  Ge  Ge34  1  0.310037  0.154710  0.251148  1
  Ge  Ge35  1  0.810532  0.347756  0.249975  1
