# generated using pymatgen
data_Ca3AlAu5
_symmetry_space_group_name_H-M   'P 1'
_cell_length_a   8.64895429
_cell_length_b   8.64895451
_cell_length_c   8.64895400
_cell_angle_alpha   128.21522507
_cell_angle_beta   126.53167589
_cell_angle_gamma   77.64991942
_symmetry_Int_Tables_number   1
_chemical_formula_structural   Ca3AlAu5
_chemical_formula_sum   'Ca6 Al2 Au10'
_cell_volume   396.05842226
_cell_formula_units_Z   2
loop_
 _symmetry_equiv_pos_site_id
 _symmetry_equiv_pos_as_xyz
  1  'x, y, z'
loop_
 _atom_site_type_symbol
 _atom_site_label
 _atom_site_symmetry_multiplicity
 _atom_site_fract_x
 _atom_site_fract_y
 _atom_site_fract_z
 _atom_site_occupancy
  Ca  Ca0  1  0.835894  0.053465  0.782429  1
  Ca  Ca1  1  0.228964  0.446535  0.782429  1
  Ca  Ca2  1  0.164106  0.946535  0.217571  1
  Ca  Ca3  1  0.376222  0.250000  0.126222  1
  Ca  Ca4  1  0.771036  0.553465  0.217571  1
  Ca  Ca5  1  0.623778  0.750000  0.873778  1
  Al  Al6  1  0.221421  0.750000  0.471421  1
  Al  Al7  1  0.778579  0.250000  0.528579  1
  Au  Au8  1  0.832835  0.601317  0.636006  1
  Au  Au9  1  0.534689  0.303171  0.636006  1
  Au  Au10  1  0.465311  0.101317  0.768482  1
  Au  Au11  1  0.832835  0.196829  0.231518  1
  Au  Au12  1  0.167165  0.398683  0.363994  1
  Au  Au13  1  0.465311  0.696829  0.363994  1
  Au  Au14  1  0.534689  0.898683  0.231518  1
  Au  Au15  1  0.167165  0.803171  0.768482  1
  Au  Au16  1  0.000000  0.000000  0.500000  1
  Au  Au17  1  0.000000  0.500000  0.000000  1
