# generated using pymatgen
data_La6Cr(SiSe7)2
_symmetry_space_group_name_H-M   'P 1'
_cell_length_a   10.80356500
_cell_length_b   10.80356447
_cell_length_c   6.07647500
_cell_angle_alpha   90.00000000
_cell_angle_beta   90.00000000
_cell_angle_gamma   119.99999773
_symmetry_Int_Tables_number   1
_chemical_formula_structural   La6Cr(SiSe7)2
_chemical_formula_sum   'La6 Cr1 Si2 Se14'
_cell_volume   614.20947876
_cell_formula_units_Z   1
loop_
 _symmetry_equiv_pos_site_id
 _symmetry_equiv_pos_as_xyz
  1  'x, y, z'
loop_
 _atom_site_type_symbol
 _atom_site_label
 _atom_site_symmetry_multiplicity
 _atom_site_fract_x
 _atom_site_fract_y
 _atom_site_fract_z
 _atom_site_occupancy
  La  La0  1  0.435694  0.458450  0.749382  1
  La  La1  1  0.022756  0.564306  0.749382  1
  La  La2  1  0.541550  0.977244  0.749382  1
  La  La3  1  0.895887  0.207073  0.248476  1
  La  La4  1  0.311186  0.104113  0.248476  1
  La  La5  1  0.792927  0.688814  0.248476  1
  Cr  Cr6  1  0.666667  0.333333  0.514617  1
  Si  Si7  1  0.333333  0.666667  0.165188  1
  Si  Si8  1  0.000000  0.000000  0.659580  1
  Se  Se9  1  0.333333  0.666667  0.537361  1
  Se  Se10  1  0.000000  0.000000  0.031977  1
  Se  Se11  1  0.510697  0.419457  0.275897  1
  Se  Se12  1  0.908761  0.489303  0.275897  1
  Se  Se13  1  0.580543  0.091239  0.275897  1
  Se  Se14  1  0.825012  0.249861  0.748890  1
  Se  Se15  1  0.424849  0.174988  0.748890  1
  Se  Se16  1  0.750139  0.575151  0.748890  1
  Se  Se17  1  0.557791  0.745373  0.020090  1
  Se  Se18  1  0.187583  0.442209  0.020090  1
  Se  Se19  1  0.254627  0.812417  0.020090  1
  Se  Se20  1  0.775255  0.919507  0.515451  1
  Se  Se21  1  0.144252  0.224745  0.515451  1
  Se  Se22  1  0.080493  0.855748  0.515451  1
