# generated using pymatgen
data_Tb2DyY(Al3Ir)6
_symmetry_space_group_name_H-M   'P 1'
_cell_length_a   7.55541941
_cell_length_b   7.55564157
_cell_length_c   9.48833300
_cell_angle_alpha   90.00000000
_cell_angle_beta   90.00000000
_cell_angle_gamma   119.52921151
_symmetry_Int_Tables_number   1
_chemical_formula_structural   Tb2DyY(Al3Ir)6
_chemical_formula_sum   'Tb2 Dy1 Y1 Al18 Ir6'
_cell_volume   471.29330595
_cell_formula_units_Z   1
loop_
 _symmetry_equiv_pos_site_id
 _symmetry_equiv_pos_as_xyz
  1  'x, y, z'
loop_
 _atom_site_type_symbol
 _atom_site_label
 _atom_site_symmetry_multiplicity
 _atom_site_fract_x
 _atom_site_fract_y
 _atom_site_fract_z
 _atom_site_occupancy
  Tb  Tb0  1  0.005426  0.328782  0.250000  1
  Tb  Tb1  1  0.671201  0.994557  0.750000  1
  Dy  Dy2  1  0.328743  0.005351  0.250000  1
  Y  Y3  1  0.994535  0.671110  0.750000  1
  Al  Al4  1  0.129256  0.129356  0.750000  1
  Al  Al5  1  0.870753  0.870676  0.250000  1
  Al  Al6  1  0.001211  0.335307  0.573685  1
  Al  Al7  1  0.998996  0.664953  0.426039  1
  Al  Al8  1  0.998996  0.664953  0.073961  1
  Al  Al9  1  0.335094  0.001110  0.926453  1
  Al  Al10  1  0.001211  0.335307  0.926315  1
  Al  Al11  1  0.664627  0.998853  0.073953  1
  Al  Al12  1  0.664627  0.998853  0.426047  1
  Al  Al13  1  0.335094  0.001110  0.573547  1
  Al  Al14  1  0.333478  0.333332  0.051186  1
  Al  Al15  1  0.666626  0.666539  0.949167  1
  Al  Al16  1  0.666626  0.666539  0.550833  1
  Al  Al17  1  0.333478  0.333332  0.448814  1
  Al  Al18  1  0.339415  0.547905  0.750000  1
  Al  Al19  1  0.660520  0.451953  0.250000  1
  Al  Al20  1  0.547812  0.339149  0.750000  1
  Al  Al21  1  0.452130  0.660827  0.250000  1
  Ir  Ir22  1  0.671840  0.328085  0.499952  1
  Ir  Ir23  1  0.328096  0.671991  0.499934  1
  Ir  Ir24  1  0.328096  0.671991  0.000066  1
  Ir  Ir25  1  0.671840  0.328085  0.000048  1
  Ir  Ir26  1  0.000136  0.999998  0.499905  1
  Ir  Ir27  1  0.000136  0.999998  0.000095  1
