# generated using pymatgen
data_Ba4Ag3Pb4Au
_symmetry_space_group_name_H-M   'P 1'
_cell_length_a   5.23498200
_cell_length_b   8.89379000
_cell_length_c   25.07385111
_cell_angle_alpha   90.00716939
_cell_angle_beta   90.00000000
_cell_angle_gamma   90.00000000
_symmetry_Int_Tables_number   1
_chemical_formula_structural   Ba4Ag3Pb4Au
_chemical_formula_sum   'Ba12 Ag9 Pb12 Au3'
_cell_volume   1167.40917685
_cell_formula_units_Z   3
loop_
 _symmetry_equiv_pos_site_id
 _symmetry_equiv_pos_as_xyz
  1  'x, y, z'
loop_
 _atom_site_type_symbol
 _atom_site_label
 _atom_site_symmetry_multiplicity
 _atom_site_fract_x
 _atom_site_fract_y
 _atom_site_fract_z
 _atom_site_occupancy
  Ba  Ba0  1  0.750000  0.216066  0.498617  1
  Ba  Ba1  1  0.250000  0.788601  0.167524  1
  Ba  Ba2  1  0.250000  0.783928  0.501427  1
  Ba  Ba3  1  0.250000  0.794090  0.833783  1
  Ba  Ba4  1  0.250000  0.711865  0.332365  1
  Ba  Ba5  1  0.750000  0.209408  0.834568  1
  Ba  Ba6  1  0.750000  0.285566  0.998467  1
  Ba  Ba7  1  0.750000  0.290619  0.666901  1
  Ba  Ba8  1  0.750000  0.286455  0.333594  1
  Ba  Ba9  1  0.250000  0.711162  0.666602  1
  Ba  Ba10  1  0.250000  0.713168  0.002391  1
  Ba  Ba11  1  0.750000  0.208422  0.166337  1
  Ag  Ag12  1  0.250000  0.084407  0.596099  1
  Ag  Ag13  1  0.250000  0.087148  0.736708  1
  Ag  Ag14  1  0.750000  0.584511  0.903826  1
  Ag  Ag15  1  0.750000  0.916101  0.403896  1
  Ag  Ag16  1  0.750000  0.582065  0.565086  1
  Ag  Ag17  1  0.750000  0.587210  0.763530  1
  Ag  Ag18  1  0.250000  0.418228  0.434711  1
  Ag  Ag19  1  0.250000  0.413883  0.236554  1
  Ag  Ag20  1  0.750000  0.917338  0.064785  1
  Pb  Pb21  1  0.250000  0.414225  0.566195  1
  Pb  Pb22  1  0.250000  0.084022  0.399241  1
  Pb  Pb23  1  0.250000  0.085887  0.065640  1
  Pb  Pb24  1  0.250000  0.415639  0.898448  1
  Pb  Pb25  1  0.750000  0.581168  0.102850  1
  Pb  Pb26  1  0.250000  0.419992  0.769348  1
  Pb  Pb27  1  0.750000  0.581895  0.231936  1
  Pb  Pb28  1  0.750000  0.585276  0.433324  1
  Pb  Pb29  1  0.750000  0.915677  0.936139  1
  Pb  Pb30  1  0.250000  0.080144  0.269540  1
  Pb  Pb31  1  0.750000  0.916092  0.601840  1
  Pb  Pb32  1  0.750000  0.918819  0.731163  1
  Au  Au33  1  0.250000  0.415074  0.093788  1
  Au  Au34  1  0.250000  0.081098  0.932776  1
  Au  Au35  1  0.750000  0.914749  0.259998  1
