# generated using pymatgen
data_Tb3Tm9Co5Pb
_symmetry_space_group_name_H-M   'P 1'
_cell_length_a   8.21706034
_cell_length_b   8.21706037
_cell_length_c   8.21431836
_cell_angle_alpha   110.94665027
_cell_angle_beta   110.54319603
_cell_angle_gamma   106.96721138
_symmetry_Int_Tables_number   1
_chemical_formula_structural   Tb3Tm9Co5Pb
_chemical_formula_sum   'Tb3 Tm9 Co5 Pb1'
_cell_volume   426.26366768
_cell_formula_units_Z   1
loop_
 _symmetry_equiv_pos_site_id
 _symmetry_equiv_pos_as_xyz
  1  'x, y, z'
loop_
 _atom_site_type_symbol
 _atom_site_label
 _atom_site_symmetry_multiplicity
 _atom_site_fract_x
 _atom_site_fract_y
 _atom_site_fract_z
 _atom_site_occupancy
  Tb  Tb0  1  0.288051  0.185390  0.473441  1
  Tb  Tb1  1  0.712619  0.815584  0.528203  1
  Tb  Tb2  1  0.287201  0.813470  0.100670  1
  Tm  Tm3  1  0.713223  0.185754  0.898978  1
  Tm  Tm4  1  0.621302  0.312960  0.306508  1
  Tm  Tm5  1  0.379330  0.687591  0.692900  1
  Tm  Tm6  1  0.005309  0.313571  0.692900  1
  Tm  Tm7  1  0.993549  0.685207  0.306508  1
  Tm  Tm8  1  0.209253  0.403519  0.192893  1
  Tm  Tm9  1  0.789297  0.594914  0.806385  1
  Tm  Tm10  1  0.211472  0.017088  0.806385  1
  Tm  Tm11  1  0.789373  0.983639  0.192893  1
  Co  Co12  1  0.999453  0.375573  0.375026  1
  Co  Co13  1  0.999606  0.624079  0.623684  1
  Co  Co14  1  0.388181  0.888176  0.501718  1
  Co  Co15  1  0.613542  0.113537  0.501718  1
  Co  Co16  1  0.999169  0.000046  0.999214  1
  Pb  Pb17  1  0.500071  0.499904  0.999975  1
