# generated using pymatgen
data_Ca6ZrGa6Sn(SbO12)2
_symmetry_space_group_name_H-M   'P 1'
_cell_length_a   11.01011245
_cell_length_b   11.01011282
_cell_length_c   11.01011300
_cell_angle_alpha   109.44553665
_cell_angle_beta   109.44553181
_cell_angle_gamma   109.52260707
_symmetry_Int_Tables_number   1
_chemical_formula_structural   Ca6ZrGa6Sn(SbO12)2
_chemical_formula_sum   'Ca12 Zr2 Ga12 Sn2 Sb4 O48'
_cell_volume   1027.43212265
_cell_formula_units_Z   2
loop_
 _symmetry_equiv_pos_site_id
 _symmetry_equiv_pos_as_xyz
  1  'x, y, z'
loop_
 _atom_site_type_symbol
 _atom_site_label
 _atom_site_symmetry_multiplicity
 _atom_site_fract_x
 _atom_site_fract_y
 _atom_site_fract_z
 _atom_site_occupancy
  Ca  Ca0  1  0.242413  0.371445  0.120849  1
  Ca  Ca1  1  0.757587  0.628555  0.879151  1
  Ca  Ca2  1  0.751053  0.121704  0.379251  1
  Ca  Ca3  1  0.121448  0.242123  0.370593  1
  Ca  Ca4  1  0.371745  0.750807  0.128982  1
  Ca  Ca5  1  0.248947  0.878296  0.620749  1
  Ca  Ca6  1  0.878552  0.757877  0.629407  1
  Ca  Ca7  1  0.628255  0.249193  0.871018  1
  Ca  Ca8  1  0.372390  0.122438  0.249520  1
  Ca  Ca9  1  0.627610  0.877562  0.750480  1
  Ca  Ca10  1  0.122659  0.372424  0.749771  1
  Ca  Ca11  1  0.877341  0.627576  0.250229  1
  Zr  Zr12  1  0.500000  0.000000  0.500000  1
  Zr  Zr13  1  0.000000  0.500000  0.000000  1
  Ga  Ga14  1  0.254719  0.624858  0.379742  1
  Ga  Ga15  1  0.745281  0.375142  0.620258  1
  Ga  Ga16  1  0.748809  0.876245  0.122566  1
  Ga  Ga17  1  0.373066  0.252667  0.629148  1
  Ga  Ga18  1  0.626934  0.747333  0.370852  1
  Ga  Ga19  1  0.251191  0.123755  0.877434  1
  Ga  Ga20  1  0.125240  0.747685  0.871865  1
  Ga  Ga21  1  0.874760  0.252315  0.128135  1
  Ga  Ga22  1  0.625065  0.374907  0.249981  1
  Ga  Ga23  1  0.374935  0.625093  0.750019  1
  Ga  Ga24  1  0.877305  0.123647  0.750959  1
  Ga  Ga25  1  0.122695  0.876353  0.249041  1
  Sn  Sn26  1  0.000000  0.000000  0.000000  1
  Sn  Sn27  1  0.000000  0.000000  0.500000  1
  Sb  Sb28  1  0.000000  0.500000  0.500000  1
  Sb  Sb29  1  0.500000  0.000000  0.000000  1
  Sb  Sb30  1  0.500000  0.500000  0.000000  1
  Sb  Sb31  1  0.500000  0.500000  0.500000  1
  O  O32  1  0.481382  0.380878  0.303288  1
  O  O33  1  0.518618  0.619122  0.696712  1
  O  O34  1  0.577665  0.177915  0.196544  1
  O  O35  1  0.915817  0.122289  0.597201  1
  O  O36  1  0.301137  0.474798  0.380888  1
  O  O37  1  0.314884  0.914603  0.291327  1
  O  O38  1  0.422335  0.822085  0.803456  1
  O  O39  1  0.084183  0.877711  0.402799  1
  O  O40  1  0.698863  0.525202  0.619112  1
  O  O41  1  0.685116  0.085397  0.708673  1
  O  O42  1  0.025615  0.316536  0.901494  1
  O  O43  1  0.206520  0.582990  0.187398  1
  O  O44  1  0.123179  0.027137  0.206849  1
  O  O45  1  0.974385  0.683464  0.098506  1
  O  O46  1  0.793480  0.417010  0.812602  1
  O  O47  1  0.876821  0.972863  0.793151  1
  O  O48  1  0.595680  0.920596  0.119018  1
  O  O49  1  0.178134  0.481466  0.600360  1
  O  O50  1  0.404320  0.079404  0.880982  1
  O  O51  1  0.821866  0.518534  0.399640  1
  O  O52  1  0.897473  0.020936  0.315849  1
  O  O53  1  0.380892  0.577483  0.899614  1
  O  O54  1  0.102527  0.979064  0.684151  1
  O  O55  1  0.619108  0.422517  0.100386  1
  O  O56  1  0.384174  0.303759  0.482911  1
  O  O57  1  0.582666  0.895911  0.376200  1
  O  O58  1  0.615826  0.696241  0.517089  1
  O  O59  1  0.417334  0.104089  0.623800  1
  O  O60  1  0.126177  0.600751  0.916741  1
  O  O61  1  0.020335  0.205152  0.123173  1
  O  O62  1  0.873823  0.399249  0.083259  1
  O  O63  1  0.979665  0.794848  0.876827  1
  O  O64  1  0.322452  0.902686  0.018651  1
  O  O65  1  0.920604  0.301123  0.325600  1
  O  O66  1  0.677548  0.097314  0.981349  1
  O  O67  1  0.079396  0.698877  0.674400  1
  O  O68  1  0.180256  0.208011  0.581714  1
  O  O69  1  0.475979  0.594616  0.174366  1
  O  O70  1  0.819744  0.791989  0.418286  1
  O  O71  1  0.524021  0.405384  0.825634  1
  O  O72  1  0.303837  0.321657  0.919985  1
  O  O73  1  0.696163  0.678343  0.080015  1
  O  O74  1  0.207650  0.125778  0.026421  1
  O  O75  1  0.792350  0.874222  0.973579  1
  O  O76  1  0.902285  0.384375  0.580653  1
  O  O77  1  0.097715  0.615625  0.419347  1
  O  O78  1  0.599931  0.183096  0.473242  1
  O  O79  1  0.400069  0.816904  0.526758  1
