# generated using pymatgen
data_Ho8Ga12Cu3Au
_symmetry_space_group_name_H-M   'P 1'
_cell_length_a   7.09151700
_cell_length_b   8.86645451
_cell_length_c   8.86645500
_cell_angle_alpha   119.99999808
_cell_angle_beta   90.00000000
_cell_angle_gamma   90.00000000
_symmetry_Int_Tables_number   1
_chemical_formula_structural   Ho8Ga12Cu3Au
_chemical_formula_sum   'Ho8 Ga12 Cu3 Au1'
_cell_volume   482.80281448
_cell_formula_units_Z   1
loop_
 _symmetry_equiv_pos_site_id
 _symmetry_equiv_pos_as_xyz
  1  'x, y, z'
loop_
 _atom_site_type_symbol
 _atom_site_label
 _atom_site_symmetry_multiplicity
 _atom_site_fract_x
 _atom_site_fract_y
 _atom_site_fract_z
 _atom_site_occupancy
  Ho  Ho0  1  0.754983  0.000000  0.000000  1
  Ho  Ho1  1  0.252241  0.000000  0.000000  1
  Ho  Ho2  1  0.749208  0.485820  0.514180  1
  Ho  Ho3  1  0.247050  0.512960  0.487040  1
  Ho  Ho4  1  0.749208  0.028361  0.514180  1
  Ho  Ho5  1  0.247050  0.974079  0.487040  1
  Ho  Ho6  1  0.749208  0.485820  0.971639  1
  Ho  Ho7  1  0.247050  0.512960  0.025921  1
  Ga  Ga8  1  0.970394  0.829807  0.170193  1
  Ga  Ga9  1  0.032117  0.169371  0.830629  1
  Ga  Ga10  1  0.970394  0.340387  0.170193  1
  Ga  Ga11  1  0.466650  0.171358  0.828642  1
  Ga  Ga12  1  0.032117  0.661256  0.830629  1
  Ga  Ga13  1  0.534103  0.836272  0.163728  1
  Ga  Ga14  1  0.970394  0.829807  0.659613  1
  Ga  Ga15  1  0.466650  0.657284  0.828642  1
  Ga  Ga16  1  0.032117  0.169371  0.338744  1
  Ga  Ga17  1  0.534103  0.327455  0.163728  1
  Ga  Ga18  1  0.466650  0.171358  0.342716  1
  Ga  Ga19  1  0.534103  0.836272  0.672545  1
  Cu  Cu20  1  0.956811  0.666667  0.333333  1
  Cu  Cu21  1  0.038272  0.333333  0.666667  1
  Cu  Cu22  1  0.464439  0.333333  0.666667  1
  Au  Au23  1  0.534683  0.666667  0.333333  1
