# generated using pymatgen
data_Ho16Mg2InAgIr4
_symmetry_space_group_name_H-M   'P 1'
_cell_length_a   9.62211127
_cell_length_b   9.60736668
_cell_length_c   9.66390300
_cell_angle_alpha   59.80514799
_cell_angle_beta   59.85622389
_cell_angle_gamma   59.66960784
_symmetry_Int_Tables_number   1
_chemical_formula_structural   Ho16Mg2InAgIr4
_chemical_formula_sum   'Ho16 Mg2 In1 Ag1 Ir4'
_cell_volume   628.50008264
_cell_formula_units_Z   1
loop_
 _symmetry_equiv_pos_site_id
 _symmetry_equiv_pos_as_xyz
  1  'x, y, z'
loop_
 _atom_site_type_symbol
 _atom_site_label
 _atom_site_symmetry_multiplicity
 _atom_site_fract_x
 _atom_site_fract_y
 _atom_site_fract_z
 _atom_site_occupancy
  Ho  Ho0  1  0.437099  0.435902  0.063500  1
  Ho  Ho1  1  0.651288  0.650458  0.046674  1
  Ho  Ho2  1  0.187773  0.813076  0.188358  1
  Ho  Ho3  1  0.062601  0.435639  0.064275  1
  Ho  Ho4  1  0.187773  0.813076  0.810792  1
  Ho  Ho5  1  0.062601  0.435639  0.437485  1
  Ho  Ho6  1  0.811010  0.190332  0.190209  1
  Ho  Ho7  1  0.651288  0.650458  0.651583  1
  Ho  Ho8  1  0.811010  0.190332  0.808449  1
  Ho  Ho9  1  0.187412  0.187880  0.812354  1
  Ho  Ho10  1  0.040063  0.651871  0.654033  1
  Ho  Ho11  1  0.439401  0.057367  0.065306  1
  Ho  Ho12  1  0.069728  0.054956  0.437658  1
  Ho  Ho13  1  0.653058  0.043368  0.651788  1
  Ho  Ho14  1  0.808864  0.807741  0.191698  1
  Ho  Ho15  1  0.439401  0.057367  0.437927  1
  Mg  Mg16  1  0.422765  0.429563  0.418685  1
  Mg  Mg17  1  0.422765  0.429563  0.728987  1
  In  In18  1  0.746880  0.419630  0.416746  1
  Ag  Ag19  1  0.414359  0.751131  0.417256  1
  Ir  Ir20  1  0.424971  0.856286  0.859371  1
  Ir  Ir21  1  0.856048  0.857476  0.861332  1
  Ir  Ir22  1  0.855795  0.423417  0.860394  1
  Ir  Ir23  1  0.856048  0.857476  0.425142  1
