# generated using pymatgen
data_Ho4Al4Pd3Ru
_symmetry_space_group_name_H-M   'P 1'
_cell_length_a   4.33556500
_cell_length_b   6.89238261
_cell_length_c   7.88142580
_cell_angle_alpha   89.90186404
_cell_angle_beta   90.00000000
_cell_angle_gamma   90.00000000
_symmetry_Int_Tables_number   1
_chemical_formula_structural   Ho4Al4Pd3Ru
_chemical_formula_sum   'Ho4 Al4 Pd3 Ru1'
_cell_volume   235.51535849
_cell_formula_units_Z   1
loop_
 _symmetry_equiv_pos_site_id
 _symmetry_equiv_pos_as_xyz
  1  'x, y, z'
loop_
 _atom_site_type_symbol
 _atom_site_label
 _atom_site_symmetry_multiplicity
 _atom_site_fract_x
 _atom_site_fract_y
 _atom_site_fract_z
 _atom_site_occupancy
  Ho  Ho0  1  0.250000  0.035619  0.677845  1
  Ho  Ho1  1  0.250000  0.531727  0.819528  1
  Ho  Ho2  1  0.750000  0.978446  0.321247  1
  Ho  Ho3  1  0.750000  0.464455  0.185086  1
  Al  Al4  1  0.250000  0.145669  0.063756  1
  Al  Al5  1  0.250000  0.635311  0.437105  1
  Al  Al6  1  0.750000  0.857598  0.938293  1
  Al  Al7  1  0.750000  0.355303  0.558722  1
  Pd  Pd8  1  0.250000  0.773285  0.117699  1
  Pd  Pd9  1  0.750000  0.729225  0.620034  1
  Pd  Pd10  1  0.750000  0.229879  0.879745  1
  Ru  Ru11  1  0.250000  0.263482  0.380941  1
