# generated using pymatgen
data_TbLu4CoSb2
_symmetry_space_group_name_H-M   'P 1'
_cell_length_a   7.71901100
_cell_length_b   8.74356900
_cell_length_c   11.98799500
_cell_angle_alpha   90.00000000
_cell_angle_beta   90.00000000
_cell_angle_gamma   90.00000000
_symmetry_Int_Tables_number   1
_chemical_formula_structural   TbLu4CoSb2
_chemical_formula_sum   'Tb4 Lu16 Co4 Sb8'
_cell_volume   809.09022556
_cell_formula_units_Z   4
loop_
 _symmetry_equiv_pos_site_id
 _symmetry_equiv_pos_as_xyz
  1  'x, y, z'
loop_
 _atom_site_type_symbol
 _atom_site_label
 _atom_site_symmetry_multiplicity
 _atom_site_fract_x
 _atom_site_fract_y
 _atom_site_fract_z
 _atom_site_occupancy
  Tb  Tb0  1  0.622181  0.750000  0.306800  1
  Tb  Tb1  1  0.122181  0.250000  0.193200  1
  Tb  Tb2  1  0.377819  0.250000  0.693200  1
  Tb  Tb3  1  0.877819  0.750000  0.806800  1
  Lu  Lu4  1  0.154708  0.750000  0.203683  1
  Lu  Lu5  1  0.654708  0.250000  0.296317  1
  Lu  Lu6  1  0.845292  0.250000  0.796317  1
  Lu  Lu7  1  0.345292  0.750000  0.703683  1
  Lu  Lu8  1  0.447204  0.750000  0.997608  1
  Lu  Lu9  1  0.947204  0.250000  0.502392  1
  Lu  Lu10  1  0.552796  0.250000  0.002392  1
  Lu  Lu11  1  0.052796  0.750000  0.497608  1
  Lu  Lu12  1  0.823577  0.962230  0.065237  1
  Lu  Lu13  1  0.323577  0.037770  0.434763  1
  Lu  Lu14  1  0.176423  0.462230  0.934763  1
  Lu  Lu15  1  0.676423  0.537770  0.565237  1
  Lu  Lu16  1  0.176423  0.037770  0.934763  1
  Lu  Lu17  1  0.676423  0.962230  0.565237  1
  Lu  Lu18  1  0.823577  0.537770  0.065237  1
  Lu  Lu19  1  0.323577  0.462230  0.434763  1
  Co  Co20  1  0.430971  0.750000  0.491431  1
  Co  Co21  1  0.930971  0.250000  0.008569  1
  Co  Co22  1  0.569029  0.250000  0.508569  1
  Co  Co23  1  0.069029  0.750000  0.991431  1
  Sb  Sb24  1  0.930979  0.991554  0.329133  1
  Sb  Sb25  1  0.430979  0.008446  0.170867  1
  Sb  Sb26  1  0.069021  0.491554  0.670867  1
  Sb  Sb27  1  0.569021  0.508446  0.829133  1
  Sb  Sb28  1  0.069021  0.008446  0.670867  1
  Sb  Sb29  1  0.569021  0.991554  0.829133  1
  Sb  Sb30  1  0.930979  0.508446  0.329133  1
  Sb  Sb31  1  0.430979  0.491554  0.170867  1
