# generated using pymatgen
data_Dy2AlSi13Ir6
_symmetry_space_group_name_H-M   'P 1'
_cell_length_a   8.03041592
_cell_length_b   8.03041568
_cell_length_c   8.03041525
_cell_angle_alpha   57.03010384
_cell_angle_beta   57.03010415
_cell_angle_gamma   57.03009975
_symmetry_Int_Tables_number   1
_chemical_formula_structural   Dy2AlSi13Ir6
_chemical_formula_sum   'Dy2 Al1 Si13 Ir6'
_cell_volume   341.11158910
_cell_formula_units_Z   1
loop_
 _symmetry_equiv_pos_site_id
 _symmetry_equiv_pos_as_xyz
  1  'x, y, z'
loop_
 _atom_site_type_symbol
 _atom_site_label
 _atom_site_symmetry_multiplicity
 _atom_site_fract_x
 _atom_site_fract_y
 _atom_site_fract_z
 _atom_site_occupancy
  Dy  Dy0  1  0.999406  0.999406  0.999406  1
  Dy  Dy1  1  0.500594  0.500594  0.500594  1
  Al  Al2  1  0.750000  0.750000  0.750000  1
  Si  Si3  1  0.250000  0.250000  0.250000  1
  Si  Si4  1  0.850197  0.064503  0.671145  1
  Si  Si5  1  0.671145  0.850197  0.064503  1
  Si  Si6  1  0.064503  0.671145  0.850197  1
  Si  Si7  1  0.649803  0.828855  0.435497  1
  Si  Si8  1  0.435497  0.649803  0.828855  1
  Si  Si9  1  0.828855  0.435497  0.649803  1
  Si  Si10  1  0.169913  0.561894  0.355926  1
  Si  Si11  1  0.561894  0.355926  0.169913  1
  Si  Si12  1  0.355926  0.169913  0.561894  1
  Si  Si13  1  0.938106  0.330087  0.144074  1
  Si  Si14  1  0.330087  0.144074  0.938106  1
  Si  Si15  1  0.144074  0.938106  0.330087  1
  Ir  Ir16  1  0.080750  0.419250  0.750000  1
  Ir  Ir17  1  0.250000  0.928670  0.571330  1
  Ir  Ir18  1  0.571330  0.250000  0.928670  1
  Ir  Ir19  1  0.928670  0.571330  0.250000  1
  Ir  Ir20  1  0.419250  0.750000  0.080750  1
  Ir  Ir21  1  0.750000  0.080750  0.419250  1
