# generated using pymatgen
data_Pr4SnB4Rh9
_symmetry_space_group_name_H-M   'P 1'
_cell_length_a   5.62866703
_cell_length_b   5.62866870
_cell_length_c   21.03532500
_cell_angle_alpha   90.00000000
_cell_angle_beta   90.00000000
_cell_angle_gamma   119.99399595
_symmetry_Int_Tables_number   1
_chemical_formula_structural   Pr4SnB4Rh9
_chemical_formula_sum   'Pr8 Sn2 B8 Rh18'
_cell_volume   577.18810870
_cell_formula_units_Z   2
loop_
 _symmetry_equiv_pos_site_id
 _symmetry_equiv_pos_as_xyz
  1  'x, y, z'
loop_
 _atom_site_type_symbol
 _atom_site_label
 _atom_site_symmetry_multiplicity
 _atom_site_fract_x
 _atom_site_fract_y
 _atom_site_fract_z
 _atom_site_occupancy
  Pr  Pr0  1  0.666662  0.333338  0.525060  1
  Pr  Pr1  1  0.333338  0.666662  0.474940  1
  Pr  Pr2  1  0.333338  0.666662  0.025060  1
  Pr  Pr3  1  0.666662  0.333338  0.974940  1
  Pr  Pr4  1  0.666752  0.333248  0.674764  1
  Pr  Pr5  1  0.333248  0.666752  0.325236  1
  Pr  Pr6  1  0.333248  0.666752  0.174764  1
  Pr  Pr7  1  0.666752  0.333248  0.825236  1
  Sn  Sn8  1  0.000000  0.000000  0.500000  1
  Sn  Sn9  1  0.000000  0.000000  0.000000  1
  B  B10  1  0.000049  0.999951  0.676072  1
  B  B11  1  0.999951  0.000049  0.323928  1
  B  B12  1  0.999951  0.000049  0.176072  1
  B  B13  1  0.000049  0.999951  0.823928  1
  B  B14  1  0.666591  0.333409  0.324637  1
  B  B15  1  0.333409  0.666591  0.675363  1
  B  B16  1  0.333409  0.666591  0.824637  1
  B  B17  1  0.666591  0.333409  0.175363  1
  Rh  Rh18  1  0.167075  0.333970  0.750000  1
  Rh  Rh19  1  0.167085  0.832915  0.750000  1
  Rh  Rh20  1  0.666030  0.832925  0.750000  1
  Rh  Rh21  1  0.832925  0.666030  0.250000  1
  Rh  Rh22  1  0.832915  0.167085  0.250000  1
  Rh  Rh23  1  0.333970  0.167075  0.250000  1
  Rh  Rh24  1  0.166673  0.333052  0.609031  1
  Rh  Rh25  1  0.166644  0.833356  0.609020  1
  Rh  Rh26  1  0.666948  0.833327  0.609031  1
  Rh  Rh27  1  0.833327  0.666948  0.390969  1
  Rh  Rh28  1  0.833356  0.166644  0.390980  1
  Rh  Rh29  1  0.333052  0.166673  0.390969  1
  Rh  Rh30  1  0.833327  0.666948  0.109031  1
  Rh  Rh31  1  0.833356  0.166644  0.109020  1
  Rh  Rh32  1  0.333052  0.166673  0.109031  1
  Rh  Rh33  1  0.166673  0.333052  0.890969  1
  Rh  Rh34  1  0.166644  0.833356  0.890980  1
  Rh  Rh35  1  0.666948  0.833327  0.890969  1
