# generated using pymatgen
data_AcGa4Ni9
_symmetry_space_group_name_H-M   'P 1'
_cell_length_a   8.20967484
_cell_length_b   8.20967583
_cell_length_c   8.20967598
_cell_angle_alpha   120.85433002
_cell_angle_beta   120.85433959
_cell_angle_gamma   88.52651122
_symmetry_Int_Tables_number   1
_chemical_formula_structural   AcGa4Ni9
_chemical_formula_sum   'Ac2 Ga8 Ni18'
_cell_volume   386.06682986
_cell_formula_units_Z   2
loop_
 _symmetry_equiv_pos_site_id
 _symmetry_equiv_pos_as_xyz
  1  'x, y, z'
loop_
 _atom_site_type_symbol
 _atom_site_label
 _atom_site_symmetry_multiplicity
 _atom_site_fract_x
 _atom_site_fract_y
 _atom_site_fract_z
 _atom_site_occupancy
  Ac  Ac0  1  0.750000  0.750000  0.000000  1
  Ac  Ac1  1  0.250000  0.250000  0.000000  1
  Ga  Ga2  1  0.798817  0.298816  0.856727  1
  Ga  Ga3  1  0.442089  0.942090  0.143274  1
  Ga  Ga4  1  0.701185  0.557911  0.500000  1
  Ga  Ga5  1  0.057910  0.201184  0.500000  1
  Ga  Ga6  1  0.201185  0.701185  0.143274  1
  Ga  Ga7  1  0.557910  0.057910  0.856727  1
  Ga  Ga8  1  0.942090  0.798816  0.500000  1
  Ga  Ga9  1  0.298816  0.442090  0.500000  1
  Ni  Ni10  1  0.205201  0.065379  0.270579  1
  Ni  Ni11  1  0.794797  0.934622  0.729422  1
  Ni  Ni12  1  0.294798  0.565378  0.860175  1
  Ni  Ni13  1  0.705200  0.434621  0.139824  1
  Ni  Ni14  1  0.434623  0.294798  0.729422  1
  Ni  Ni15  1  0.565378  0.705200  0.270579  1
  Ni  Ni16  1  0.934622  0.205201  0.139826  1
  Ni  Ni17  1  0.065379  0.794798  0.860176  1
  Ni  Ni18  1  0.499999  0.000000  0.499999  1
  Ni  Ni19  1  0.000000  0.499999  0.499999  1
  Ni  Ni20  1  0.294670  0.794669  0.732858  1
  Ni  Ni21  1  0.061811  0.561812  0.267143  1
  Ni  Ni22  1  0.205331  0.938189  0.499999  1
  Ni  Ni23  1  0.438190  0.705332  0.500002  1
  Ni  Ni24  1  0.705332  0.205331  0.267143  1
  Ni  Ni25  1  0.938189  0.438190  0.732858  1
  Ni  Ni26  1  0.561812  0.294670  0.500002  1
  Ni  Ni27  1  0.794669  0.061811  0.499999  1
