# generated using pymatgen
data_Ba3Sr2Al7Ga2
_symmetry_space_group_name_H-M   'P 1'
_cell_length_a   12.55184175
_cell_length_b   12.55184139
_cell_length_c   12.55184320
_cell_angle_alpha   27.30854126
_cell_angle_beta   27.30853528
_cell_angle_gamma   27.30853435
_symmetry_Int_Tables_number   1
_chemical_formula_structural   Ba3Sr2Al7Ga2
_chemical_formula_sum   'Ba3 Sr2 Al7 Ga2'
_cell_volume   367.28433524
_cell_formula_units_Z   1
loop_
 _symmetry_equiv_pos_site_id
 _symmetry_equiv_pos_as_xyz
  1  'x, y, z'
loop_
 _atom_site_type_symbol
 _atom_site_label
 _atom_site_symmetry_multiplicity
 _atom_site_fract_x
 _atom_site_fract_y
 _atom_site_fract_z
 _atom_site_occupancy
  Ba  Ba0  1  0.500000  0.500000  0.500000  1
  Ba  Ba1  1  0.217124  0.217124  0.217124  1
  Ba  Ba2  1  0.782876  0.782876  0.782876  1
  Sr  Sr3  1  0.317608  0.317608  0.317608  1
  Sr  Sr4  1  0.682392  0.682392  0.682392  1
  Al  Al5  1  0.000000  0.000000  0.000000  1
  Al  Al6  1  0.719856  0.235946  0.235946  1
  Al  Al7  1  0.235946  0.235946  0.719856  1
  Al  Al8  1  0.235946  0.719856  0.235946  1
  Al  Al9  1  0.764054  0.280144  0.764054  1
  Al  Al10  1  0.280144  0.764054  0.764054  1
  Al  Al11  1  0.764054  0.764054  0.280144  1
  Ga  Ga12  1  0.120868  0.120868  0.120868  1
  Ga  Ga13  1  0.879132  0.879132  0.879132  1
