# generated using pymatgen
data_Yb2Dy3Pa3(Pt2Pb)4
_symmetry_space_group_name_H-M   'P 1'
_cell_length_a   7.93511821
_cell_length_b   7.94641709
_cell_length_c   7.22231500
_cell_angle_alpha   90.00000000
_cell_angle_beta   90.00000000
_cell_angle_gamma   90.93098009
_symmetry_Int_Tables_number   1
_chemical_formula_structural   Yb2Dy3Pa3(Pt2Pb)4
_chemical_formula_sum   'Yb2 Dy3 Pa3 Pt8 Pb4'
_cell_volume   455.34843667
_cell_formula_units_Z   1
loop_
 _symmetry_equiv_pos_site_id
 _symmetry_equiv_pos_as_xyz
  1  'x, y, z'
loop_
 _atom_site_type_symbol
 _atom_site_label
 _atom_site_symmetry_multiplicity
 _atom_site_fract_x
 _atom_site_fract_y
 _atom_site_fract_z
 _atom_site_occupancy
  Yb  Yb0  1  0.657456  0.660944  0.500000  1
  Yb  Yb1  1  0.176347  0.823324  0.500000  1
  Dy  Dy2  1  0.341329  0.344442  0.500000  1
  Dy  Dy3  1  0.840611  0.159312  0.000000  1
  Dy  Dy4  1  0.158266  0.840863  0.000000  1
  Pa  Pa5  1  0.677811  0.675680  0.000000  1
  Pa  Pa6  1  0.826570  0.173023  0.500000  1
  Pa  Pa7  1  0.324885  0.323044  0.000000  1
  Pt  Pt8  1  0.865533  0.875265  0.738661  1
  Pt  Pt9  1  0.127812  0.135545  0.737449  1
  Pt  Pt10  1  0.632796  0.366044  0.767338  1
  Pt  Pt11  1  0.632796  0.366044  0.232662  1
  Pt  Pt12  1  0.378231  0.619930  0.217936  1
  Pt  Pt13  1  0.127812  0.135545  0.262551  1
  Pt  Pt14  1  0.865533  0.875265  0.261339  1
  Pt  Pt15  1  0.378231  0.619930  0.782064  1
  Pb  Pb16  1  0.493545  0.994724  0.745276  1
  Pb  Pb17  1  0.493545  0.994724  0.254724  1
  Pb  Pb18  1  0.000447  0.508174  0.744221  1
  Pb  Pb19  1  0.000447  0.508174  0.255779  1
