# generated using pymatgen
data_TbY3(Ga3Ir)6
_symmetry_space_group_name_H-M   'P 1'
_cell_length_a   7.60125400
_cell_length_b   7.60131269
_cell_length_c   9.51532700
_cell_angle_alpha   90.00000000
_cell_angle_beta   90.00000000
_cell_angle_gamma   119.94004642
_symmetry_Int_Tables_number   1
_chemical_formula_structural   TbY3(Ga3Ir)6
_chemical_formula_sum   'Tb1 Y3 Ga18 Ir6'
_cell_volume   476.42028792
_cell_formula_units_Z   1
loop_
 _symmetry_equiv_pos_site_id
 _symmetry_equiv_pos_as_xyz
  1  'x, y, z'
loop_
 _atom_site_type_symbol
 _atom_site_label
 _atom_site_symmetry_multiplicity
 _atom_site_fract_x
 _atom_site_fract_y
 _atom_site_fract_z
 _atom_site_occupancy
  Tb  Tb0  1  0.996893  0.667793  0.250000  1
  Y  Y1  1  0.003107  0.332211  0.750000  1
  Y  Y2  1  0.667790  0.996891  0.250000  1
  Y  Y3  1  0.332211  0.003106  0.750000  1
  Ga  Ga4  1  0.126957  0.126949  0.250000  1
  Ga  Ga5  1  0.873046  0.873047  0.750000  1
  Ga  Ga6  1  0.999435  0.333824  0.079761  1
  Ga  Ga7  1  0.000562  0.666171  0.920250  1
  Ga  Ga8  1  0.000562  0.666171  0.579750  1
  Ga  Ga9  1  0.333835  0.999438  0.420239  1
  Ga  Ga10  1  0.999435  0.333824  0.420239  1
  Ga  Ga11  1  0.666171  0.000565  0.579750  1
  Ga  Ga12  1  0.666171  0.000565  0.920250  1
  Ga  Ga13  1  0.333835  0.999438  0.079761  1
  Ga  Ga14  1  0.332929  0.332928  0.563388  1
  Ga  Ga15  1  0.667067  0.667071  0.436601  1
  Ga  Ga16  1  0.667067  0.667071  0.063399  1
  Ga  Ga17  1  0.332929  0.332928  0.936612  1
  Ga  Ga18  1  0.338771  0.545797  0.250000  1
  Ga  Ga19  1  0.661231  0.454200  0.750000  1
  Ga  Ga20  1  0.545806  0.338787  0.250000  1
  Ga  Ga21  1  0.454204  0.661234  0.750000  1
  Ir  Ir22  1  0.671416  0.328583  0.999997  1
  Ir  Ir23  1  0.328577  0.671413  0.999998  1
  Ir  Ir24  1  0.328577  0.671413  0.500002  1
  Ir  Ir25  1  0.671416  0.328583  0.500003  1
  Ir  Ir26  1  0.999999  0.000000  0.000001  1
  Ir  Ir27  1  0.999999  0.000000  0.499999  1
