# generated using pymatgen
data_Hf16TaNi4RuRh2
_symmetry_space_group_name_H-M   'P 1'
_cell_length_a   8.64044362
_cell_length_b   8.68646116
_cell_length_c   8.61445600
_cell_angle_alpha   60.27384049
_cell_angle_beta   60.09945086
_cell_angle_gamma   60.20633154
_symmetry_Int_Tables_number   1
_chemical_formula_structural   Hf16TaNi4RuRh2
_chemical_formula_sum   'Hf16 Ta1 Ni4 Ru1 Rh2'
_cell_volume   459.18289371
_cell_formula_units_Z   1
loop_
 _symmetry_equiv_pos_site_id
 _symmetry_equiv_pos_as_xyz
  1  'x, y, z'
loop_
 _atom_site_type_symbol
 _atom_site_label
 _atom_site_symmetry_multiplicity
 _atom_site_fract_x
 _atom_site_fract_y
 _atom_site_fract_z
 _atom_site_occupancy
  Hf  Hf0  1  0.691196  0.104117  0.102342  1
  Hf  Hf1  1  0.108545  0.673945  0.108754  1
  Hf  Hf2  1  0.101727  0.102639  0.693710  1
  Hf  Hf3  1  0.101727  0.102639  0.101923  1
  Hf  Hf4  1  0.315901  0.316993  0.683553  1
  Hf  Hf5  1  0.680859  0.691689  0.313726  1
  Hf  Hf6  1  0.315169  0.693027  0.314470  1
  Hf  Hf7  1  0.687429  0.317136  0.680630  1
  Hf  Hf8  1  0.687429  0.317136  0.314804  1
  Hf  Hf9  1  0.315169  0.693027  0.677331  1
  Hf  Hf10  1  0.951487  0.947531  0.550491  1
  Hf  Hf11  1  0.549044  0.549570  0.950693  1
  Hf  Hf12  1  0.949759  0.549481  0.951236  1
  Hf  Hf13  1  0.552982  0.944029  0.553172  1
  Hf  Hf14  1  0.552982  0.944029  0.949818  1
  Hf  Hf15  1  0.949759  0.549481  0.549525  1
  Ta  Ta16  1  0.328872  0.011572  0.329777  1
  Ni  Ni17  1  0.321569  0.885828  0.896301  1
  Ni  Ni18  1  0.889649  0.327236  0.891557  1
  Ni  Ni19  1  0.895173  0.887640  0.320540  1
  Ni  Ni20  1  0.895173  0.887640  0.896647  1
  Ru  Ru21  1  0.988223  0.334813  0.338481  1
  Rh  Rh22  1  0.335085  0.334398  0.992049  1
  Rh  Rh23  1  0.335085  0.334398  0.338465  1
