# generated using pymatgen
data_TbSm2U5(ReB6)4
_symmetry_space_group_name_H-M   'P 1'
_cell_length_a   3.65854600
_cell_length_b   9.33300715
_cell_length_c   11.44217468
_cell_angle_alpha   90.02988161
_cell_angle_beta   90.00000000
_cell_angle_gamma   90.00000000
_symmetry_Int_Tables_number   1
_chemical_formula_structural   TbSm2U5(ReB6)4
_chemical_formula_sum   'Tb1 Sm2 U5 Re4 B24'
_cell_volume   390.69570118
_cell_formula_units_Z   1
loop_
 _symmetry_equiv_pos_site_id
 _symmetry_equiv_pos_as_xyz
  1  'x, y, z'
loop_
 _atom_site_type_symbol
 _atom_site_label
 _atom_site_symmetry_multiplicity
 _atom_site_fract_x
 _atom_site_fract_y
 _atom_site_fract_z
 _atom_site_occupancy
  Tb  Tb0  1  0.000000  0.835680  0.092750  1
  Sm  Sm1  1  0.000000  0.336659  0.407457  1
  Sm  Sm2  1  0.000000  0.663397  0.592346  1
  U  U3  1  0.000000  0.163248  0.907548  1
  U  U4  1  0.000000  0.956504  0.396654  1
  U  U5  1  0.000000  0.042566  0.603500  1
  U  U6  1  0.000000  0.457786  0.103500  1
  U  U7  1  0.000000  0.543304  0.897309  1
  Re  Re8  1  0.000000  0.647010  0.317718  1
  Re  Re9  1  0.000000  0.350735  0.685170  1
  Re  Re10  1  0.000000  0.145880  0.177457  1
  Re  Re11  1  0.000000  0.858067  0.819898  1
  B  B12  1  0.500000  0.553533  0.429748  1
  B  B13  1  0.500000  0.445687  0.571266  1
  B  B14  1  0.500000  0.052913  0.067431  1
  B  B15  1  0.500000  0.950268  0.930410  1
  B  B16  1  0.500000  0.744578  0.421990  1
  B  B17  1  0.500000  0.255350  0.578174  1
  B  B18  1  0.500000  0.242734  0.075618  1
  B  B19  1  0.500000  0.756718  0.922839  1
  B  B20  1  0.500000  0.802639  0.274446  1
  B  B21  1  0.500000  0.196024  0.727088  1
  B  B22  1  0.500000  0.301659  0.223890  1
  B  B23  1  0.500000  0.698793  0.775845  1
  B  B24  1  0.500000  0.644262  0.187984  1
  B  B25  1  0.500000  0.354171  0.812878  1
  B  B26  1  0.500000  0.143231  0.310460  1
  B  B27  1  0.500000  0.856586  0.688908  1
  B  B28  1  0.500000  0.989482  0.219101  1
  B  B29  1  0.500000  0.013175  0.781431  1
  B  B30  1  0.500000  0.490216  0.279526  1
  B  B31  1  0.500000  0.509544  0.720955  1
  B  B32  1  0.500000  0.640327  0.038386  1
  B  B33  1  0.500000  0.357111  0.960704  1
  B  B34  1  0.500000  0.137512  0.461453  1
  B  B35  1  0.500000  0.862652  0.538163  1
