# generated using pymatgen
data_Sm8Ho8Sc3Si16Ag
_symmetry_space_group_name_H-M   'P 1'
_cell_length_a   7.24781502
_cell_length_b   7.69124047
_cell_length_c   14.58254800
_cell_angle_alpha   90.00000000
_cell_angle_beta   90.00000000
_cell_angle_gamma   89.88475125
_symmetry_Int_Tables_number   1
_chemical_formula_structural   Sm8Ho8Sc3Si16Ag
_chemical_formula_sum   'Sm8 Ho8 Sc3 Si16 Ag1'
_cell_volume   812.89794712
_cell_formula_units_Z   1
loop_
 _symmetry_equiv_pos_site_id
 _symmetry_equiv_pos_as_xyz
  1  'x, y, z'
loop_
 _atom_site_type_symbol
 _atom_site_label
 _atom_site_symmetry_multiplicity
 _atom_site_fract_x
 _atom_site_fract_y
 _atom_site_fract_z
 _atom_site_occupancy
  Sm  Sm0  1  0.017482  0.180264  0.098204  1
  Sm  Sm1  1  0.983069  0.808661  0.899350  1
  Sm  Sm2  1  0.475735  0.677727  0.899823  1
  Sm  Sm3  1  0.983069  0.808661  0.600650  1
  Sm  Sm4  1  0.516512  0.319716  0.097438  1
  Sm  Sm5  1  0.017482  0.180264  0.401796  1
  Sm  Sm6  1  0.516512  0.319716  0.402562  1
  Sm  Sm7  1  0.475735  0.677727  0.600177  1
  Ho  Ho8  1  0.318951  0.185024  0.627260  1
  Ho  Ho9  1  0.677666  0.823498  0.375120  1
  Ho  Ho10  1  0.176842  0.681607  0.373157  1
  Ho  Ho11  1  0.677666  0.823498  0.124880  1
  Ho  Ho12  1  0.832745  0.325800  0.626853  1
  Ho  Ho13  1  0.318951  0.185024  0.872740  1
  Ho  Ho14  1  0.832745  0.325800  0.873147  1
  Ho  Ho15  1  0.176842  0.681607  0.126843  1
  Sc  Sc16  1  0.843053  0.487165  0.250000  1
  Sc  Sc17  1  0.345035  0.013660  0.250000  1
  Sc  Sc18  1  0.651873  0.988198  0.750000  1
  Si  Si19  1  0.016628  0.082022  0.750000  1
  Si  Si20  1  0.978231  0.903875  0.250000  1
  Si  Si21  1  0.478765  0.602567  0.250000  1
  Si  Si22  1  0.530439  0.397888  0.750000  1
  Si  Si23  1  0.281003  0.880818  0.750000  1
  Si  Si24  1  0.719075  0.131559  0.250000  1
  Si  Si25  1  0.218789  0.369523  0.250000  1
  Si  Si26  1  0.765876  0.630390  0.750000  1
  Si  Si27  1  0.155950  0.462675  0.529683  1
  Si  Si28  1  0.849812  0.531008  0.459908  1
  Si  Si29  1  0.349916  0.968874  0.463411  1
  Si  Si30  1  0.849812  0.531008  0.040092  1
  Si  Si31  1  0.651630  0.029952  0.541814  1
  Si  Si32  1  0.155950  0.462675  0.970317  1
  Si  Si33  1  0.651630  0.029952  0.958186  1
  Si  Si34  1  0.349916  0.968874  0.036589  1
  Ag  Ag35  1  0.158609  0.522726  0.750000  1
