# generated using pymatgen
data_LiDy4Co16(P4Ru)3
_symmetry_space_group_name_H-M   'P 1'
_cell_length_a   3.68953600
_cell_length_b   10.35652705
_cell_length_c   11.80280908
_cell_angle_alpha   89.80484426
_cell_angle_beta   90.00000000
_cell_angle_gamma   90.00000000
_symmetry_Int_Tables_number   1
_chemical_formula_structural   LiDy4Co16(P4Ru)3
_chemical_formula_sum   'Li1 Dy4 Co16 P12 Ru3'
_cell_volume   450.99191781
_cell_formula_units_Z   1
loop_
 _symmetry_equiv_pos_site_id
 _symmetry_equiv_pos_as_xyz
  1  'x, y, z'
loop_
 _atom_site_type_symbol
 _atom_site_label
 _atom_site_symmetry_multiplicity
 _atom_site_fract_x
 _atom_site_fract_y
 _atom_site_fract_z
 _atom_site_occupancy
  Li  Li0  1  0.250000  0.703990  0.990932  1
  Dy  Dy1  1  0.250000  0.585165  0.703056  1
  Dy  Dy2  1  0.250000  0.914731  0.205161  1
  Dy  Dy3  1  0.750000  0.414451  0.296472  1
  Dy  Dy4  1  0.750000  0.081447  0.797588  1
  Co  Co5  1  0.250000  0.408343  0.489401  1
  Co  Co6  1  0.250000  0.095051  0.989323  1
  Co  Co7  1  0.750000  0.590949  0.512163  1
  Co  Co8  1  0.750000  0.908150  0.012625  1
  Co  Co9  1  0.250000  0.222765  0.176211  1
  Co  Co10  1  0.250000  0.279407  0.676508  1
  Co  Co11  1  0.750000  0.780407  0.820913  1
  Co  Co12  1  0.750000  0.718321  0.326891  1
  Co  Co13  1  0.250000  0.888891  0.701024  1
  Co  Co14  1  0.250000  0.617088  0.200145  1
  Co  Co15  1  0.750000  0.113228  0.296552  1
  Co  Co16  1  0.750000  0.385411  0.798829  1
  Co  Co17  1  0.250000  0.465389  0.931330  1
  Co  Co18  1  0.250000  0.034945  0.429918  1
  Co  Co19  1  0.750000  0.536495  0.067084  1
  Co  Co20  1  0.750000  0.966215  0.567852  1
  P  P21  1  0.250000  0.422797  0.112834  1
  P  P22  1  0.250000  0.080647  0.611524  1
  P  P23  1  0.750000  0.581000  0.885060  1
  P  P24  1  0.750000  0.919099  0.387764  1
  P  P25  1  0.250000  0.270360  0.866346  1
  P  P26  1  0.250000  0.228615  0.366107  1
  P  P27  1  0.750000  0.729482  0.136722  1
  P  P28  1  0.750000  0.772669  0.633353  1
  P  P29  1  0.250000  0.595773  0.390232  1
  P  P30  1  0.250000  0.898983  0.892599  1
  P  P31  1  0.750000  0.403803  0.610392  1
  P  P32  1  0.750000  0.096018  0.107996  1
  Ru  Ru33  1  0.250000  0.783181  0.492446  1
  Ru  Ru34  1  0.750000  0.289456  0.009621  1
  Ru  Ru35  1  0.750000  0.217276  0.507028  1
