# generated using pymatgen
data_Ho4Al24Cu2Pd5Pt2
_symmetry_space_group_name_H-M   'P 1'
_cell_length_a   7.52312183
_cell_length_b   7.53215041
_cell_length_c   13.06813487
_cell_angle_alpha   84.60837104
_cell_angle_beta   78.97596925
_cell_angle_gamma   59.96250925
_symmetry_Int_Tables_number   1
_chemical_formula_structural   Ho4Al24Cu2Pd5Pt2
_chemical_formula_sum   'Ho4 Al24 Cu2 Pd5 Pt2'
_cell_volume   629.22696984
_cell_formula_units_Z   1
loop_
 _symmetry_equiv_pos_site_id
 _symmetry_equiv_pos_as_xyz
  1  'x, y, z'
loop_
 _atom_site_type_symbol
 _atom_site_label
 _atom_site_symmetry_multiplicity
 _atom_site_fract_x
 _atom_site_fract_y
 _atom_site_fract_z
 _atom_site_occupancy
  Ho  Ho0  1  0.394593  0.168823  0.807475  1
  Ho  Ho1  1  0.605407  0.831177  0.192525  1
  Ho  Ho2  1  0.734759  0.498465  0.807470  1
  Ho  Ho3  1  0.265241  0.501535  0.192530  1
  Al  Al4  1  0.684101  0.833426  0.944421  1
  Al  Al5  1  0.315899  0.166574  0.055579  1
  Al  Al6  1  0.145413  0.835530  0.564323  1
  Al  Al7  1  0.854587  0.164470  0.435677  1
  Al  Al8  1  0.481728  0.167175  0.561121  1
  Al  Al9  1  0.518272  0.832825  0.438879  1
  Al  Al10  1  0.213494  0.168381  0.328762  1
  Al  Al11  1  0.786506  0.831619  0.671238  1
  Al  Al12  1  0.435199  0.507091  0.670902  1
  Al  Al13  1  0.564801  0.492909  0.329098  1
  Al  Al14  1  0.112640  0.162853  0.670038  1
  Al  Al15  1  0.887360  0.837147  0.329962  1
  Al  Al16  1  0.352702  0.498888  0.944243  1
  Al  Al17  1  0.647298  0.501112  0.055757  1
  Al  Al18  1  0.015713  0.167772  0.953814  1
  Al  Al19  1  0.984287  0.832228  0.046186  1
  Al  Al20  1  0.185069  0.499870  0.441858  1
  Al  Al21  1  0.814931  0.500130  0.558142  1
  Al  Al22  1  0.731501  0.165421  0.184357  1
  Al  Al23  1  0.268499  0.834579  0.815643  1
  Al  Al24  1  0.063005  0.627678  0.813011  1
  Al  Al25  1  0.936995  0.372322  0.186989  1
  Al  Al26  1  0.857711  0.040197  0.815653  1
  Al  Al27  1  0.142289  0.959803  0.184347  1
  Cu  Cu28  1  0.121130  0.491378  0.638495  1
  Cu  Cu29  1  0.878870  0.508622  0.361505  1
  Pd  Pd30  1  0.656934  0.172257  0.999546  1
  Pd  Pd31  1  0.343066  0.827743  0.000454  1
  Pd  Pd32  1  0.534468  0.167616  0.363237  1
  Pd  Pd33  1  0.465532  0.832384  0.636763  1
  Pd  Pd34  1  0.000000  0.500000  0.000000  1
  Pt  Pt35  1  0.781859  0.176355  0.635963  1
  Pt  Pt36  1  0.218141  0.823645  0.364037  1
