# generated using pymatgen
data_Er4Al4Pt3Rh
_symmetry_space_group_name_H-M   'P 1'
_cell_length_a   4.39531700
_cell_length_b   6.78056908
_cell_length_c   7.79014382
_cell_angle_alpha   90.14017061
_cell_angle_beta   90.00000000
_cell_angle_gamma   90.00000000
_symmetry_Int_Tables_number   1
_chemical_formula_structural   Er4Al4Pt3Rh
_chemical_formula_sum   'Er4 Al4 Pt3 Rh1'
_cell_volume   232.16701822
_cell_formula_units_Z   1
loop_
 _symmetry_equiv_pos_site_id
 _symmetry_equiv_pos_as_xyz
  1  'x, y, z'
loop_
 _atom_site_type_symbol
 _atom_site_label
 _atom_site_symmetry_multiplicity
 _atom_site_fract_x
 _atom_site_fract_y
 _atom_site_fract_z
 _atom_site_occupancy
  Er  Er0  1  0.250000  0.467859  0.179954  1
  Er  Er1  1  0.750000  0.532388  0.818407  1
  Er  Er2  1  0.750000  0.029009  0.679460  1
  Er  Er3  1  0.250000  0.966101  0.322832  1
  Al  Al4  1  0.250000  0.855686  0.938205  1
  Al  Al5  1  0.750000  0.142761  0.061264  1
  Al  Al6  1  0.750000  0.642939  0.440123  1
  Al  Al7  1  0.250000  0.362088  0.561840  1
  Pt  Pt8  1  0.750000  0.268220  0.379689  1
  Pt  Pt9  1  0.750000  0.768205  0.120767  1
  Pt  Pt10  1  0.250000  0.229206  0.879419  1
  Rh  Rh11  1  0.250000  0.735536  0.618040  1
