# generated using pymatgen
data_HfIn8Rh9
_symmetry_space_group_name_H-M   'P 1'
_cell_length_a   7.93666350
_cell_length_b   7.93666324
_cell_length_c   5.63724148
_cell_angle_alpha   89.97635500
_cell_angle_beta   89.97636050
_cell_angle_gamma   120.03313961
_symmetry_Int_Tables_number   1
_chemical_formula_structural   HfIn8Rh9
_chemical_formula_sum   'Hf1 In8 Rh9'
_cell_volume   307.41702805
_cell_formula_units_Z   1
loop_
 _symmetry_equiv_pos_site_id
 _symmetry_equiv_pos_as_xyz
  1  'x, y, z'
loop_
 _atom_site_type_symbol
 _atom_site_label
 _atom_site_symmetry_multiplicity
 _atom_site_fract_x
 _atom_site_fract_y
 _atom_site_fract_z
 _atom_site_occupancy
  Hf  Hf0  1  0.666436  0.666436  0.892032  1
  In  In1  1  0.666996  0.998873  0.225395  1
  In  In2  1  0.334226  0.334227  0.225448  1
  In  In3  1  0.998873  0.666996  0.225395  1
  In  In4  1  0.998823  0.998823  0.558223  1
  In  In5  1  0.666659  0.334424  0.559301  1
  In  In6  1  0.334425  0.666660  0.559301  1
  In  In7  1  0.333670  0.999939  0.892163  1
  In  In8  1  0.999939  0.333670  0.892163  1
  Rh  Rh9  1  0.996415  0.996415  0.055474  1
  Rh  Rh10  1  0.666617  0.337008  0.056643  1
  Rh  Rh11  1  0.337009  0.666618  0.056643  1
  Rh  Rh12  1  0.333590  0.999995  0.391984  1
  Rh  Rh13  1  0.999995  0.333590  0.391984  1
  Rh  Rh14  1  0.666353  0.666352  0.391987  1
  Rh  Rh15  1  0.666953  0.996337  0.727874  1
  Rh  Rh16  1  0.336684  0.336684  0.727974  1
  Rh  Rh17  1  0.996337  0.666952  0.727874  1
