# generated using pymatgen
data_Cs2Cd25Pd
_symmetry_space_group_name_H-M   'P 1'
_cell_length_a   10.01519536
_cell_length_b   10.01519443
_cell_length_c   10.01519600
_cell_angle_alpha   60.00000142
_cell_angle_beta   60.00000450
_cell_angle_gamma   59.99999992
_symmetry_Int_Tables_number   1
_chemical_formula_structural   Cs2Cd25Pd
_chemical_formula_sum   'Cs2 Cd25 Pd1'
_cell_volume   710.33511532
_cell_formula_units_Z   1
loop_
 _symmetry_equiv_pos_site_id
 _symmetry_equiv_pos_as_xyz
  1  'x, y, z'
loop_
 _atom_site_type_symbol
 _atom_site_label
 _atom_site_symmetry_multiplicity
 _atom_site_fract_x
 _atom_site_fract_y
 _atom_site_fract_z
 _atom_site_occupancy
  Cs  Cs0  1  0.250000  0.250000  0.250000  1
  Cs  Cs1  1  0.750000  0.750000  0.750000  1
  Cd  Cd2  1  0.444595  0.196027  0.803973  1
  Cd  Cd3  1  0.940080  0.708397  0.059920  1
  Cd  Cd4  1  0.708397  0.940080  0.291603  1
  Cd  Cd5  1  0.291603  0.708397  0.940080  1
  Cd  Cd6  1  0.940080  0.059920  0.291603  1
  Cd  Cd7  1  0.708397  0.059920  0.940080  1
  Cd  Cd8  1  0.291603  0.940080  0.059920  1
  Cd  Cd9  1  0.803973  0.444595  0.196027  1
  Cd  Cd10  1  0.196027  0.803973  0.444595  1
  Cd  Cd11  1  0.444595  0.555405  0.196027  1
  Cd  Cd12  1  0.444595  0.803973  0.555405  1
  Cd  Cd13  1  0.196027  0.555405  0.803973  1
  Cd  Cd14  1  0.555405  0.444595  0.803973  1
  Cd  Cd15  1  0.555405  0.196027  0.444595  1
  Cd  Cd16  1  0.803973  0.196027  0.555405  1
  Cd  Cd17  1  0.059920  0.940080  0.708397  1
  Cd  Cd18  1  0.059920  0.291603  0.940080  1
  Cd  Cd19  1  0.940080  0.291603  0.708397  1
  Cd  Cd20  1  0.059920  0.708397  0.291603  1
  Cd  Cd21  1  0.291603  0.059920  0.708397  1
  Cd  Cd22  1  0.708397  0.291603  0.059920  1
  Cd  Cd23  1  0.196027  0.444595  0.555405  1
  Cd  Cd24  1  0.803973  0.555405  0.444595  1
  Cd  Cd25  1  0.555405  0.803973  0.196027  1
  Cd  Cd26  1  0.500000  0.500000  0.500000  1
  Pd  Pd27  1  0.000000  0.000000  0.000000  1
