# generated using pymatgen
data_Dy6Y2Sc12Si15As
_symmetry_space_group_name_H-M   'P 1'
_cell_length_a   7.13862815
_cell_length_b   7.37720927
_cell_length_c   13.98013407
_cell_angle_alpha   90.06087251
_cell_angle_beta   88.92348003
_cell_angle_gamma   90.16316157
_symmetry_Int_Tables_number   1
_chemical_formula_structural   Dy6Y2Sc12Si15As
_chemical_formula_sum   'Dy6 Y2 Sc12 Si15 As1'
_cell_volume   736.10464116
_cell_formula_units_Z   1
loop_
 _symmetry_equiv_pos_site_id
 _symmetry_equiv_pos_as_xyz
  1  'x, y, z'
loop_
 _atom_site_type_symbol
 _atom_site_label
 _atom_site_symmetry_multiplicity
 _atom_site_fract_x
 _atom_site_fract_y
 _atom_site_fract_z
 _atom_site_occupancy
  Dy  Dy0  1  0.487910  0.675484  0.902595  1
  Dy  Dy1  1  0.991850  0.822218  0.595842  1
  Dy  Dy2  1  0.512524  0.325062  0.097446  1
  Dy  Dy3  1  0.006666  0.177822  0.403789  1
  Dy  Dy4  1  0.505527  0.322000  0.402096  1
  Dy  Dy5  1  0.499072  0.676782  0.597556  1
  Y  Y6  1  0.012496  0.175842  0.097236  1
  Y  Y7  1  0.988091  0.824673  0.902512  1
  Sc  Sc8  1  0.163870  0.501037  0.749858  1
  Sc  Sc9  1  0.835947  0.498753  0.252826  1
  Sc  Sc10  1  0.336278  0.001017  0.251253  1
  Sc  Sc11  1  0.663835  0.998923  0.749168  1
  Sc  Sc12  1  0.338835  0.171548  0.626614  1
  Sc  Sc13  1  0.662163  0.827078  0.373865  1
  Sc  Sc14  1  0.159329  0.672824  0.377198  1
  Sc  Sc15  1  0.668952  0.823492  0.125441  1
  Sc  Sc16  1  0.837776  0.328169  0.622637  1
  Sc  Sc17  1  0.330638  0.176029  0.874067  1
  Sc  Sc18  1  0.831798  0.323099  0.874480  1
  Sc  Sc19  1  0.168491  0.676904  0.125007  1
  Si  Si20  1  0.035293  0.117087  0.749128  1
  Si  Si21  1  0.964441  0.883162  0.249861  1
  Si  Si22  1  0.460834  0.617533  0.249038  1
  Si  Si23  1  0.538176  0.382861  0.750709  1
  Si  Si24  1  0.287961  0.871388  0.749985  1
  Si  Si25  1  0.712844  0.127125  0.249418  1
  Si  Si26  1  0.211502  0.374479  0.250103  1
  Si  Si27  1  0.789903  0.626220  0.750008  1
  Si  Si28  1  0.814046  0.539772  0.457165  1
  Si  Si29  1  0.334202  0.962789  0.460753  1
  Si  Si30  1  0.843532  0.535342  0.039509  1
  Si  Si31  1  0.665660  0.037131  0.539963  1
  Si  Si32  1  0.156199  0.465226  0.960189  1
  Si  Si33  1  0.655265  0.034895  0.959817  1
  Si  Si34  1  0.344734  0.965713  0.040092  1
  As  As35  1  0.183358  0.460521  0.542776  1
