# generated using pymatgen
data_Li2LaYb3(AlPt2)2
_symmetry_space_group_name_H-M   'P 1'
_cell_length_a   4.24957000
_cell_length_b   7.04717451
_cell_length_c   8.14772274
_cell_angle_alpha   90.49245639
_cell_angle_beta   90.00000000
_cell_angle_gamma   90.00000000
_symmetry_Int_Tables_number   1
_chemical_formula_structural   Li2LaYb3(AlPt2)2
_chemical_formula_sum   'Li2 La1 Yb3 Al2 Pt4'
_cell_volume   243.99459933
_cell_formula_units_Z   1
loop_
 _symmetry_equiv_pos_site_id
 _symmetry_equiv_pos_as_xyz
  1  'x, y, z'
loop_
 _atom_site_type_symbol
 _atom_site_label
 _atom_site_symmetry_multiplicity
 _atom_site_fract_x
 _atom_site_fract_y
 _atom_site_fract_z
 _atom_site_occupancy
  Li  Li0  1  0.250000  0.142622  0.945463  1
  Li  Li1  1  0.250000  0.632353  0.557260  1
  La  La2  1  0.750000  0.966475  0.677800  1
  Yb  Yb3  1  0.250000  0.029429  0.313808  1
  Yb  Yb4  1  0.250000  0.528037  0.179833  1
  Yb  Yb5  1  0.750000  0.466509  0.824518  1
  Al  Al6  1  0.750000  0.867421  0.064126  1
  Al  Al7  1  0.750000  0.369545  0.438373  1
  Pt  Pt8  1  0.250000  0.270115  0.602549  1
  Pt  Pt9  1  0.250000  0.771872  0.895954  1
  Pt  Pt10  1  0.750000  0.727442  0.363033  1
  Pt  Pt11  1  0.750000  0.228180  0.137282  1
