# generated using pymatgen
data_Tb8Sc12Si15Ge
_symmetry_space_group_name_H-M   'P 1'
_cell_length_a   7.12738194
_cell_length_b   7.40532815
_cell_length_c   14.03829158
_cell_angle_alpha   90.00627376
_cell_angle_beta   89.89812886
_cell_angle_gamma   90.02203330
_symmetry_Int_Tables_number   1
_chemical_formula_structural   Tb8Sc12Si15Ge
_chemical_formula_sum   'Tb8 Sc12 Si15 Ge1'
_cell_volume   740.94825195
_cell_formula_units_Z   1
loop_
 _symmetry_equiv_pos_site_id
 _symmetry_equiv_pos_as_xyz
  1  'x, y, z'
loop_
 _atom_site_type_symbol
 _atom_site_label
 _atom_site_symmetry_multiplicity
 _atom_site_fract_x
 _atom_site_fract_y
 _atom_site_fract_z
 _atom_site_occupancy
  Tb  Tb0  1  0.012269  0.174715  0.097019  1
  Tb  Tb1  1  0.987875  0.825294  0.902809  1
  Tb  Tb2  1  0.488026  0.674873  0.902782  1
  Tb  Tb3  1  0.987226  0.826159  0.597365  1
  Tb  Tb4  1  0.512116  0.325269  0.097092  1
  Tb  Tb5  1  0.011233  0.174118  0.402473  1
  Tb  Tb6  1  0.512683  0.324289  0.402311  1
  Tb  Tb7  1  0.490358  0.676221  0.597604  1
  Sc  Sc8  1  0.160509  0.502232  0.751025  1
  Sc  Sc9  1  0.839468  0.497917  0.250064  1
  Sc  Sc10  1  0.339494  0.002020  0.250035  1
  Sc  Sc11  1  0.660607  0.997688  0.750023  1
  Sc  Sc12  1  0.332002  0.174600  0.625828  1
  Sc  Sc13  1  0.668778  0.823804  0.374697  1
  Sc  Sc14  1  0.168698  0.677244  0.374360  1
  Sc  Sc15  1  0.669312  0.823294  0.125064  1
  Sc  Sc16  1  0.829425  0.323494  0.625278  1
  Sc  Sc17  1  0.330666  0.176387  0.874772  1
  Sc  Sc18  1  0.830707  0.323565  0.874762  1
  Sc  Sc19  1  0.169201  0.676575  0.125091  1
  Si  Si20  1  0.033505  0.118572  0.750117  1
  Si  Si21  1  0.965814  0.882484  0.249643  1
  Si  Si22  1  0.465667  0.617943  0.249824  1
  Si  Si23  1  0.533118  0.381917  0.750170  1
  Si  Si24  1  0.285760  0.874044  0.750219  1
  Si  Si25  1  0.714804  0.124859  0.249747  1
  Si  Si26  1  0.214722  0.374884  0.249984  1
  Si  Si27  1  0.786305  0.625601  0.750045  1
  Si  Si28  1  0.837582  0.536683  0.459871  1
  Si  Si29  1  0.342392  0.964434  0.460687  1
  Si  Si30  1  0.842852  0.535312  0.039250  1
  Si  Si31  1  0.657376  0.035932  0.539750  1
  Si  Si32  1  0.157052  0.464556  0.960412  1
  Si  Si33  1  0.657040  0.035584  0.960298  1
  Si  Si34  1  0.342875  0.964502  0.039300  1
  Ge  Ge35  1  0.162479  0.462934  0.540227  1
