# generated using pymatgen
data_MnBe4Rh
_symmetry_space_group_name_H-M   'P 1'
_cell_length_a   4.33574500
_cell_length_b   4.33574498
_cell_length_c   7.05511800
_cell_angle_alpha   90.00000000
_cell_angle_beta   90.00000000
_cell_angle_gamma   120.00000780
_symmetry_Int_Tables_number   1
_chemical_formula_structural   MnBe4Rh
_chemical_formula_sum   'Mn2 Be8 Rh2'
_cell_volume   114.85828865
_cell_formula_units_Z   2
loop_
 _symmetry_equiv_pos_site_id
 _symmetry_equiv_pos_as_xyz
  1  'x, y, z'
loop_
 _atom_site_type_symbol
 _atom_site_label
 _atom_site_symmetry_multiplicity
 _atom_site_fract_x
 _atom_site_fract_y
 _atom_site_fract_z
 _atom_site_occupancy
  Mn  Mn0  1  0.666667  0.333333  0.938367  1
  Mn  Mn1  1  0.333333  0.666667  0.438367  1
  Be  Be2  1  0.000000  0.000000  0.999631  1
  Be  Be3  1  0.000000  0.000000  0.499631  1
  Be  Be4  1  0.830783  0.661565  0.249959  1
  Be  Be5  1  0.169217  0.830783  0.749959  1
  Be  Be6  1  0.661565  0.830783  0.749959  1
  Be  Be7  1  0.338435  0.169217  0.249959  1
  Be  Be8  1  0.830783  0.169217  0.249959  1
  Be  Be9  1  0.169217  0.338435  0.749959  1
  Rh  Rh10  1  0.333333  0.666667  0.062126  1
  Rh  Rh11  1  0.666667  0.333333  0.562126  1
