# generated using pymatgen
data_Li3Pr4Si8Rh
_symmetry_space_group_name_H-M   'P 1'
_cell_length_a   3.91595500
_cell_length_b   7.60316084
_cell_length_c   10.49885713
_cell_angle_alpha   89.80345059
_cell_angle_beta   90.00000000
_cell_angle_gamma   90.00000000
_symmetry_Int_Tables_number   1
_chemical_formula_structural   Li3Pr4Si8Rh
_chemical_formula_sum   'Li3 Pr4 Si8 Rh1'
_cell_volume   312.58730835
_cell_formula_units_Z   1
loop_
 _symmetry_equiv_pos_site_id
 _symmetry_equiv_pos_as_xyz
  1  'x, y, z'
loop_
 _atom_site_type_symbol
 _atom_site_label
 _atom_site_symmetry_multiplicity
 _atom_site_fract_x
 _atom_site_fract_y
 _atom_site_fract_z
 _atom_site_occupancy
  Li  Li0  1  0.250000  0.494260  0.112440  1
  Li  Li1  1  0.750000  0.002705  0.608278  1
  Li  Li2  1  0.750000  0.499548  0.888445  1
  Pr  Pr3  1  0.250000  0.140330  0.866594  1
  Pr  Pr4  1  0.250000  0.645296  0.627801  1
  Pr  Pr5  1  0.750000  0.858031  0.133651  1
  Pr  Pr6  1  0.750000  0.369067  0.367364  1
  Si  Si7  1  0.250000  0.209000  0.565866  1
  Si  Si8  1  0.250000  0.723207  0.924635  1
  Si  Si9  1  0.750000  0.798002  0.427489  1
  Si  Si10  1  0.750000  0.267046  0.077751  1
  Si  Si11  1  0.250000  0.674168  0.325069  1
  Si  Si12  1  0.250000  0.158273  0.192063  1
  Si  Si13  1  0.750000  0.331388  0.670632  1
  Si  Si14  1  0.750000  0.836531  0.820552  1
  Rh  Rh15  1  0.250000  0.993146  0.391372  1
