# generated using pymatgen
data_Ba4Ca2NbReN8
_symmetry_space_group_name_H-M   'P 1'
_cell_length_a   10.95175125
_cell_length_b   10.63572237
_cell_length_c   8.17887916
_cell_angle_alpha   69.80069293
_cell_angle_beta   65.70170080
_cell_angle_gamma   44.49759652
_symmetry_Int_Tables_number   1
_chemical_formula_structural   Ba4Ca2NbReN8
_chemical_formula_sum   'Ba8 Ca4 Nb2 Re2 N16'
_cell_volume   606.55817107
_cell_formula_units_Z   2
loop_
 _symmetry_equiv_pos_site_id
 _symmetry_equiv_pos_as_xyz
  1  'x, y, z'
loop_
 _atom_site_type_symbol
 _atom_site_label
 _atom_site_symmetry_multiplicity
 _atom_site_fract_x
 _atom_site_fract_y
 _atom_site_fract_z
 _atom_site_occupancy
  Ba  Ba0  1  0.577599  0.922401  0.922401  1
  Ba  Ba1  1  0.922401  0.577599  0.577599  1
  Ba  Ba2  1  0.314727  0.685273  0.685273  1
  Ba  Ba3  1  0.118941  0.118941  0.881059  1
  Ba  Ba4  1  0.145609  0.145609  0.354391  1
  Ba  Ba5  1  0.354391  0.354391  0.145609  1
  Ba  Ba6  1  0.685273  0.314727  0.314727  1
  Ba  Ba7  1  0.881059  0.881059  0.118941  1
  Ca  Ca8  1  0.336914  0.336914  0.663086  1
  Ca  Ca9  1  0.911351  0.911351  0.588649  1
  Ca  Ca10  1  0.663086  0.663086  0.336914  1
  Ca  Ca11  1  0.588649  0.588649  0.911351  1
  Nb  Nb12  1  0.493275  0.006725  0.493275  1
  Nb  Nb13  1  0.006725  0.493275  0.006725  1
  Re  Re14  1  0.756190  0.243810  0.756190  1
  Re  Re15  1  0.243810  0.756190  0.243810  1
  N  N16  1  0.008480  0.668421  0.818572  1
  N  N17  1  0.698865  0.283139  0.990059  1
  N  N18  1  0.668421  0.008480  0.504528  1
  N  N19  1  0.504528  0.818572  0.668421  1
  N  N20  1  0.241595  0.596692  0.425807  1
  N  N21  1  0.735904  0.425807  0.596692  1
  N  N22  1  0.990059  0.027937  0.698865  1
  N  N23  1  0.548293  0.965630  0.245580  1
  N  N24  1  0.425807  0.735904  0.241595  1
  N  N25  1  0.965630  0.548293  0.240498  1
  N  N26  1  0.283139  0.698865  0.027937  1
  N  N27  1  0.818572  0.504528  0.008480  1
  N  N28  1  0.240498  0.245580  0.965630  1
  N  N29  1  0.596692  0.241595  0.735904  1
  N  N30  1  0.245580  0.240498  0.548293  1
  N  N31  1  0.027937  0.990059  0.283139  1
