# generated using pymatgen
data_YbNi(BRu)2
_symmetry_space_group_name_H-M   'P 1'
_cell_length_a   5.28955359
_cell_length_b   5.28955392
_cell_length_c   2.94751300
_cell_angle_alpha   90.00000000
_cell_angle_beta   90.00000000
_cell_angle_gamma   115.52181963
_symmetry_Int_Tables_number   1
_chemical_formula_structural   YbNi(BRu)2
_chemical_formula_sum   'Yb1 Ni1 B2 Ru2'
_cell_volume   74.42230591
_cell_formula_units_Z   1
loop_
 _symmetry_equiv_pos_site_id
 _symmetry_equiv_pos_as_xyz
  1  'x, y, z'
loop_
 _atom_site_type_symbol
 _atom_site_label
 _atom_site_symmetry_multiplicity
 _atom_site_fract_x
 _atom_site_fract_y
 _atom_site_fract_z
 _atom_site_occupancy
  Yb  Yb0  1  0.000000  0.000000  0.000000  1
  Ni  Ni1  1  0.500000  0.500000  0.500000  1
  B  B2  1  0.329513  0.670487  0.000000  1
  B  B3  1  0.670487  0.329513  0.000000  1
  Ru  Ru4  1  0.500000  0.000000  0.500000  1
  Ru  Ru5  1  0.000000  0.500000  0.500000  1
