# generated using pymatgen
data_ErU(B4Ru)2
_symmetry_space_group_name_H-M   'P 1'
_cell_length_a   3.54101300
_cell_length_b   5.95111449
_cell_length_c   11.51086981
_cell_angle_alpha   89.89521293
_cell_angle_beta   90.00000000
_cell_angle_gamma   90.00000000
_symmetry_Int_Tables_number   1
_chemical_formula_structural   ErU(B4Ru)2
_chemical_formula_sum   'Er2 U2 B16 Ru4'
_cell_volume   242.56785193
_cell_formula_units_Z   2
loop_
 _symmetry_equiv_pos_site_id
 _symmetry_equiv_pos_as_xyz
  1  'x, y, z'
loop_
 _atom_site_type_symbol
 _atom_site_label
 _atom_site_symmetry_multiplicity
 _atom_site_fract_x
 _atom_site_fract_y
 _atom_site_fract_z
 _atom_site_occupancy
  Er  Er0  1  0.000000  0.129679  0.148332  1
  Er  Er1  1  0.000000  0.870321  0.851668  1
  U  U2  1  0.000000  0.629014  0.349183  1
  U  U3  1  0.000000  0.370986  0.650817  1
  B  B4  1  0.500000  0.790302  0.187078  1
  B  B5  1  0.500000  0.209698  0.812922  1
  B  B6  1  0.500000  0.291752  0.313001  1
  B  B7  1  0.500000  0.708248  0.686999  1
  B  B8  1  0.500000  0.864147  0.030703  1
  B  B9  1  0.500000  0.135853  0.969297  1
  B  B10  1  0.500000  0.367744  0.467527  1
  B  B11  1  0.500000  0.632256  0.532473  1
  B  B12  1  0.500000  0.886140  0.452795  1
  B  B13  1  0.500000  0.113860  0.547205  1
  B  B14  1  0.500000  0.386642  0.046341  1
  B  B15  1  0.500000  0.613358  0.953659  1
  B  B16  1  0.500000  0.976137  0.307391  1
  B  B17  1  0.500000  0.023863  0.692609  1
  B  B18  1  0.500000  0.474799  0.192040  1
  B  B19  1  0.500000  0.525201  0.807960  1
  Ru  Ru20  1  0.000000  0.639699  0.094747  1
  Ru  Ru21  1  0.000000  0.360301  0.905253  1
  Ru  Ru22  1  0.000000  0.141512  0.406560  1
  Ru  Ru23  1  0.000000  0.858488  0.593440  1
