# generated using pymatgen
data_La3Pr3DyRh3
_symmetry_space_group_name_H-M   'P 1'
_cell_length_a   6.43418000
_cell_length_b   10.17241327
_cell_length_c   10.17241401
_cell_angle_alpha   120.01787169
_cell_angle_beta   90.00000000
_cell_angle_gamma   90.00000000
_symmetry_Int_Tables_number   1
_chemical_formula_structural   La3Pr3DyRh3
_chemical_formula_sum   'La6 Pr6 Dy2 Rh6'
_cell_volume   576.49244767
_cell_formula_units_Z   2
loop_
 _symmetry_equiv_pos_site_id
 _symmetry_equiv_pos_as_xyz
  1  'x, y, z'
loop_
 _atom_site_type_symbol
 _atom_site_label
 _atom_site_symmetry_multiplicity
 _atom_site_fract_x
 _atom_site_fract_y
 _atom_site_fract_z
 _atom_site_occupancy
  La  La0  1  0.253696  0.126406  0.873594  1
  La  La1  1  0.253705  0.747181  0.873608  1
  La  La2  1  0.253705  0.126392  0.252819  1
  La  La3  1  0.753696  0.873594  0.126406  1
  La  La4  1  0.753705  0.252819  0.126392  1
  La  La5  1  0.753705  0.873608  0.747181  1
  Pr  Pr6  1  0.440730  0.541077  0.458923  1
  Pr  Pr7  1  0.440731  0.917876  0.458925  1
  Pr  Pr8  1  0.440731  0.541075  0.082124  1
  Pr  Pr9  1  0.940730  0.458923  0.541077  1
  Pr  Pr10  1  0.940731  0.082124  0.541075  1
  Pr  Pr11  1  0.940731  0.458925  0.917876  1
  Dy  Dy12  1  0.469119  0.333317  0.666683  1
  Dy  Dy13  1  0.969119  0.666683  0.333317  1
  Rh  Rh14  1  0.180310  0.811499  0.188501  1
  Rh  Rh15  1  0.180137  0.377079  0.188487  1
  Rh  Rh16  1  0.180137  0.811513  0.622921  1
  Rh  Rh17  1  0.680310  0.188501  0.811499  1
  Rh  Rh18  1  0.680137  0.622921  0.811513  1
  Rh  Rh19  1  0.680137  0.188487  0.377079  1
