# generated using pymatgen
data_Ho29S32
_symmetry_space_group_name_H-M   'P 1'
_cell_length_a   13.37849490
_cell_length_b   13.37849514
_cell_length_c   13.37849500
_cell_angle_alpha   131.84886505
_cell_angle_beta   131.84886598
_cell_angle_gamma   70.46783105
_symmetry_Int_Tables_number   1
_chemical_formula_structural   Ho29S32
_chemical_formula_sum   'Ho29 S32'
_cell_volume   1301.95041385
_cell_formula_units_Z   1
loop_
 _symmetry_equiv_pos_site_id
 _symmetry_equiv_pos_as_xyz
  1  'x, y, z'
loop_
 _atom_site_type_symbol
 _atom_site_label
 _atom_site_symmetry_multiplicity
 _atom_site_fract_x
 _atom_site_fract_y
 _atom_site_fract_z
 _atom_site_occupancy
  Ho  Ho0  1  0.125203  0.874074  0.748870  1
  Ho  Ho1  1  0.374944  0.624132  0.249187  1
  Ho  Ho2  1  0.625056  0.375868  0.750813  1
  Ho  Ho3  1  0.874797  0.125926  0.251130  1
  Ho  Ho4  1  0.748584  0.748584  0.497167  1
  Ho  Ho5  1  0.000000  0.500000  0.000000  1
  Ho  Ho6  1  0.251416  0.251416  0.502833  1
  Ho  Ho7  1  0.500000  0.000000  0.000000  1
  Ho  Ho8  1  0.874074  0.125203  0.748870  1
  Ho  Ho9  1  0.125926  0.874797  0.251130  1
  Ho  Ho10  1  0.375868  0.625056  0.750813  1
  Ho  Ho11  1  0.624132  0.374944  0.249187  1
  Ho  Ho12  1  0.625056  0.874243  0.249187  1
  Ho  Ho13  1  0.874797  0.623668  0.748870  1
  Ho  Ho14  1  0.125203  0.376332  0.251130  1
  Ho  Ho15  1  0.374944  0.125757  0.750813  1
  Ho  Ho16  1  0.000000  0.000000  0.500000  1
  Ho  Ho17  1  0.251416  0.748584  0.000000  1
  Ho  Ho18  1  0.500000  0.500000  0.500000  1
  Ho  Ho19  1  0.748584  0.251416  0.000000  1
  Ho  Ho20  1  0.125757  0.374944  0.750813  1
  Ho  Ho21  1  0.376332  0.125203  0.251130  1
  Ho  Ho22  1  0.623668  0.874797  0.748870  1
  Ho  Ho23  1  0.874243  0.625056  0.249187  1
  Ho  Ho24  1  0.500000  0.000000  0.500000  1
  Ho  Ho25  1  0.751144  0.751144  0.000000  1
  Ho  Ho26  1  0.000000  0.500000  0.500000  1
  Ho  Ho27  1  0.248856  0.248856  0.000000  1
  Ho  Ho28  1  0.000000  0.000000  0.000000  1
  S  S29  1  0.874836  0.874836  0.499521  1
  S  S30  1  0.125164  0.624685  0.000000  1
  S  S31  1  0.375315  0.375315  0.500479  1
  S  S32  1  0.624685  0.125164  0.000000  1
  S  S33  1  0.125164  0.125164  0.500479  1
  S  S34  1  0.375315  0.874836  0.000000  1
  S  S35  1  0.624685  0.624685  0.499521  1
  S  S36  1  0.874836  0.375315  0.000000  1
  S  S37  1  0.749311  0.000000  0.749311  1
  S  S38  1  0.000693  0.749745  0.250948  1
  S  S39  1  0.251505  0.500000  0.751505  1
  S  S40  1  0.501203  0.250255  0.250948  1
  S  S41  1  0.374335  0.874335  0.500000  1
  S  S42  1  0.625600  0.625600  0.000000  1
  S  S43  1  0.874335  0.374335  0.500000  1
  S  S44  1  0.124858  0.124858  0.000000  1
  S  S45  1  0.500000  0.251505  0.751505  1
  S  S46  1  0.749745  0.000693  0.250948  1
  S  S47  1  0.000000  0.749311  0.749311  1
  S  S48  1  0.250255  0.501203  0.250948  1
  S  S49  1  0.250689  0.000000  0.250689  1
  S  S50  1  0.498797  0.749745  0.749052  1
  S  S51  1  0.748495  0.500000  0.248495  1
  S  S52  1  0.999307  0.250255  0.749052  1
  S  S53  1  0.625665  0.125665  0.500000  1
  S  S54  1  0.875142  0.875142  0.000000  1
  S  S55  1  0.125665  0.625665  0.500000  1
  S  S56  1  0.374400  0.374400  0.000000  1
  S  S57  1  0.500000  0.748495  0.248495  1
  S  S58  1  0.749745  0.498797  0.749052  1
  S  S59  1  0.000000  0.250689  0.250689  1
  S  S60  1  0.250255  0.999307  0.749052  1
