# generated using pymatgen
data_Dy4Al18RuRh3Au2
_symmetry_space_group_name_H-M   'P 1'
_cell_length_a   7.63196892
_cell_length_b   7.63197036
_cell_length_c   9.45964210
_cell_angle_alpha   90.05370578
_cell_angle_beta   90.05370815
_cell_angle_gamma   119.53320460
_symmetry_Int_Tables_number   1
_chemical_formula_structural   Dy4Al18RuRh3Au2
_chemical_formula_sum   'Dy4 Al18 Ru1 Rh3 Au2'
_cell_volume   479.40383447
_cell_formula_units_Z   1
loop_
 _symmetry_equiv_pos_site_id
 _symmetry_equiv_pos_as_xyz
  1  'x, y, z'
loop_
 _atom_site_type_symbol
 _atom_site_label
 _atom_site_symmetry_multiplicity
 _atom_site_fract_x
 _atom_site_fract_y
 _atom_site_fract_z
 _atom_site_occupancy
  Dy  Dy0  1  0.995950  0.677631  0.749325  1
  Dy  Dy1  1  0.003430  0.322150  0.250642  1
  Dy  Dy2  1  0.677850  0.996570  0.749358  1
  Dy  Dy3  1  0.322369  0.004050  0.250675  1
  Al  Al4  1  0.143782  0.144323  0.749857  1
  Al  Al5  1  0.855677  0.856218  0.250143  1
  Al  Al6  1  0.999135  0.345417  0.576826  1
  Al  Al7  1  0.997194  0.652168  0.423133  1
  Al  Al8  1  0.999500  0.655124  0.078116  1
  Al  Al9  1  0.344876  0.000500  0.921884  1
  Al  Al10  1  0.000799  0.345590  0.922451  1
  Al  Al11  1  0.654410  0.999201  0.077549  1
  Al  Al12  1  0.654583  0.000865  0.423174  1
  Al  Al13  1  0.347832  0.002806  0.576867  1
  Al  Al14  1  0.341804  0.342129  0.057326  1
  Al  Al15  1  0.657871  0.658196  0.942674  1
  Al  Al16  1  0.658521  0.655809  0.555679  1
  Al  Al17  1  0.344191  0.341479  0.444321  1
  Al  Al18  1  0.338157  0.554633  0.749639  1
  Al  Al19  1  0.661423  0.444599  0.251408  1
  Al  Al20  1  0.555401  0.338577  0.748592  1
  Al  Al21  1  0.445367  0.661843  0.250361  1
  Ru  Ru22  1  0.671845  0.328155  0.500000  1
  Rh  Rh23  1  0.328295  0.671705  0.500000  1
  Rh  Rh24  1  0.328116  0.671884  0.000000  1
  Rh  Rh25  1  0.671628  0.328372  0.000000  1
  Au  Au26  1  0.000037  0.999963  0.500000  1
  Au  Au27  1  0.999957  0.000043  0.000000  1
