# generated using pymatgen
data_Ba4YHo3(Si3Pd)4
_symmetry_space_group_name_H-M   'P 1'
_cell_length_a   8.33332600
_cell_length_b   8.33332685
_cell_length_c   8.69879300
_cell_angle_alpha   90.00000000
_cell_angle_beta   90.00000000
_cell_angle_gamma   119.99999661
_symmetry_Int_Tables_number   1
_chemical_formula_structural   Ba4YHo3(Si3Pd)4
_chemical_formula_sum   'Ba4 Y1 Ho3 Si12 Pd4'
_cell_volume   523.15024241
_cell_formula_units_Z   1
loop_
 _symmetry_equiv_pos_site_id
 _symmetry_equiv_pos_as_xyz
  1  'x, y, z'
loop_
 _atom_site_type_symbol
 _atom_site_label
 _atom_site_symmetry_multiplicity
 _atom_site_fract_x
 _atom_site_fract_y
 _atom_site_fract_z
 _atom_site_occupancy
  Ba  Ba0  1  0.500164  0.000328  0.250000  1
  Ba  Ba1  1  0.999672  0.499836  0.250000  1
  Ba  Ba2  1  0.500164  0.499836  0.250000  1
  Ba  Ba3  1  0.000000  0.000000  0.250000  1
  Y  Y4  1  0.000000  0.000000  0.750000  1
  Ho  Ho5  1  0.499877  0.999755  0.750000  1
  Ho  Ho6  1  0.000245  0.500123  0.750000  1
  Ho  Ho7  1  0.499877  0.500123  0.750000  1
  Si  Si8  1  0.164194  0.328389  0.969740  1
  Si  Si9  1  0.835797  0.671595  0.969755  1
  Si  Si10  1  0.671611  0.835806  0.969740  1
  Si  Si11  1  0.835797  0.671595  0.530245  1
  Si  Si12  1  0.328405  0.164203  0.969755  1
  Si  Si13  1  0.164194  0.328389  0.530260  1
  Si  Si14  1  0.164194  0.835806  0.969740  1
  Si  Si15  1  0.328405  0.164203  0.530245  1
  Si  Si16  1  0.835797  0.164203  0.969755  1
  Si  Si17  1  0.671611  0.835806  0.530260  1
  Si  Si18  1  0.835797  0.164203  0.530245  1
  Si  Si19  1  0.164194  0.835806  0.530260  1
  Pd  Pd20  1  0.333333  0.666667  0.959653  1
  Pd  Pd21  1  0.666667  0.333333  0.958678  1
  Pd  Pd22  1  0.666667  0.333333  0.541322  1
  Pd  Pd23  1  0.333333  0.666667  0.540347  1
