# generated using pymatgen
data_NdEr3CdPt
_symmetry_space_group_name_H-M   'P 1'
_cell_length_a   9.69322005
_cell_length_b   9.67559013
_cell_length_c   9.67559044
_cell_angle_alpha   60.12059526
_cell_angle_beta   59.93969843
_cell_angle_gamma   59.93970741
_symmetry_Int_Tables_number   1
_chemical_formula_structural   NdEr3CdPt
_chemical_formula_sum   'Nd4 Er12 Cd4 Pt4'
_cell_volume   641.66023768
_cell_formula_units_Z   4
loop_
 _symmetry_equiv_pos_site_id
 _symmetry_equiv_pos_as_xyz
  1  'x, y, z'
loop_
 _atom_site_type_symbol
 _atom_site_label
 _atom_site_symmetry_multiplicity
 _atom_site_fract_x
 _atom_site_fract_y
 _atom_site_fract_z
 _atom_site_occupancy
  Nd  Nd0  1  0.565117  0.934883  0.565117  1
  Nd  Nd1  1  0.934883  0.565117  0.934883  1
  Nd  Nd2  1  0.565117  0.565117  0.934883  1
  Nd  Nd3  1  0.934883  0.934883  0.565117  1
  Er  Er4  1  0.351177  0.350625  0.350625  1
  Er  Er5  1  0.350625  0.351177  0.947575  1
  Er  Er6  1  0.350625  0.947575  0.351177  1
  Er  Er7  1  0.947575  0.350625  0.350625  1
  Er  Er8  1  0.811312  0.188688  0.188688  1
  Er  Er9  1  0.188688  0.811312  0.811312  1
  Er  Er10  1  0.189060  0.810940  0.189060  1
  Er  Er11  1  0.810940  0.189060  0.810940  1
  Er  Er12  1  0.189060  0.189060  0.810940  1
  Er  Er13  1  0.810940  0.810940  0.189060  1
  Er  Er14  1  0.941831  0.558169  0.558169  1
  Er  Er15  1  0.558169  0.941831  0.941831  1
  Cd  Cd16  1  0.583111  0.579007  0.579007  1
  Cd  Cd17  1  0.579007  0.583111  0.258874  1
  Cd  Cd18  1  0.579007  0.258874  0.583111  1
  Cd  Cd19  1  0.258874  0.579007  0.579007  1
  Pt  Pt20  1  0.145320  0.141444  0.141444  1
  Pt  Pt21  1  0.141444  0.145320  0.571792  1
  Pt  Pt22  1  0.141444  0.571792  0.145320  1
  Pt  Pt23  1  0.571792  0.141444  0.141444  1
