# generated using pymatgen
data_CuPd2PtO6
_symmetry_space_group_name_H-M   'P 1'
_cell_length_a   3.15317900
_cell_length_b   7.24074392
_cell_length_c   10.07117222
_cell_angle_alpha   89.47891853
_cell_angle_beta   90.00000000
_cell_angle_gamma   90.00000000
_symmetry_Int_Tables_number   1
_chemical_formula_structural   CuPd2PtO6
_chemical_formula_sum   'Cu2 Pd4 Pt2 O12'
_cell_volume   229.92906617
_cell_formula_units_Z   2
loop_
 _symmetry_equiv_pos_site_id
 _symmetry_equiv_pos_as_xyz
  1  'x, y, z'
loop_
 _atom_site_type_symbol
 _atom_site_label
 _atom_site_symmetry_multiplicity
 _atom_site_fract_x
 _atom_site_fract_y
 _atom_site_fract_z
 _atom_site_occupancy
  Cu  Cu0  1  0.000000  0.000000  0.000000  1
  Cu  Cu1  1  0.000000  0.500000  0.500000  1
  Pd  Pd2  1  0.000000  0.000000  0.500000  1
  Pd  Pd3  1  0.000000  0.500000  0.000000  1
  Pd  Pd4  1  0.500000  0.247682  0.248799  1
  Pd  Pd5  1  0.500000  0.752318  0.751201  1
  Pt  Pt6  1  0.500000  0.251986  0.748806  1
  Pt  Pt7  1  0.500000  0.748014  0.251194  1
  O  O8  1  0.500000  0.994120  0.144020  1
  O  O9  1  0.500000  0.005880  0.855980  1
  O  O10  1  0.500000  0.498870  0.643438  1
  O  O11  1  0.500000  0.501130  0.356562  1
  O  O12  1  0.000000  0.206456  0.372181  1
  O  O13  1  0.000000  0.793544  0.627819  1
  O  O14  1  0.000000  0.296077  0.869640  1
  O  O15  1  0.000000  0.703923  0.130360  1
  O  O16  1  0.000000  0.288939  0.124592  1
  O  O17  1  0.000000  0.711061  0.875408  1
  O  O18  1  0.000000  0.208507  0.627208  1
  O  O19  1  0.000000  0.791493  0.372792  1
