# generated using pymatgen
data_LiTi3Be2(B2Ir5)2
_symmetry_space_group_name_H-M   'P 1'
_cell_length_a   9.19993473
_cell_length_b   9.19993473
_cell_length_c   2.88624500
_cell_angle_alpha   90.00000000
_cell_angle_beta   90.00000000
_cell_angle_gamma   88.75070665
_symmetry_Int_Tables_number   1
_chemical_formula_structural   LiTi3Be2(B2Ir5)2
_chemical_formula_sum   'Li1 Ti3 Be2 B4 Ir10'
_cell_volume   244.23024231
_cell_formula_units_Z   1
loop_
 _symmetry_equiv_pos_site_id
 _symmetry_equiv_pos_as_xyz
  1  'x, y, z'
loop_
 _atom_site_type_symbol
 _atom_site_label
 _atom_site_symmetry_multiplicity
 _atom_site_fract_x
 _atom_site_fract_y
 _atom_site_fract_z
 _atom_site_occupancy
  Li  Li0  1  0.322986  0.177014  0.000000  1
  Ti  Ti1  1  0.825861  0.320405  0.000000  1
  Ti  Ti2  1  0.179595  0.674139  0.000000  1
  Ti  Ti3  1  0.672999  0.827001  0.000000  1
  Be  Be4  1  0.996102  0.998402  0.000000  1
  Be  Be5  1  0.501598  0.503898  0.000000  1
  B  B6  1  0.622647  0.132075  0.000000  1
  B  B7  1  0.139869  0.360131  0.000000  1
  B  B8  1  0.873262  0.626737  0.000000  1
  B  B9  1  0.367925  0.877352  0.000000  1
  Ir  Ir10  1  0.496672  0.003328  0.499999  1
  Ir  Ir11  1  0.790529  0.065515  0.499999  1
  Ir  Ir12  1  0.062831  0.204093  0.499999  1
  Ir  Ir13  1  0.573442  0.298412  0.499999  1
  Ir  Ir14  1  0.295907  0.437170  0.499999  1
  Ir  Ir15  1  0.002780  0.497220  0.499999  1
  Ir  Ir16  1  0.708430  0.569512  0.499999  1
  Ir  Ir17  1  0.434486  0.709470  0.499999  1
  Ir  Ir18  1  0.930487  0.791569  0.499999  1
  Ir  Ir19  1  0.201588  0.926557  0.499999  1
