# generated using pymatgen
data_Er10ScIn9Ni4
_symmetry_space_group_name_H-M   'P 1'
_cell_length_a   12.90495394
_cell_length_b   12.90495372
_cell_length_c   3.56877200
_cell_angle_alpha   90.00000000
_cell_angle_beta   90.00000000
_cell_angle_gamma   112.80599210
_symmetry_Int_Tables_number   1
_chemical_formula_structural   Er10ScIn9Ni4
_chemical_formula_sum   'Er10 Sc1 In9 Ni4'
_cell_volume   547.87195988
_cell_formula_units_Z   1
loop_
 _symmetry_equiv_pos_site_id
 _symmetry_equiv_pos_as_xyz
  1  'x, y, z'
loop_
 _atom_site_type_symbol
 _atom_site_label
 _atom_site_symmetry_multiplicity
 _atom_site_fract_x
 _atom_site_fract_y
 _atom_site_fract_z
 _atom_site_occupancy
  Er  Er0  1  0.080231  0.415674  0.000000  1
  Er  Er1  1  0.919769  0.584326  0.000000  1
  Er  Er2  1  0.415674  0.080231  0.000000  1
  Er  Er3  1  0.584326  0.919769  0.000000  1
  Er  Er4  1  0.625764  0.374236  0.000000  1
  Er  Er5  1  0.374236  0.625764  0.000000  1
  Er  Er6  1  0.841221  0.158779  0.000000  1
  Er  Er7  1  0.158779  0.841221  0.000000  1
  Er  Er8  1  0.310990  0.310990  0.000000  1
  Er  Er9  1  0.689010  0.689010  0.000000  1
  Sc  Sc10  1  0.000000  0.000000  0.000000  1
  In  In11  1  0.843626  0.367671  0.500000  1
  In  In12  1  0.156374  0.632329  0.500000  1
  In  In13  1  0.367671  0.843626  0.500000  1
  In  In14  1  0.632329  0.156374  0.500000  1
  In  In15  1  0.072713  0.213440  0.500000  1
  In  In16  1  0.927287  0.786560  0.500000  1
  In  In17  1  0.213440  0.072713  0.500000  1
  In  In18  1  0.786560  0.927287  0.500000  1
  In  In19  1  0.500000  0.500000  0.500000  1
  Ni  Ni20  1  0.248709  0.449750  0.500000  1
  Ni  Ni21  1  0.751291  0.550250  0.500000  1
  Ni  Ni22  1  0.449750  0.248709  0.500000  1
  Ni  Ni23  1  0.550250  0.751291  0.500000  1
