# generated using pymatgen
data_YbTmLu2(Ga2Ag)4
_symmetry_space_group_name_H-M   'P 1'
_cell_length_a   4.31990400
_cell_length_b   6.91580187
_cell_length_c   10.24026657
_cell_angle_alpha   90.43359890
_cell_angle_beta   90.00000000
_cell_angle_gamma   90.00000000
_symmetry_Int_Tables_number   1
_chemical_formula_structural   YbTmLu2(Ga2Ag)4
_chemical_formula_sum   'Yb1 Tm1 Lu2 Ga8 Ag4'
_cell_volume   305.92534900
_cell_formula_units_Z   1
loop_
 _symmetry_equiv_pos_site_id
 _symmetry_equiv_pos_as_xyz
  1  'x, y, z'
loop_
 _atom_site_type_symbol
 _atom_site_label
 _atom_site_symmetry_multiplicity
 _atom_site_fract_x
 _atom_site_fract_y
 _atom_site_fract_z
 _atom_site_occupancy
  Yb  Yb0  1  0.250000  0.274334  0.673929  1
  Tm  Tm1  1  0.750000  0.225283  0.173980  1
  Lu  Lu2  1  0.250000  0.776003  0.826136  1
  Lu  Lu3  1  0.750000  0.724517  0.327440  1
  Ga  Ga4  1  0.250000  0.705170  0.535829  1
  Ga  Ga5  1  0.750000  0.302255  0.463668  1
  Ga  Ga6  1  0.750000  0.794355  0.037890  1
  Ga  Ga7  1  0.250000  0.195608  0.965640  1
  Ga  Ga8  1  0.250000  0.927770  0.157646  1
  Ga  Ga9  1  0.750000  0.065732  0.848085  1
  Ga  Ga10  1  0.750000  0.572150  0.652379  1
  Ga  Ga11  1  0.250000  0.432918  0.342244  1
  Ag  Ag12  1  0.250000  0.545007  0.094671  1
  Ag  Ag13  1  0.750000  0.453668  0.901184  1
  Ag  Ag14  1  0.750000  0.958013  0.596178  1
  Ag  Ag15  1  0.250000  0.047215  0.403104  1
