# generated using pymatgen
data_Er3GaGeRu2
_symmetry_space_group_name_H-M   'P 1'
_cell_length_a   5.53854400
_cell_length_b   7.64279200
_cell_length_c   13.56713900
_cell_angle_alpha   90.00000000
_cell_angle_beta   90.00000000
_cell_angle_gamma   90.00000000
_symmetry_Int_Tables_number   1
_chemical_formula_structural   Er3GaGeRu2
_chemical_formula_sum   'Er12 Ga4 Ge4 Ru8'
_cell_volume   574.29617679
_cell_formula_units_Z   4
loop_
 _symmetry_equiv_pos_site_id
 _symmetry_equiv_pos_as_xyz
  1  'x, y, z'
loop_
 _atom_site_type_symbol
 _atom_site_label
 _atom_site_symmetry_multiplicity
 _atom_site_fract_x
 _atom_site_fract_y
 _atom_site_fract_z
 _atom_site_occupancy
  Er  Er0  1  0.151393  0.903638  0.597836  1
  Er  Er1  1  0.848607  0.096362  0.097836  1
  Er  Er2  1  0.151393  0.596362  0.402164  1
  Er  Er3  1  0.848607  0.403638  0.902164  1
  Er  Er4  1  0.848607  0.096362  0.402164  1
  Er  Er5  1  0.151393  0.903638  0.902164  1
  Er  Er6  1  0.848607  0.403638  0.597836  1
  Er  Er7  1  0.151393  0.596362  0.097836  1
  Er  Er8  1  0.373891  0.268782  0.750000  1
  Er  Er9  1  0.626109  0.731218  0.250000  1
  Er  Er10  1  0.373891  0.231218  0.250000  1
  Er  Er11  1  0.626109  0.768782  0.750000  1
  Ga  Ga12  1  0.367889  0.250000  0.500000  1
  Ga  Ga13  1  0.632111  0.750000  0.000000  1
  Ga  Ga14  1  0.632111  0.750000  0.500000  1
  Ga  Ga15  1  0.367889  0.250000  0.000000  1
  Ge  Ge16  1  0.879852  0.115955  0.750000  1
  Ge  Ge17  1  0.120148  0.884045  0.250000  1
  Ge  Ge18  1  0.879852  0.384045  0.250000  1
  Ge  Ge19  1  0.120148  0.615955  0.750000  1
  Ru  Ru20  1  0.646567  0.033967  0.595033  1
  Ru  Ru21  1  0.353433  0.966033  0.095033  1
  Ru  Ru22  1  0.646567  0.466033  0.404967  1
  Ru  Ru23  1  0.353433  0.533967  0.904967  1
  Ru  Ru24  1  0.353433  0.966033  0.404967  1
  Ru  Ru25  1  0.646567  0.033967  0.904967  1
  Ru  Ru26  1  0.353433  0.533967  0.595033  1
  Ru  Ru27  1  0.646567  0.466033  0.095033  1
