# generated using pymatgen
data_Ac8Se5S7
_symmetry_space_group_name_H-M   'P 1'
_cell_length_a   4.33564600
_cell_length_b   8.04992460
_cell_length_c   16.74600427
_cell_angle_alpha   90.01185001
_cell_angle_beta   90.00000000
_cell_angle_gamma   90.00000000
_symmetry_Int_Tables_number   1
_chemical_formula_structural   Ac8Se5S7
_chemical_formula_sum   'Ac8 Se5 S7'
_cell_volume   584.46272232
_cell_formula_units_Z   1
loop_
 _symmetry_equiv_pos_site_id
 _symmetry_equiv_pos_as_xyz
  1  'x, y, z'
loop_
 _atom_site_type_symbol
 _atom_site_label
 _atom_site_symmetry_multiplicity
 _atom_site_fract_x
 _atom_site_fract_y
 _atom_site_fract_z
 _atom_site_occupancy
  Ac  Ac0  1  0.750000  0.244653  0.539743  1
  Ac  Ac1  1  0.250000  0.753152  0.456346  1
  Ac  Ac2  1  0.750000  0.744547  0.957948  1
  Ac  Ac3  1  0.250000  0.253828  0.043895  1
  Ac  Ac4  1  0.250000  0.137404  0.798054  1
  Ac  Ac5  1  0.750000  0.856287  0.205900  1
  Ac  Ac6  1  0.250000  0.650629  0.704181  1
  Ac  Ac7  1  0.750000  0.356718  0.293124  1
  Se  Se8  1  0.250000  0.007534  0.609346  1
  Se  Se9  1  0.750000  0.992298  0.388866  1
  Se  Se10  1  0.250000  0.507571  0.891164  1
  Se  Se11  1  0.750000  0.492448  0.110592  1
  Se  Se12  1  0.750000  0.355802  0.719194  1
  S  S13  1  0.250000  0.647476  0.281570  1
  S  S14  1  0.750000  0.853492  0.782880  1
  S  S15  1  0.250000  0.147260  0.218132  1
  S  S16  1  0.250000  0.374483  0.430389  1
  S  S17  1  0.750000  0.625706  0.566396  1
  S  S18  1  0.250000  0.874550  0.068675  1
  S  S19  1  0.750000  0.124163  0.933607  1
