# generated using pymatgen
data_Ho16MgTl2ZnRh4
_symmetry_space_group_name_H-M   'P 1'
_cell_length_a   9.58746607
_cell_length_b   9.56502379
_cell_length_c   9.56502400
_cell_angle_alpha   59.67421355
_cell_angle_beta   59.76503821
_cell_angle_gamma   59.76503866
_symmetry_Int_Tables_number   1
_chemical_formula_structural   Ho16MgTl2ZnRh4
_chemical_formula_sum   'Ho16 Mg1 Tl2 Zn1 Rh4'
_cell_volume   616.50461540
_cell_formula_units_Z   1
loop_
 _symmetry_equiv_pos_site_id
 _symmetry_equiv_pos_as_xyz
  1  'x, y, z'
loop_
 _atom_site_type_symbol
 _atom_site_label
 _atom_site_symmetry_multiplicity
 _atom_site_fract_x
 _atom_site_fract_y
 _atom_site_fract_z
 _atom_site_occupancy
  Ho  Ho0  1  0.808860  0.190384  0.190384  1
  Ho  Ho1  1  0.185960  0.812328  0.812328  1
  Ho  Ho2  1  0.186575  0.811547  0.188817  1
  Ho  Ho3  1  0.809050  0.190315  0.810070  1
  Ho  Ho4  1  0.186575  0.188817  0.811547  1
  Ho  Ho5  1  0.809050  0.810070  0.190315  1
  Ho  Ho6  1  0.932133  0.564750  0.564750  1
  Ho  Ho7  1  0.561594  0.937346  0.937346  1
  Ho  Ho8  1  0.564054  0.931338  0.564142  1
  Ho  Ho9  1  0.938731  0.562177  0.935755  1
  Ho  Ho10  1  0.564054  0.564142  0.931338  1
  Ho  Ho11  1  0.938731  0.935755  0.562177  1
  Ho  Ho12  1  0.349163  0.348368  0.348368  1
  Ho  Ho13  1  0.352504  0.350566  0.950164  1
  Ho  Ho14  1  0.352504  0.950164  0.350566  1
  Ho  Ho15  1  0.941213  0.354282  0.354282  1
  Mg  Mg16  1  0.278515  0.574779  0.574779  1
  Tl  Tl17  1  0.581987  0.586990  0.247427  1
  Tl  Tl18  1  0.581987  0.247427  0.586990  1
  Zn  Zn19  1  0.582809  0.585363  0.585363  1
  Rh  Rh20  1  0.140291  0.144782  0.144782  1
  Rh  Rh21  1  0.140427  0.144317  0.571404  1
  Rh  Rh22  1  0.140427  0.571404  0.144317  1
  Rh  Rh23  1  0.572805  0.142590  0.142590  1
