# generated using pymatgen
data_Zr2Si7Rh12
_symmetry_space_group_name_H-M   'P 1'
_cell_length_a   9.67252500
_cell_length_b   9.67252406
_cell_length_c   3.81445400
_cell_angle_alpha   90.00000000
_cell_angle_beta   90.00000000
_cell_angle_gamma   120.00000662
_symmetry_Int_Tables_number   1
_chemical_formula_structural   Zr2Si7Rh12
_chemical_formula_sum   'Zr2 Si7 Rh12'
_cell_volume   309.05990335
_cell_formula_units_Z   1
loop_
 _symmetry_equiv_pos_site_id
 _symmetry_equiv_pos_as_xyz
  1  'x, y, z'
loop_
 _atom_site_type_symbol
 _atom_site_label
 _atom_site_symmetry_multiplicity
 _atom_site_fract_x
 _atom_site_fract_y
 _atom_site_fract_z
 _atom_site_occupancy
  Zr  Zr0  1  0.333333  0.666667  0.751388  1
  Zr  Zr1  1  0.666667  0.333333  0.248612  1
  Si  Si2  1  0.000000  0.000000  0.500000  1
  Si  Si3  1  0.405525  0.290427  0.750821  1
  Si  Si4  1  0.709573  0.115098  0.750821  1
  Si  Si5  1  0.884902  0.594475  0.750821  1
  Si  Si6  1  0.594475  0.709573  0.249179  1
  Si  Si7  1  0.290427  0.884902  0.249179  1
  Si  Si8  1  0.115098  0.405525  0.249179  1
  Rh  Rh9  1  0.446288  0.066319  0.752151  1
  Rh  Rh10  1  0.933681  0.379969  0.752151  1
  Rh  Rh11  1  0.620031  0.553712  0.752151  1
  Rh  Rh12  1  0.553712  0.933681  0.247849  1
  Rh  Rh13  1  0.066319  0.620031  0.247849  1
  Rh  Rh14  1  0.379969  0.446288  0.247849  1
  Rh  Rh15  1  0.144822  0.264905  0.745811  1
  Rh  Rh16  1  0.735095  0.879917  0.745811  1
  Rh  Rh17  1  0.120083  0.855178  0.745811  1
  Rh  Rh18  1  0.855178  0.735095  0.254189  1
  Rh  Rh19  1  0.264905  0.120083  0.254189  1
  Rh  Rh20  1  0.879917  0.144822  0.254189  1
