# generated using pymatgen
data_Ta8AlFeTe8
_symmetry_space_group_name_H-M   'P 1'
_cell_length_a   4.87850900
_cell_length_b   11.03028600
_cell_length_c   19.41258000
_cell_angle_alpha   90.00000000
_cell_angle_beta   90.00000000
_cell_angle_gamma   90.00000000
_symmetry_Int_Tables_number   1
_chemical_formula_structural   Ta8AlFeTe8
_chemical_formula_sum   'Ta16 Al2 Fe2 Te16'
_cell_volume   1044.61712753
_cell_formula_units_Z   2
loop_
 _symmetry_equiv_pos_site_id
 _symmetry_equiv_pos_as_xyz
  1  'x, y, z'
loop_
 _atom_site_type_symbol
 _atom_site_label
 _atom_site_symmetry_multiplicity
 _atom_site_fract_x
 _atom_site_fract_y
 _atom_site_fract_z
 _atom_site_occupancy
  Ta  Ta0  1  0.499513  0.596760  0.606847  1
  Ta  Ta1  1  0.499513  0.403240  0.393153  1
  Ta  Ta2  1  0.500487  0.096760  0.893153  1
  Ta  Ta3  1  0.500487  0.903240  0.106847  1
  Ta  Ta4  1  0.001368  0.298007  0.463313  1
  Ta  Ta5  1  0.001368  0.701993  0.536687  1
  Ta  Ta6  1  0.998632  0.798007  0.036687  1
  Ta  Ta7  1  0.998632  0.201993  0.963313  1
  Ta  Ta8  1  0.498816  0.311339  0.555041  1
  Ta  Ta9  1  0.498816  0.688661  0.444959  1
  Ta  Ta10  1  0.501184  0.811339  0.944959  1
  Ta  Ta11  1  0.501184  0.188661  0.055041  1
  Ta  Ta12  1  0.000478  0.435186  0.614393  1
  Ta  Ta13  1  0.000478  0.564814  0.385607  1
  Ta  Ta14  1  0.999522  0.935186  0.885607  1
  Ta  Ta15  1  0.999522  0.064814  0.114393  1
  Al  Al16  1  0.250019  0.500000  0.500000  1
  Al  Al17  1  0.749981  0.000000  0.000000  1
  Fe  Fe18  1  0.750018  0.500000  0.500000  1
  Fe  Fe19  1  0.249982  0.000000  0.000000  1
  Te  Te20  1  0.995021  0.664805  0.682266  1
  Te  Te21  1  0.995021  0.335195  0.317734  1
  Te  Te22  1  0.004979  0.164805  0.817734  1
  Te  Te23  1  0.004979  0.835195  0.182266  1
  Te  Te24  1  0.504966  0.389668  0.695252  1
  Te  Te25  1  0.504966  0.610332  0.304748  1
  Te  Te26  1  0.495034  0.889668  0.804748  1
  Te  Te27  1  0.495034  0.110332  0.195252  1
  Te  Te28  1  0.505564  0.155892  0.437177  1
  Te  Te29  1  0.505564  0.844108  0.562823  1
  Te  Te30  1  0.494436  0.655892  0.062823  1
  Te  Te31  1  0.494436  0.344108  0.937177  1
  Te  Te32  1  0.005283  0.321641  0.093916  1
  Te  Te33  1  0.005283  0.678359  0.906084  1
  Te  Te34  1  0.994717  0.821641  0.406084  1
  Te  Te35  1  0.994717  0.178359  0.593916  1
