# generated using pymatgen
data_Ho14Er6Ir7Ru5
_symmetry_space_group_name_H-M   'P 1'
_cell_length_a   10.77453132
_cell_length_b   10.77404517
_cell_length_c   6.38038902
_cell_angle_alpha   89.97426162
_cell_angle_beta   89.97219438
_cell_angle_gamma   90.08181091
_symmetry_Int_Tables_number   1
_chemical_formula_structural   Ho14Er6Ir7Ru5
_chemical_formula_sum   'Ho14 Er6 Ir7 Ru5'
_cell_volume   740.66837369
_cell_formula_units_Z   1
loop_
 _symmetry_equiv_pos_site_id
 _symmetry_equiv_pos_as_xyz
  1  'x, y, z'
loop_
 _atom_site_type_symbol
 _atom_site_label
 _atom_site_symmetry_multiplicity
 _atom_site_fract_x
 _atom_site_fract_y
 _atom_site_fract_z
 _atom_site_occupancy
  Ho  Ho0  1  0.293310  0.086119  0.377345  1
  Ho  Ho1  1  0.292671  0.913570  0.877326  1
  Ho  Ho2  1  0.707381  0.086454  0.877628  1
  Ho  Ho3  1  0.707166  0.913961  0.376249  1
  Ho  Ho4  1  0.586187  0.793376  0.877371  1
  Ho  Ho5  1  0.586954  0.206787  0.377451  1
  Ho  Ho6  1  0.413595  0.793183  0.377258  1
  Ho  Ho7  1  0.413542  0.206557  0.876521  1
  Ho  Ho8  1  0.206541  0.413842  0.622606  1
  Ho  Ho9  1  0.206729  0.586344  0.122775  1
  Ho  Ho10  1  0.793325  0.412978  0.122550  1
  Ho  Ho11  1  0.793539  0.586463  0.623530  1
  Ho  Ho12  1  0.913977  0.706626  0.122595  1
  Ho  Ho13  1  0.913585  0.292666  0.622354  1
  Er  Er14  1  0.086371  0.707207  0.622504  1
  Er  Er15  1  0.086025  0.292978  0.123608  1
  Er  Er16  1  0.999670  0.000872  0.499697  1
  Er  Er17  1  0.999119  0.000417  0.000293  1
  Er  Er18  1  0.500155  0.500182  0.000361  1
  Er  Er19  1  0.499789  0.499832  0.499609  1
  Ir  Ir20  1  0.847141  0.846702  0.749786  1
  Ir  Ir21  1  0.153188  0.153076  0.750419  1
  Ir  Ir22  1  0.152820  0.847007  0.250286  1
  Ir  Ir23  1  0.651855  0.348143  0.750011  1
  Ir  Ir24  1  0.652823  0.652479  0.249792  1
  Ir  Ir25  1  0.347357  0.347161  0.250167  1
  Ir  Ir26  1  0.347417  0.652431  0.749923  1
  Ru  Ru27  1  0.847837  0.152310  0.249971  1
  Ru  Ru28  1  0.500230  0.000285  0.122130  1
  Ru  Ru29  1  0.499828  0.000049  0.622132  1
  Ru  Ru30  1  0.000060  0.500137  0.877879  1
  Ru  Ru31  1  0.999815  0.499805  0.377871  1
