# generated using pymatgen
data_ErTm7(Lu3Pb4)4
_symmetry_space_group_name_H-M   'P 1'
_cell_length_a   8.11266219
_cell_length_b   8.17108446
_cell_length_c   15.41462600
_cell_angle_alpha   89.99798054
_cell_angle_beta   90.01241590
_cell_angle_gamma   90.01904507
_symmetry_Int_Tables_number   1
_chemical_formula_structural   ErTm7(Lu3Pb4)4
_chemical_formula_sum   'Er1 Tm7 Lu12 Pb16'
_cell_volume   1021.82388351
_cell_formula_units_Z   1
loop_
 _symmetry_equiv_pos_site_id
 _symmetry_equiv_pos_as_xyz
  1  'x, y, z'
loop_
 _atom_site_type_symbol
 _atom_site_label
 _atom_site_symmetry_multiplicity
 _atom_site_fract_x
 _atom_site_fract_y
 _atom_site_fract_z
 _atom_site_occupancy
  Er  Er0  1  0.039445  0.176358  0.900610  1
  Tm  Tm1  1  0.539453  0.323731  0.900620  1
  Tm  Tm2  1  0.039439  0.176324  0.599425  1
  Tm  Tm3  1  0.460562  0.676307  0.400480  1
  Tm  Tm4  1  0.960570  0.823647  0.099515  1
  Tm  Tm5  1  0.460545  0.676374  0.099509  1
  Tm  Tm6  1  0.960526  0.823686  0.400458  1
  Tm  Tm7  1  0.539423  0.323649  0.599405  1
  Lu  Lu8  1  0.377138  0.842872  0.878258  1
  Lu  Lu9  1  0.877115  0.657158  0.621832  1
  Lu  Lu10  1  0.622949  0.157035  0.378015  1
  Lu  Lu11  1  0.122922  0.342915  0.122051  1
  Lu  Lu12  1  0.622886  0.156993  0.121940  1
  Lu  Lu13  1  0.122884  0.342896  0.377981  1
  Lu  Lu14  1  0.377060  0.842913  0.621814  1
  Lu  Lu15  1  0.877087  0.657173  0.878219  1
  Lu  Lu16  1  0.208876  0.505372  0.750013  1
  Lu  Lu17  1  0.708746  0.994679  0.750005  1
  Lu  Lu18  1  0.791244  0.494709  0.249997  1
  Lu  Lu19  1  0.291286  0.005330  0.249968  1
  Pb  Pb20  1  0.281743  0.034630  0.042944  1
  Pb  Pb21  1  0.781900  0.465658  0.456883  1
  Pb  Pb22  1  0.718110  0.965779  0.542811  1
  Pb  Pb23  1  0.218055  0.534028  0.957276  1
  Pb  Pb24  1  0.718397  0.965875  0.957047  1
  Pb  Pb25  1  0.218068  0.534267  0.542802  1
  Pb  Pb26  1  0.281833  0.034342  0.456850  1
  Pb  Pb27  1  0.781801  0.465633  0.043227  1
  Pb  Pb28  1  0.570965  0.627647  0.749948  1
  Pb  Pb29  1  0.070820  0.872123  0.749960  1
  Pb  Pb30  1  0.429262  0.371872  0.250079  1
  Pb  Pb31  1  0.929198  0.128010  0.250036  1
  Pb  Pb32  1  0.350256  0.156180  0.750027  1
  Pb  Pb33  1  0.850175  0.343879  0.750057  1
  Pb  Pb34  1  0.649676  0.843762  0.249964  1
  Pb  Pb35  1  0.149586  0.656195  0.249976  1
