# generated using pymatgen
data_Tb4MoOs7
_symmetry_space_group_name_H-M   'P 1'
_cell_length_a   5.30422139
_cell_length_b   5.30422150
_cell_length_c   8.91958100
_cell_angle_alpha   90.00000000
_cell_angle_beta   90.00000000
_cell_angle_gamma   117.90977484
_symmetry_Int_Tables_number   1
_chemical_formula_structural   Tb4MoOs7
_chemical_formula_sum   'Tb4 Mo1 Os7'
_cell_volume   221.76122770
_cell_formula_units_Z   1
loop_
 _symmetry_equiv_pos_site_id
 _symmetry_equiv_pos_as_xyz
  1  'x, y, z'
loop_
 _atom_site_type_symbol
 _atom_site_label
 _atom_site_symmetry_multiplicity
 _atom_site_fract_x
 _atom_site_fract_y
 _atom_site_fract_z
 _atom_site_occupancy
  Tb  Tb0  1  0.330145  0.669855  0.438070  1
  Tb  Tb1  1  0.666323  0.333677  0.566046  1
  Tb  Tb2  1  0.666323  0.333677  0.933954  1
  Tb  Tb3  1  0.330145  0.669855  0.061930  1
  Mo  Mo4  1  0.832971  0.167029  0.250000  1
  Os  Os5  1  0.993201  0.006799  0.501761  1
  Os  Os6  1  0.993201  0.006799  0.998239  1
  Os  Os7  1  0.827184  0.652909  0.250000  1
  Os  Os8  1  0.347091  0.172816  0.250000  1
  Os  Os9  1  0.178282  0.821718  0.750000  1
  Os  Os10  1  0.172087  0.336952  0.750000  1
  Os  Os11  1  0.663048  0.827913  0.750000  1
