# generated using pymatgen
data_Ho4Ti3GaIr4
_symmetry_space_group_name_H-M   'P 1'
_cell_length_a   4.32652500
_cell_length_b   6.91228447
_cell_length_c   7.96813809
_cell_angle_alpha   92.56796017
_cell_angle_beta   90.00000000
_cell_angle_gamma   90.00000000
_symmetry_Int_Tables_number   1
_chemical_formula_structural   Ho4Ti3GaIr4
_chemical_formula_sum   'Ho4 Ti3 Ga1 Ir4'
_cell_volume   238.05720281
_cell_formula_units_Z   1
loop_
 _symmetry_equiv_pos_site_id
 _symmetry_equiv_pos_as_xyz
  1  'x, y, z'
loop_
 _atom_site_type_symbol
 _atom_site_label
 _atom_site_symmetry_multiplicity
 _atom_site_fract_x
 _atom_site_fract_y
 _atom_site_fract_z
 _atom_site_occupancy
  Ho  Ho0  1  0.250000  0.981535  0.314332  1
  Ho  Ho1  1  0.250000  0.471859  0.172600  1
  Ho  Ho2  1  0.750000  0.027529  0.688506  1
  Ho  Ho3  1  0.750000  0.511432  0.824786  1
  Ti  Ti4  1  0.250000  0.364790  0.570150  1
  Ti  Ti5  1  0.250000  0.863536  0.939082  1
  Ti  Ti6  1  0.750000  0.635741  0.430625  1
  Ga  Ga7  1  0.750000  0.147867  0.071965  1
  Ir  Ir8  1  0.250000  0.223778  0.875818  1
  Ir  Ir9  1  0.250000  0.726246  0.600035  1
  Ir  Ir10  1  0.750000  0.768893  0.110881  1
  Ir  Ir11  1  0.750000  0.276796  0.401221  1
