# generated using pymatgen
data_Tb8Hf11Si16Pd
_symmetry_space_group_name_H-M   'P 1'
_cell_length_a   7.28939155
_cell_length_b   7.28939155
_cell_length_c   13.28345671
_cell_angle_alpha   89.80263183
_cell_angle_beta   90.19736817
_cell_angle_gamma   89.85568380
_symmetry_Int_Tables_number   1
_chemical_formula_structural   Tb8Hf11Si16Pd
_chemical_formula_sum   'Tb8 Hf11 Si16 Pd1'
_cell_volume   705.80888112
_cell_formula_units_Z   1
loop_
 _symmetry_equiv_pos_site_id
 _symmetry_equiv_pos_as_xyz
  1  'x, y, z'
loop_
 _atom_site_type_symbol
 _atom_site_label
 _atom_site_symmetry_multiplicity
 _atom_site_fract_x
 _atom_site_fract_y
 _atom_site_fract_z
 _atom_site_occupancy
  Tb  Tb0  1  0.998394  0.344727  0.210670  1
  Tb  Tb1  1  0.004710  0.654816  0.716921  1
  Tb  Tb2  1  0.155933  0.494989  0.464545  1
  Tb  Tb3  1  0.499867  0.848167  0.033150  1
  Tb  Tb4  1  0.848167  0.499867  0.966850  1
  Tb  Tb5  1  0.494989  0.155933  0.535455  1
  Tb  Tb6  1  0.344727  0.998394  0.789330  1
  Tb  Tb7  1  0.654816  0.004710  0.283079  1
  Hf  Hf8  1  0.824846  0.824846  0.500000  1
  Hf  Hf9  1  0.322741  0.676214  0.248767  1
  Hf  Hf10  1  0.676214  0.322741  0.751233  1
  Hf  Hf11  1  0.146418  0.995949  0.373344  1
  Hf  Hf12  1  0.855428  0.003624  0.878385  1
  Hf  Hf13  1  0.503407  0.647098  0.626032  1
  Hf  Hf14  1  0.353799  0.493215  0.877880  1
  Hf  Hf15  1  0.493215  0.353799  0.122120  1
  Hf  Hf16  1  0.647098  0.503407  0.373968  1
  Hf  Hf17  1  0.995949  0.146418  0.626656  1
  Hf  Hf18  1  0.003624  0.855428  0.121615  1
  Si  Si19  1  0.360274  0.295462  0.315400  1
  Si  Si20  1  0.638536  0.705012  0.819254  1
  Si  Si21  1  0.206842  0.862003  0.568214  1
  Si  Si22  1  0.133436  0.782457  0.929930  1
  Si  Si23  1  0.782457  0.133436  0.070070  1
  Si  Si24  1  0.862003  0.206842  0.431786  1
  Si  Si25  1  0.295462  0.360274  0.684600  1
  Si  Si26  1  0.705012  0.638536  0.180746  1
  Si  Si27  1  0.292958  0.054246  0.185627  1
  Si  Si28  1  0.704480  0.950422  0.686710  1
  Si  Si29  1  0.450466  0.795673  0.435027  1
  Si  Si30  1  0.209525  0.560505  0.063805  1
  Si  Si31  1  0.560505  0.209525  0.936195  1
  Si  Si32  1  0.795673  0.450466  0.564973  1
  Si  Si33  1  0.054246  0.292958  0.814373  1
  Si  Si34  1  0.950422  0.704480  0.313290  1
  Pd  Pd35  1  0.173359  0.173359  0.000000  1
