# generated using pymatgen
data_Cs12Cr3MoSe16
_symmetry_space_group_name_H-M   'P 1'
_cell_length_a   10.33252000
_cell_length_b   10.32883211
_cell_length_c   12.44464400
_cell_angle_alpha   90.00000000
_cell_angle_beta   90.00000000
_cell_angle_gamma   90.24328293
_symmetry_Int_Tables_number   1
_chemical_formula_structural   Cs12Cr3MoSe16
_chemical_formula_sum   'Cs12 Cr3 Mo1 Se16'
_cell_volume   1328.11608103
_cell_formula_units_Z   1
loop_
 _symmetry_equiv_pos_site_id
 _symmetry_equiv_pos_as_xyz
  1  'x, y, z'
loop_
 _atom_site_type_symbol
 _atom_site_label
 _atom_site_symmetry_multiplicity
 _atom_site_fract_x
 _atom_site_fract_y
 _atom_site_fract_z
 _atom_site_occupancy
  Cs  Cs0  1  0.411608  0.854138  0.750000  1
  Cs  Cs1  1  0.591303  0.151333  0.250000  1
  Cs  Cs2  1  0.098457  0.344891  0.750000  1
  Cs  Cs3  1  0.700783  0.533365  0.960842  1
  Cs  Cs4  1  0.295266  0.455544  0.048098  1
  Cs  Cs5  1  0.906661  0.650149  0.250000  1
  Cs  Cs6  1  0.213980  0.962244  0.050258  1
  Cs  Cs7  1  0.295266  0.455544  0.451902  1
  Cs  Cs8  1  0.213980  0.962244  0.449742  1
  Cs  Cs9  1  0.700783  0.533365  0.539158  1
  Cs  Cs10  1  0.785213  0.049798  0.537376  1
  Cs  Cs11  1  0.785213  0.049798  0.962624  1
  Cr  Cr12  1  0.518691  0.276558  0.750000  1
  Cr  Cr13  1  0.017201  0.224961  0.250000  1
  Cr  Cr14  1  0.482258  0.724589  0.250000  1
  Mo  Mo15  1  0.981541  0.774378  0.750000  1
  Se  Se16  1  0.564486  0.519136  0.250000  1
  Se  Se17  1  0.066790  0.985413  0.750000  1
  Se  Se18  1  0.450997  0.170985  0.902326  1
  Se  Se19  1  0.049361  0.666261  0.594657  1
  Se  Se20  1  0.435651  0.483271  0.750000  1
  Se  Se21  1  0.951801  0.329946  0.097306  1
  Se  Se22  1  0.549451  0.828609  0.402187  1
  Se  Se23  1  0.755261  0.785001  0.750000  1
  Se  Se24  1  0.049361  0.666261  0.905343  1
  Se  Se25  1  0.261212  0.713283  0.250000  1
  Se  Se26  1  0.549451  0.828609  0.097813  1
  Se  Se27  1  0.239407  0.214155  0.250000  1
  Se  Se28  1  0.741169  0.286723  0.750000  1
  Se  Se29  1  0.450997  0.170985  0.597674  1
  Se  Se30  1  0.934599  0.018521  0.250000  1
  Se  Se31  1  0.951801  0.329946  0.402694  1
