# generated using pymatgen
data_Y4Th2TcRu
_symmetry_space_group_name_H-M   'P 1'
_cell_length_a   6.39493856
_cell_length_b   7.31008276
_cell_length_c   9.62951900
_cell_angle_alpha   90.00000000
_cell_angle_beta   90.00000000
_cell_angle_gamma   90.05025966
_symmetry_Int_Tables_number   1
_chemical_formula_structural   Y4Th2TcRu
_chemical_formula_sum   'Y8 Th4 Tc2 Ru2'
_cell_volume   450.15605682
_cell_formula_units_Z   2
loop_
 _symmetry_equiv_pos_site_id
 _symmetry_equiv_pos_as_xyz
  1  'x, y, z'
loop_
 _atom_site_type_symbol
 _atom_site_label
 _atom_site_symmetry_multiplicity
 _atom_site_fract_x
 _atom_site_fract_y
 _atom_site_fract_z
 _atom_site_occupancy
  Y  Y0  1  0.169601  0.173493  0.067209  1
  Y  Y1  1  0.830399  0.826507  0.932791  1
  Y  Y2  1  0.667347  0.324798  0.933467  1
  Y  Y3  1  0.830399  0.826507  0.567209  1
  Y  Y4  1  0.332653  0.675202  0.066533  1
  Y  Y5  1  0.169601  0.173493  0.432791  1
  Y  Y6  1  0.332653  0.675202  0.433467  1
  Y  Y7  1  0.667347  0.324798  0.566533  1
  Th  Th8  1  0.649765  0.051446  0.250000  1
  Th  Th9  1  0.350235  0.948554  0.750000  1
  Th  Th10  1  0.147288  0.450276  0.750000  1
  Th  Th11  1  0.852712  0.549724  0.250000  1
  Tc  Tc12  1  0.485436  0.369692  0.250000  1
  Tc  Tc13  1  0.514564  0.630308  0.750000  1
  Ru  Ru14  1  0.976936  0.129156  0.750000  1
  Ru  Ru15  1  0.023064  0.870844  0.250000  1
