# generated using pymatgen
data_Tb3Tm7(Hg2Pd)4
_symmetry_space_group_name_H-M   'P 1'
_cell_length_a   3.61028700
_cell_length_b   7.97339383
_cell_length_c   18.17795100
_cell_angle_alpha   90.05615041
_cell_angle_beta   90.00000000
_cell_angle_gamma   90.00000000
_symmetry_Int_Tables_number   1
_chemical_formula_structural   Tb3Tm7(Hg2Pd)4
_chemical_formula_sum   'Tb3 Tm7 Hg8 Pd4'
_cell_volume   523.27461048
_cell_formula_units_Z   1
loop_
 _symmetry_equiv_pos_site_id
 _symmetry_equiv_pos_as_xyz
  1  'x, y, z'
loop_
 _atom_site_type_symbol
 _atom_site_label
 _atom_site_symmetry_multiplicity
 _atom_site_fract_x
 _atom_site_fract_y
 _atom_site_fract_z
 _atom_site_occupancy
  Tb  Tb0  1  0.000000  0.500758  0.500150  1
  Tb  Tb1  1  0.000000  0.999471  0.999709  1
  Tb  Tb2  1  0.000000  0.732442  0.285563  1
  Tm  Tm3  1  0.000000  0.267536  0.714745  1
  Tm  Tm4  1  0.000000  0.767206  0.785504  1
  Tm  Tm5  1  0.000000  0.231667  0.214152  1
  Tm  Tm6  1  0.000000  0.611954  0.084458  1
  Tm  Tm7  1  0.000000  0.386771  0.914578  1
  Tm  Tm8  1  0.000000  0.887609  0.585746  1
  Tm  Tm9  1  0.000000  0.114163  0.415541  1
  Hg  Hg10  1  0.500000  0.708228  0.935450  1
  Hg  Hg11  1  0.500000  0.290462  0.063666  1
  Hg  Hg12  1  0.500000  0.793287  0.436930  1
  Hg  Hg13  1  0.500000  0.209220  0.564672  1
  Hg  Hg14  1  0.500000  0.586260  0.648700  1
  Hg  Hg15  1  0.500000  0.412314  0.351252  1
  Hg  Hg16  1  0.500000  0.914240  0.148442  1
  Hg  Hg17  1  0.500000  0.085738  0.851386  1
  Pd  Pd18  1  0.500000  0.519790  0.194990  1
  Pd  Pd19  1  0.500000  0.476578  0.803663  1
  Pd  Pd20  1  0.500000  0.976892  0.696598  1
  Pd  Pd21  1  0.500000  0.027411  0.304106  1
