# generated using pymatgen
data_K2Hf(WO4)3
_symmetry_space_group_name_H-M   'P 1'
_cell_length_a   7.42122790
_cell_length_b   7.42122825
_cell_length_c   7.47193608
_cell_angle_alpha   60.23362437
_cell_angle_beta   60.23362638
_cell_angle_gamma   60.27684005
_symmetry_Int_Tables_number   1
_chemical_formula_structural   K2Hf(WO4)3
_chemical_formula_sum   'K2 Hf1 W3 O12'
_cell_volume   292.61805372
_cell_formula_units_Z   1
loop_
 _symmetry_equiv_pos_site_id
 _symmetry_equiv_pos_as_xyz
  1  'x, y, z'
loop_
 _atom_site_type_symbol
 _atom_site_label
 _atom_site_symmetry_multiplicity
 _atom_site_fract_x
 _atom_site_fract_y
 _atom_site_fract_z
 _atom_site_occupancy
  K  K0  1  0.935228  0.758541  0.896150  1
  K  K1  1  0.241459  0.064772  0.103850  1
  Hf  Hf2  1  0.494054  0.505946  0.000000  1
  W  W3  1  0.504163  0.997114  0.497077  1
  W  W4  1  0.002886  0.495837  0.502923  1
  W  W5  1  0.499286  0.500714  0.500000  1
  O  O6  1  0.183767  0.197368  0.557817  1
  O  O7  1  0.553878  0.580533  0.195618  1
  O  O8  1  0.548368  0.182244  0.198838  1
  O  O9  1  0.184350  0.571958  0.553838  1
  O  O10  1  0.163558  0.573231  0.196690  1
  O  O11  1  0.554107  0.199771  0.554081  1
  O  O12  1  0.802632  0.816233  0.442183  1
  O  O13  1  0.419467  0.446122  0.804382  1
  O  O14  1  0.426769  0.836442  0.803310  1
  O  O15  1  0.800229  0.445893  0.445919  1
  O  O16  1  0.817756  0.451632  0.801162  1
  O  O17  1  0.428042  0.815650  0.446162  1
