# generated using pymatgen
data_Ta12Ga8CoNi3C4
_symmetry_space_group_name_H-M   'P 1'
_cell_length_a   8.22159619
_cell_length_b   8.22154294
_cell_length_c   8.22160359
_cell_angle_alpha   59.91210123
_cell_angle_beta   59.91280809
_cell_angle_gamma   59.91236319
_symmetry_Int_Tables_number   1
_chemical_formula_structural   Ta12Ga8CoNi3C4
_chemical_formula_sum   'Ta12 Ga8 Co1 Ni3 C4'
_cell_volume   392.18172813
_cell_formula_units_Z   1
loop_
 _symmetry_equiv_pos_site_id
 _symmetry_equiv_pos_as_xyz
  1  'x, y, z'
loop_
 _atom_site_type_symbol
 _atom_site_label
 _atom_site_symmetry_multiplicity
 _atom_site_fract_x
 _atom_site_fract_y
 _atom_site_fract_z
 _atom_site_occupancy
  Ta  Ta0  1  0.564094  0.936260  0.564108  1
  Ta  Ta1  1  0.313744  0.685907  0.685887  1
  Ta  Ta2  1  0.688863  0.312507  0.312516  1
  Ta  Ta3  1  0.312513  0.688863  0.312518  1
  Ta  Ta4  1  0.685885  0.685892  0.313754  1
  Ta  Ta5  1  0.312503  0.312500  0.688865  1
  Ta  Ta6  1  0.564115  0.564108  0.936246  1
  Ta  Ta7  1  0.936256  0.564093  0.564113  1
  Ta  Ta8  1  0.561137  0.937493  0.937484  1
  Ta  Ta9  1  0.937497  0.937500  0.561135  1
  Ta  Ta10  1  0.685906  0.313740  0.685892  1
  Ta  Ta11  1  0.937487  0.561137  0.937482  1
  Ga  Ga12  1  0.915721  0.915707  0.915754  1
  Ga  Ga13  1  0.999775  0.332931  0.332891  1
  Ga  Ga14  1  0.332920  0.999781  0.332889  1
  Ga  Ga15  1  0.332914  0.332922  0.999762  1
  Ga  Ga16  1  0.917080  0.250219  0.917111  1
  Ga  Ga17  1  0.917086  0.917078  0.250238  1
  Ga  Ga18  1  0.250225  0.917069  0.917109  1
  Ga  Ga19  1  0.334279  0.334293  0.334246  1
  Co  Co20  1  0.125000  0.125000  0.125000  1
  Ni  Ni21  1  0.625000  0.125000  0.125000  1
  Ni  Ni22  1  0.125000  0.625000  0.125000  1
  Ni  Ni23  1  0.125000  0.125000  0.625000  1
  C  C24  1  0.625000  0.625000  0.625000  1
  C  C25  1  0.125000  0.625000  0.625000  1
  C  C26  1  0.625000  0.125000  0.625000  1
  C  C27  1  0.625000  0.625000  0.125000  1
