# generated using pymatgen
data_YbSm2Y5(B6Os)4
_symmetry_space_group_name_H-M   'P 1'
_cell_length_a   3.67047100
_cell_length_b   9.19873210
_cell_length_c   11.59041155
_cell_angle_alpha   90.06522224
_cell_angle_beta   90.00000000
_cell_angle_gamma   90.00000000
_symmetry_Int_Tables_number   1
_chemical_formula_structural   YbSm2Y5(B6Os)4
_chemical_formula_sum   'Yb1 Sm2 Y5 B24 Os4'
_cell_volume   391.33468624
_cell_formula_units_Z   1
loop_
 _symmetry_equiv_pos_site_id
 _symmetry_equiv_pos_as_xyz
  1  'x, y, z'
loop_
 _atom_site_type_symbol
 _atom_site_label
 _atom_site_symmetry_multiplicity
 _atom_site_fract_x
 _atom_site_fract_y
 _atom_site_fract_z
 _atom_site_occupancy
  Yb  Yb0  1  0.000000  0.823159  0.086045  1
  Sm  Sm1  1  0.000000  0.322285  0.413260  1
  Sm  Sm2  1  0.000000  0.678078  0.585882  1
  Y  Y3  1  0.000000  0.176351  0.915276  1
  Y  Y4  1  0.000000  0.942941  0.370189  1
  Y  Y5  1  0.000000  0.056133  0.628144  1
  Y  Y6  1  0.000000  0.443915  0.127698  1
  Y  Y7  1  0.000000  0.558146  0.873231  1
  B  B8  1  0.500000  0.554354  0.431667  1
  B  B9  1  0.500000  0.445011  0.569016  1
  B  B10  1  0.500000  0.053262  0.067251  1
  B  B11  1  0.500000  0.945932  0.933176  1
  B  B12  1  0.500000  0.747814  0.417383  1
  B  B13  1  0.500000  0.251512  0.582282  1
  B  B14  1  0.500000  0.247330  0.080782  1
  B  B15  1  0.500000  0.753197  0.919538  1
  B  B16  1  0.500000  0.789850  0.265023  1
  B  B17  1  0.500000  0.209554  0.734657  1
  B  B18  1  0.500000  0.289822  0.232485  1
  B  B19  1  0.500000  0.711245  0.767383  1
  B  B20  1  0.500000  0.631670  0.185308  1
  B  B21  1  0.500000  0.368519  0.815273  1
  B  B22  1  0.500000  0.130620  0.312568  1
  B  B23  1  0.500000  0.869627  0.686363  1
  B  B24  1  0.500000  0.983133  0.211205  1
  B  B25  1  0.500000  0.016537  0.788188  1
  B  B26  1  0.500000  0.484657  0.286900  1
  B  B27  1  0.500000  0.515494  0.713917  1
  B  B28  1  0.500000  0.605306  0.029310  1
  B  B29  1  0.500000  0.394008  0.970746  1
  B  B30  1  0.500000  0.104796  0.470624  1
  B  B31  1  0.500000  0.895210  0.528634  1
  Os  Os32  1  0.000000  0.637475  0.320985  1
  Os  Os33  1  0.000000  0.361690  0.680157  1
  Os  Os34  1  0.000000  0.138267  0.178321  1
  Os  Os35  1  0.000000  0.863103  0.821132  1
