# generated using pymatgen
data_Hf5Zr3(Ti3Si4)4
_symmetry_space_group_name_H-M   'P 1'
_cell_length_a   6.82537636
_cell_length_b   6.82668101
_cell_length_c   12.49306468
_cell_angle_alpha   89.99488139
_cell_angle_beta   89.96266857
_cell_angle_gamma   90.00203045
_symmetry_Int_Tables_number   1
_chemical_formula_structural   Hf5Zr3(Ti3Si4)4
_chemical_formula_sum   'Hf5 Zr3 Ti12 Si16'
_cell_volume   582.11006449
_cell_formula_units_Z   1
loop_
 _symmetry_equiv_pos_site_id
 _symmetry_equiv_pos_as_xyz
  1  'x, y, z'
loop_
 _atom_site_type_symbol
 _atom_site_label
 _atom_site_symmetry_multiplicity
 _atom_site_fract_x
 _atom_site_fract_y
 _atom_site_fract_z
 _atom_site_occupancy
  Hf  Hf0  1  0.000336  0.654473  0.032617  1
  Hf  Hf1  1  0.999341  0.345620  0.532674  1
  Hf  Hf2  1  0.654867  0.000711  0.967594  1
  Hf  Hf3  1  0.154294  0.499528  0.782842  1
  Hf  Hf4  1  0.845669  0.500717  0.282633  1
  Zr  Zr5  1  0.499999  0.155002  0.217100  1
  Zr  Zr6  1  0.500237  0.844770  0.717868  1
  Zr  Zr7  1  0.344913  0.999719  0.467522  1
  Ti  Ti8  1  0.347766  0.503510  0.377033  1
  Ti  Ti9  1  0.847897  0.996274  0.372930  1
  Ti  Ti10  1  0.003408  0.152144  0.126864  1
  Ti  Ti11  1  0.996387  0.847625  0.627265  1
  Ti  Ti12  1  0.652101  0.496696  0.877319  1
  Ti  Ti13  1  0.503490  0.347824  0.623178  1
  Ti  Ti14  1  0.496764  0.652407  0.122721  1
  Ti  Ti15  1  0.151580  0.003705  0.873227  1
  Ti  Ti16  1  0.671883  0.671062  0.499827  1
  Ti  Ti17  1  0.828770  0.171760  0.750096  1
  Ti  Ti18  1  0.171065  0.828071  0.249589  1
  Ti  Ti19  1  0.328375  0.328672  0.999752  1
  Si  Si20  1  0.045446  0.706007  0.436039  1
  Si  Si21  1  0.953993  0.293345  0.936148  1
  Si  Si22  1  0.708703  0.047241  0.563672  1
  Si  Si23  1  0.205943  0.454607  0.185892  1
  Si  Si24  1  0.793945  0.545508  0.686041  1
  Si  Si25  1  0.453681  0.207906  0.814405  1
  Si  Si26  1  0.547246  0.791271  0.313657  1
  Si  Si27  1  0.292575  0.953047  0.063385  1
  Si  Si28  1  0.864237  0.794861  0.823356  1
  Si  Si29  1  0.134738  0.206113  0.322656  1
  Si  Si30  1  0.795747  0.862456  0.176915  1
  Si  Si31  1  0.293999  0.634762  0.572726  1
  Si  Si32  1  0.705806  0.364145  0.072441  1
  Si  Si33  1  0.637733  0.295946  0.427336  1
  Si  Si34  1  0.362887  0.704789  0.927334  1
  Si  Si35  1  0.204178  0.137706  0.677346  1
