# generated using pymatgen
data_LaPrTm6(WO6)4
_symmetry_space_group_name_H-M   'P 1'
_cell_length_a   5.41831200
_cell_length_b   7.73463047
_cell_length_c   11.49579229
_cell_angle_alpha   75.47892064
_cell_angle_beta   90.00000000
_cell_angle_gamma   90.00000000
_symmetry_Int_Tables_number   1
_chemical_formula_structural   LaPrTm6(WO6)4
_chemical_formula_sum   'La1 Pr1 Tm6 W4 O24'
_cell_volume   466.38301455
_cell_formula_units_Z   1
loop_
 _symmetry_equiv_pos_site_id
 _symmetry_equiv_pos_as_xyz
  1  'x, y, z'
loop_
 _atom_site_type_symbol
 _atom_site_label
 _atom_site_symmetry_multiplicity
 _atom_site_fract_x
 _atom_site_fract_y
 _atom_site_fract_z
 _atom_site_occupancy
  La  La0  1  0.687205  0.500000  0.750000  1
  Pr  Pr1  1  0.313716  0.500000  0.250000  1
  Tm  Tm2  1  0.742727  0.000000  0.750000  1
  Tm  Tm3  1  0.257441  0.000000  0.250000  1
  Tm  Tm4  1  0.186399  0.799463  0.576609  1
  Tm  Tm5  1  0.813849  0.798683  0.077173  1
  Tm  Tm6  1  0.186399  0.200537  0.923391  1
  Tm  Tm7  1  0.813849  0.201317  0.422827  1
  W  W8  1  0.253187  0.729845  0.884356  1
  W  W9  1  0.746709  0.729512  0.383722  1
  W  W10  1  0.253187  0.270155  0.615644  1
  W  W11  1  0.746709  0.270488  0.116278  1
  O  O12  1  0.039494  0.943290  0.896396  1
  O  O13  1  0.536941  0.845697  0.930772  1
  O  O14  1  0.959953  0.943706  0.395634  1
  O  O15  1  0.454741  0.799126  0.725906  1
  O  O16  1  0.463589  0.845806  0.430635  1
  O  O17  1  0.986890  0.724852  0.767628  1
  O  O18  1  0.543934  0.798257  0.225602  1
  O  O19  1  0.860509  0.643563  0.544637  1
  O  O20  1  0.343210  0.493019  0.888129  1
  O  O21  1  0.013795  0.723181  0.267871  1
  O  O22  1  0.343210  0.506981  0.611871  1
  O  O23  1  0.860509  0.356437  0.955363  1
  O  O24  1  0.141541  0.643697  0.046041  1
  O  O25  1  0.654713  0.492854  0.387690  1
  O  O26  1  0.986890  0.275148  0.732372  1
  O  O27  1  0.654713  0.507146  0.112310  1
  O  O28  1  0.141541  0.356303  0.453959  1
  O  O29  1  0.454741  0.200874  0.774094  1
  O  O30  1  0.013795  0.276819  0.232129  1
  O  O31  1  0.536941  0.154303  0.569228  1
  O  O32  1  0.543934  0.201743  0.274398  1
  O  O33  1  0.039494  0.056710  0.603604  1
  O  O34  1  0.463589  0.154194  0.069365  1
  O  O35  1  0.959953  0.056294  0.104366  1
