# generated using pymatgen
data_Nd2Tm2Al17GeIr6
_symmetry_space_group_name_H-M   'P 1'
_cell_length_a   7.57811405
_cell_length_b   7.57811354
_cell_length_c   9.51489700
_cell_angle_alpha   90.00000000
_cell_angle_beta   90.00000000
_cell_angle_gamma   119.57510032
_symmetry_Int_Tables_number   1
_chemical_formula_structural   Nd2Tm2Al17GeIr6
_chemical_formula_sum   'Nd2 Tm2 Al17 Ge1 Ir6'
_cell_volume   475.22639386
_cell_formula_units_Z   1
loop_
 _symmetry_equiv_pos_site_id
 _symmetry_equiv_pos_as_xyz
  1  'x, y, z'
loop_
 _atom_site_type_symbol
 _atom_site_label
 _atom_site_symmetry_multiplicity
 _atom_site_fract_x
 _atom_site_fract_y
 _atom_site_fract_z
 _atom_site_occupancy
  Nd  Nd0  1  0.994378  0.676060  0.250000  1
  Nd  Nd1  1  0.676060  0.994378  0.250000  1
  Tm  Tm2  1  0.003203  0.328193  0.750000  1
  Tm  Tm3  1  0.328193  0.003203  0.750000  1
  Al  Al4  1  0.873123  0.873123  0.750000  1
  Al  Al5  1  0.002310  0.337925  0.068672  1
  Al  Al6  1  0.999224  0.664554  0.921035  1
  Al  Al7  1  0.999224  0.664554  0.578965  1
  Al  Al8  1  0.337925  0.002310  0.431328  1
  Al  Al9  1  0.002310  0.337925  0.431328  1
  Al  Al10  1  0.664554  0.999224  0.578965  1
  Al  Al11  1  0.664554  0.999224  0.921035  1
  Al  Al12  1  0.337925  0.002310  0.068672  1
  Al  Al13  1  0.331560  0.331560  0.563157  1
  Al  Al14  1  0.662380  0.662380  0.456918  1
  Al  Al15  1  0.662380  0.662380  0.043082  1
  Al  Al16  1  0.331560  0.331560  0.936843  1
  Al  Al17  1  0.336418  0.550767  0.250000  1
  Al  Al18  1  0.660337  0.449726  0.750000  1
  Al  Al19  1  0.550767  0.336418  0.250000  1
  Al  Al20  1  0.449726  0.660337  0.750000  1
  Ge  Ge21  1  0.138353  0.138353  0.250000  1
  Ir  Ir22  1  0.669268  0.326600  0.997839  1
  Ir  Ir23  1  0.326600  0.669268  0.997839  1
  Ir  Ir24  1  0.326600  0.669268  0.502161  1
  Ir  Ir25  1  0.669268  0.326600  0.502161  1
  Ir  Ir26  1  0.000901  0.000901  0.997842  1
  Ir  Ir27  1  0.000901  0.000901  0.502158  1
