# generated using pymatgen
data_Li9Fe2NiF18
_symmetry_space_group_name_H-M   'P 1'
_cell_length_a   8.57279529
_cell_length_b   8.57279488
_cell_length_c   10.25874300
_cell_angle_alpha   85.96704281
_cell_angle_beta   85.96704300
_cell_angle_gamma   61.71607209
_symmetry_Int_Tables_number   1
_chemical_formula_structural   Li9Fe2NiF18
_chemical_formula_sum   'Li18 Fe4 Ni2 F36'
_cell_volume   661.69881025
_cell_formula_units_Z   2
loop_
 _symmetry_equiv_pos_site_id
 _symmetry_equiv_pos_as_xyz
  1  'x, y, z'
loop_
 _atom_site_type_symbol
 _atom_site_label
 _atom_site_symmetry_multiplicity
 _atom_site_fract_x
 _atom_site_fract_y
 _atom_site_fract_z
 _atom_site_occupancy
  Li  Li0  1  0.939303  0.653364  0.932051  1
  Li  Li1  1  0.653364  0.939303  0.432051  1
  Li  Li2  1  0.455901  0.879820  0.948375  1
  Li  Li3  1  0.879820  0.455901  0.448375  1
  Li  Li4  1  0.991289  0.287648  0.728660  1
  Li  Li5  1  0.287648  0.991289  0.228660  1
  Li  Li6  1  0.673170  0.378334  0.960420  1
  Li  Li7  1  0.378334  0.673170  0.460420  1
  Li  Li8  1  0.192870  0.808716  0.749088  1
  Li  Li9  1  0.808716  0.192870  0.249088  1
  Li  Li10  1  0.625950  0.326799  0.540707  1
  Li  Li11  1  0.326799  0.625950  0.040707  1
  Li  Li12  1  0.715018  0.005426  0.768853  1
  Li  Li13  1  0.005426  0.715018  0.268853  1
  Li  Li14  1  0.115319  0.548890  0.552027  1
  Li  Li15  1  0.548890  0.115319  0.052027  1
  Li  Li16  1  0.346494  0.057043  0.570193  1
  Li  Li17  1  0.057043  0.346494  0.070193  1
  Fe  Fe18  1  0.999766  0.999879  0.499428  1
  Fe  Fe19  1  0.999879  0.999766  0.999428  1
  Fe  Fe20  1  0.334862  0.339986  0.796656  1
  Fe  Fe21  1  0.339986  0.334862  0.296656  1
  Ni  Ni22  1  0.660786  0.665246  0.704205  1
  Ni  Ni23  1  0.665246  0.660786  0.204205  1
  F  F24  1  0.933588  0.923644  0.666598  1
  F  F25  1  0.923644  0.933588  0.166598  1
  F  F26  1  0.735622  0.769843  0.832624  1
  F  F27  1  0.584298  0.889166  0.606256  1
  F  F28  1  0.769843  0.735622  0.332624  1
  F  F29  1  0.888328  0.569491  0.609767  1
  F  F30  1  0.889166  0.584298  0.106256  1
  F  F31  1  0.569491  0.888328  0.109767  1
  F  F32  1  0.759881  0.445619  0.804922  1
  F  F33  1  0.437315  0.756201  0.802487  1
  F  F34  1  0.445619  0.759881  0.304922  1
  F  F35  1  0.756201  0.437315  0.302487  1
  F  F36  1  0.586210  0.571892  0.570927  1
  F  F37  1  0.912266  0.241574  0.561599  1
  F  F38  1  0.239790  0.906472  0.565410  1
  F  F39  1  0.571892  0.586210  0.070927  1
  F  F40  1  0.241574  0.912266  0.061599  1
  F  F41  1  0.906472  0.239790  0.065410  1
  F  F42  1  0.091979  0.759931  0.933309  1
  F  F43  1  0.759192  0.084469  0.936918  1
  F  F44  1  0.431463  0.417565  0.932171  1
  F  F45  1  0.759931  0.091979  0.433309  1
  F  F46  1  0.084469  0.759192  0.436918  1
  F  F47  1  0.417565  0.431463  0.432171  1
  F  F48  1  0.243404  0.565865  0.695227  1
  F  F49  1  0.558876  0.237071  0.693399  1
  F  F50  1  0.565865  0.243404  0.195227  1
  F  F51  1  0.237071  0.558876  0.193399  1
  F  F52  1  0.432308  0.108430  0.892636  1
  F  F53  1  0.107302  0.416250  0.896896  1
  F  F54  1  0.108430  0.432308  0.392636  1
  F  F55  1  0.226426  0.263522  0.665584  1
  F  F56  1  0.416250  0.107302  0.396896  1
  F  F57  1  0.263522  0.226426  0.165584  1
  F  F58  1  0.075592  0.067272  0.832607  1
  F  F59  1  0.067272  0.075592  0.332607  1
