# generated using pymatgen
data_YbTm7(Si3Pt)4
_symmetry_space_group_name_H-M   'P 1'
_cell_length_a   8.16888700
_cell_length_b   8.15869605
_cell_length_c   7.81709600
_cell_angle_alpha   90.00000000
_cell_angle_beta   90.00000000
_cell_angle_gamma   120.04132415
_symmetry_Int_Tables_number   1
_chemical_formula_structural   YbTm7(Si3Pt)4
_chemical_formula_sum   'Yb1 Tm7 Si12 Pt4'
_cell_volume   451.00226637
_cell_formula_units_Z   1
loop_
 _symmetry_equiv_pos_site_id
 _symmetry_equiv_pos_as_xyz
  1  'x, y, z'
loop_
 _atom_site_type_symbol
 _atom_site_label
 _atom_site_symmetry_multiplicity
 _atom_site_fract_x
 _atom_site_fract_y
 _atom_site_fract_z
 _atom_site_occupancy
  Yb  Yb0  1  0.511773  0.023546  0.250000  1
  Tm  Tm1  1  0.488898  0.977797  0.750000  1
  Tm  Tm2  1  0.977510  0.488492  0.250000  1
  Tm  Tm3  1  0.022898  0.511076  0.750000  1
  Tm  Tm4  1  0.510983  0.488492  0.250000  1
  Tm  Tm5  1  0.488177  0.511076  0.750000  1
  Tm  Tm6  1  0.000087  0.000175  0.250000  1
  Tm  Tm7  1  0.000380  0.000760  0.750000  1
  Si  Si8  1  0.164342  0.328683  0.000658  1
  Si  Si9  1  0.835235  0.670471  0.996734  1
  Si  Si10  1  0.669715  0.834906  0.002779  1
  Si  Si11  1  0.835235  0.670471  0.503266  1
  Si  Si12  1  0.330057  0.165215  0.995996  1
  Si  Si13  1  0.164342  0.328683  0.499342  1
  Si  Si14  1  0.165192  0.834906  0.002779  1
  Si  Si15  1  0.330057  0.165215  0.504004  1
  Si  Si16  1  0.835157  0.165215  0.995996  1
  Si  Si17  1  0.669715  0.834906  0.497221  1
  Si  Si18  1  0.835157  0.165215  0.504004  1
  Si  Si19  1  0.165192  0.834906  0.497221  1
  Pt  Pt20  1  0.332348  0.664697  0.034049  1
  Pt  Pt21  1  0.667600  0.335199  0.961147  1
  Pt  Pt22  1  0.667600  0.335199  0.538853  1
  Pt  Pt23  1  0.332348  0.664697  0.465951  1
