# generated using pymatgen
data_Ta6TiB8Os5Ru
_symmetry_space_group_name_H-M   'P 1'
_cell_length_a   9.61530579
_cell_length_b   9.60264036
_cell_length_c   3.11361600
_cell_angle_alpha   90.00000000
_cell_angle_beta   90.00000000
_cell_angle_gamma   119.92118319
_symmetry_Int_Tables_number   1
_chemical_formula_structural   Ta6TiB8Os5Ru
_chemical_formula_sum   'Ta6 Ti1 B8 Os5 Ru1'
_cell_volume   249.16889137
_cell_formula_units_Z   1
loop_
 _symmetry_equiv_pos_site_id
 _symmetry_equiv_pos_as_xyz
  1  'x, y, z'
loop_
 _atom_site_type_symbol
 _atom_site_label
 _atom_site_symmetry_multiplicity
 _atom_site_fract_x
 _atom_site_fract_y
 _atom_site_fract_z
 _atom_site_occupancy
  Ta  Ta0  1  0.726544  0.641157  0.000000  1
  Ta  Ta1  1  0.359439  0.087363  0.000000  1
  Ta  Ta2  1  0.914649  0.273052  0.000000  1
  Ta  Ta3  1  0.273296  0.358073  0.000000  1
  Ta  Ta4  1  0.641569  0.914422  0.000000  1
  Ta  Ta5  1  0.085697  0.727139  0.000000  1
  Ti  Ti6  1  0.999409  0.999127  0.000000  1
  B  B7  1  0.666797  0.333375  0.000000  1
  B  B8  1  0.333525  0.666893  0.000000  1
  B  B9  1  0.151303  0.937342  0.500000  1
  B  B10  1  0.063297  0.212738  0.500000  1
  B  B11  1  0.786845  0.849710  0.500000  1
  B  B12  1  0.849377  0.062879  0.500000  1
  B  B13  1  0.936092  0.785166  0.500000  1
  B  B14  1  0.211608  0.149066  0.500000  1
  Os  Os15  1  0.358761  0.847226  0.500000  1
  Os  Os16  1  0.153619  0.512809  0.500000  1
  Os  Os17  1  0.486855  0.640581  0.500000  1
  Os  Os18  1  0.640181  0.153773  0.500000  1
  Os  Os19  1  0.847041  0.487547  0.500000  1
  Ru  Ru20  1  0.514097  0.360559  0.500000  1
