# generated using pymatgen
data_Na(PPd)2
_symmetry_space_group_name_H-M   'P 1'
_cell_length_a   5.56519955
_cell_length_b   5.56519914
_cell_length_c   4.20316124
_cell_angle_alpha   67.81124894
_cell_angle_beta   67.81124711
_cell_angle_gamma   44.41839739
_symmetry_Int_Tables_number   1
_chemical_formula_structural   Na(PPd)2
_chemical_formula_sum   'Na1 P2 Pd2'
_cell_volume   83.18548534
_cell_formula_units_Z   1
loop_
 _symmetry_equiv_pos_site_id
 _symmetry_equiv_pos_as_xyz
  1  'x, y, z'
loop_
 _atom_site_type_symbol
 _atom_site_label
 _atom_site_symmetry_multiplicity
 _atom_site_fract_x
 _atom_site_fract_y
 _atom_site_fract_z
 _atom_site_occupancy
  Na  Na0  1  0.999488  0.999488  0.994976  1
  P  P1  1  0.613290  0.613290  0.383924  1
  P  P2  1  0.384460  0.384460  0.612803  1
  Pd  Pd3  1  0.249677  0.249677  0.248444  1
  Pd  Pd4  1  0.748161  0.748161  0.748863  1
