# generated using pymatgen
data_Tb5Dy(Er2Sb3)2
_symmetry_space_group_name_H-M   'P 1'
_cell_length_a   8.99885539
_cell_length_b   9.00345187
_cell_length_c   6.27749600
_cell_angle_alpha   90.00000000
_cell_angle_beta   90.00000000
_cell_angle_gamma   120.01689853
_symmetry_Int_Tables_number   1
_chemical_formula_structural   Tb5Dy(Er2Sb3)2
_chemical_formula_sum   'Tb5 Dy1 Er4 Sb6'
_cell_volume   440.39199804
_cell_formula_units_Z   1
loop_
 _symmetry_equiv_pos_site_id
 _symmetry_equiv_pos_as_xyz
  1  'x, y, z'
loop_
 _atom_site_type_symbol
 _atom_site_label
 _atom_site_symmetry_multiplicity
 _atom_site_fract_x
 _atom_site_fract_y
 _atom_site_fract_z
 _atom_site_occupancy
  Tb  Tb0  1  0.000000  0.247406  0.250000  1
  Tb  Tb1  1  0.752713  0.752617  0.250000  1
  Tb  Tb2  1  0.752725  0.000004  0.750000  1
  Tb  Tb3  1  0.247275  0.247279  0.750000  1
  Tb  Tb4  1  0.247287  0.999904  0.250000  1
  Dy  Dy5  1  0.000000  0.752604  0.750000  1
  Er  Er6  1  0.333389  0.666773  0.499970  1
  Er  Er7  1  0.666611  0.333383  0.000030  1
  Er  Er8  1  0.666611  0.333383  0.499970  1
  Er  Er9  1  0.333389  0.666773  0.000030  1
  Sb  Sb10  1  0.389279  0.999720  0.750000  1
  Sb  Sb11  1  0.389573  0.389554  0.250000  1
  Sb  Sb12  1  0.000000  0.610426  0.250000  1
  Sb  Sb13  1  0.000000  0.389753  0.750000  1
  Sb  Sb14  1  0.610721  0.610441  0.750000  1
  Sb  Sb15  1  0.610427  0.999981  0.250000  1
