# generated using pymatgen
data_ErTh3(ZnGa)4
_symmetry_space_group_name_H-M   'P 1'
_cell_length_a   4.41731500
_cell_length_b   4.41731524
_cell_length_c   15.36145600
_cell_angle_alpha   90.00000000
_cell_angle_beta   90.00000000
_cell_angle_gamma   120.00000566
_symmetry_Int_Tables_number   1
_chemical_formula_structural   ErTh3(ZnGa)4
_chemical_formula_sum   'Er1 Th3 Zn4 Ga4'
_cell_volume   259.58509498
_cell_formula_units_Z   1
loop_
 _symmetry_equiv_pos_site_id
 _symmetry_equiv_pos_as_xyz
  1  'x, y, z'
loop_
 _atom_site_type_symbol
 _atom_site_label
 _atom_site_symmetry_multiplicity
 _atom_site_fract_x
 _atom_site_fract_y
 _atom_site_fract_z
 _atom_site_occupancy
  Er  Er0  1  0.000000  0.000000  0.750000  1
  Th  Th1  1  0.000000  0.000000  0.250000  1
  Th  Th2  1  0.000000  0.000000  0.992470  1
  Th  Th3  1  0.000000  0.000000  0.507530  1
  Zn  Zn4  1  0.333333  0.666667  0.127508  1
  Zn  Zn5  1  0.666667  0.333333  0.852122  1
  Zn  Zn6  1  0.666667  0.333333  0.647878  1
  Zn  Zn7  1  0.333333  0.666667  0.372492  1
  Ga  Ga8  1  0.333333  0.666667  0.623350  1
  Ga  Ga9  1  0.666667  0.333333  0.383442  1
  Ga  Ga10  1  0.666667  0.333333  0.116558  1
  Ga  Ga11  1  0.333333  0.666667  0.876650  1
