# generated using pymatgen
data_Sc4Co16Si11Tc4P
_symmetry_space_group_name_H-M   'P 1'
_cell_length_a   3.68792700
_cell_length_b   10.38569709
_cell_length_c   11.85334709
_cell_angle_alpha   89.98551458
_cell_angle_beta   90.00000000
_cell_angle_gamma   90.00000000
_symmetry_Int_Tables_number   1
_chemical_formula_structural   Sc4Co16Si11Tc4P
_chemical_formula_sum   'Sc4 Co16 Si11 Tc4 P1'
_cell_volume   454.00324323
_cell_formula_units_Z   1
loop_
 _symmetry_equiv_pos_site_id
 _symmetry_equiv_pos_as_xyz
  1  'x, y, z'
loop_
 _atom_site_type_symbol
 _atom_site_label
 _atom_site_symmetry_multiplicity
 _atom_site_fract_x
 _atom_site_fract_y
 _atom_site_fract_z
 _atom_site_occupancy
  Sc  Sc0  1  0.250000  0.577670  0.703791  1
  Sc  Sc1  1  0.250000  0.923632  0.201732  1
  Sc  Sc2  1  0.750000  0.422205  0.297000  1
  Sc  Sc3  1  0.750000  0.079066  0.794595  1
  Co  Co4  1  0.250000  0.407171  0.488844  1
  Co  Co5  1  0.250000  0.092952  0.991349  1
  Co  Co6  1  0.750000  0.592265  0.511960  1
  Co  Co7  1  0.750000  0.912001  0.013847  1
  Co  Co8  1  0.250000  0.212297  0.174178  1
  Co  Co9  1  0.250000  0.285282  0.675087  1
  Co  Co10  1  0.750000  0.787627  0.826032  1
  Co  Co11  1  0.750000  0.713290  0.325009  1
  Co  Co12  1  0.250000  0.883926  0.699932  1
  Co  Co13  1  0.250000  0.616652  0.200387  1
  Co  Co14  1  0.750000  0.115103  0.295785  1
  Co  Co15  1  0.750000  0.382632  0.800893  1
  Co  Co16  1  0.250000  0.465231  0.932820  1
  Co  Co17  1  0.250000  0.033953  0.429970  1
  Co  Co18  1  0.750000  0.533517  0.068201  1
  Co  Co19  1  0.750000  0.965771  0.566736  1
  Si  Si20  1  0.250000  0.417379  0.118690  1
  Si  Si21  1  0.250000  0.082326  0.616560  1
  Si  Si22  1  0.750000  0.582491  0.882283  1
  Si  Si23  1  0.750000  0.917050  0.380931  1
  Si  Si24  1  0.250000  0.262596  0.864671  1
  Si  Si25  1  0.250000  0.237312  0.363726  1
  Si  Si26  1  0.750000  0.737232  0.135665  1
  Si  Si27  1  0.750000  0.762991  0.636294  1
  Si  Si28  1  0.250000  0.596041  0.392015  1
  Si  Si29  1  0.250000  0.905392  0.891414  1
  Si  Si30  1  0.750000  0.402971  0.609172  1
  Tc  Tc31  1  0.250000  0.703459  0.991473  1
  Tc  Tc32  1  0.250000  0.797768  0.491780  1
  Tc  Tc33  1  0.750000  0.293867  0.011354  1
  Tc  Tc34  1  0.750000  0.202157  0.507127  1
  P  P35  1  0.750000  0.096726  0.108698  1
