# generated using pymatgen
data_Sb14Mo5Ru
_symmetry_space_group_name_H-M   'P 1'
_cell_length_a   8.34085943
_cell_length_b   8.34085978
_cell_length_c   8.34086039
_cell_angle_alpha   109.74880589
_cell_angle_beta   109.74880688
_cell_angle_gamma   108.91746995
_symmetry_Int_Tables_number   1
_chemical_formula_structural   Sb14Mo5Ru
_chemical_formula_sum   'Sb14 Mo5 Ru1'
_cell_volume   446.66318808
_cell_formula_units_Z   1
loop_
 _symmetry_equiv_pos_site_id
 _symmetry_equiv_pos_as_xyz
  1  'x, y, z'
loop_
 _atom_site_type_symbol
 _atom_site_label
 _atom_site_symmetry_multiplicity
 _atom_site_fract_x
 _atom_site_fract_y
 _atom_site_fract_z
 _atom_site_occupancy
  Sb  Sb0  1  0.747687  0.247687  0.500000  1
  Sb  Sb1  1  0.501737  0.251805  0.750068  1
  Sb  Sb2  1  0.501737  0.751669  0.249932  1
  Sb  Sb3  1  0.251805  0.501737  0.750068  1
  Sb  Sb4  1  0.751669  0.501737  0.249932  1
  Sb  Sb5  1  0.247687  0.747687  0.500000  1
  Sb  Sb6  1  0.324848  0.324848  0.323770  1
  Sb  Sb7  1  0.000801  0.000801  0.324254  1
  Sb  Sb8  1  0.324848  0.001078  0.000000  1
  Sb  Sb9  1  0.001078  0.324848  0.000000  1
  Sb  Sb10  1  0.676548  0.000801  0.000000  1
  Sb  Sb11  1  0.000801  0.676548  0.000000  1
  Sb  Sb12  1  0.001078  0.001078  0.676230  1
  Sb  Sb13  1  0.676548  0.676548  0.675746  1
  Mo  Mo14  1  0.999396  0.340904  0.341508  1
  Mo  Mo15  1  0.999396  0.657887  0.658492  1
  Mo  Mo16  1  0.657887  0.999396  0.658492  1
  Mo  Mo17  1  0.340904  0.999396  0.341508  1
  Mo  Mo18  1  0.653587  0.653587  0.000000  1
  Ru  Ru19  1  0.339961  0.339961  0.000000  1
