# generated using pymatgen
data_Sr3(LaPt2)2
_symmetry_space_group_name_H-M   'P 1'
_cell_length_a   7.98795000
_cell_length_b   8.08469600
_cell_length_c   15.48922600
_cell_angle_alpha   90.00000000
_cell_angle_beta   90.00000000
_cell_angle_gamma   90.00000000
_symmetry_Int_Tables_number   1
_chemical_formula_structural   Sr3(LaPt2)2
_chemical_formula_sum   'Sr12 La8 Pt16'
_cell_volume   1000.29649840
_cell_formula_units_Z   4
loop_
 _symmetry_equiv_pos_site_id
 _symmetry_equiv_pos_as_xyz
  1  'x, y, z'
loop_
 _atom_site_type_symbol
 _atom_site_label
 _atom_site_symmetry_multiplicity
 _atom_site_fract_x
 _atom_site_fract_y
 _atom_site_fract_z
 _atom_site_occupancy
  Sr  Sr0  1  0.495423  0.320869  0.904302  1
  Sr  Sr1  1  0.995423  0.179131  0.595698  1
  Sr  Sr2  1  0.504577  0.679131  0.404302  1
  Sr  Sr3  1  0.004577  0.820869  0.095698  1
  Sr  Sr4  1  0.504577  0.679131  0.095698  1
  Sr  Sr5  1  0.004577  0.820869  0.404302  1
  Sr  Sr6  1  0.495423  0.320869  0.595698  1
  Sr  Sr7  1  0.995423  0.179131  0.904302  1
  Sr  Sr8  1  0.182077  0.482499  0.750000  1
  Sr  Sr9  1  0.682077  0.017501  0.750000  1
  Sr  Sr10  1  0.817923  0.517501  0.250000  1
  Sr  Sr11  1  0.317923  0.982499  0.250000  1
  La  La12  1  0.341513  0.834312  0.879089  1
  La  La13  1  0.841513  0.665688  0.620911  1
  La  La14  1  0.658487  0.165688  0.379090  1
  La  La15  1  0.158487  0.334312  0.120910  1
  La  La16  1  0.658487  0.165688  0.120910  1
  La  La17  1  0.158487  0.334312  0.379090  1
  La  La18  1  0.341513  0.834312  0.620911  1
  La  La19  1  0.841513  0.665688  0.879089  1
  Pt  Pt20  1  0.330625  0.042689  0.040396  1
  Pt  Pt21  1  0.830625  0.457311  0.459604  1
  Pt  Pt22  1  0.669375  0.957311  0.540396  1
  Pt  Pt23  1  0.169375  0.542689  0.959604  1
  Pt  Pt24  1  0.669375  0.957311  0.959604  1
  Pt  Pt25  1  0.169375  0.542689  0.540396  1
  Pt  Pt26  1  0.330625  0.042689  0.459604  1
  Pt  Pt27  1  0.830625  0.457311  0.040396  1
  Pt  Pt28  1  0.550051  0.633339  0.750000  1
  Pt  Pt29  1  0.050051  0.866661  0.750000  1
  Pt  Pt30  1  0.449949  0.366661  0.250000  1
  Pt  Pt31  1  0.949949  0.133339  0.250000  1
  Pt  Pt32  1  0.301046  0.111763  0.750000  1
  Pt  Pt33  1  0.801046  0.388237  0.750000  1
  Pt  Pt34  1  0.698954  0.888237  0.250000  1
  Pt  Pt35  1  0.198954  0.611763  0.250000  1
