# generated using pymatgen
data_Y2Er3Co2Rh
_symmetry_space_group_name_H-M   'P 1'
_cell_length_a   7.09843375
_cell_length_b   7.09843401
_cell_length_c   8.76596500
_cell_angle_alpha   113.88397863
_cell_angle_beta   113.88397956
_cell_angle_gamma   89.99999992
_symmetry_Int_Tables_number   1
_chemical_formula_structural   Y2Er3Co2Rh
_chemical_formula_sum   'Y4 Er6 Co4 Rh2'
_cell_volume   362.12040372
_cell_formula_units_Z   2
loop_
 _symmetry_equiv_pos_site_id
 _symmetry_equiv_pos_as_xyz
  1  'x, y, z'
loop_
 _atom_site_type_symbol
 _atom_site_label
 _atom_site_symmetry_multiplicity
 _atom_site_fract_x
 _atom_site_fract_y
 _atom_site_fract_z
 _atom_site_occupancy
  Y  Y0  1  0.463874  0.319139  0.283011  1
  Y  Y1  1  0.963875  0.463874  0.283011  1
  Y  Y2  1  0.319139  0.819138  0.283011  1
  Y  Y3  1  0.819138  0.963875  0.283011  1
  Er  Er4  1  0.998609  0.998609  0.997219  1
  Er  Er5  1  0.498609  0.498609  0.997219  1
  Er  Er6  1  0.181779  0.037087  0.718865  1
  Er  Er7  1  0.681778  0.181779  0.718865  1
  Er  Er8  1  0.037087  0.537086  0.718865  1
  Er  Er9  1  0.537086  0.681778  0.718865  1
  Co  Co10  1  0.610425  0.110425  0.997017  1
  Co  Co11  1  0.110425  0.386593  0.997017  1
  Co  Co12  1  0.886592  0.610425  0.997017  1
  Co  Co13  1  0.386593  0.886592  0.997017  1
  Rh  Rh14  1  0.252496  0.252496  0.504993  1
  Rh  Rh15  1  0.752496  0.752496  0.504993  1
