# generated using pymatgen
data_CaLaSm2Mo3WO14
_symmetry_space_group_name_H-M   'P 1'
_cell_length_a   7.50584172
_cell_length_b   7.54668696
_cell_length_c   7.54668700
_cell_angle_alpha   59.23984776
_cell_angle_beta   58.85417025
_cell_angle_gamma   58.85417121
_symmetry_Int_Tables_number   1
_chemical_formula_structural   CaLaSm2Mo3WO14
_chemical_formula_sum   'Ca1 La1 Sm2 Mo3 W1 O14'
_cell_volume   295.24745179
_cell_formula_units_Z   1
loop_
 _symmetry_equiv_pos_site_id
 _symmetry_equiv_pos_as_xyz
  1  'x, y, z'
loop_
 _atom_site_type_symbol
 _atom_site_label
 _atom_site_symmetry_multiplicity
 _atom_site_fract_x
 _atom_site_fract_y
 _atom_site_fract_z
 _atom_site_occupancy
  Ca  Ca0  1  0.625000  0.125000  0.125000  1
  La  La1  1  0.125000  0.125000  0.125000  1
  Sm  Sm2  1  0.125000  0.125000  0.625000  1
  Sm  Sm3  1  0.125000  0.625000  0.125000  1
  Mo  Mo4  1  0.125000  0.625000  0.625000  1
  Mo  Mo5  1  0.625000  0.125000  0.625000  1
  Mo  Mo6  1  0.625000  0.625000  0.125000  1
  W  W7  1  0.625000  0.625000  0.625000  1
  O  O8  1  0.288990  0.292349  0.698142  1
  O  O9  1  0.288990  0.698142  0.292349  1
  O  O10  1  0.961010  0.551858  0.957651  1
  O  O11  1  0.700976  0.295116  0.295116  1
  O  O12  1  0.001261  0.998433  0.998433  1
  O  O13  1  0.541767  0.551916  0.947318  1
  O  O14  1  0.295998  0.707584  0.707584  1
  O  O15  1  0.541767  0.947318  0.551916  1
  O  O16  1  0.549024  0.954884  0.954884  1
  O  O17  1  0.708233  0.698084  0.302682  1
  O  O18  1  0.248739  0.251567  0.251567  1
  O  O19  1  0.961010  0.957651  0.551858  1
  O  O20  1  0.954002  0.542416  0.542416  1
  O  O21  1  0.708233  0.302682  0.698084  1
