# generated using pymatgen
data_ErTm3Lu3CoI12
_symmetry_space_group_name_H-M   'P 1'
_cell_length_a   9.64210073
_cell_length_b   9.64209912
_cell_length_c   9.64210016
_cell_angle_alpha   106.82367899
_cell_angle_beta   106.82367784
_cell_angle_gamma   106.82367627
_symmetry_Int_Tables_number   1
_chemical_formula_structural   ErTm3Lu3CoI12
_chemical_formula_sum   'Er1 Tm3 Lu3 Co1 I12'
_cell_volume   750.11478330
_cell_formula_units_Z   1
loop_
 _symmetry_equiv_pos_site_id
 _symmetry_equiv_pos_as_xyz
  1  'x, y, z'
loop_
 _atom_site_type_symbol
 _atom_site_label
 _atom_site_symmetry_multiplicity
 _atom_site_fract_x
 _atom_site_fract_y
 _atom_site_fract_z
 _atom_site_occupancy
  Er  Er0  1  0.499994  0.499994  0.499994  1
  Tm  Tm1  1  0.715723  0.909998  0.979231  1
  Tm  Tm2  1  0.979231  0.715723  0.909998  1
  Tm  Tm3  1  0.909998  0.979231  0.715723  1
  Lu  Lu4  1  0.282329  0.089921  0.021550  1
  Lu  Lu5  1  0.021550  0.282329  0.089921  1
  Lu  Lu6  1  0.089921  0.021550  0.282329  1
  Co  Co7  1  0.000372  0.000372  0.000372  1
  I  I8  1  0.462768  0.160452  0.386369  1
  I  I9  1  0.386369  0.462768  0.160452  1
  I  I10  1  0.160452  0.386369  0.462768  1
  I  I11  1  0.536961  0.839724  0.613565  1
  I  I12  1  0.613565  0.536961  0.839724  1
  I  I13  1  0.839724  0.613565  0.536961  1
  I  I14  1  0.323864  0.776660  0.929627  1
  I  I15  1  0.929627  0.323864  0.776660  1
  I  I16  1  0.776660  0.929627  0.323864  1
  I  I17  1  0.676241  0.224100  0.070549  1
  I  I18  1  0.070549  0.676241  0.224100  1
  I  I19  1  0.224100  0.070549  0.676241  1
