# generated using pymatgen
data_Zr3Sc(SiRh5)2
_symmetry_space_group_name_H-M   'P 1'
_cell_length_a   5.58072303
_cell_length_b   5.58072324
_cell_length_c   7.98661518
_cell_angle_alpha   90.01605812
_cell_angle_beta   90.01605808
_cell_angle_gamma   98.13126067
_symmetry_Int_Tables_number   1
_chemical_formula_structural   Zr3Sc(SiRh5)2
_chemical_formula_sum   'Zr3 Sc1 Si2 Rh10'
_cell_volume   246.23821711
_cell_formula_units_Z   1
loop_
 _symmetry_equiv_pos_site_id
 _symmetry_equiv_pos_as_xyz
  1  'x, y, z'
loop_
 _atom_site_type_symbol
 _atom_site_label
 _atom_site_symmetry_multiplicity
 _atom_site_fract_x
 _atom_site_fract_y
 _atom_site_fract_z
 _atom_site_occupancy
  Zr  Zr0  1  0.217692  0.782308  0.000000  1
  Zr  Zr1  1  0.219066  0.780934  0.500000  1
  Zr  Zr2  1  0.781905  0.218095  0.000000  1
  Sc  Sc3  1  0.780264  0.219736  0.500000  1
  Si  Si4  1  0.511252  0.508591  0.748793  1
  Si  Si5  1  0.491409  0.488748  0.251207  1
  Rh  Rh6  1  0.705379  0.706161  0.005184  1
  Rh  Rh7  1  0.706236  0.705991  0.494709  1
  Rh  Rh8  1  0.293839  0.294621  0.994816  1
  Rh  Rh9  1  0.294009  0.293764  0.505291  1
  Rh  Rh10  1  0.502144  0.997003  0.749593  1
  Rh  Rh11  1  0.500358  0.006555  0.250531  1
  Rh  Rh12  1  0.000069  0.000065  0.250989  1
  Rh  Rh13  1  0.999935  0.999931  0.749011  1
  Rh  Rh14  1  0.993445  0.499642  0.749469  1
  Rh  Rh15  1  0.002997  0.497856  0.250407  1
