# generated using pymatgen
data_Ca20(GaAg3)3
_symmetry_space_group_name_H-M   'P 1'
_cell_length_a   8.05763600
_cell_length_b   8.05763600
_cell_length_c   14.66087900
_cell_angle_alpha   90.00000000
_cell_angle_beta   90.00000000
_cell_angle_gamma   90.00000000
_symmetry_Int_Tables_number   1
_chemical_formula_structural   Ca20(GaAg3)3
_chemical_formula_sum   'Ca20 Ga3 Ag9'
_cell_volume   951.86486885
_cell_formula_units_Z   1
loop_
 _symmetry_equiv_pos_site_id
 _symmetry_equiv_pos_as_xyz
  1  'x, y, z'
loop_
 _atom_site_type_symbol
 _atom_site_label
 _atom_site_symmetry_multiplicity
 _atom_site_fract_x
 _atom_site_fract_y
 _atom_site_fract_z
 _atom_site_occupancy
  Ca  Ca0  1  0.668747  0.167652  0.103326  1
  Ca  Ca1  1  0.170838  0.668836  0.605205  1
  Ca  Ca2  1  0.331253  0.832348  0.103326  1
  Ca  Ca3  1  0.829162  0.331164  0.605205  1
  Ca  Ca4  1  0.832348  0.668747  0.103326  1
  Ca  Ca5  1  0.331164  0.170838  0.605205  1
  Ca  Ca6  1  0.167652  0.331253  0.103326  1
  Ca  Ca7  1  0.668836  0.829162  0.605205  1
  Ca  Ca8  1  0.832348  0.331253  0.896674  1
  Ca  Ca9  1  0.331164  0.829162  0.394795  1
  Ca  Ca10  1  0.167652  0.668747  0.896674  1
  Ca  Ca11  1  0.668836  0.170838  0.394795  1
  Ca  Ca12  1  0.668747  0.832348  0.896674  1
  Ca  Ca13  1  0.170838  0.331164  0.394795  1
  Ca  Ca14  1  0.331253  0.167652  0.896674  1
  Ca  Ca15  1  0.829162  0.668836  0.394795  1
  Ca  Ca16  1  0.500000  0.500000  0.754466  1
  Ca  Ca17  1  0.000000  0.000000  0.252639  1
  Ca  Ca18  1  0.000000  0.000000  0.747361  1
  Ca  Ca19  1  0.500000  0.500000  0.245534  1
  Ga  Ga20  1  0.500000  0.500000  0.500000  1
  Ga  Ga21  1  0.500000  0.500000  0.000000  1
  Ga  Ga22  1  0.000000  0.000000  0.500000  1
  Ag  Ag23  1  0.625855  0.125550  0.751350  1
  Ag  Ag24  1  0.125550  0.625855  0.248650  1
  Ag  Ag25  1  0.874450  0.374145  0.248650  1
  Ag  Ag26  1  0.374145  0.874450  0.751350  1
  Ag  Ag27  1  0.874450  0.625855  0.751350  1
  Ag  Ag28  1  0.374145  0.125550  0.248650  1
  Ag  Ag29  1  0.125550  0.374145  0.751350  1
  Ag  Ag30  1  0.625855  0.874450  0.248650  1
  Ag  Ag31  1  0.000000  0.000000  0.000000  1
