# generated using pymatgen
data_Tb2Lu(SnRh)3
_symmetry_space_group_name_H-M   'P 1'
_cell_length_a   7.67782443
_cell_length_b   7.71334326
_cell_length_c   3.71369800
_cell_angle_alpha   90.00000000
_cell_angle_beta   90.00000000
_cell_angle_gamma   120.15315627
_symmetry_Int_Tables_number   1
_chemical_formula_structural   Tb2Lu(SnRh)3
_chemical_formula_sum   'Tb2 Lu1 Sn3 Rh3'
_cell_volume   190.17163123
_cell_formula_units_Z   1
loop_
 _symmetry_equiv_pos_site_id
 _symmetry_equiv_pos_as_xyz
  1  'x, y, z'
loop_
 _atom_site_type_symbol
 _atom_site_label
 _atom_site_symmetry_multiplicity
 _atom_site_fract_x
 _atom_site_fract_y
 _atom_site_fract_z
 _atom_site_occupancy
  Tb  Tb0  1  0.402956  0.402082  0.500000  1
  Tb  Tb1  1  0.597044  0.999127  0.500000  1
  Lu  Lu2  1  0.000000  0.598386  0.500000  1
  Sn  Sn3  1  0.735962  0.733123  0.000000  1
  Sn  Sn4  1  0.264038  0.997161  0.000000  1
  Sn  Sn5  1  0.000000  0.268239  0.000000  1
  Rh  Rh6  1  0.671614  0.337089  0.000000  1
  Rh  Rh7  1  0.328386  0.665476  0.000000  1
  Rh  Rh8  1  0.000000  0.999318  0.500000  1
