# generated using pymatgen
data_CePa3Co14(B2C)2
_symmetry_space_group_name_H-M   'P 1'
_cell_length_a   4.94682000
_cell_length_b   4.94681882
_cell_length_c   12.97685000
_cell_angle_alpha   90.00000000
_cell_angle_beta   90.00000000
_cell_angle_gamma   119.99999453
_symmetry_Int_Tables_number   1
_chemical_formula_structural   CePa3Co14(B2C)2
_chemical_formula_sum   'Ce1 Pa3 Co14 B4 C2'
_cell_volume   275.01225833
_cell_formula_units_Z   1
loop_
 _symmetry_equiv_pos_site_id
 _symmetry_equiv_pos_as_xyz
  1  'x, y, z'
loop_
 _atom_site_type_symbol
 _atom_site_label
 _atom_site_symmetry_multiplicity
 _atom_site_fract_x
 _atom_site_fract_y
 _atom_site_fract_z
 _atom_site_occupancy
  Ce  Ce0  1  0.000000  0.000000  0.500363  1
  Pa  Pa1  1  0.000000  0.000000  0.999651  1
  Pa  Pa2  1  0.000000  0.000000  0.258490  1
  Pa  Pa3  1  0.000000  0.000000  0.743697  1
  Co  Co4  1  0.333333  0.666667  0.002270  1
  Co  Co5  1  0.666667  0.333333  0.002270  1
  Co  Co6  1  0.500000  0.000000  0.161061  1
  Co  Co7  1  0.500000  0.500000  0.161061  1
  Co  Co8  1  0.000000  0.500000  0.161061  1
  Co  Co9  1  0.500000  0.000000  0.847450  1
  Co  Co10  1  0.500000  0.500000  0.847450  1
  Co  Co11  1  0.000000  0.500000  0.847450  1
  Co  Co12  1  0.500000  0.000000  0.374242  1
  Co  Co13  1  0.500000  0.500000  0.374242  1
  Co  Co14  1  0.000000  0.500000  0.374242  1
  Co  Co15  1  0.500000  0.000000  0.617410  1
  Co  Co16  1  0.500000  0.500000  0.617410  1
  Co  Co17  1  0.000000  0.500000  0.617410  1
  B  B18  1  0.333333  0.666667  0.497460  1
  B  B19  1  0.666667  0.333333  0.497460  1
  B  B20  1  0.666667  0.333333  0.734097  1
  B  B21  1  0.333333  0.666667  0.734097  1
  C  C22  1  0.333333  0.666667  0.264828  1
  C  C23  1  0.666667  0.333333  0.264828  1
