# generated using pymatgen
data_CsLa2Cl7
_symmetry_space_group_name_H-M   'P 1'
_cell_length_a   7.37880600
_cell_length_b   13.37045800
_cell_length_c   14.25998400
_cell_angle_alpha   90.00000000
_cell_angle_beta   90.00000000
_cell_angle_gamma   90.00000000
_symmetry_Int_Tables_number   1
_chemical_formula_structural   CsLa2Cl7
_chemical_formula_sum   'Cs4 La8 Cl28'
_cell_volume   1406.86172554
_cell_formula_units_Z   4
loop_
 _symmetry_equiv_pos_site_id
 _symmetry_equiv_pos_as_xyz
  1  'x, y, z'
loop_
 _atom_site_type_symbol
 _atom_site_label
 _atom_site_symmetry_multiplicity
 _atom_site_fract_x
 _atom_site_fract_y
 _atom_site_fract_z
 _atom_site_occupancy
  Cs  Cs0  1  0.250000  0.804113  0.040416  1
  Cs  Cs1  1  0.750000  0.195887  0.959584  1
  Cs  Cs2  1  0.750000  0.304113  0.459584  1
  Cs  Cs3  1  0.250000  0.695887  0.540416  1
  La  La4  1  0.250000  0.460514  0.237024  1
  La  La5  1  0.750000  0.539486  0.762976  1
  La  La6  1  0.750000  0.960514  0.262976  1
  La  La7  1  0.250000  0.039486  0.737024  1
  La  La8  1  0.250000  0.156310  0.249630  1
  La  La9  1  0.750000  0.843690  0.750370  1
  La  La10  1  0.750000  0.656310  0.250370  1
  La  La11  1  0.250000  0.343690  0.749630  1
  Cl  Cl12  1  0.011135  0.306512  0.176242  1
  Cl  Cl13  1  0.988865  0.693488  0.823758  1
  Cl  Cl14  1  0.988865  0.806512  0.323758  1
  Cl  Cl15  1  0.511135  0.693488  0.823758  1
  Cl  Cl16  1  0.011135  0.193488  0.676242  1
  Cl  Cl17  1  0.488865  0.306512  0.176242  1
  Cl  Cl18  1  0.488865  0.193488  0.676242  1
  Cl  Cl19  1  0.511135  0.806512  0.323758  1
  Cl  Cl20  1  0.011194  0.578048  0.124110  1
  Cl  Cl21  1  0.988806  0.421952  0.875890  1
  Cl  Cl22  1  0.988806  0.078048  0.375890  1
  Cl  Cl23  1  0.511194  0.421952  0.875890  1
  Cl  Cl24  1  0.011194  0.921952  0.624110  1
  Cl  Cl25  1  0.488806  0.578048  0.124110  1
  Cl  Cl26  1  0.488806  0.921952  0.624110  1
  Cl  Cl27  1  0.511194  0.078048  0.375890  1
  Cl  Cl28  1  0.009127  0.039797  0.134328  1
  Cl  Cl29  1  0.990873  0.960203  0.865672  1
  Cl  Cl30  1  0.990873  0.539797  0.365672  1
  Cl  Cl31  1  0.509127  0.960203  0.865672  1
  Cl  Cl32  1  0.009127  0.460203  0.634328  1
  Cl  Cl33  1  0.490873  0.039797  0.134328  1
  Cl  Cl34  1  0.490873  0.460203  0.634328  1
  Cl  Cl35  1  0.509127  0.539797  0.365672  1
  Cl  Cl36  1  0.250000  0.311749  0.388229  1
  Cl  Cl37  1  0.750000  0.688251  0.611771  1
  Cl  Cl38  1  0.750000  0.811749  0.111771  1
  Cl  Cl39  1  0.250000  0.188251  0.888229  1
