# generated using pymatgen
data_Hf8Ti2Si16Mo9W
_symmetry_space_group_name_H-M   'P 1'
_cell_length_a   6.56569588
_cell_length_b   6.73028942
_cell_length_c   12.72647644
_cell_angle_alpha   90.05229252
_cell_angle_beta   90.08100829
_cell_angle_gamma   90.03694877
_symmetry_Int_Tables_number   1
_chemical_formula_structural   Hf8Ti2Si16Mo9W
_chemical_formula_sum   'Hf8 Ti2 Si16 Mo9 W1'
_cell_volume   562.36978018
_cell_formula_units_Z   1
loop_
 _symmetry_equiv_pos_site_id
 _symmetry_equiv_pos_as_xyz
  1  'x, y, z'
loop_
 _atom_site_type_symbol
 _atom_site_label
 _atom_site_symmetry_multiplicity
 _atom_site_fract_x
 _atom_site_fract_y
 _atom_site_fract_z
 _atom_site_occupancy
  Hf  Hf0  1  0.993640  0.170325  0.094091  1
  Hf  Hf1  1  0.004049  0.828996  0.907653  1
  Hf  Hf2  1  0.503204  0.670567  0.907139  1
  Hf  Hf3  1  0.007613  0.830820  0.591307  1
  Hf  Hf4  1  0.498527  0.330061  0.093718  1
  Hf  Hf5  1  0.994467  0.170346  0.405969  1
  Hf  Hf6  1  0.497315  0.330773  0.407084  1
  Hf  Hf7  1  0.505159  0.670862  0.592754  1
  Ti  Ti8  1  0.835590  0.498656  0.249943  1
  Ti  Ti9  1  0.334621  0.165172  0.624507  1
  Si  Si10  1  0.034697  0.122165  0.749586  1
  Si  Si11  1  0.966055  0.879376  0.249476  1
  Si  Si12  1  0.462377  0.623598  0.250067  1
  Si  Si13  1  0.534133  0.375928  0.751372  1
  Si  Si14  1  0.300856  0.862662  0.749203  1
  Si  Si15  1  0.699315  0.139537  0.250036  1
  Si  Si16  1  0.200628  0.360323  0.250034  1
  Si  Si17  1  0.801206  0.639981  0.749341  1
  Si  Si18  1  0.170098  0.459520  0.541658  1
  Si  Si19  1  0.832019  0.539451  0.458999  1
  Si  Si20  1  0.331437  0.960308  0.457208  1
  Si  Si21  1  0.832140  0.538848  0.041167  1
  Si  Si22  1  0.667517  0.041238  0.541880  1
  Si  Si23  1  0.168222  0.458948  0.957474  1
  Si  Si24  1  0.667435  0.040508  0.957580  1
  Si  Si25  1  0.330594  0.959012  0.044286  1
  Mo  Mo26  1  0.332914  0.008634  0.249697  1
  Mo  Mo27  1  0.666528  0.991728  0.749822  1
  Mo  Mo28  1  0.667592  0.831600  0.375792  1
  Mo  Mo29  1  0.162249  0.663645  0.375705  1
  Mo  Mo30  1  0.666423  0.832113  0.122488  1
  Mo  Mo31  1  0.833308  0.336580  0.624735  1
  Mo  Mo32  1  0.331119  0.161071  0.880186  1
  Mo  Mo33  1  0.834149  0.336782  0.875010  1
  Mo  Mo34  1  0.163896  0.661754  0.123005  1
  W  W35  1  0.168907  0.508110  0.750024  1
