# generated using pymatgen
data_Dy4FeSi4Ir
_symmetry_space_group_name_H-M   'P 1'
_cell_length_a   5.70914379
_cell_length_b   5.70914343
_cell_length_c   10.08603864
_cell_angle_alpha   62.92015020
_cell_angle_beta   62.92015244
_cell_angle_gamma   43.07833600
_symmetry_Int_Tables_number   1
_chemical_formula_structural   Dy4FeSi4Ir
_chemical_formula_sum   'Dy4 Fe1 Si4 Ir1'
_cell_volume   195.80573137
_cell_formula_units_Z   1
loop_
 _symmetry_equiv_pos_site_id
 _symmetry_equiv_pos_as_xyz
  1  'x, y, z'
loop_
 _atom_site_type_symbol
 _atom_site_label
 _atom_site_symmetry_multiplicity
 _atom_site_fract_x
 _atom_site_fract_y
 _atom_site_fract_z
 _atom_site_occupancy
  Dy  Dy0  1  0.003989  0.003989  0.324282  1
  Dy  Dy1  1  0.997274  0.997274  0.673231  1
  Dy  Dy2  1  0.815004  0.815004  0.107013  1
  Dy  Dy3  1  0.185960  0.185960  0.890360  1
  Fe  Fe4  1  0.272445  0.272445  0.379913  1
  Si  Si5  1  0.653490  0.653490  0.430212  1
  Si  Si6  1  0.356220  0.356220  0.558972  1
  Si  Si7  1  0.498999  0.498999  0.129724  1
  Si  Si8  1  0.490184  0.490184  0.878774  1
  Ir  Ir9  1  0.726434  0.726434  0.627520  1
