# generated using pymatgen
data_Be6Ni3B4Ru5
_symmetry_space_group_name_H-M   'P 1'
_cell_length_a   7.75422973
_cell_length_b   7.75422973
_cell_length_c   2.86356200
_cell_angle_alpha   90.00000000
_cell_angle_beta   90.00000000
_cell_angle_gamma   89.52460701
_symmetry_Int_Tables_number   1
_chemical_formula_structural   Be6Ni3B4Ru5
_chemical_formula_sum   'Be6 Ni3 B4 Ru5'
_cell_volume   172.17455454
_cell_formula_units_Z   1
loop_
 _symmetry_equiv_pos_site_id
 _symmetry_equiv_pos_as_xyz
  1  'x, y, z'
loop_
 _atom_site_type_symbol
 _atom_site_label
 _atom_site_symmetry_multiplicity
 _atom_site_fract_x
 _atom_site_fract_y
 _atom_site_fract_z
 _atom_site_occupancy
  Be  Be0  1  0.991256  0.991256  0.500000  1
  Be  Be1  1  0.501057  0.501057  0.500000  1
  Be  Be2  1  0.999840  0.350279  0.500000  1
  Be  Be3  1  0.350279  0.999840  0.500000  1
  Be  Be4  1  0.652899  0.999535  0.500000  1
  Be  Be5  1  0.999535  0.652899  0.500000  1
  Ni  Ni6  1  0.837200  0.837200  0.000000  1
  Ni  Ni7  1  0.831071  0.161150  0.000000  1
  Ni  Ni8  1  0.161150  0.831071  0.000000  1
  B  B9  1  0.298310  0.298310  0.500000  1
  B  B10  1  0.297405  0.703490  0.500000  1
  B  B11  1  0.703490  0.297405  0.500000  1
  B  B12  1  0.705750  0.705750  0.500000  1
  Ru  Ru13  1  0.157831  0.157831  0.000000  1
  Ru  Ru14  1  0.500786  0.775203  0.000000  1
  Ru  Ru15  1  0.775203  0.500786  0.000000  1
  Ru  Ru16  1  0.231012  0.505928  0.000000  1
  Ru  Ru17  1  0.505928  0.231012  0.000000  1
