# generated using pymatgen
data_U3Al12Si2Rh
_symmetry_space_group_name_H-M   'P 1'
_cell_length_a   9.40450800
_cell_length_b   9.40450641
_cell_length_c   4.08001300
_cell_angle_alpha   90.00000000
_cell_angle_beta   90.00000000
_cell_angle_gamma   120.00000560
_symmetry_Int_Tables_number   1
_chemical_formula_structural   U3Al12Si2Rh
_chemical_formula_sum   'U3 Al12 Si2 Rh1'
_cell_volume   312.51023178
_cell_formula_units_Z   1
loop_
 _symmetry_equiv_pos_site_id
 _symmetry_equiv_pos_as_xyz
  1  'x, y, z'
loop_
 _atom_site_type_symbol
 _atom_site_label
 _atom_site_symmetry_multiplicity
 _atom_site_fract_x
 _atom_site_fract_y
 _atom_site_fract_z
 _atom_site_occupancy
  U  U0  1  0.000000  0.410412  0.000000  1
  U  U1  1  0.589588  0.589588  0.000000  1
  U  U2  1  0.410412  0.000000  0.000000  1
  Al  Al3  1  0.000000  0.741234  0.000000  1
  Al  Al4  1  0.258766  0.258766  0.000000  1
  Al  Al5  1  0.741234  0.000000  0.000000  1
  Al  Al6  1  0.000000  0.172529  0.500000  1
  Al  Al7  1  0.827471  0.827471  0.500000  1
  Al  Al8  1  0.172529  0.000000  0.500000  1
  Al  Al9  1  0.292899  0.471014  0.500000  1
  Al  Al10  1  0.178115  0.707101  0.500000  1
  Al  Al11  1  0.528986  0.821885  0.500000  1
  Al  Al12  1  0.821885  0.528986  0.500000  1
  Al  Al13  1  0.707101  0.178115  0.500000  1
  Al  Al14  1  0.471014  0.292899  0.500000  1
  Si  Si15  1  0.666667  0.333333  0.000000  1
  Si  Si16  1  0.333333  0.666667  0.000000  1
  Rh  Rh17  1  0.000000  0.000000  0.000000  1
