# generated using pymatgen
data_Be8TcMoOs2
_symmetry_space_group_name_H-M   'P 1'
_cell_length_a   4.37960800
_cell_length_b   4.37960818
_cell_length_c   7.14067600
_cell_angle_alpha   90.00000000
_cell_angle_beta   90.00000000
_cell_angle_gamma   119.99999860
_symmetry_Int_Tables_number   1
_chemical_formula_structural   Be8TcMoOs2
_chemical_formula_sum   'Be8 Tc1 Mo1 Os2'
_cell_volume   118.61523260
_cell_formula_units_Z   1
loop_
 _symmetry_equiv_pos_site_id
 _symmetry_equiv_pos_as_xyz
  1  'x, y, z'
loop_
 _atom_site_type_symbol
 _atom_site_label
 _atom_site_symmetry_multiplicity
 _atom_site_fract_x
 _atom_site_fract_y
 _atom_site_fract_z
 _atom_site_occupancy
  Be  Be0  1  0.000000  0.000000  0.501690  1
  Be  Be1  1  0.000000  0.000000  0.997602  1
  Be  Be2  1  0.830333  0.169667  0.254636  1
  Be  Be3  1  0.830333  0.660665  0.254636  1
  Be  Be4  1  0.339335  0.169667  0.254636  1
  Be  Be5  1  0.168155  0.831845  0.745594  1
  Be  Be6  1  0.168155  0.336309  0.745594  1
  Be  Be7  1  0.663691  0.831845  0.745594  1
  Tc  Tc8  1  0.333333  0.666667  0.432787  1
  Mo  Mo9  1  0.333333  0.666667  0.063972  1
  Os  Os10  1  0.666667  0.333333  0.557836  1
  Os  Os11  1  0.666667  0.333333  0.945421  1
