# generated using pymatgen
data_TlTe28
_symmetry_space_group_name_H-M   'P 1'
_cell_length_a   8.78736748
_cell_length_b   12.23865333
_cell_length_c   12.12994300
_cell_angle_alpha   120.74404709
_cell_angle_beta   96.10808894
_cell_angle_gamma   96.57885290
_symmetry_Int_Tables_number   1
_chemical_formula_structural   TlTe28
_chemical_formula_sum   'Tl1 Te28'
_cell_volume   1092.81083178
_cell_formula_units_Z   1
loop_
 _symmetry_equiv_pos_site_id
 _symmetry_equiv_pos_as_xyz
  1  'x, y, z'
loop_
 _atom_site_type_symbol
 _atom_site_label
 _atom_site_symmetry_multiplicity
 _atom_site_fract_x
 _atom_site_fract_y
 _atom_site_fract_z
 _atom_site_occupancy
  Tl  Tl0  1  0.500000  0.000000  0.000000  1
  Te  Te1  1  0.171875  0.089058  0.427191  1
  Te  Te2  1  0.644801  0.095893  0.434157  1
  Te  Te3  1  0.313933  0.349146  0.835527  1
  Te  Te4  1  0.812001  0.342059  0.832646  1
  Te  Te5  1  0.207340  0.647282  0.776552  1
  Te  Te6  1  0.708787  0.550638  0.680201  1
  Te  Te7  1  0.355199  0.904107  0.565843  1
  Te  Te8  1  0.828125  0.910942  0.572809  1
  Te  Te9  1  0.187999  0.657941  0.167354  1
  Te  Te10  1  0.686067  0.650854  0.164473  1
  Te  Te11  1  0.291213  0.449362  0.319799  1
  Te  Te12  1  0.792660  0.352718  0.223448  1
  Te  Te13  1  0.667819  0.076053  0.771672  1
  Te  Te14  1  0.205137  0.028685  0.786530  1
  Te  Te15  1  0.922466  0.628655  0.924923  1
  Te  Te16  1  0.452021  0.667599  0.998125  1
  Te  Te17  1  0.509513  0.290109  0.312335  1
  Te  Te18  1  0.002030  0.205795  0.294414  1
  Te  Te19  1  0.794863  0.971315  0.213470  1
  Te  Te20  1  0.332181  0.923947  0.228328  1
  Te  Te21  1  0.547979  0.332401  0.001875  1
  Te  Te22  1  0.077534  0.371345  0.075077  1
  Te  Te23  1  0.997970  0.794205  0.705586  1
  Te  Te24  1  0.490487  0.709891  0.687665  1
  Te  Te25  1  0.922851  0.295763  0.598041  1
  Te  Te26  1  0.430200  0.308236  0.604059  1
  Te  Te27  1  0.569800  0.691764  0.395941  1
  Te  Te28  1  0.077149  0.704237  0.401959  1
