# generated using pymatgen
data_Th4ZnSiRh11
_symmetry_space_group_name_H-M   'P 1'
_cell_length_a   7.31051136
_cell_length_b   7.31051085
_cell_length_c   7.31051107
_cell_angle_alpha   108.27533343
_cell_angle_beta   108.27533538
_cell_angle_gamma   111.89042347
_symmetry_Int_Tables_number   1
_chemical_formula_structural   Th4ZnSiRh11
_chemical_formula_sum   'Th4 Zn1 Si1 Rh11'
_cell_volume   300.35682858
_cell_formula_units_Z   1
loop_
 _symmetry_equiv_pos_site_id
 _symmetry_equiv_pos_as_xyz
  1  'x, y, z'
loop_
 _atom_site_type_symbol
 _atom_site_label
 _atom_site_symmetry_multiplicity
 _atom_site_fract_x
 _atom_site_fract_y
 _atom_site_fract_z
 _atom_site_occupancy
  Th  Th0  1  0.010494  0.989506  0.500000  1
  Th  Th1  1  0.010494  0.510494  0.020989  1
  Th  Th2  1  0.489506  0.989506  0.979011  1
  Th  Th3  1  0.489506  0.510494  0.500000  1
  Zn  Zn4  1  0.750000  0.250000  0.500000  1
  Si  Si5  1  0.000000  0.000000  0.000000  1
  Rh  Rh6  1  0.746740  0.491475  0.255265  1
  Rh  Rh7  1  0.508525  0.253260  0.744735  1
  Rh  Rh8  1  0.236210  0.491475  0.744735  1
  Rh  Rh9  1  0.250000  0.750000  0.500000  1
  Rh  Rh10  1  0.508525  0.763790  0.255265  1
  Rh  Rh11  1  0.718910  0.718910  0.000000  1
  Rh  Rh12  1  0.287289  0.012823  0.274466  1
  Rh  Rh13  1  0.987177  0.261643  0.274466  1
  Rh  Rh14  1  0.281090  0.281090  0.000000  1
  Rh  Rh15  1  0.738357  0.012823  0.725534  1
  Rh  Rh16  1  0.987177  0.712711  0.725534  1
