# generated using pymatgen
data_Pr2Be23Cu3
_symmetry_space_group_name_H-M   'P 1'
_cell_length_a   7.40859688
_cell_length_b   7.43812162
_cell_length_c   7.38146078
_cell_angle_alpha   59.98787328
_cell_angle_beta   60.08896329
_cell_angle_gamma   59.62653145
_symmetry_Int_Tables_number   1
_chemical_formula_structural   Pr2Be23Cu3
_chemical_formula_sum   'Pr2 Be23 Cu3'
_cell_volume   286.96941359
_cell_formula_units_Z   1
loop_
 _symmetry_equiv_pos_site_id
 _symmetry_equiv_pos_as_xyz
  1  'x, y, z'
loop_
 _atom_site_type_symbol
 _atom_site_label
 _atom_site_symmetry_multiplicity
 _atom_site_fract_x
 _atom_site_fract_y
 _atom_site_fract_z
 _atom_site_occupancy
  Pr  Pr0  1  0.251835  0.248630  0.251169  1
  Pr  Pr1  1  0.748831  0.751634  0.748165  1
  Be  Be2  1  0.500325  0.500160  0.499675  1
  Be  Be3  1  0.999535  0.999684  0.000465  1
  Be  Be4  1  0.435607  0.207304  0.564393  1
  Be  Be5  1  0.282868  0.936033  0.717132  1
  Be  Be6  1  0.716638  0.070427  0.283362  1
  Be  Be7  1  0.932395  0.279047  0.067605  1
  Be  Be8  1  0.069601  0.720951  0.930399  1
  Be  Be9  1  0.205738  0.795033  0.562068  1
  Be  Be10  1  0.791399  0.203925  0.440019  1
  Be  Be11  1  0.437932  0.562839  0.794262  1
  Be  Be12  1  0.559981  0.435342  0.208601  1
  Be  Be13  1  0.714545  0.283724  0.935452  1
  Be  Be14  1  0.284342  0.716001  0.065832  1
  Be  Be15  1  0.064548  0.933722  0.285455  1
  Be  Be16  1  0.934168  0.066175  0.715658  1
  Be  Be17  1  0.568180  0.208639  0.788213  1
  Be  Be18  1  0.430717  0.790124  0.209268  1
  Be  Be19  1  0.790732  0.430108  0.569283  1
  Be  Be20  1  0.211787  0.565031  0.431820  1
  Be  Be21  1  0.939744  0.713898  0.286128  1
  Be  Be22  1  0.063928  0.285075  0.712128  1
  Be  Be23  1  0.287872  0.061131  0.936072  1
  Be  Be24  1  0.713872  0.939770  0.060256  1
  Cu  Cu25  1  0.802196  0.557065  0.197804  1
  Cu  Cu26  1  0.200882  0.438987  0.799118  1
  Cu  Cu27  1  0.559804  0.799543  0.440196  1
