# generated using pymatgen
data_HfAg2F6
_symmetry_space_group_name_H-M   'P 1'
_cell_length_a   5.88576900
_cell_length_b   5.88576970
_cell_length_c   4.99528500
_cell_angle_alpha   90.00000000
_cell_angle_beta   90.00000000
_cell_angle_gamma   120.00000166
_symmetry_Int_Tables_number   1
_chemical_formula_structural   HfAg2F6
_chemical_formula_sum   'Hf1 Ag2 F6'
_cell_volume   149.86401872
_cell_formula_units_Z   1
loop_
 _symmetry_equiv_pos_site_id
 _symmetry_equiv_pos_as_xyz
  1  'x, y, z'
loop_
 _atom_site_type_symbol
 _atom_site_label
 _atom_site_symmetry_multiplicity
 _atom_site_fract_x
 _atom_site_fract_y
 _atom_site_fract_z
 _atom_site_occupancy
  Hf  Hf0  1  0.000000  0.000000  0.000000  1
  Ag  Ag1  1  0.666667  0.333334  0.499999  1
  Ag  Ag2  1  0.333334  0.666667  0.499999  1
  F  F3  1  0.280342  0.000000  0.231910  1
  F  F4  1  0.000000  0.280341  0.231910  1
  F  F5  1  0.719657  0.719657  0.231910  1
  F  F6  1  0.719657  0.000000  0.768091  1
  F  F7  1  0.280341  0.280341  0.768091  1
  F  F8  1  0.000000  0.719657  0.768091  1
