# generated using pymatgen
data_YHo2Tm(Ir2O7)2
_symmetry_space_group_name_H-M   'P 1'
_cell_length_a   7.22377021
_cell_length_b   7.22523814
_cell_length_c   7.22377026
_cell_angle_alpha   60.03159400
_cell_angle_beta   60.02813638
_cell_angle_gamma   60.03158464
_symmetry_Int_Tables_number   1
_chemical_formula_structural   YHo2Tm(Ir2O7)2
_chemical_formula_sum   'Y1 Ho2 Tm1 Ir4 O14'
_cell_volume   266.78694048
_cell_formula_units_Z   1
loop_
 _symmetry_equiv_pos_site_id
 _symmetry_equiv_pos_as_xyz
  1  'x, y, z'
loop_
 _atom_site_type_symbol
 _atom_site_label
 _atom_site_symmetry_multiplicity
 _atom_site_fract_x
 _atom_site_fract_y
 _atom_site_fract_z
 _atom_site_occupancy
  Y  Y0  1  0.125000  0.625000  0.125000  1
  Ho  Ho1  1  0.625000  0.125000  0.125000  1
  Ho  Ho2  1  0.125000  0.125000  0.625000  1
  Tm  Tm3  1  0.125000  0.125000  0.125000  1
  Ir  Ir4  1  0.125000  0.625000  0.625000  1
  Ir  Ir5  1  0.625000  0.125000  0.625000  1
  Ir  Ir6  1  0.625000  0.625000  0.125000  1
  Ir  Ir7  1  0.625000  0.625000  0.625000  1
  O  O8  1  0.711588  0.714743  0.286644  1
  O  O9  1  0.286339  0.286042  0.715431  1
  O  O10  1  0.713483  0.286198  0.713483  1
  O  O11  1  0.286462  0.716804  0.286462  1
  O  O12  1  0.286644  0.714743  0.711588  1
  O  O13  1  0.715431  0.286042  0.286339  1
  O  O14  1  0.538412  0.535257  0.963356  1
  O  O15  1  0.963661  0.963958  0.534569  1
  O  O16  1  0.536517  0.963802  0.536517  1
  O  O17  1  0.963538  0.533196  0.963538  1
  O  O18  1  0.963356  0.535257  0.538412  1
  O  O19  1  0.534569  0.963958  0.963661  1
  O  O20  1  0.249424  0.247267  0.249424  1
  O  O21  1  0.000576  0.002733  0.000576  1
