# generated using pymatgen
data_Rb13Ti2In5GeAs10
_symmetry_space_group_name_H-M   'P 1'
_cell_length_a   9.63863564
_cell_length_b   9.63509231
_cell_length_c   13.73616560
_cell_angle_alpha   80.78143108
_cell_angle_beta   78.19122738
_cell_angle_gamma   63.10597328
_symmetry_Int_Tables_number   1
_chemical_formula_structural   Rb13Ti2In5GeAs10
_chemical_formula_sum   'Rb13 Ti2 In5 Ge1 As10'
_cell_volume   1110.27078471
_cell_formula_units_Z   1
loop_
 _symmetry_equiv_pos_site_id
 _symmetry_equiv_pos_as_xyz
  1  'x, y, z'
loop_
 _atom_site_type_symbol
 _atom_site_label
 _atom_site_symmetry_multiplicity
 _atom_site_fract_x
 _atom_site_fract_y
 _atom_site_fract_z
 _atom_site_occupancy
  Rb  Rb0  1  0.493621  0.868673  0.353654  1
  Rb  Rb1  1  0.495902  0.139479  0.644401  1
  Rb  Rb2  1  0.852783  0.587616  0.884908  1
  Rb  Rb3  1  0.143931  0.414986  0.116696  1
  Rb  Rb4  1  0.090788  0.781583  0.428481  1
  Rb  Rb5  1  0.905981  0.212361  0.569039  1
  Rb  Rb6  1  0.742460  0.685131  0.593144  1
  Rb  Rb7  1  0.254933  0.319787  0.400154  1
  Rb  Rb8  1  0.500552  0.499466  0.000566  1
  Rb  Rb9  1  0.323062  0.933815  0.089011  1
  Rb  Rb10  1  0.682262  0.064466  0.914861  1
  Rb  Rb11  1  0.886465  0.861018  0.168542  1
  Rb  Rb12  1  0.107396  0.143674  0.841098  1
  Ti  Ti13  1  0.378366  0.737924  0.773841  1
  Ti  Ti14  1  0.621510  0.261554  0.224921  1
  In  In15  1  0.977760  0.182558  0.292515  1
  In  In16  1  0.604984  0.442558  0.404213  1
  In  In17  1  0.407213  0.550945  0.588953  1
  In  In18  1  0.724791  0.567178  0.165422  1
  In  In19  1  0.280297  0.428423  0.835982  1
  Ge  Ge20  1  0.054188  0.792258  0.711207  1
  As  As21  1  0.432871  0.552490  0.249815  1
  As  As22  1  0.567133  0.448023  0.749462  1
  As  As23  1  0.132360  0.750639  0.887681  1
  As  As24  1  0.863880  0.252222  0.104960  1
  As  As25  1  0.708749  0.124428  0.393030  1
  As  As26  1  0.274228  0.871633  0.612046  1
  As  As27  1  0.859180  0.510834  0.354623  1
  As  As28  1  0.135296  0.509301  0.650756  1
  As  As29  1  0.499108  0.865356  0.837158  1
  As  As30  1  0.497951  0.139624  0.158861  1
