# generated using pymatgen
data_Nb4Co2AuSe12
_symmetry_space_group_name_H-M   'P 1'
_cell_length_a   6.99691555
_cell_length_b   6.99691499
_cell_length_c   19.36729796
_cell_angle_alpha   72.44493918
_cell_angle_beta   72.44494094
_cell_angle_gamma   28.30561938
_symmetry_Int_Tables_number   1
_chemical_formula_structural   Nb4Co2AuSe12
_chemical_formula_sum   'Nb4 Co2 Au1 Se12'
_cell_volume   427.28920493
_cell_formula_units_Z   1
loop_
 _symmetry_equiv_pos_site_id
 _symmetry_equiv_pos_as_xyz
  1  'x, y, z'
loop_
 _atom_site_type_symbol
 _atom_site_label
 _atom_site_symmetry_multiplicity
 _atom_site_fract_x
 _atom_site_fract_y
 _atom_site_fract_z
 _atom_site_occupancy
  Nb  Nb0  1  0.742282  0.742282  0.591949  1
  Nb  Nb1  1  0.257718  0.257718  0.408051  1
  Nb  Nb2  1  0.621511  0.621511  0.848398  1
  Nb  Nb3  1  0.378489  0.378489  0.151602  1
  Co  Co4  1  0.771988  0.771988  0.281778  1
  Co  Co5  1  0.228012  0.228012  0.718222  1
  Au  Au6  1  0.000000  0.000000  0.000000  1
  Se  Se7  1  0.870170  0.870170  0.454864  1
  Se  Se8  1  0.033111  0.033111  0.121092  1
  Se  Se9  1  0.808846  0.808846  0.765996  1
  Se  Se10  1  0.398058  0.398058  0.282323  1
  Se  Se11  1  0.190280  0.190280  0.925316  1
  Se  Se12  1  0.601942  0.601942  0.717677  1
  Se  Se13  1  0.129830  0.129830  0.545136  1
  Se  Se14  1  0.809720  0.809720  0.074684  1
  Se  Se15  1  0.373143  0.373143  0.612665  1
  Se  Se16  1  0.966889  0.966889  0.878908  1
  Se  Se17  1  0.191154  0.191154  0.234004  1
  Se  Se18  1  0.626857  0.626857  0.387335  1
