# generated using pymatgen
data_Lu12GaCo2Ni2Rh
_symmetry_space_group_name_H-M   'P 1'
_cell_length_a   8.07665376
_cell_length_b   8.07665381
_cell_length_c   8.07665400
_cell_angle_alpha   110.97681158
_cell_angle_beta   109.07523026
_cell_angle_gamma   108.37292234
_symmetry_Int_Tables_number   1
_chemical_formula_structural   Lu12GaCo2Ni2Rh
_chemical_formula_sum   'Lu12 Ga1 Co2 Ni2 Rh1'
_cell_volume   405.35077599
_cell_formula_units_Z   1
loop_
 _symmetry_equiv_pos_site_id
 _symmetry_equiv_pos_as_xyz
  1  'x, y, z'
loop_
 _atom_site_type_symbol
 _atom_site_label
 _atom_site_symmetry_multiplicity
 _atom_site_fract_x
 _atom_site_fract_y
 _atom_site_fract_z
 _atom_site_occupancy
  Lu  Lu0  1  0.039262  0.728685  0.310577  1
  Lu  Lu1  1  0.960738  0.271315  0.689423  1
  Lu  Lu2  1  0.581889  0.271315  0.310577  1
  Lu  Lu3  1  0.418111  0.728685  0.689423  1
  Lu  Lu4  1  0.678428  0.872185  0.193757  1
  Lu  Lu5  1  0.321572  0.515329  0.193757  1
  Lu  Lu6  1  0.321572  0.127815  0.806243  1
  Lu  Lu7  1  0.678428  0.484671  0.806243  1
  Lu  Lu8  1  0.180486  0.214653  0.395139  1
  Lu  Lu9  1  0.819514  0.214653  0.034166  1
  Lu  Lu10  1  0.180486  0.785347  0.965834  1
  Lu  Lu11  1  0.819514  0.785347  0.604861  1
  Ga  Ga12  1  0.500000  0.000000  0.500000  1
  Co  Co13  1  0.882576  0.882576  0.000000  1
  Co  Co14  1  0.117424  0.117424  0.000000  1
  Ni  Ni15  1  0.646110  0.500000  0.146110  1
  Ni  Ni16  1  0.353890  0.500000  0.853890  1
  Rh  Rh17  1  0.000000  0.500000  0.500000  1
