# generated using pymatgen
data_SrMn2PbCl12
_symmetry_space_group_name_H-M   'P 1'
_cell_length_a   6.32527306
_cell_length_b   6.32527585
_cell_length_c   10.94586200
_cell_angle_alpha   83.82967280
_cell_angle_beta   83.82965185
_cell_angle_gamma   79.38056302
_symmetry_Int_Tables_number   1
_chemical_formula_structural   SrMn2PbCl12
_chemical_formula_sum   'Sr1 Mn2 Pb1 Cl12'
_cell_volume   426.21385355
_cell_formula_units_Z   1
loop_
 _symmetry_equiv_pos_site_id
 _symmetry_equiv_pos_as_xyz
  1  'x, y, z'
loop_
 _atom_site_type_symbol
 _atom_site_label
 _atom_site_symmetry_multiplicity
 _atom_site_fract_x
 _atom_site_fract_y
 _atom_site_fract_z
 _atom_site_occupancy
  Sr  Sr0  1  0.976406  0.023594  0.250000  1
  Mn  Mn1  1  0.484751  0.989089  0.492516  1
  Mn  Mn2  1  0.010911  0.515249  0.007484  1
  Pb  Pb3  1  0.062786  0.937214  0.750000  1
  Cl  Cl4  1  0.338097  0.693818  0.580635  1
  Cl  Cl5  1  0.629993  0.277300  0.410714  1
  Cl  Cl6  1  0.306182  0.661903  0.919365  1
  Cl  Cl7  1  0.722700  0.370007  0.089286  1
  Cl  Cl8  1  0.488433  0.086604  0.688788  1
  Cl  Cl9  1  0.465224  0.891206  0.298386  1
  Cl  Cl10  1  0.913396  0.511567  0.811212  1
  Cl  Cl11  1  0.108794  0.534776  0.201614  1
  Cl  Cl12  1  0.812285  0.855526  0.014453  1
  Cl  Cl13  1  0.215653  0.180085  0.003639  1
  Cl  Cl14  1  0.144474  0.187715  0.485547  1
  Cl  Cl15  1  0.819915  0.784347  0.496361  1
