# generated using pymatgen
data_DyPa(Ga2Pd)2
_symmetry_space_group_name_H-M   'P 1'
_cell_length_a   5.52482593
_cell_length_b   5.52482611
_cell_length_c   6.61067300
_cell_angle_alpha   90.00000000
_cell_angle_beta   90.00000000
_cell_angle_gamma   132.00496229
_symmetry_Int_Tables_number   1
_chemical_formula_structural   DyPa(Ga2Pd)2
_chemical_formula_sum   'Dy1 Pa1 Ga4 Pd2'
_cell_volume   149.94171566
_cell_formula_units_Z   1
loop_
 _symmetry_equiv_pos_site_id
 _symmetry_equiv_pos_as_xyz
  1  'x, y, z'
loop_
 _atom_site_type_symbol
 _atom_site_label
 _atom_site_symmetry_multiplicity
 _atom_site_fract_x
 _atom_site_fract_y
 _atom_site_fract_z
 _atom_site_occupancy
  Dy  Dy0  1  0.406420  0.593580  0.750000  1
  Pa  Pa1  1  0.593169  0.406831  0.250000  1
  Ga  Ga2  1  0.876141  0.123859  0.448305  1
  Ga  Ga3  1  0.124832  0.875168  0.552517  1
  Ga  Ga4  1  0.876141  0.123859  0.051695  1
  Ga  Ga5  1  0.124832  0.875168  0.947483  1
  Pd  Pd6  1  0.301582  0.698418  0.250000  1
  Pd  Pd7  1  0.696883  0.303117  0.750000  1
