# generated using pymatgen
data_Y3Sn3Ir2Pd
_symmetry_space_group_name_H-M   'P 1'
_cell_length_a   7.60782200
_cell_length_b   7.60782140
_cell_length_c   3.90029000
_cell_angle_alpha   90.00000000
_cell_angle_beta   90.00000000
_cell_angle_gamma   119.99999393
_symmetry_Int_Tables_number   1
_chemical_formula_structural   Y3Sn3Ir2Pd
_chemical_formula_sum   'Y3 Sn3 Ir2 Pd1'
_cell_volume   195.50065153
_cell_formula_units_Z   1
loop_
 _symmetry_equiv_pos_site_id
 _symmetry_equiv_pos_as_xyz
  1  'x, y, z'
loop_
 _atom_site_type_symbol
 _atom_site_label
 _atom_site_symmetry_multiplicity
 _atom_site_fract_x
 _atom_site_fract_y
 _atom_site_fract_z
 _atom_site_occupancy
  Y  Y0  1  0.396226  0.408679  0.500000  1
  Y  Y1  1  0.591321  0.987547  0.500000  1
  Y  Y2  1  0.012453  0.603774  0.500000  1
  Sn  Sn3  1  0.740476  0.738430  0.000000  1
  Sn  Sn4  1  0.261570  0.002046  0.000000  1
  Sn  Sn5  1  0.997954  0.259524  0.000000  1
  Ir  Ir6  1  0.333333  0.666667  0.000000  1
  Ir  Ir7  1  0.000000  0.000000  0.500000  1
  Pd  Pd8  1  0.666667  0.333333  0.000000  1
