# generated using pymatgen
data_Er8Ta11NbSi16
_symmetry_space_group_name_H-M   'P 1'
_cell_length_a   7.01924925
_cell_length_b   7.01995585
_cell_length_c   12.94584105
_cell_angle_alpha   89.96524841
_cell_angle_beta   90.01006203
_cell_angle_gamma   90.02545619
_symmetry_Int_Tables_number   1
_chemical_formula_structural   Er8Ta11NbSi16
_chemical_formula_sum   'Er8 Ta11 Nb1 Si16'
_cell_volume   637.90379542
_cell_formula_units_Z   1
loop_
 _symmetry_equiv_pos_site_id
 _symmetry_equiv_pos_as_xyz
  1  'x, y, z'
loop_
 _atom_site_type_symbol
 _atom_site_label
 _atom_site_symmetry_multiplicity
 _atom_site_fract_x
 _atom_site_fract_y
 _atom_site_fract_z
 _atom_site_occupancy
  Er  Er0  1  0.342761  0.002019  0.468228  1
  Er  Er1  1  0.498259  0.841963  0.718013  1
  Er  Er2  1  0.501914  0.158087  0.218194  1
  Er  Er3  1  0.842094  0.498071  0.281914  1
  Er  Er4  1  0.157835  0.501846  0.781879  1
  Er  Er5  1  0.658111  0.998061  0.968176  1
  Er  Er6  1  0.002318  0.342070  0.531829  1
  Er  Er7  1  0.998061  0.658139  0.031626  1
  Ta  Ta8  1  0.328605  0.328558  0.000021  1
  Ta  Ta9  1  0.171506  0.828433  0.250070  1
  Ta  Ta10  1  0.827910  0.172347  0.750226  1
  Ta  Ta11  1  0.670876  0.671112  0.499723  1
  Ta  Ta12  1  0.152179  0.006971  0.873920  1
  Ta  Ta13  1  0.493202  0.652707  0.123701  1
  Ta  Ta14  1  0.506725  0.347340  0.623700  1
  Ta  Ta15  1  0.652565  0.493112  0.876184  1
  Ta  Ta16  1  0.347222  0.506801  0.376181  1
  Ta  Ta17  1  0.846936  0.992932  0.373626  1
  Ta  Ta18  1  0.007107  0.152658  0.126255  1
  Nb  Nb19  1  0.993775  0.847105  0.626391  1
  Si  Si20  1  0.203909  0.134348  0.681395  1
  Si  Si21  1  0.365223  0.704289  0.930907  1
  Si  Si22  1  0.634985  0.295563  0.431417  1
  Si  Si23  1  0.704360  0.365132  0.068961  1
  Si  Si24  1  0.296153  0.634784  0.568847  1
  Si  Si25  1  0.796051  0.865216  0.181089  1
  Si  Si26  1  0.134676  0.203939  0.319056  1
  Si  Si27  1  0.864593  0.796107  0.818718  1
  Si  Si28  1  0.295145  0.954483  0.063799  1
  Si  Si29  1  0.545399  0.794852  0.313744  1
  Si  Si30  1  0.453767  0.205221  0.813677  1
  Si  Si31  1  0.794725  0.545485  0.685897  1
  Si  Si32  1  0.204995  0.454684  0.186167  1
  Si  Si33  1  0.706092  0.045454  0.563922  1
  Si  Si34  1  0.954426  0.294924  0.936169  1
  Si  Si35  1  0.045538  0.705190  0.436380  1
