# generated using pymatgen
data_CeSm(MnAl5)4
_symmetry_space_group_name_H-M   'P 1'
_cell_length_a   6.81775305
_cell_length_b   6.81775395
_cell_length_c   9.07460200
_cell_angle_alpha   90.00000000
_cell_angle_beta   90.00000000
_cell_angle_gamma   97.43428472
_symmetry_Int_Tables_number   1
_chemical_formula_structural   CeSm(MnAl5)4
_chemical_formula_sum   'Ce1 Sm1 Mn4 Al20'
_cell_volume   418.25778206
_cell_formula_units_Z   1
loop_
 _symmetry_equiv_pos_site_id
 _symmetry_equiv_pos_as_xyz
  1  'x, y, z'
loop_
 _atom_site_type_symbol
 _atom_site_label
 _atom_site_symmetry_multiplicity
 _atom_site_fract_x
 _atom_site_fract_y
 _atom_site_fract_z
 _atom_site_occupancy
  Ce  Ce0  1  0.124896  0.875104  0.250000  1
  Sm  Sm1  1  0.876285  0.123715  0.750000  1
  Mn  Mn2  1  0.498181  0.999496  0.000633  1
  Mn  Mn3  1  0.000504  0.501819  0.000633  1
  Mn  Mn4  1  0.498181  0.999496  0.499367  1
  Mn  Mn5  1  0.000504  0.501819  0.499367  1
  Al  Al6  1  0.408711  0.129398  0.750000  1
  Al  Al7  1  0.130302  0.409203  0.250000  1
  Al  Al8  1  0.590797  0.869698  0.250000  1
  Al  Al9  1  0.870602  0.591289  0.750000  1
  Al  Al10  1  0.524707  0.780112  0.750000  1
  Al  Al11  1  0.780263  0.524610  0.250000  1
  Al  Al12  1  0.475390  0.219737  0.250000  1
  Al  Al13  1  0.219888  0.475293  0.750000  1
  Al  Al14  1  0.840997  0.159003  0.402646  1
  Al  Al15  1  0.159564  0.840436  0.596334  1
  Al  Al16  1  0.840997  0.159003  0.097354  1
  Al  Al17  1  0.159564  0.840436  0.903666  1
  Al  Al18  1  0.624690  0.375310  0.955607  1
  Al  Al19  1  0.375405  0.624595  0.048243  1
  Al  Al20  1  0.624690  0.375310  0.544393  1
  Al  Al21  1  0.375405  0.624595  0.451757  1
  Al  Al22  1  0.770960  0.771221  0.999968  1
  Al  Al23  1  0.770960  0.771221  0.500032  1
  Al  Al24  1  0.228779  0.229040  0.999968  1
  Al  Al25  1  0.228779  0.229040  0.500032  1
