# generated using pymatgen
data_Tb4YSi3O
_symmetry_space_group_name_H-M   'P 1'
_cell_length_a   8.44800700
_cell_length_b   8.44800717
_cell_length_c   6.25248000
_cell_angle_alpha   90.00000000
_cell_angle_beta   90.00000000
_cell_angle_gamma   120.00001109
_symmetry_Int_Tables_number   1
_chemical_formula_structural   Tb4YSi3O
_chemical_formula_sum   'Tb8 Y2 Si6 O2'
_cell_volume   386.44832836
_cell_formula_units_Z   2
loop_
 _symmetry_equiv_pos_site_id
 _symmetry_equiv_pos_as_xyz
  1  'x, y, z'
loop_
 _atom_site_type_symbol
 _atom_site_label
 _atom_site_symmetry_multiplicity
 _atom_site_fract_x
 _atom_site_fract_y
 _atom_site_fract_z
 _atom_site_occupancy
  Tb  Tb0  1  0.231932  0.000000  0.750056  1
  Tb  Tb1  1  0.768068  0.000000  0.249944  1
  Tb  Tb2  1  0.000000  0.231932  0.750056  1
  Tb  Tb3  1  0.000000  0.768068  0.249944  1
  Tb  Tb4  1  0.768068  0.768068  0.750056  1
  Tb  Tb5  1  0.231932  0.231932  0.249944  1
  Tb  Tb6  1  0.333333  0.666667  0.500000  1
  Tb  Tb7  1  0.666667  0.333333  0.500000  1
  Y  Y8  1  0.666667  0.333333  0.000000  1
  Y  Y9  1  0.333333  0.666667  0.000000  1
  Si  Si10  1  0.601225  0.000000  0.750075  1
  Si  Si11  1  0.398775  0.000000  0.249925  1
  Si  Si12  1  0.000000  0.601225  0.750075  1
  Si  Si13  1  0.000000  0.398775  0.249925  1
  Si  Si14  1  0.398775  0.398775  0.750075  1
  Si  Si15  1  0.601225  0.601225  0.249925  1
  O  O16  1  0.000000  0.000000  0.500000  1
  O  O17  1  0.000000  0.000000  0.000000  1
