# generated using pymatgen
data_SrLa5TbFeBr12
_symmetry_space_group_name_H-M   'P 1'
_cell_length_a   9.83495078
_cell_length_b   9.72238214
_cell_length_c   9.40528105
_cell_angle_alpha   105.71416763
_cell_angle_beta   106.71579006
_cell_angle_gamma   106.24814014
_symmetry_Int_Tables_number   1
_chemical_formula_structural   SrLa5TbFeBr12
_chemical_formula_sum   'Sr1 La5 Tb1 Fe1 Br12'
_cell_volume   764.18255962
_cell_formula_units_Z   1
loop_
 _symmetry_equiv_pos_site_id
 _symmetry_equiv_pos_as_xyz
  1  'x, y, z'
loop_
 _atom_site_type_symbol
 _atom_site_label
 _atom_site_symmetry_multiplicity
 _atom_site_fract_x
 _atom_site_fract_y
 _atom_site_fract_z
 _atom_site_occupancy
  Sr  Sr0  1  0.498604  0.501432  0.496392  1
  La  La1  1  0.315185  0.016020  0.110894  1
  La  La2  1  0.020391  0.095467  0.282770  1
  La  La3  1  0.980796  0.908324  0.718819  1
  La  La4  1  0.684767  0.982241  0.889300  1
  La  La5  1  0.892918  0.680903  0.985485  1
  Tb  Tb6  1  0.104889  0.303129  0.017847  1
  Fe  Fe7  1  0.000604  0.999970  0.002021  1
  Br  Br8  1  0.211633  0.672324  0.068214  1
  Br  Br9  1  0.435114  0.361280  0.138286  1
  Br  Br10  1  0.683354  0.074117  0.218682  1
  Br  Br11  1  0.933020  0.788231  0.330095  1
  Br  Br12  1  0.154335  0.446842  0.353400  1
  Br  Br13  1  0.369370  0.160567  0.459125  1
  Br  Br14  1  0.631281  0.843668  0.541200  1
  Br  Br15  1  0.841536  0.553172  0.631650  1
  Br  Br16  1  0.072757  0.224753  0.691179  1
  Br  Br17  1  0.316671  0.928181  0.781535  1
  Br  Br18  1  0.551857  0.638599  0.851838  1
  Br  Br19  1  0.800917  0.320782  0.931265  1
