# generated using pymatgen
data_Hf5Zr8Ta7Ge16
_symmetry_space_group_name_H-M   'P 1'
_cell_length_a   6.89642987
_cell_length_b   7.02711393
_cell_length_c   13.53508506
_cell_angle_alpha   89.98915927
_cell_angle_beta   90.00026815
_cell_angle_gamma   89.91559175
_symmetry_Int_Tables_number   1
_chemical_formula_structural   Hf5Zr8Ta7Ge16
_chemical_formula_sum   'Hf5 Zr8 Ta7 Ge16'
_cell_volume   655.93654792
_cell_formula_units_Z   1
loop_
 _symmetry_equiv_pos_site_id
 _symmetry_equiv_pos_as_xyz
  1  'x, y, z'
loop_
 _atom_site_type_symbol
 _atom_site_label
 _atom_site_symmetry_multiplicity
 _atom_site_fract_x
 _atom_site_fract_y
 _atom_site_fract_z
 _atom_site_occupancy
  Hf  Hf0  1  0.659412  0.169088  0.624293  1
  Hf  Hf1  1  0.158463  0.331451  0.875969  1
  Hf  Hf2  1  0.342023  0.831254  0.123496  1
  Hf  Hf3  1  0.840415  0.667944  0.375077  1
  Hf  Hf4  1  0.338142  0.830859  0.376132  1
  Zr  Zr5  1  0.490192  0.672589  0.593660  1
  Zr  Zr6  1  0.988672  0.825672  0.908788  1
  Zr  Zr7  1  0.511152  0.325544  0.090897  1
  Zr  Zr8  1  0.008037  0.176026  0.408800  1
  Zr  Zr9  1  0.508146  0.323743  0.407971  1
  Zr  Zr10  1  0.006803  0.176217  0.091451  1
  Zr  Zr11  1  0.491421  0.675206  0.907954  1
  Zr  Zr12  1  0.992266  0.824683  0.592860  1
  Ta  Ta13  1  0.837307  0.668152  0.123793  1
  Ta  Ta14  1  0.661663  0.168566  0.874781  1
  Ta  Ta15  1  0.160259  0.332204  0.626956  1
  Ta  Ta16  1  0.834745  0.491447  0.749608  1
  Ta  Ta17  1  0.335333  0.009507  0.751406  1
  Ta  Ta18  1  0.164421  0.507690  0.247303  1
  Ta  Ta19  1  0.666911  0.992658  0.247624  1
  Ge  Ge20  1  0.683656  0.965390  0.460179  1
  Ge  Ge21  1  0.179920  0.535554  0.039805  1
  Ge  Ge22  1  0.320753  0.034866  0.959381  1
  Ge  Ge23  1  0.821151  0.466011  0.540727  1
  Ge  Ge24  1  0.313851  0.038263  0.540478  1
  Ge  Ge25  1  0.814417  0.462714  0.961607  1
  Ge  Ge26  1  0.685351  0.963725  0.037328  1
  Ge  Ge27  1  0.183867  0.533077  0.463214  1
  Ge  Ge28  1  0.461629  0.389647  0.750961  1
  Ge  Ge29  1  0.961158  0.109979  0.749856  1
  Ge  Ge30  1  0.539094  0.609350  0.249010  1
  Ge  Ge31  1  0.037815  0.889579  0.248709  1
  Ge  Ge32  1  0.693388  0.849592  0.750479  1
  Ge  Ge33  1  0.192481  0.651379  0.750502  1
  Ge  Ge34  1  0.307815  0.151341  0.249563  1
  Ge  Ge35  1  0.807872  0.349036  0.249380  1
