# generated using pymatgen
data_Sr3NdMnCrO8
_symmetry_space_group_name_H-M   'P 1'
_cell_length_a   5.47998900
_cell_length_b   12.47261000
_cell_length_c   5.50508500
_cell_angle_alpha   89.99999971
_cell_angle_beta   89.99994863
_cell_angle_gamma   90.00078433
_symmetry_Int_Tables_number   1
_chemical_formula_structural   Sr3NdMnCrO8
_chemical_formula_sum   'Sr6 Nd2 Mn2 Cr2 O16'
_cell_volume   376.27126938
_cell_formula_units_Z   2
loop_
 _symmetry_equiv_pos_site_id
 _symmetry_equiv_pos_as_xyz
  1  'x, y, z'
loop_
 _atom_site_type_symbol
 _atom_site_label
 _atom_site_symmetry_multiplicity
 _atom_site_fract_x
 _atom_site_fract_y
 _atom_site_fract_z
 _atom_site_occupancy
  Sr  Sr0  1  0.500001  0.145431  0.000001  1
  Sr  Sr1  1  0.500003  0.645429  0.500001  1
  Sr  Sr2  1  0.000007  0.142996  0.500000  1
  Sr  Sr3  1  0.999998  0.642996  0.999995  1
  Sr  Sr4  1  0.000003  0.355285  0.999999  1
  Sr  Sr5  1  0.999997  0.855288  0.500002  1
  Nd  Nd6  1  0.500007  0.361981  0.500008  1
  Nd  Nd7  1  0.500052  0.861982  0.000001  1
  Mn  Mn8  1  0.999996  0.501569  0.500012  1
  Mn  Mn9  1  0.999995  0.001573  0.999993  1
  Cr  Cr10  1  0.500005  0.003238  0.500022  1
  Cr  Cr11  1  0.500010  0.503250  0.999960  1
  O  O12  1  0.000000  0.339765  0.500002  1
  O  O13  1  0.999907  0.839765  0.000000  1
  O  O14  1  0.500002  0.339621  0.999993  1
  O  O15  1  0.500003  0.839624  0.500000  1
  O  O16  1  0.500002  0.172100  0.500000  1
  O  O17  1  0.499989  0.672100  0.000004  1
  O  O18  1  0.000011  0.156312  0.000000  1
  O  O19  1  0.000005  0.656311  0.499998  1
  O  O20  1  0.250240  0.495424  0.739342  1
  O  O21  1  0.250229  0.995416  0.239331  1
  O  O22  1  0.749771  0.495422  0.260662  1
  O  O23  1  0.749768  0.995434  0.760652  1
  O  O24  1  0.749772  0.495424  0.739347  1
  O  O25  1  0.749769  0.995434  0.239348  1
  O  O26  1  0.250230  0.495421  0.260658  1
  O  O27  1  0.250231  0.995417  0.760669  1
