# generated using pymatgen
data_Hf4Co2CuSi4Pd
_symmetry_space_group_name_H-M   'P 1'
_cell_length_a   3.82293500
_cell_length_b   6.48545214
_cell_length_c   7.35518075
_cell_angle_alpha   91.43783630
_cell_angle_beta   90.00000000
_cell_angle_gamma   90.00000000
_symmetry_Int_Tables_number   1
_chemical_formula_structural   Hf4Co2CuSi4Pd
_chemical_formula_sum   'Hf4 Co2 Cu1 Si4 Pd1'
_cell_volume   182.30297565
_cell_formula_units_Z   1
loop_
 _symmetry_equiv_pos_site_id
 _symmetry_equiv_pos_as_xyz
  1  'x, y, z'
loop_
 _atom_site_type_symbol
 _atom_site_label
 _atom_site_symmetry_multiplicity
 _atom_site_fract_x
 _atom_site_fract_y
 _atom_site_fract_z
 _atom_site_occupancy
  Hf  Hf0  1  0.250000  0.518646  0.677343  1
  Hf  Hf1  1  0.750000  0.480895  0.326969  1
  Hf  Hf2  1  0.250000  0.021532  0.805720  1
  Hf  Hf3  1  0.750000  0.980517  0.193068  1
  Co  Co4  1  0.750000  0.860898  0.561404  1
  Co  Co5  1  0.250000  0.140417  0.437015  1
  Cu  Cu6  1  0.750000  0.349527  0.937253  1
  Si  Si7  1  0.250000  0.262067  0.128347  1
  Si  Si8  1  0.750000  0.740708  0.866633  1
  Si  Si9  1  0.250000  0.779776  0.399053  1
  Si  Si10  1  0.750000  0.221388  0.604261  1
  Pd  Pd11  1  0.250000  0.643630  0.062935  1
