# generated using pymatgen
data_Yb2(Al3Rh)3
_symmetry_space_group_name_H-M   'P 1'
_cell_length_a   7.53893230
_cell_length_b   7.53893271
_cell_length_c   9.59042500
_cell_angle_alpha   90.00000000
_cell_angle_beta   90.00000000
_cell_angle_gamma   119.11021243
_symmetry_Int_Tables_number   1
_chemical_formula_structural   Yb2(Al3Rh)3
_chemical_formula_sum   'Yb4 Al18 Rh6'
_cell_volume   476.22556281
_cell_formula_units_Z   2
loop_
 _symmetry_equiv_pos_site_id
 _symmetry_equiv_pos_as_xyz
  1  'x, y, z'
loop_
 _atom_site_type_symbol
 _atom_site_label
 _atom_site_symmetry_multiplicity
 _atom_site_fract_x
 _atom_site_fract_y
 _atom_site_fract_z
 _atom_site_occupancy
  Yb  Yb0  1  0.995626  0.671789  0.250000  1
  Yb  Yb1  1  0.004374  0.328211  0.750000  1
  Yb  Yb2  1  0.671789  0.995626  0.250000  1
  Yb  Yb3  1  0.328211  0.004374  0.750000  1
  Al  Al4  1  0.129673  0.129673  0.250000  1
  Al  Al5  1  0.870327  0.870327  0.750000  1
  Al  Al6  1  0.003476  0.335725  0.072242  1
  Al  Al7  1  0.996524  0.664275  0.927758  1
  Al  Al8  1  0.996524  0.664275  0.572242  1
  Al  Al9  1  0.335725  0.003476  0.427758  1
  Al  Al10  1  0.003476  0.335725  0.427758  1
  Al  Al11  1  0.664275  0.996524  0.572242  1
  Al  Al12  1  0.664275  0.996524  0.927758  1
  Al  Al13  1  0.335725  0.003476  0.072242  1
  Al  Al14  1  0.334863  0.334863  0.549125  1
  Al  Al15  1  0.665137  0.665137  0.450875  1
  Al  Al16  1  0.665137  0.665137  0.049125  1
  Al  Al17  1  0.334863  0.334863  0.950875  1
  Al  Al18  1  0.337069  0.547220  0.250000  1
  Al  Al19  1  0.662931  0.452780  0.750000  1
  Al  Al20  1  0.547220  0.337069  0.250000  1
  Al  Al21  1  0.452780  0.662931  0.750000  1
  Rh  Rh22  1  0.671878  0.328122  0.000000  1
  Rh  Rh23  1  0.328122  0.671878  0.000000  1
  Rh  Rh24  1  0.328122  0.671878  0.500000  1
  Rh  Rh25  1  0.671878  0.328122  0.500000  1
  Rh  Rh26  1  0.000000  0.000000  0.000000  1
  Rh  Rh27  1  0.000000  0.000000  0.500000  1
