# generated using pymatgen
data_Ho7Tm3Si5Bi
_symmetry_space_group_name_H-M   'P 1'
_cell_length_a   8.51654907
_cell_length_b   8.51490418
_cell_length_c   6.30047801
_cell_angle_alpha   90.00608950
_cell_angle_beta   89.99647285
_cell_angle_gamma   120.28224122
_symmetry_Int_Tables_number   1
_chemical_formula_structural   Ho7Tm3Si5Bi
_chemical_formula_sum   'Ho7 Tm3 Si5 Bi1'
_cell_volume   394.55300307
_cell_formula_units_Z   1
loop_
 _symmetry_equiv_pos_site_id
 _symmetry_equiv_pos_as_xyz
  1  'x, y, z'
loop_
 _atom_site_type_symbol
 _atom_site_label
 _atom_site_symmetry_multiplicity
 _atom_site_fract_x
 _atom_site_fract_y
 _atom_site_fract_z
 _atom_site_occupancy
  Ho  Ho0  1  0.676968  0.330679  0.504939  1
  Ho  Ho1  1  0.768052  0.768158  0.249891  1
  Ho  Ho2  1  0.239602  0.984370  0.249888  1
  Ho  Ho3  1  0.984523  0.239655  0.249854  1
  Ho  Ho4  1  0.239849  0.239935  0.750068  1
  Ho  Ho5  1  0.755004  0.998341  0.750123  1
  Ho  Ho6  1  0.998573  0.755117  0.750180  1
  Tm  Tm7  1  0.330615  0.677129  0.504894  1
  Tm  Tm8  1  0.330714  0.677067  0.995103  1
  Tm  Tm9  1  0.677085  0.330683  0.995040  1
  Si  Si10  1  0.603341  0.998123  0.249585  1
  Si  Si11  1  0.998997  0.603762  0.249547  1
  Si  Si12  1  0.606551  0.606891  0.750260  1
  Si  Si13  1  0.393443  0.002342  0.750412  1
  Si  Si14  1  0.003232  0.393891  0.750506  1
  Bi  Bi15  1  0.393453  0.393859  0.249710  1
