# generated using pymatgen
data_YTmZr2Al14(Ga2Ir3)2
_symmetry_space_group_name_H-M   'P 1'
_cell_length_a   7.51598100
_cell_length_b   7.50149950
_cell_length_c   9.35143000
_cell_angle_alpha   90.00000000
_cell_angle_beta   90.00000000
_cell_angle_gamma   119.73748331
_symmetry_Int_Tables_number   1
_chemical_formula_structural   YTmZr2Al14(Ga2Ir3)2
_chemical_formula_sum   'Y1 Tm1 Zr2 Al14 Ga4 Ir6'
_cell_volume   457.80990634
_cell_formula_units_Z   1
loop_
 _symmetry_equiv_pos_site_id
 _symmetry_equiv_pos_as_xyz
  1  'x, y, z'
loop_
 _atom_site_type_symbol
 _atom_site_label
 _atom_site_symmetry_multiplicity
 _atom_site_fract_x
 _atom_site_fract_y
 _atom_site_fract_z
 _atom_site_occupancy
  Y  Y0  1  0.670252  0.993572  0.250000  1
  Tm  Tm1  1  0.326090  0.004986  0.750000  1
  Zr  Zr2  1  0.994423  0.671354  0.250000  1
  Zr  Zr3  1  0.004660  0.327686  0.750000  1
  Al  Al4  1  0.000935  0.337423  0.072485  1
  Al  Al5  1  0.000905  0.663095  0.923741  1
  Al  Al6  1  0.000905  0.663095  0.576259  1
  Al  Al7  1  0.332405  0.999597  0.423969  1
  Al  Al8  1  0.000935  0.337423  0.427515  1
  Al  Al9  1  0.667183  0.001538  0.579536  1
  Al  Al10  1  0.667183  0.001538  0.920464  1
  Al  Al11  1  0.332405  0.999597  0.076031  1
  Al  Al12  1  0.331658  0.333731  0.563089  1
  Al  Al13  1  0.668173  0.665555  0.444695  1
  Al  Al14  1  0.668173  0.665555  0.055305  1
  Al  Al15  1  0.331658  0.333731  0.936911  1
  Al  Al16  1  0.666587  0.450491  0.750000  1
  Al  Al17  1  0.445114  0.658717  0.750000  1
  Ga  Ga18  1  0.128315  0.127621  0.250000  1
  Ga  Ga19  1  0.868524  0.869088  0.750000  1
  Ga  Ga20  1  0.335605  0.547224  0.250000  1
  Ga  Ga21  1  0.554313  0.344491  0.250000  1
  Ir  Ir22  1  0.671960  0.327915  0.997649  1
  Ir  Ir23  1  0.328531  0.672878  0.998630  1
  Ir  Ir24  1  0.328531  0.672878  0.501370  1
  Ir  Ir25  1  0.671960  0.327915  0.502351  1
  Ir  Ir26  1  0.001307  0.000655  0.000008  1
  Ir  Ir27  1  0.001307  0.000655  0.499992  1
