# generated using pymatgen
data_CePr2CuHg3Pd2
_symmetry_space_group_name_H-M   'P 1'
_cell_length_a   7.91018617
_cell_length_b   7.97834659
_cell_length_c   3.85052400
_cell_angle_alpha   90.00000000
_cell_angle_beta   90.00000000
_cell_angle_gamma   120.28545682
_symmetry_Int_Tables_number   1
_chemical_formula_structural   CePr2CuHg3Pd2
_chemical_formula_sum   'Ce1 Pr2 Cu1 Hg3 Pd2'
_cell_volume   209.84259222
_cell_formula_units_Z   1
loop_
 _symmetry_equiv_pos_site_id
 _symmetry_equiv_pos_as_xyz
  1  'x, y, z'
loop_
 _atom_site_type_symbol
 _atom_site_label
 _atom_site_symmetry_multiplicity
 _atom_site_fract_x
 _atom_site_fract_y
 _atom_site_fract_z
 _atom_site_occupancy
  Ce  Ce0  1  0.000000  0.591786  0.500000  1
  Pr  Pr1  1  0.405433  0.405848  0.500000  1
  Pr  Pr2  1  0.594567  0.000414  0.500000  1
  Cu  Cu3  1  0.000000  0.997874  0.500000  1
  Hg  Hg4  1  0.744972  0.743605  0.000000  1
  Hg  Hg5  1  0.255028  0.998632  0.000000  1
  Hg  Hg6  1  0.000000  0.255426  0.000000  1
  Pd  Pd7  1  0.677073  0.341743  0.000000  1
  Pd  Pd8  1  0.322927  0.664672  0.000000  1
