# generated using pymatgen
data_Sr2LiYO4
_symmetry_space_group_name_H-M   'P 1'
_cell_length_a   11.58955200
_cell_length_b   3.47058500
_cell_length_c   11.60099400
_cell_angle_alpha   90.00000000
_cell_angle_beta   90.00000000
_cell_angle_gamma   90.00000000
_symmetry_Int_Tables_number   1
_chemical_formula_structural   Sr2LiYO4
_chemical_formula_sum   'Sr8 Li4 Y4 O16'
_cell_volume   466.62127499
_cell_formula_units_Z   4
loop_
 _symmetry_equiv_pos_site_id
 _symmetry_equiv_pos_as_xyz
  1  'x, y, z'
loop_
 _atom_site_type_symbol
 _atom_site_label
 _atom_site_symmetry_multiplicity
 _atom_site_fract_x
 _atom_site_fract_y
 _atom_site_fract_z
 _atom_site_occupancy
  Sr  Sr0  1  0.634761  0.499999  0.072055  1
  Sr  Sr1  1  0.098116  0.000000  0.115161  1
  Sr  Sr2  1  0.598116  0.000000  0.384839  1
  Sr  Sr3  1  0.134762  0.499999  0.427945  1
  Sr  Sr4  1  0.865238  0.000000  0.572055  1
  Sr  Sr5  1  0.401883  0.499999  0.615160  1
  Sr  Sr6  1  0.901883  0.499999  0.884839  1
  Sr  Sr7  1  0.365237  0.000000  0.927944  1
  Li  Li8  1  0.847122  0.000000  0.090677  1
  Li  Li9  1  0.347122  0.000000  0.409323  1
  Li  Li10  1  0.652878  0.499999  0.590676  1
  Li  Li11  1  0.152877  0.499999  0.909323  1
  Y  Y12  1  0.357585  0.499999  0.205644  1
  Y  Y13  1  0.857586  0.499999  0.294355  1
  Y  Y14  1  0.142414  0.000000  0.705645  1
  Y  Y15  1  0.642414  0.000000  0.794354  1
  O  O16  1  0.246539  0.499999  0.045143  1
  O  O17  1  0.938434  0.499999  0.112054  1
  O  O18  1  0.471530  0.000000  0.132556  1
  O  O19  1  0.743040  0.000000  0.221003  1
  O  O20  1  0.243040  0.000000  0.278996  1
  O  O21  1  0.971530  0.000000  0.367443  1
  O  O22  1  0.438433  0.499999  0.387945  1
  O  O23  1  0.746539  0.499999  0.454856  1
  O  O24  1  0.253460  0.000000  0.545143  1
  O  O25  1  0.561566  0.000000  0.612055  1
  O  O26  1  0.028469  0.499999  0.632556  1
  O  O27  1  0.756959  0.499999  0.721004  1
  O  O28  1  0.256960  0.499999  0.778996  1
  O  O29  1  0.528468  0.499999  0.867443  1
  O  O30  1  0.061566  0.000000  0.887945  1
  O  O31  1  0.753460  0.000000  0.954856  1
