# generated using pymatgen
data_CsMnAlF6
_symmetry_space_group_name_H-M   'P 1'
_cell_length_a   7.27001400
_cell_length_b   7.56709200
_cell_length_c   10.36287700
_cell_angle_alpha   90.00000000
_cell_angle_beta   90.00000000
_cell_angle_gamma   90.00000000
_symmetry_Int_Tables_number   1
_chemical_formula_structural   CsMnAlF6
_chemical_formula_sum   'Cs4 Mn4 Al4 F24'
_cell_volume   570.09155113
_cell_formula_units_Z   4
loop_
 _symmetry_equiv_pos_site_id
 _symmetry_equiv_pos_as_xyz
  1  'x, y, z'
loop_
 _atom_site_type_symbol
 _atom_site_label
 _atom_site_symmetry_multiplicity
 _atom_site_fract_x
 _atom_site_fract_y
 _atom_site_fract_z
 _atom_site_occupancy
  Cs  Cs0  1  0.250000  0.995739  0.637367  1
  Cs  Cs1  1  0.750000  0.004261  0.362633  1
  Cs  Cs2  1  0.250000  0.495739  0.862633  1
  Cs  Cs3  1  0.750000  0.504261  0.137367  1
  Mn  Mn4  1  0.250000  0.756079  0.252286  1
  Mn  Mn5  1  0.750000  0.243921  0.747714  1
  Mn  Mn6  1  0.250000  0.256079  0.247714  1
  Mn  Mn7  1  0.750000  0.743921  0.752286  1
  Al  Al8  1  0.000000  0.500000  0.500000  1
  Al  Al9  1  0.500000  0.500000  0.500000  1
  Al  Al10  1  0.500000  0.000000  0.000000  1
  Al  Al11  1  0.000000  0.000000  0.000000  1
  F  F12  1  0.969849  0.323840  0.617744  1
  F  F13  1  0.469849  0.676160  0.382256  1
  F  F14  1  0.530151  0.823840  0.882256  1
  F  F15  1  0.030151  0.176160  0.117744  1
  F  F16  1  0.030151  0.676160  0.382256  1
  F  F17  1  0.530151  0.323840  0.617744  1
  F  F18  1  0.469849  0.176160  0.117744  1
  F  F19  1  0.969849  0.823840  0.882256  1
  F  F20  1  0.976445  0.163620  0.872275  1
  F  F21  1  0.476445  0.836380  0.127725  1
  F  F22  1  0.523555  0.663620  0.627725  1
  F  F23  1  0.023555  0.336380  0.372275  1
  F  F24  1  0.750000  0.992370  0.660645  1
  F  F25  1  0.250000  0.007630  0.339355  1
  F  F26  1  0.750000  0.492370  0.839355  1
  F  F27  1  0.250000  0.507630  0.160645  1
  F  F28  1  0.750000  0.006637  0.030239  1
  F  F29  1  0.250000  0.993363  0.969761  1
  F  F30  1  0.750000  0.506637  0.469761  1
  F  F31  1  0.250000  0.493363  0.530239  1
  F  F32  1  0.976445  0.663620  0.627725  1
  F  F33  1  0.476445  0.336380  0.372275  1
  F  F34  1  0.523555  0.163620  0.872275  1
  F  F35  1  0.023555  0.836380  0.127725  1
