# generated using pymatgen
data_Nb3Co2SiN
_symmetry_space_group_name_H-M   'P 1'
_cell_length_a   8.00830952
_cell_length_b   8.00868983
_cell_length_c   8.00816202
_cell_angle_alpha   59.99838959
_cell_angle_beta   59.99791110
_cell_angle_gamma   59.99922371
_symmetry_Int_Tables_number   1
_chemical_formula_structural   Nb3Co2SiN
_chemical_formula_sum   'Nb12 Co8 Si4 N4'
_cell_volume   363.16625509
_cell_formula_units_Z   4
loop_
 _symmetry_equiv_pos_site_id
 _symmetry_equiv_pos_as_xyz
  1  'x, y, z'
loop_
 _atom_site_type_symbol
 _atom_site_label
 _atom_site_symmetry_multiplicity
 _atom_site_fract_x
 _atom_site_fract_y
 _atom_site_fract_z
 _atom_site_occupancy
  Nb  Nb0  1  0.799504  0.799514  0.200494  1
  Nb  Nb1  1  0.200463  0.200483  0.799531  1
  Nb  Nb2  1  0.799526  0.200499  0.799513  1
  Nb  Nb3  1  0.200494  0.799532  0.200478  1
  Nb  Nb4  1  0.200493  0.799529  0.799502  1
  Nb  Nb5  1  0.799526  0.200501  0.200468  1
  Nb  Nb6  1  0.450496  0.450486  0.049506  1
  Nb  Nb7  1  0.049537  0.049517  0.450469  1
  Nb  Nb8  1  0.450474  0.049501  0.450487  1
  Nb  Nb9  1  0.049506  0.450468  0.049522  1
  Nb  Nb10  1  0.049507  0.450471  0.450498  1
  Nb  Nb11  1  0.450474  0.049499  0.049532  1
  Co  Co12  1  0.738694  0.420423  0.420434  1
  Co  Co13  1  0.420442  0.738671  0.420434  1
  Co  Co14  1  0.420436  0.420416  0.738697  1
  Co  Co15  1  0.420442  0.420421  0.420440  1
  Co  Co16  1  0.511306  0.829577  0.829566  1
  Co  Co17  1  0.829558  0.511329  0.829566  1
  Co  Co18  1  0.829564  0.829584  0.511303  1
  Co  Co19  1  0.829558  0.829579  0.829560  1
  Si  Si20  1  0.125000  0.625000  0.625000  1
  Si  Si21  1  0.625000  0.125000  0.625000  1
  Si  Si22  1  0.625000  0.625000  0.125000  1
  Si  Si23  1  0.625000  0.625000  0.625000  1
  N  N24  1  0.625000  0.125000  0.125000  1
  N  N25  1  0.125000  0.625000  0.125000  1
  N  N26  1  0.125000  0.125000  0.625000  1
  N  N27  1  0.125000  0.125000  0.125000  1
