# generated using pymatgen
data_CrAg7(SO4)6
_symmetry_space_group_name_H-M   'P 1'
_cell_length_a   8.50393074
_cell_length_b   8.50393195
_cell_length_c   8.50393200
_cell_angle_alpha   107.98581434
_cell_angle_beta   107.98581698
_cell_angle_gamma   107.98581054
_symmetry_Int_Tables_number   1
_chemical_formula_structural   CrAg7(SO4)6
_chemical_formula_sum   'Cr1 Ag7 S6 O24'
_cell_volume   497.74437471
_cell_formula_units_Z   1
loop_
 _symmetry_equiv_pos_site_id
 _symmetry_equiv_pos_as_xyz
  1  'x, y, z'
loop_
 _atom_site_type_symbol
 _atom_site_label
 _atom_site_symmetry_multiplicity
 _atom_site_fract_x
 _atom_site_fract_y
 _atom_site_fract_z
 _atom_site_occupancy
  Cr  Cr0  1  0.000000  0.000000  0.000000  1
  Ag  Ag1  1  0.500000  0.500000  0.500000  1
  Ag  Ag2  1  0.657902  0.166031  0.318185  1
  Ag  Ag3  1  0.318185  0.657902  0.166031  1
  Ag  Ag4  1  0.166031  0.318185  0.657902  1
  Ag  Ag5  1  0.342098  0.833969  0.681815  1
  Ag  Ag6  1  0.681815  0.342098  0.833969  1
  Ag  Ag7  1  0.833969  0.681815  0.342098  1
  S  S8  1  0.244418  0.029207  0.395667  1
  S  S9  1  0.395667  0.244418  0.029207  1
  S  S10  1  0.029207  0.395667  0.244418  1
  S  S11  1  0.755582  0.970793  0.604333  1
  S  S12  1  0.604333  0.755582  0.970793  1
  S  S13  1  0.970793  0.604333  0.755582  1
  O  O14  1  0.090760  0.525182  0.831790  1
  O  O15  1  0.831790  0.090760  0.525182  1
  O  O16  1  0.525182  0.831790  0.090760  1
  O  O17  1  0.909240  0.474818  0.168210  1
  O  O18  1  0.168210  0.909240  0.474818  1
  O  O19  1  0.474818  0.168210  0.909240  1
  O  O20  1  0.025149  0.679085  0.635047  1
  O  O21  1  0.635047  0.025149  0.679085  1
  O  O22  1  0.679085  0.635047  0.025149  1
  O  O23  1  0.974851  0.320915  0.364953  1
  O  O24  1  0.364953  0.974851  0.320915  1
  O  O25  1  0.320915  0.364953  0.974851  1
  O  O26  1  0.018826  0.252688  0.081069  1
  O  O27  1  0.081069  0.018826  0.252688  1
  O  O28  1  0.543265  0.354163  0.227307  1
  O  O29  1  0.354163  0.227307  0.543265  1
  O  O30  1  0.227307  0.543265  0.354163  1
  O  O31  1  0.456735  0.645837  0.772693  1
  O  O32  1  0.645837  0.772693  0.456735  1
  O  O33  1  0.772693  0.456735  0.645837  1
  O  O34  1  0.747312  0.918931  0.981174  1
  O  O35  1  0.918931  0.981174  0.747312  1
  O  O36  1  0.981174  0.747312  0.918931  1
  O  O37  1  0.252688  0.081069  0.018826  1
