# generated using pymatgen
data_Sr5TlPb18
_symmetry_space_group_name_H-M   'P 1'
_cell_length_a   7.09051500
_cell_length_b   7.09051378
_cell_length_c   17.79280100
_cell_angle_alpha   90.00000000
_cell_angle_beta   90.00000000
_cell_angle_gamma   120.00000101
_symmetry_Int_Tables_number   1
_chemical_formula_structural   Sr5TlPb18
_chemical_formula_sum   'Sr5 Tl1 Pb18'
_cell_volume   774.69443190
_cell_formula_units_Z   1
loop_
 _symmetry_equiv_pos_site_id
 _symmetry_equiv_pos_as_xyz
  1  'x, y, z'
loop_
 _atom_site_type_symbol
 _atom_site_label
 _atom_site_symmetry_multiplicity
 _atom_site_fract_x
 _atom_site_fract_y
 _atom_site_fract_z
 _atom_site_occupancy
  Sr  Sr0  1  0.666667  0.333333  0.584997  1
  Sr  Sr1  1  0.666667  0.333333  0.916663  1
  Sr  Sr2  1  0.000000  0.000000  0.082271  1
  Sr  Sr3  1  0.333333  0.666667  0.248305  1
  Sr  Sr4  1  0.333333  0.666667  0.753876  1
  Tl  Tl5  1  0.000000  0.000000  0.413118  1
  Pb  Pb6  1  0.003223  0.501611  0.417742  1
  Pb  Pb7  1  0.498389  0.501611  0.417742  1
  Pb  Pb8  1  0.498389  0.996777  0.417742  1
  Pb  Pb9  1  0.669613  0.834806  0.581452  1
  Pb  Pb10  1  0.165194  0.834806  0.581452  1
  Pb  Pb11  1  0.165194  0.330387  0.581452  1
  Pb  Pb12  1  0.667807  0.833903  0.918640  1
  Pb  Pb13  1  0.166097  0.833903  0.918640  1
  Pb  Pb14  1  0.166097  0.332193  0.918640  1
  Pb  Pb15  1  0.006202  0.503102  0.081554  1
  Pb  Pb16  1  0.496898  0.503102  0.081554  1
  Pb  Pb17  1  0.496898  0.993798  0.081554  1
  Pb  Pb18  1  0.348584  0.174293  0.249201  1
  Pb  Pb19  1  0.825707  0.174293  0.249201  1
  Pb  Pb20  1  0.825707  0.651416  0.249201  1
  Pb  Pb21  1  0.313285  0.156642  0.751487  1
  Pb  Pb22  1  0.843358  0.156642  0.751487  1
  Pb  Pb23  1  0.843358  0.686715  0.751487  1
