# generated using pymatgen
data_Al3V12Fe
_symmetry_space_group_name_H-M   'P 1'
_cell_length_a   4.75218400
_cell_length_b   4.74764500
_cell_length_c   9.56702700
_cell_angle_alpha   90.00000000
_cell_angle_beta   90.00000000
_cell_angle_gamma   90.00000000
_symmetry_Int_Tables_number   1
_chemical_formula_structural   Al3V12Fe
_chemical_formula_sum   'Al3 V12 Fe1'
_cell_volume   215.84822666
_cell_formula_units_Z   1
loop_
 _symmetry_equiv_pos_site_id
 _symmetry_equiv_pos_as_xyz
  1  'x, y, z'
loop_
 _atom_site_type_symbol
 _atom_site_label
 _atom_site_symmetry_multiplicity
 _atom_site_fract_x
 _atom_site_fract_y
 _atom_site_fract_z
 _atom_site_occupancy
  Al  Al0  1  0.500000  0.500000  0.250849  1
  Al  Al1  1  0.500000  0.500000  0.749151  1
  Al  Al2  1  0.000000  0.000000  0.000000  1
  V  V3  1  0.500000  0.000000  0.383386  1
  V  V4  1  0.500000  0.000000  0.869228  1
  V  V5  1  0.737446  0.500000  0.000000  1
  V  V6  1  0.756468  0.500000  0.500000  1
  V  V7  1  0.000000  0.757142  0.260434  1
  V  V8  1  0.000000  0.757142  0.739566  1
  V  V9  1  0.500000  0.000000  0.130772  1
  V  V10  1  0.500000  0.000000  0.616614  1
  V  V11  1  0.262554  0.500000  0.000000  1
  V  V12  1  0.243532  0.500000  0.500000  1
  V  V13  1  0.000000  0.242858  0.260434  1
  V  V14  1  0.000000  0.242858  0.739566  1
  Fe  Fe15  1  0.000000  0.000000  0.500000  1
