# generated using pymatgen
data_PrNd11B3AsBr12
_symmetry_space_group_name_H-M   'P 1'
_cell_length_a   10.27838274
_cell_length_b   10.27838386
_cell_length_c   10.28054955
_cell_angle_alpha   109.96436553
_cell_angle_beta   109.96437373
_cell_angle_gamma   109.96607015
_symmetry_Int_Tables_number   1
_chemical_formula_structural   PrNd11B3AsBr12
_chemical_formula_sum   'Pr1 Nd11 B3 As1 Br12'
_cell_volume   820.43423924
_cell_formula_units_Z   1
loop_
 _symmetry_equiv_pos_site_id
 _symmetry_equiv_pos_as_xyz
  1  'x, y, z'
loop_
 _atom_site_type_symbol
 _atom_site_label
 _atom_site_symmetry_multiplicity
 _atom_site_fract_x
 _atom_site_fract_y
 _atom_site_fract_z
 _atom_site_occupancy
  Pr  Pr0  1  0.230230  0.269770  0.750000  1
  Nd  Nd1  1  0.472099  0.498993  0.226454  1
  Nd  Nd2  1  0.749892  0.229593  0.270287  1
  Nd  Nd3  1  0.749904  0.017534  0.482400  1
  Nd  Nd4  1  0.226278  0.472164  0.498792  1
  Nd  Nd5  1  0.270407  0.750108  0.229713  1
  Nd  Nd6  1  0.027836  0.273722  0.001208  1
  Nd  Nd7  1  0.001007  0.027901  0.273546  1
  Nd  Nd8  1  0.482466  0.750096  0.017600  1
  Nd  Nd9  1  0.498918  0.226317  0.472080  1
  Nd  Nd10  1  0.017407  0.482593  0.750000  1
  Nd  Nd11  1  0.273683  0.001082  0.027920  1
  B  B12  1  0.498717  0.001283  0.250000  1
  B  B13  1  0.000629  0.249974  0.498014  1
  B  B14  1  0.250026  0.499371  0.001986  1
  As  As15  1  0.250004  0.249996  0.250000  1
  Br  Br16  1  0.250002  0.758309  0.741722  1
  Br  Br17  1  0.513153  0.507250  0.756823  1
  Br  Br18  1  0.987573  0.743180  0.993509  1
  Br  Br19  1  0.741691  0.249998  0.758278  1
  Br  Br20  1  0.992750  0.986847  0.743177  1
  Br  Br21  1  0.250012  0.994425  0.504479  1
  Br  Br22  1  0.756820  0.512427  0.506491  1
  Br  Br23  1  0.505575  0.249988  0.995521  1
  Br  Br24  1  0.758280  0.741720  0.250000  1
  Br  Br25  1  0.743161  0.993492  0.987579  1
  Br  Br26  1  0.994971  0.505029  0.250000  1
  Br  Br27  1  0.506508  0.756839  0.512421  1
