# generated using pymatgen
data_Nb8FeRhS16
_symmetry_space_group_name_H-M   'P 1'
_cell_length_a   6.69069800
_cell_length_b   6.69069712
_cell_length_c   11.91379800
_cell_angle_alpha   90.00000000
_cell_angle_beta   90.00000000
_cell_angle_gamma   119.99999446
_symmetry_Int_Tables_number   1
_chemical_formula_structural   Nb8FeRhS16
_chemical_formula_sum   'Nb8 Fe1 Rh1 S16'
_cell_volume   461.87418152
_cell_formula_units_Z   1
loop_
 _symmetry_equiv_pos_site_id
 _symmetry_equiv_pos_as_xyz
  1  'x, y, z'
loop_
 _atom_site_type_symbol
 _atom_site_label
 _atom_site_symmetry_multiplicity
 _atom_site_fract_x
 _atom_site_fract_y
 _atom_site_fract_z
 _atom_site_occupancy
  Nb  Nb0  1  0.492799  0.985598  0.754527  1
  Nb  Nb1  1  0.507201  0.014402  0.245473  1
  Nb  Nb2  1  0.985598  0.492799  0.245473  1
  Nb  Nb3  1  0.492799  0.507201  0.754527  1
  Nb  Nb4  1  0.507201  0.492799  0.245473  1
  Nb  Nb5  1  0.014402  0.507201  0.754527  1
  Nb  Nb6  1  0.000000  0.000000  0.246356  1
  Nb  Nb7  1  0.000000  0.000000  0.753644  1
  Fe  Fe8  1  0.000000  0.000000  0.000000  1
  Rh  Rh9  1  0.000000  0.000000  0.500000  1
  S  S10  1  0.163487  0.836513  0.114164  1
  S  S11  1  0.665107  0.832553  0.377366  1
  S  S12  1  0.666667  0.333333  0.381961  1
  S  S13  1  0.836513  0.163487  0.885836  1
  S  S14  1  0.673027  0.836513  0.114164  1
  S  S15  1  0.326973  0.163487  0.885836  1
  S  S16  1  0.666667  0.333333  0.109266  1
  S  S17  1  0.832553  0.665107  0.622634  1
  S  S18  1  0.334893  0.167447  0.622634  1
  S  S19  1  0.167447  0.334893  0.377366  1
  S  S20  1  0.163487  0.326973  0.114164  1
  S  S21  1  0.836513  0.673027  0.885836  1
  S  S22  1  0.832553  0.167447  0.622634  1
  S  S23  1  0.167447  0.832553  0.377366  1
  S  S24  1  0.333333  0.666667  0.890734  1
  S  S25  1  0.333333  0.666667  0.618039  1
