# generated using pymatgen
data_CsV6PbS12
_symmetry_space_group_name_H-M   'P 1'
_cell_length_a   5.57408100
_cell_length_b   5.57408097
_cell_length_c   16.41070200
_cell_angle_alpha   90.00000000
_cell_angle_beta   90.00000000
_cell_angle_gamma   119.99999426
_symmetry_Int_Tables_number   1
_chemical_formula_structural   CsV6PbS12
_chemical_formula_sum   'Cs1 V6 Pb1 S12'
_cell_volume   441.57488483
_cell_formula_units_Z   1
loop_
 _symmetry_equiv_pos_site_id
 _symmetry_equiv_pos_as_xyz
  1  'x, y, z'
loop_
 _atom_site_type_symbol
 _atom_site_label
 _atom_site_symmetry_multiplicity
 _atom_site_fract_x
 _atom_site_fract_y
 _atom_site_fract_z
 _atom_site_occupancy
  Cs  Cs0  1  0.000000  0.000000  0.500000  1
  V  V1  1  0.000000  0.000000  0.226638  1
  V  V2  1  0.000000  0.000000  0.773362  1
  V  V3  1  0.333333  0.666667  0.226103  1
  V  V4  1  0.666667  0.333333  0.773897  1
  V  V5  1  0.666667  0.333333  0.226103  1
  V  V6  1  0.333333  0.666667  0.773897  1
  Pb  Pb7  1  0.000000  0.000000  0.000000  1
  S  S8  1  0.334945  0.000000  0.137579  1
  S  S9  1  0.000000  0.334945  0.137579  1
  S  S10  1  0.665055  0.665055  0.137579  1
  S  S11  1  0.335216  0.335216  0.684866  1
  S  S12  1  0.664784  0.664784  0.315134  1
  S  S13  1  0.664784  0.000000  0.684866  1
  S  S14  1  0.000000  0.664784  0.684866  1
  S  S15  1  0.000000  0.665055  0.862421  1
  S  S16  1  0.334945  0.334945  0.862421  1
  S  S17  1  0.000000  0.335216  0.315134  1
  S  S18  1  0.335216  0.000000  0.315134  1
  S  S19  1  0.665055  0.000000  0.862421  1
