# generated using pymatgen
data_Cs6ErTmCl12
_symmetry_space_group_name_H-M   'P 1'
_cell_length_a   9.46718400
_cell_length_b   9.46372374
_cell_length_c   7.85408600
_cell_angle_alpha   90.00000000
_cell_angle_beta   90.00000000
_cell_angle_gamma   90.03476958
_symmetry_Int_Tables_number   1
_chemical_formula_structural   Cs6ErTmCl12
_chemical_formula_sum   'Cs6 Er1 Tm1 Cl12'
_cell_volume   703.68524471
_cell_formula_units_Z   1
loop_
 _symmetry_equiv_pos_site_id
 _symmetry_equiv_pos_as_xyz
  1  'x, y, z'
loop_
 _atom_site_type_symbol
 _atom_site_label
 _atom_site_symmetry_multiplicity
 _atom_site_fract_x
 _atom_site_fract_y
 _atom_site_fract_z
 _atom_site_occupancy
  Cs  Cs0  1  0.000000  0.000000  0.500000  1
  Cs  Cs1  1  0.000000  0.000000  0.000000  1
  Cs  Cs2  1  0.236397  0.582898  0.500000  1
  Cs  Cs3  1  0.763603  0.417102  0.500000  1
  Cs  Cs4  1  0.417283  0.235668  0.000000  1
  Cs  Cs5  1  0.582717  0.764332  0.000000  1
  Er  Er6  1  0.000000  0.500000  0.000000  1
  Tm  Tm7  1  0.500000  0.000000  0.500000  1
  Cl  Cl8  1  0.688315  0.056932  0.735713  1
  Cl  Cl9  1  0.311685  0.943068  0.735713  1
  Cl  Cl10  1  0.942905  0.688868  0.236372  1
  Cl  Cl11  1  0.057095  0.311132  0.236372  1
  Cl  Cl12  1  0.311685  0.943068  0.264287  1
  Cl  Cl13  1  0.688315  0.056932  0.264287  1
  Cl  Cl14  1  0.057095  0.311132  0.763628  1
  Cl  Cl15  1  0.942905  0.688868  0.763628  1
  Cl  Cl16  1  0.571090  0.734409  0.500000  1
  Cl  Cl17  1  0.428910  0.265591  0.500000  1
  Cl  Cl18  1  0.266251  0.571126  0.000000  1
  Cl  Cl19  1  0.733749  0.428874  0.000000  1
