# generated using pymatgen
data_Yb(SmCo)2
_symmetry_space_group_name_H-M   'P 1'
_cell_length_a   3.94100319
_cell_length_b   3.93891486
_cell_length_c   20.89461296
_cell_angle_alpha   90.07856731
_cell_angle_beta   89.96703001
_cell_angle_gamma   120.00435584
_symmetry_Int_Tables_number   1
_chemical_formula_structural   Yb(SmCo)2
_chemical_formula_sum   'Yb2 Sm4 Co4'
_cell_volume   280.88520678
_cell_formula_units_Z   2
loop_
 _symmetry_equiv_pos_site_id
 _symmetry_equiv_pos_as_xyz
  1  'x, y, z'
loop_
 _atom_site_type_symbol
 _atom_site_label
 _atom_site_symmetry_multiplicity
 _atom_site_fract_x
 _atom_site_fract_y
 _atom_site_fract_z
 _atom_site_occupancy
  Yb  Yb0  1  0.333336  0.666672  0.749893  1
  Yb  Yb1  1  0.666665  0.333330  0.250108  1
  Sm  Sm2  1  0.000006  0.000052  0.088641  1
  Sm  Sm3  1  0.999993  0.999941  0.411511  1
  Sm  Sm4  1  0.999993  0.999947  0.911360  1
  Sm  Sm5  1  0.000006  0.000059  0.588486  1
  Co  Co6  1  0.333309  0.666634  0.999562  1
  Co  Co7  1  0.666691  0.333365  0.000448  1
  Co  Co8  1  0.333307  0.666639  0.500443  1
  Co  Co9  1  0.666694  0.333362  0.499549  1
