# generated using pymatgen
data_Ta2Nb4C5
_symmetry_space_group_name_H-M   'P 1'
_cell_length_a   5.51398936
_cell_length_b   5.51399049
_cell_length_c   5.49024562
_cell_angle_alpha   80.28022516
_cell_angle_beta   80.28021853
_cell_angle_gamma   120.22077384
_symmetry_Int_Tables_number   1
_chemical_formula_structural   Ta2Nb4C5
_chemical_formula_sum   'Ta2 Nb4 C5'
_cell_volume   135.70934136
_cell_formula_units_Z   1
loop_
 _symmetry_equiv_pos_site_id
 _symmetry_equiv_pos_as_xyz
  1  'x, y, z'
loop_
 _atom_site_type_symbol
 _atom_site_label
 _atom_site_symmetry_multiplicity
 _atom_site_fract_x
 _atom_site_fract_y
 _atom_site_fract_z
 _atom_site_occupancy
  Ta  Ta0  1  0.736828  0.736828  0.735727  1
  Ta  Ta1  1  0.263172  0.263172  0.264273  1
  Nb  Nb2  1  0.081224  0.434207  0.746905  1
  Nb  Nb3  1  0.565793  0.918776  0.253095  1
  Nb  Nb4  1  0.918776  0.565793  0.253095  1
  Nb  Nb5  1  0.434207  0.081224  0.746905  1
  C  C6  1  0.500000  0.500000  0.500000  1
  C  C7  1  0.661673  0.338327  0.000000  1
  C  C8  1  0.338327  0.661673  0.000000  1
  C  C9  1  0.836453  0.163547  0.500000  1
  C  C10  1  0.163547  0.836453  0.500000  1
