# generated using pymatgen
data_LuU7(B6Mo)4
_symmetry_space_group_name_H-M   'P 1'
_cell_length_a   3.68184800
_cell_length_b   9.26418994
_cell_length_c   11.34642621
_cell_angle_alpha   89.95826206
_cell_angle_beta   90.00000000
_cell_angle_gamma   90.00000000
_symmetry_Int_Tables_number   1
_chemical_formula_structural   LuU7(B6Mo)4
_chemical_formula_sum   'Lu1 U7 B24 Mo4'
_cell_volume   387.01899756
_cell_formula_units_Z   1
loop_
 _symmetry_equiv_pos_site_id
 _symmetry_equiv_pos_as_xyz
  1  'x, y, z'
loop_
 _atom_site_type_symbol
 _atom_site_label
 _atom_site_symmetry_multiplicity
 _atom_site_fract_x
 _atom_site_fract_y
 _atom_site_fract_z
 _atom_site_occupancy
  Lu  Lu0  1  0.000000  0.335011  0.407995  1
  U  U1  1  0.000000  0.664129  0.592063  1
  U  U2  1  0.000000  0.834549  0.092889  1
  U  U3  1  0.000000  0.165458  0.907474  1
  U  U4  1  0.000000  0.956828  0.394728  1
  U  U5  1  0.000000  0.044971  0.604725  1
  U  U6  1  0.000000  0.456021  0.105422  1
  U  U7  1  0.000000  0.543500  0.894896  1
  B  B8  1  0.500000  0.551308  0.433431  1
  B  B9  1  0.500000  0.450865  0.568265  1
  B  B10  1  0.500000  0.049780  0.066777  1
  B  B11  1  0.500000  0.950092  0.933053  1
  B  B12  1  0.500000  0.742545  0.424771  1
  B  B13  1  0.500000  0.256562  0.575925  1
  B  B14  1  0.500000  0.243835  0.076047  1
  B  B15  1  0.500000  0.756473  0.924305  1
  B  B16  1  0.500000  0.803367  0.273036  1
  B  B17  1  0.500000  0.196511  0.727107  1
  B  B18  1  0.500000  0.302995  0.225843  1
  B  B19  1  0.500000  0.696318  0.772300  1
  B  B20  1  0.500000  0.643637  0.187917  1
  B  B21  1  0.500000  0.355294  0.812585  1
  B  B22  1  0.500000  0.143989  0.312111  1
  B  B23  1  0.500000  0.855357  0.687427  1
  B  B24  1  0.500000  0.985801  0.218447  1
  B  B25  1  0.500000  0.014478  0.781265  1
  B  B26  1  0.500000  0.486308  0.281090  1
  B  B27  1  0.500000  0.515027  0.717872  1
  B  B28  1  0.500000  0.641880  0.039535  1
  B  B29  1  0.500000  0.358188  0.960729  1
  B  B30  1  0.500000  0.140357  0.460893  1
  B  B31  1  0.500000  0.857733  0.539535  1
  Mo  Mo32  1  0.000000  0.646871  0.319549  1
  Mo  Mo33  1  0.000000  0.355293  0.681863  1
  Mo  Mo34  1  0.000000  0.143627  0.177937  1
  Mo  Mo35  1  0.000000  0.855043  0.820194  1
