# generated using pymatgen
data_LaPr3(InRh)4
_symmetry_space_group_name_H-M   'P 1'
_cell_length_a   4.42162300
_cell_length_b   7.32181180
_cell_length_c   8.61024073
_cell_angle_alpha   89.70333127
_cell_angle_beta   90.00000000
_cell_angle_gamma   90.00000000
_symmetry_Int_Tables_number   1
_chemical_formula_structural   LaPr3(InRh)4
_chemical_formula_sum   'La1 Pr3 In4 Rh4'
_cell_volume   278.74670620
_cell_formula_units_Z   1
loop_
 _symmetry_equiv_pos_site_id
 _symmetry_equiv_pos_as_xyz
  1  'x, y, z'
loop_
 _atom_site_type_symbol
 _atom_site_label
 _atom_site_symmetry_multiplicity
 _atom_site_fract_x
 _atom_site_fract_y
 _atom_site_fract_z
 _atom_site_occupancy
  La  La0  1  0.750000  0.463788  0.677193  1
  Pr  Pr1  1  0.250000  0.038018  0.179042  1
  Pr  Pr2  1  0.750000  0.962335  0.821332  1
  Pr  Pr3  1  0.250000  0.537656  0.319031  1
  In  In4  1  0.750000  0.358309  0.062624  1
  In  In5  1  0.250000  0.641898  0.938620  1
  In  In6  1  0.750000  0.859691  0.437424  1
  In  In7  1  0.250000  0.138444  0.561859  1
  Rh  Rh8  1  0.250000  0.752333  0.624426  1
  Rh  Rh9  1  0.750000  0.246700  0.378270  1
  Rh  Rh10  1  0.250000  0.254968  0.875879  1
  Rh  Rh11  1  0.750000  0.745860  0.124298  1
