# generated using pymatgen
data_Dy7Lu13Si15Au
_symmetry_space_group_name_H-M   'P 1'
_cell_length_a   7.66393894
_cell_length_b   7.68397652
_cell_length_c   14.12319200
_cell_angle_alpha   89.80354995
_cell_angle_beta   89.57692057
_cell_angle_gamma   90.11674713
_symmetry_Int_Tables_number   1
_chemical_formula_structural   Dy7Lu13Si15Au
_chemical_formula_sum   'Dy7 Lu13 Si15 Au1'
_cell_volume   831.67876137
_cell_formula_units_Z   1
loop_
 _symmetry_equiv_pos_site_id
 _symmetry_equiv_pos_as_xyz
  1  'x, y, z'
loop_
 _atom_site_type_symbol
 _atom_site_label
 _atom_site_symmetry_multiplicity
 _atom_site_fract_x
 _atom_site_fract_y
 _atom_site_fract_z
 _atom_site_occupancy
  Dy  Dy0  1  0.360479  0.005930  0.959728  1
  Dy  Dy1  1  0.987943  0.639277  0.538527  1
  Dy  Dy2  1  0.493263  0.856675  0.209912  1
  Dy  Dy3  1  0.511981  0.145578  0.710469  1
  Dy  Dy4  1  0.859483  0.494005  0.793072  1
  Dy  Dy5  1  0.139507  0.504270  0.291074  1
  Dy  Dy6  1  0.006090  0.356174  0.041753  1
  Lu  Lu7  1  0.491545  0.358940  0.124180  1
  Lu  Lu8  1  0.988609  0.144231  0.628284  1
  Lu  Lu9  1  0.858981  0.006501  0.875235  1
  Lu  Lu10  1  0.137468  0.989680  0.373563  1
  Lu  Lu11  1  0.511995  0.640526  0.621735  1
  Lu  Lu12  1  0.361177  0.492154  0.877438  1
  Lu  Lu13  1  0.643144  0.506311  0.375050  1
  Lu  Lu14  1  0.006043  0.861176  0.125960  1
  Lu  Lu15  1  0.641620  0.997378  0.457296  1
  Lu  Lu16  1  0.316220  0.316643  0.500459  1
  Lu  Lu17  1  0.187294  0.822142  0.748360  1
  Lu  Lu18  1  0.817615  0.180923  0.250597  1
  Lu  Lu19  1  0.681805  0.681951  0.000566  1
  Si  Si20  1  0.704600  0.057865  0.063737  1
  Si  Si21  1  0.941097  0.293628  0.436109  1
  Si  Si22  1  0.441240  0.207463  0.312417  1
  Si  Si23  1  0.560689  0.791912  0.812439  1
  Si  Si24  1  0.208678  0.442285  0.689037  1
  Si  Si25  1  0.792517  0.559458  0.186043  1
  Si  Si26  1  0.059285  0.706942  0.937677  1
  Si  Si27  1  0.799310  0.845867  0.688834  1
  Si  Si28  1  0.200888  0.150907  0.184759  1
  Si  Si29  1  0.844265  0.799335  0.313734  1
  Si  Si30  1  0.350356  0.699790  0.431354  1
  Si  Si31  1  0.652372  0.298286  0.937168  1
  Si  Si32  1  0.702093  0.346252  0.561571  1
  Si  Si33  1  0.297584  0.652687  0.063816  1
  Si  Si34  1  0.151591  0.206196  0.815383  1
  Au  Au35  1  0.291168  0.940657  0.562664  1
