# generated using pymatgen
data_Sr8Ca5Dy7Si16
_symmetry_space_group_name_H-M   'P 1'
_cell_length_a   7.68944040
_cell_length_b   8.06658839
_cell_length_c   15.31552600
_cell_angle_alpha   89.96224834
_cell_angle_beta   90.11086690
_cell_angle_gamma   90.07890037
_symmetry_Int_Tables_number   1
_chemical_formula_structural   Sr8Ca5Dy7Si16
_chemical_formula_sum   'Sr8 Ca5 Dy7 Si16'
_cell_volume   949.98167992
_cell_formula_units_Z   1
loop_
 _symmetry_equiv_pos_site_id
 _symmetry_equiv_pos_as_xyz
  1  'x, y, z'
loop_
 _atom_site_type_symbol
 _atom_site_label
 _atom_site_symmetry_multiplicity
 _atom_site_fract_x
 _atom_site_fract_y
 _atom_site_fract_z
 _atom_site_occupancy
  Sr  Sr0  1  0.976574  0.822720  0.096776  1
  Sr  Sr1  1  0.476644  0.677803  0.403372  1
  Sr  Sr2  1  0.524644  0.322197  0.903455  1
  Sr  Sr3  1  0.025387  0.176961  0.596605  1
  Sr  Sr4  1  0.023548  0.175989  0.901741  1
  Sr  Sr5  1  0.523829  0.321906  0.597255  1
  Sr  Sr6  1  0.476565  0.678620  0.097061  1
  Sr  Sr7  1  0.976520  0.823202  0.403006  1
  Ca  Ca8  1  0.648520  0.987166  0.250277  1
  Ca  Ca9  1  0.149103  0.512527  0.249869  1
  Ca  Ca10  1  0.850222  0.488112  0.750896  1
  Ca  Ca11  1  0.353546  0.011851  0.750835  1
  Ca  Ca12  1  0.681196  0.821730  0.879461  1
  Dy  Dy13  1  0.179575  0.679318  0.621969  1
  Dy  Dy14  1  0.818514  0.321819  0.122240  1
  Dy  Dy15  1  0.319176  0.178428  0.378338  1
  Dy  Dy16  1  0.318487  0.178227  0.122856  1
  Dy  Dy17  1  0.818720  0.321760  0.378381  1
  Dy  Dy18  1  0.181049  0.677165  0.876601  1
  Dy  Dy19  1  0.679988  0.821579  0.622438  1
  Si  Si20  1  0.758528  0.594786  0.250172  1
  Si  Si21  1  0.257284  0.905028  0.250885  1
  Si  Si22  1  0.745156  0.099199  0.745976  1
  Si  Si23  1  0.239721  0.402328  0.749225  1
  Si  Si24  1  0.030414  0.120680  0.250773  1
  Si  Si25  1  0.530569  0.379755  0.251165  1
  Si  Si26  1  0.465946  0.616774  0.746315  1
  Si  Si27  1  0.972797  0.883530  0.746788  1
  Si  Si28  1  0.869489  0.528417  0.962298  1
  Si  Si29  1  0.362467  0.964917  0.537403  1
  Si  Si30  1  0.632689  0.040501  0.041313  1
  Si  Si31  1  0.136407  0.464227  0.461850  1
  Si  Si32  1  0.139525  0.463392  0.038687  1
  Si  Si33  1  0.637075  0.035516  0.461777  1
  Si  Si34  1  0.356799  0.965976  0.964805  1
  Si  Si35  1  0.863324  0.535896  0.537134  1
