# generated using pymatgen
data_HfNb9(Ga3B)2
_symmetry_space_group_name_H-M   'P 1'
_cell_length_a   7.85929374
_cell_length_b   7.85929369
_cell_length_c   5.38739600
_cell_angle_alpha   90.00000000
_cell_angle_beta   90.00000000
_cell_angle_gamma   119.81956109
_symmetry_Int_Tables_number   1
_chemical_formula_structural   HfNb9(Ga3B)2
_chemical_formula_sum   'Hf1 Nb9 Ga6 B2'
_cell_volume   288.71100993
_cell_formula_units_Z   1
loop_
 _symmetry_equiv_pos_site_id
 _symmetry_equiv_pos_as_xyz
  1  'x, y, z'
loop_
 _atom_site_type_symbol
 _atom_site_label
 _atom_site_symmetry_multiplicity
 _atom_site_fract_x
 _atom_site_fract_y
 _atom_site_fract_z
 _atom_site_occupancy
  Hf  Hf0  1  0.753927  0.753927  0.250000  1
  Nb  Nb1  1  0.666849  0.332557  0.499528  1
  Nb  Nb2  1  0.332557  0.666849  0.499528  1
  Nb  Nb3  1  0.332557  0.666849  0.000472  1
  Nb  Nb4  1  0.666849  0.332557  0.000472  1
  Nb  Nb5  1  0.240350  0.999211  0.250000  1
  Nb  Nb6  1  0.999211  0.240350  0.250000  1
  Nb  Nb7  1  0.245319  0.245319  0.750000  1
  Nb  Nb8  1  0.759556  0.000755  0.750000  1
  Nb  Nb9  1  0.000755  0.759556  0.750000  1
  Ga  Ga10  1  0.396246  0.396246  0.250000  1
  Ga  Ga11  1  0.598198  0.000376  0.250000  1
  Ga  Ga12  1  0.000376  0.598198  0.250000  1
  Ga  Ga13  1  0.599725  0.599725  0.750000  1
  Ga  Ga14  1  0.400163  0.000628  0.750000  1
  Ga  Ga15  1  0.000628  0.400163  0.750000  1
  B  B16  1  0.003367  0.003367  0.503871  1
  B  B17  1  0.003367  0.003367  0.996129  1
