# generated using pymatgen
data_NaYbBiO4
_symmetry_space_group_name_H-M   'P 1'
_cell_length_a   9.89684300
_cell_length_b   9.89684149
_cell_length_c   3.36023900
_cell_angle_alpha   90.00000000
_cell_angle_beta   90.00000000
_cell_angle_gamma   119.10570371
_symmetry_Int_Tables_number   1
_chemical_formula_structural   NaYbBiO4
_chemical_formula_sum   'Na3 Yb3 Bi3 O12'
_cell_volume   287.56606303
_cell_formula_units_Z   3
loop_
 _symmetry_equiv_pos_site_id
 _symmetry_equiv_pos_as_xyz
  1  'x, y, z'
loop_
 _atom_site_type_symbol
 _atom_site_label
 _atom_site_symmetry_multiplicity
 _atom_site_fract_x
 _atom_site_fract_y
 _atom_site_fract_z
 _atom_site_occupancy
  Na  Na0  1  0.989833  0.989833  0.000000  1
  Na  Na1  1  0.694350  0.995772  0.500000  1
  Na  Na2  1  0.995772  0.694350  0.500000  1
  Yb  Yb3  1  0.659408  0.330967  0.500000  1
  Yb  Yb4  1  0.330967  0.659408  0.500000  1
  Yb  Yb5  1  0.297650  0.297650  0.500000  1
  Bi  Bi6  1  0.660130  0.660130  0.000000  1
  Bi  Bi7  1  0.337966  0.002682  0.000000  1
  Bi  Bi8  1  0.002682  0.337966  0.000000  1
  O  O9  1  0.531999  0.775272  0.000000  1
  O  O10  1  0.227411  0.763784  0.000000  1
  O  O11  1  0.247149  0.439893  0.000000  1
  O  O12  1  0.775272  0.531999  0.000000  1
  O  O13  1  0.763784  0.227411  0.000000  1
  O  O14  1  0.439893  0.247149  0.000000  1
  O  O15  1  0.520994  0.520994  0.500000  1
  O  O16  1  0.486449  0.030279  0.500000  1
  O  O17  1  0.030279  0.486449  0.500000  1
  O  O18  1  0.810728  0.810728  0.500000  1
  O  O19  1  0.187703  0.009681  0.500000  1
  O  O20  1  0.009681  0.187703  0.500000  1
