# generated using pymatgen
data_Hf12CoTc5Ir6
_symmetry_space_group_name_H-M   'P 1'
_cell_length_a   4.61308400
_cell_length_b   6.47223100
_cell_length_c   13.87316500
_cell_angle_alpha   90.00010681
_cell_angle_beta   90.00188144
_cell_angle_gamma   89.99989720
_symmetry_Int_Tables_number   1
_chemical_formula_structural   Hf12CoTc5Ir6
_chemical_formula_sum   'Hf12 Co1 Tc5 Ir6'
_cell_volume   414.21032802
_cell_formula_units_Z   1
loop_
 _symmetry_equiv_pos_site_id
 _symmetry_equiv_pos_as_xyz
  1  'x, y, z'
loop_
 _atom_site_type_symbol
 _atom_site_label
 _atom_site_symmetry_multiplicity
 _atom_site_fract_x
 _atom_site_fract_y
 _atom_site_fract_z
 _atom_site_occupancy
  Hf  Hf0  1  0.499997  0.248730  0.999529  1
  Hf  Hf1  1  0.499999  0.751269  0.999529  1
  Hf  Hf2  1  0.999813  0.250097  0.166852  1
  Hf  Hf3  1  0.999816  0.749903  0.166851  1
  Hf  Hf4  1  0.499822  0.249701  0.333335  1
  Hf  Hf5  1  0.499819  0.750298  0.333335  1
  Hf  Hf6  1  0.000000  0.250103  0.499817  1
  Hf  Hf7  1  0.999998  0.749896  0.499816  1
  Hf  Hf8  1  0.500185  0.248737  0.667139  1
  Hf  Hf9  1  0.500185  0.751263  0.667139  1
  Hf  Hf10  1  0.000179  0.248150  0.833337  1
  Hf  Hf11  1  0.000177  0.751851  0.833337  1
  Co  Co12  1  0.500179  0.999999  0.833272  1
  Tc  Tc13  1  0.999999  0.500000  0.999544  1
  Tc  Tc14  1  0.499832  0.999999  0.166406  1
  Tc  Tc15  1  0.999834  0.500000  0.333315  1
  Tc  Tc16  1  0.500003  0.000001  0.500279  1
  Tc  Tc17  1  0.000165  0.500000  0.667148  1
  Ir  Ir18  1  0.999983  0.000000  0.999558  1
  Ir  Ir19  1  0.499799  0.500000  0.166346  1
  Ir  Ir20  1  0.999795  0.000000  0.333345  1
  Ir  Ir21  1  0.499999  0.500000  0.500313  1
  Ir  Ir22  1  0.000216  0.000000  0.667110  1
  Ir  Ir23  1  0.500207  0.500001  0.833348  1
