# generated using pymatgen
data_Hf18VZnRe7Se
_symmetry_space_group_name_H-M   'P 1'
_cell_length_a   8.64230700
_cell_length_b   8.64230776
_cell_length_c   8.55867200
_cell_angle_alpha   90.00000000
_cell_angle_beta   90.00000000
_cell_angle_gamma   120.00000091
_symmetry_Int_Tables_number   1
_chemical_formula_structural   Hf18VZnRe7Se
_chemical_formula_sum   'Hf18 V1 Zn1 Re7 Se1'
_cell_volume   553.60044202
_cell_formula_units_Z   1
loop_
 _symmetry_equiv_pos_site_id
 _symmetry_equiv_pos_as_xyz
  1  'x, y, z'
loop_
 _atom_site_type_symbol
 _atom_site_label
 _atom_site_symmetry_multiplicity
 _atom_site_fract_x
 _atom_site_fract_y
 _atom_site_fract_z
 _atom_site_occupancy
  Hf  Hf0  1  0.193573  0.806427  0.448889  1
  Hf  Hf1  1  0.193573  0.387146  0.448889  1
  Hf  Hf2  1  0.612854  0.806427  0.448889  1
  Hf  Hf3  1  0.807223  0.192777  0.548039  1
  Hf  Hf4  1  0.807223  0.614444  0.548039  1
  Hf  Hf5  1  0.385556  0.192777  0.548039  1
  Hf  Hf6  1  0.808016  0.191984  0.950998  1
  Hf  Hf7  1  0.808016  0.616031  0.950998  1
  Hf  Hf8  1  0.383969  0.191984  0.950998  1
  Hf  Hf9  1  0.193295  0.806705  0.052176  1
  Hf  Hf10  1  0.193295  0.386589  0.052176  1
  Hf  Hf11  1  0.613411  0.806705  0.052176  1
  Hf  Hf12  1  0.541326  0.458674  0.248822  1
  Hf  Hf13  1  0.541326  0.082652  0.248822  1
  Hf  Hf14  1  0.917348  0.458674  0.248822  1
  Hf  Hf15  1  0.454688  0.545312  0.750748  1
  Hf  Hf16  1  0.454688  0.909377  0.750748  1
  Hf  Hf17  1  0.090623  0.545312  0.750748  1
  V  V18  1  0.000000  0.000000  0.499575  1
  Zn  Zn19  1  0.333333  0.666667  0.249675  1
  Re  Re20  1  0.890131  0.109869  0.253521  1
  Re  Re21  1  0.890131  0.780263  0.253521  1
  Re  Re22  1  0.219737  0.109869  0.253521  1
  Re  Re23  1  0.109942  0.890058  0.746582  1
  Re  Re24  1  0.109942  0.219883  0.746582  1
  Re  Re25  1  0.780117  0.890058  0.746582  1
  Re  Re26  1  0.000000  0.000000  0.000286  1
  Se  Se27  1  0.666667  0.333333  0.751136  1
