# generated using pymatgen
data_Dy5Y(Ho2Si3)2
_symmetry_space_group_name_H-M   'P 1'
_cell_length_a   8.43103701
_cell_length_b   8.43183362
_cell_length_c   6.34354900
_cell_angle_alpha   90.00000000
_cell_angle_beta   90.00000000
_cell_angle_gamma   120.00312759
_symmetry_Int_Tables_number   1
_chemical_formula_structural   Dy5Y(Ho2Si3)2
_chemical_formula_sum   'Dy5 Y1 Ho4 Si6'
_cell_volume   390.52808027
_cell_formula_units_Z   1
loop_
 _symmetry_equiv_pos_site_id
 _symmetry_equiv_pos_as_xyz
  1  'x, y, z'
loop_
 _atom_site_type_symbol
 _atom_site_label
 _atom_site_symmetry_multiplicity
 _atom_site_fract_x
 _atom_site_fract_y
 _atom_site_fract_z
 _atom_site_occupancy
  Dy  Dy0  1  0.000000  0.243163  0.250000  1
  Dy  Dy1  1  0.756761  0.756811  0.250000  1
  Dy  Dy2  1  0.756763  0.000021  0.750000  1
  Dy  Dy3  1  0.243237  0.243259  0.750000  1
  Dy  Dy4  1  0.243239  0.000050  0.250000  1
  Y  Y5  1  0.000000  0.756894  0.750000  1
  Ho  Ho6  1  0.333319  0.666652  0.500000  1
  Ho  Ho7  1  0.666681  0.333332  0.000000  1
  Ho  Ho8  1  0.666681  0.333332  0.500000  1
  Ho  Ho9  1  0.333319  0.666652  0.000000  1
  Si  Si10  1  0.394611  0.999999  0.750000  1
  Si  Si11  1  0.394612  0.394569  0.250000  1
  Si  Si12  1  0.000000  0.605376  0.250000  1
  Si  Si13  1  0.000000  0.394545  0.750000  1
  Si  Si14  1  0.605389  0.605388  0.750000  1
  Si  Si15  1  0.605388  0.999957  0.250000  1
