# generated using pymatgen
data_Pr3Y2(Sn5Pd2)2
_symmetry_space_group_name_H-M   'P 1'
_cell_length_a   14.26803100
_cell_length_b   14.26803100
_cell_length_c   4.62827700
_cell_angle_alpha   90.00000000
_cell_angle_beta   90.00000000
_cell_angle_gamma   90.00000000
_symmetry_Int_Tables_number   1
_chemical_formula_structural   Pr3Y2(Sn5Pd2)2
_chemical_formula_sum   'Pr6 Y4 Sn20 Pd8'
_cell_volume   942.20939823
_cell_formula_units_Z   2
loop_
 _symmetry_equiv_pos_site_id
 _symmetry_equiv_pos_as_xyz
  1  'x, y, z'
loop_
 _atom_site_type_symbol
 _atom_site_label
 _atom_site_symmetry_multiplicity
 _atom_site_fract_x
 _atom_site_fract_y
 _atom_site_fract_z
 _atom_site_occupancy
  Pr  Pr0  1  0.500000  0.500000  0.000000  1
  Pr  Pr1  1  0.000000  0.000000  0.000000  1
  Pr  Pr2  1  0.889912  0.389912  0.500000  1
  Pr  Pr3  1  0.110088  0.610088  0.500000  1
  Pr  Pr4  1  0.389912  0.110088  0.500000  1
  Pr  Pr5  1  0.610088  0.889912  0.500000  1
  Y  Y6  1  0.677823  0.177823  0.500000  1
  Y  Y7  1  0.322177  0.822177  0.500000  1
  Y  Y8  1  0.177823  0.322177  0.500000  1
  Y  Y9  1  0.822177  0.677823  0.500000  1
  Sn  Sn10  1  0.569303  0.069303  0.000000  1
  Sn  Sn11  1  0.430697  0.930697  0.000000  1
  Sn  Sn12  1  0.069303  0.430697  0.000000  1
  Sn  Sn13  1  0.930697  0.569303  0.000000  1
  Sn  Sn14  1  0.655505  0.699789  0.000000  1
  Sn  Sn15  1  0.344495  0.300211  0.000000  1
  Sn  Sn16  1  0.155505  0.800211  0.000000  1
  Sn  Sn17  1  0.844495  0.199789  0.000000  1
  Sn  Sn18  1  0.300211  0.655505  0.000000  1
  Sn  Sn19  1  0.699789  0.344495  0.000000  1
  Sn  Sn20  1  0.199789  0.155505  0.000000  1
  Sn  Sn21  1  0.800211  0.844495  0.000000  1
  Sn  Sn22  1  0.661810  0.504763  0.500000  1
  Sn  Sn23  1  0.338190  0.495237  0.500000  1
  Sn  Sn24  1  0.161810  0.995237  0.500000  1
  Sn  Sn25  1  0.838190  0.004763  0.500000  1
  Sn  Sn26  1  0.495237  0.661810  0.500000  1
  Sn  Sn27  1  0.504763  0.338190  0.500000  1
  Sn  Sn28  1  0.004763  0.161810  0.500000  1
  Sn  Sn29  1  0.995237  0.838190  0.500000  1
  Pd  Pd30  1  0.746892  0.530026  0.000000  1
  Pd  Pd31  1  0.253108  0.469974  0.000000  1
  Pd  Pd32  1  0.246892  0.969974  0.000000  1
  Pd  Pd33  1  0.753108  0.030026  0.000000  1
  Pd  Pd34  1  0.469974  0.746892  0.000000  1
  Pd  Pd35  1  0.530026  0.253108  0.000000  1
  Pd  Pd36  1  0.030026  0.246892  0.000000  1
  Pd  Pd37  1  0.969974  0.753108  0.000000  1
