# generated using pymatgen
data_Ba4Si7PRu8
_symmetry_space_group_name_H-M   'P 1'
_cell_length_a   6.49323948
_cell_length_b   8.00437734
_cell_length_c   8.01196033
_cell_angle_alpha   81.25622417
_cell_angle_beta   89.98579965
_cell_angle_gamma   89.98826230
_symmetry_Int_Tables_number   1
_chemical_formula_structural   Ba4Si7PRu8
_chemical_formula_sum   'Ba4 Si7 P1 Ru8'
_cell_volume   411.57674546
_cell_formula_units_Z   1
loop_
 _symmetry_equiv_pos_site_id
 _symmetry_equiv_pos_as_xyz
  1  'x, y, z'
loop_
 _atom_site_type_symbol
 _atom_site_label
 _atom_site_symmetry_multiplicity
 _atom_site_fract_x
 _atom_site_fract_y
 _atom_site_fract_z
 _atom_site_occupancy
  Ba  Ba0  1  0.374579  0.001134  0.250913  1
  Ba  Ba1  1  0.874237  0.500594  0.748679  1
  Ba  Ba2  1  0.123530  0.500649  0.249535  1
  Ba  Ba3  1  0.627269  0.999729  0.750072  1
  Si  Si4  1  0.124449  0.176054  0.575202  1
  Si  Si5  1  0.622938  0.325124  0.424109  1
  Si  Si6  1  0.874782  0.825264  0.424500  1
  Si  Si7  1  0.876874  0.174466  0.076174  1
  Si  Si8  1  0.623556  0.675771  0.074097  1
  Si  Si9  1  0.126377  0.825110  0.924980  1
  Si  Si10  1  0.374312  0.675115  0.574802  1
  P  P11  1  0.376939  0.324902  0.923964  1
  Ru  Ru12  1  0.376952  0.372933  0.630410  1
  Ru  Ru13  1  0.623629  0.625163  0.374548  1
  Ru  Ru14  1  0.124978  0.875090  0.625319  1
  Ru  Ru15  1  0.132782  0.129570  0.877228  1
  Ru  Ru16  1  0.619143  0.373103  0.119867  1
  Ru  Ru17  1  0.874921  0.874758  0.123558  1
  Ru  Ru18  1  0.372825  0.618926  0.876593  1
  Ru  Ru19  1  0.874928  0.126546  0.375450  1
