# generated using pymatgen
data_TaTi9Sn6As
_symmetry_space_group_name_H-M   'P 1'
_cell_length_a   8.18048500
_cell_length_b   8.18048540
_cell_length_c   5.54502400
_cell_angle_alpha   90.00000000
_cell_angle_beta   90.00000000
_cell_angle_gamma   120.00000242
_symmetry_Int_Tables_number   1
_chemical_formula_structural   TaTi9Sn6As
_chemical_formula_sum   'Ta1 Ti9 Sn6 As1'
_cell_volume   321.36026577
_cell_formula_units_Z   1
loop_
 _symmetry_equiv_pos_site_id
 _symmetry_equiv_pos_as_xyz
  1  'x, y, z'
loop_
 _atom_site_type_symbol
 _atom_site_label
 _atom_site_symmetry_multiplicity
 _atom_site_fract_x
 _atom_site_fract_y
 _atom_site_fract_z
 _atom_site_occupancy
  Ta  Ta0  1  0.666667  0.333333  0.500000  1
  Ti  Ti1  1  0.333333  0.666667  0.500000  1
  Ti  Ti2  1  0.333333  0.666667  0.000000  1
  Ti  Ti3  1  0.666667  0.333333  0.000000  1
  Ti  Ti4  1  0.744162  0.742712  0.240623  1
  Ti  Ti5  1  0.257288  0.001450  0.240623  1
  Ti  Ti6  1  0.998550  0.255838  0.240623  1
  Ti  Ti7  1  0.257288  0.255838  0.759377  1
  Ti  Ti8  1  0.744162  0.001450  0.759377  1
  Ti  Ti9  1  0.998550  0.742712  0.759377  1
  Sn  Sn10  1  0.389675  0.392288  0.249015  1
  Sn  Sn11  1  0.607712  0.997387  0.249015  1
  Sn  Sn12  1  0.002613  0.610325  0.249015  1
  Sn  Sn13  1  0.607712  0.610325  0.750985  1
  Sn  Sn14  1  0.389675  0.997387  0.750985  1
  Sn  Sn15  1  0.002613  0.392288  0.750985  1
  As  As16  1  0.000000  0.000000  0.500000  1
