# generated using pymatgen
data_Nd8Sc12Ga11Sn5
_symmetry_space_group_name_H-M   'P 1'
_cell_length_a   7.42864700
_cell_length_b   7.78512410
_cell_length_c   14.79312500
_cell_angle_alpha   90.01976066
_cell_angle_beta   90.15160327
_cell_angle_gamma   90.02307165
_symmetry_Int_Tables_number   1
_chemical_formula_structural   Nd8Sc12Ga11Sn5
_chemical_formula_sum   'Nd8 Sc12 Ga11 Sn5'
_cell_volume   855.52677743
_cell_formula_units_Z   1
loop_
 _symmetry_equiv_pos_site_id
 _symmetry_equiv_pos_as_xyz
  1  'x, y, z'
loop_
 _atom_site_type_symbol
 _atom_site_label
 _atom_site_symmetry_multiplicity
 _atom_site_fract_x
 _atom_site_fract_y
 _atom_site_fract_z
 _atom_site_occupancy
  Nd  Nd0  1  0.500714  0.319359  0.900152  1
  Nd  Nd1  1  0.992061  0.175497  0.595379  1
  Nd  Nd2  1  0.508355  0.675659  0.404038  1
  Nd  Nd3  1  0.003880  0.826920  0.099453  1
  Nd  Nd4  1  0.495456  0.682463  0.101750  1
  Nd  Nd5  1  0.993354  0.820592  0.401377  1
  Nd  Nd6  1  0.507582  0.322059  0.598537  1
  Nd  Nd7  1  0.005731  0.175460  0.899861  1
  Sc  Sc8  1  0.336151  0.837846  0.869030  1
  Sc  Sc9  1  0.829365  0.672656  0.625509  1
  Sc  Sc10  1  0.671785  0.172990  0.374296  1
  Sc  Sc11  1  0.168458  0.322050  0.130297  1
  Sc  Sc12  1  0.649535  0.166953  0.132735  1
  Sc  Sc13  1  0.152641  0.330641  0.369021  1
  Sc  Sc14  1  0.346437  0.830985  0.630582  1
  Sc  Sc15  1  0.839503  0.669908  0.867543  1
  Sc  Sc16  1  0.175797  0.499474  0.747858  1
  Sc  Sc17  1  0.678032  0.000185  0.747325  1
  Sc  Sc18  1  0.823770  0.499764  0.252541  1
  Sc  Sc19  1  0.323131  0.998410  0.249871  1
  Ga  Ga20  1  0.329069  0.042234  0.040547  1
  Ga  Ga21  1  0.831747  0.458368  0.458831  1
  Ga  Ga22  1  0.668753  0.958327  0.541006  1
  Ga  Ga23  1  0.539879  0.618971  0.751598  1
  Ga  Ga24  1  0.040683  0.879588  0.746113  1
  Ga  Ga25  1  0.459553  0.381116  0.254643  1
  Ga  Ga26  1  0.957824  0.118098  0.247983  1
  Ga  Ga27  1  0.296172  0.126210  0.747773  1
  Ga  Ga28  1  0.799111  0.376496  0.750237  1
  Ga  Ga29  1  0.702566  0.877114  0.251079  1
  Ga  Ga30  1  0.202515  0.622768  0.250677  1
  Sn  Sn31  1  0.176533  0.544939  0.959923  1
  Sn  Sn32  1  0.669747  0.957565  0.961611  1
  Sn  Sn33  1  0.169091  0.540867  0.538813  1
  Sn  Sn34  1  0.331575  0.041126  0.460697  1
  Sn  Sn35  1  0.823441  0.456346  0.041316  1
