# generated using pymatgen
data_Tb6Ho10Cd4OsPd3
_symmetry_space_group_name_H-M   'P 1'
_cell_length_a   9.70243621
_cell_length_b   9.70244978
_cell_length_c   9.70242116
_cell_angle_alpha   59.50693178
_cell_angle_beta   59.50670800
_cell_angle_gamma   59.50654479
_symmetry_Int_Tables_number   1
_chemical_formula_structural   Tb6Ho10Cd4OsPd3
_chemical_formula_sum   'Tb6 Ho10 Cd4 Os1 Pd3'
_cell_volume   638.59855996
_cell_formula_units_Z   1
loop_
 _symmetry_equiv_pos_site_id
 _symmetry_equiv_pos_as_xyz
  1  'x, y, z'
loop_
 _atom_site_type_symbol
 _atom_site_label
 _atom_site_symmetry_multiplicity
 _atom_site_fract_x
 _atom_site_fract_y
 _atom_site_fract_z
 _atom_site_occupancy
  Tb  Tb0  1  0.934659  0.565999  0.565998  1
  Tb  Tb1  1  0.558058  0.937521  0.937521  1
  Tb  Tb2  1  0.565998  0.934659  0.565998  1
  Tb  Tb3  1  0.937523  0.558056  0.937522  1
  Tb  Tb4  1  0.565998  0.565999  0.934659  1
  Tb  Tb5  1  0.937523  0.937520  0.558056  1
  Ho  Ho6  1  0.352717  0.352716  0.352718  1
  Ho  Ho7  1  0.350040  0.350037  0.946295  1
  Ho  Ho8  1  0.350040  0.946297  0.350038  1
  Ho  Ho9  1  0.946295  0.350043  0.350036  1
  Ho  Ho10  1  0.816412  0.188264  0.188262  1
  Ho  Ho11  1  0.187743  0.810558  0.810563  1
  Ho  Ho12  1  0.188263  0.816411  0.188262  1
  Ho  Ho13  1  0.810561  0.187743  0.810562  1
  Ho  Ho14  1  0.188262  0.188262  0.816415  1
  Ho  Ho15  1  0.810561  0.810560  0.187745  1
  Cd  Cd16  1  0.580330  0.580333  0.580329  1
  Cd  Cd17  1  0.580910  0.580911  0.254463  1
  Cd  Cd18  1  0.580909  0.254462  0.580910  1
  Cd  Cd19  1  0.254463  0.580910  0.580909  1
  Os  Os20  1  0.143920  0.143921  0.143920  1
  Pd  Pd21  1  0.144256  0.144258  0.570305  1
  Pd  Pd22  1  0.144256  0.570304  0.144258  1
  Pd  Pd23  1  0.570304  0.144258  0.144258  1
