# generated using pymatgen
data_Pr8Ta(IrO8)3
_symmetry_space_group_name_H-M   'P 1'
_cell_length_a   5.49179939
_cell_length_b   9.48768391
_cell_length_c   10.28275694
_cell_angle_alpha   89.65994870
_cell_angle_beta   89.95296339
_cell_angle_gamma   89.96319674
_symmetry_Int_Tables_number   1
_chemical_formula_structural   Pr8Ta(IrO8)3
_chemical_formula_sum   'Pr8 Ta1 Ir3 O24'
_cell_volume   535.76773779
_cell_formula_units_Z   1
loop_
 _symmetry_equiv_pos_site_id
 _symmetry_equiv_pos_as_xyz
  1  'x, y, z'
loop_
 _atom_site_type_symbol
 _atom_site_label
 _atom_site_symmetry_multiplicity
 _atom_site_fract_x
 _atom_site_fract_y
 _atom_site_fract_z
 _atom_site_occupancy
  Pr  Pr0  1  0.036382  0.218190  0.130703  1
  Pr  Pr1  1  0.466848  0.772992  0.634123  1
  Pr  Pr2  1  0.968162  0.717087  0.370797  1
  Pr  Pr3  1  0.533457  0.287278  0.860774  1
  Pr  Pr4  1  0.026338  0.105959  0.538782  1
  Pr  Pr5  1  0.474175  0.900023  0.036917  1
  Pr  Pr6  1  0.977238  0.604568  0.959929  1
  Pr  Pr7  1  0.525599  0.401288  0.462428  1
  Ta  Ta8  1  0.041188  0.493641  0.647137  1
  Ir  Ir9  1  0.545408  0.001470  0.356800  1
  Ir  Ir10  1  0.956197  0.997248  0.857688  1
  Ir  Ir11  1  0.456896  0.503933  0.142551  1
  O  O12  1  0.436318  0.148724  0.473387  1
  O  O13  1  0.061083  0.853906  0.983312  1
  O  O14  1  0.562489  0.650815  0.022170  1
  O  O15  1  0.922038  0.344336  0.521830  1
  O  O16  1  0.723008  0.389275  0.069549  1
  O  O17  1  0.772117  0.610443  0.558619  1
  O  O18  1  0.280590  0.888988  0.434065  1
  O  O19  1  0.223297  0.112005  0.934680  1
  O  O20  1  0.250853  0.412192  0.007179  1
  O  O21  1  0.250630  0.592321  0.506620  1
  O  O22  1  0.753869  0.913004  0.493307  1
  O  O23  1  0.748349  0.090010  0.992787  1
  O  O24  1  0.188191  0.629959  0.180596  1
  O  O25  1  0.315042  0.358054  0.672263  1
  O  O26  1  0.814904  0.126165  0.316944  1
  O  O27  1  0.688186  0.867781  0.822550  1
  O  O28  1  0.338177  0.056592  0.214977  1
  O  O29  1  0.162517  0.943251  0.717743  1
  O  O30  1  0.661206  0.561238  0.280712  1
  O  O31  1  0.826109  0.452824  0.792741  1
  O  O32  1  0.326684  0.360754  0.256296  1
  O  O33  1  0.191412  0.635802  0.763059  1
  O  O34  1  0.671338  0.859128  0.242857  1
  O  O35  1  0.823705  0.138755  0.743130  1
