# generated using pymatgen
data_InCu6MoS8
_symmetry_space_group_name_H-M   'P 1'
_cell_length_a   7.68247600
_cell_length_b   7.68247517
_cell_length_c   12.54155000
_cell_angle_alpha   90.00000000
_cell_angle_beta   90.00000000
_cell_angle_gamma   119.99999496
_symmetry_Int_Tables_number   1
_chemical_formula_structural   InCu6MoS8
_chemical_formula_sum   'In2 Cu12 Mo2 S16'
_cell_volume   641.03869439
_cell_formula_units_Z   2
loop_
 _symmetry_equiv_pos_site_id
 _symmetry_equiv_pos_as_xyz
  1  'x, y, z'
loop_
 _atom_site_type_symbol
 _atom_site_label
 _atom_site_symmetry_multiplicity
 _atom_site_fract_x
 _atom_site_fract_y
 _atom_site_fract_z
 _atom_site_occupancy
  In  In0  1  0.000000  0.000000  0.853122  1
  In  In1  1  0.000000  0.000000  0.353122  1
  Cu  Cu2  1  0.835500  0.671004  0.105179  1
  Cu  Cu3  1  0.501983  0.498017  0.352956  1
  Cu  Cu4  1  0.003966  0.501983  0.852956  1
  Cu  Cu5  1  0.835500  0.164500  0.105179  1
  Cu  Cu6  1  0.498017  0.501983  0.852956  1
  Cu  Cu7  1  0.164500  0.328996  0.605179  1
  Cu  Cu8  1  0.501983  0.003966  0.352956  1
  Cu  Cu9  1  0.996034  0.498017  0.352956  1
  Cu  Cu10  1  0.164500  0.835500  0.605179  1
  Cu  Cu11  1  0.498017  0.996034  0.852956  1
  Cu  Cu12  1  0.671004  0.835500  0.605179  1
  Cu  Cu13  1  0.328996  0.164500  0.105179  1
  Mo  Mo14  1  0.333333  0.666667  0.479070  1
  Mo  Mo15  1  0.666667  0.333333  0.979070  1
  S  S16  1  0.000000  0.000000  0.051892  1
  S  S17  1  0.352629  0.176315  0.287972  1
  S  S18  1  0.823685  0.176315  0.287972  1
  S  S19  1  0.012001  0.506001  0.538452  1
  S  S20  1  0.823685  0.647371  0.287972  1
  S  S21  1  0.666667  0.333333  0.798236  1
  S  S22  1  0.176315  0.352629  0.787972  1
  S  S23  1  0.493999  0.506001  0.538452  1
  S  S24  1  0.000000  0.000000  0.551892  1
  S  S25  1  0.333333  0.666667  0.298236  1
  S  S26  1  0.987999  0.493999  0.038452  1
  S  S27  1  0.493999  0.987999  0.538452  1
  S  S28  1  0.176315  0.823685  0.787972  1
  S  S29  1  0.647371  0.823685  0.787972  1
  S  S30  1  0.506001  0.012001  0.038452  1
  S  S31  1  0.506001  0.493999  0.038452  1
