# generated using pymatgen
data_Pr10Ga4IrRu5
_symmetry_space_group_name_H-M   'P 1'
_cell_length_a   8.58687816
_cell_length_b   8.61729760
_cell_length_c   8.61927935
_cell_angle_alpha   109.56763209
_cell_angle_beta   109.66676725
_cell_angle_gamma   109.31723437
_symmetry_Int_Tables_number   1
_chemical_formula_structural   Pr10Ga4IrRu5
_chemical_formula_sum   'Pr10 Ga4 Ir1 Ru5'
_cell_volume   490.12915214
_cell_formula_units_Z   1
loop_
 _symmetry_equiv_pos_site_id
 _symmetry_equiv_pos_as_xyz
  1  'x, y, z'
loop_
 _atom_site_type_symbol
 _atom_site_label
 _atom_site_symmetry_multiplicity
 _atom_site_fract_x
 _atom_site_fract_y
 _atom_site_fract_z
 _atom_site_occupancy
  Pr  Pr0  1  0.249687  0.686678  0.436736  1
  Pr  Pr1  1  0.749757  0.812313  0.062368  1
  Pr  Pr2  1  0.439942  0.252100  0.686094  1
  Pr  Pr3  1  0.684537  0.435239  0.248382  1
  Pr  Pr4  1  0.060013  0.745580  0.811628  1
  Pr  Pr5  1  0.815339  0.063878  0.750700  1
  Pr  Pr6  1  0.215902  0.218353  0.219230  1
  Pr  Pr7  1  0.500747  0.999957  0.284143  1
  Pr  Pr8  1  0.283268  0.503156  0.002254  1
  Pr  Pr9  1  0.999426  0.282858  0.499338  1
  Ga  Ga10  1  0.588880  0.589593  0.588836  1
  Ga  Ga11  1  0.500247  0.997890  0.909953  1
  Ga  Ga12  1  0.910726  0.499957  0.000274  1
  Ga  Ga13  1  0.000252  0.909695  0.498322  1
  Ir  Ir14  1  0.250398  0.121132  0.870986  1
  Ru  Ru15  1  0.750171  0.379472  0.629089  1
  Ru  Ru16  1  0.869711  0.250161  0.119759  1
  Ru  Ru17  1  0.122583  0.872988  0.250792  1
  Ru  Ru18  1  0.630646  0.750559  0.380683  1
  Ru  Ru19  1  0.377769  0.628441  0.750431  1
