# generated using pymatgen
data_Li4Ca4Hg3Au
_symmetry_space_group_name_H-M   'P 1'
_cell_length_a   4.42984400
_cell_length_b   7.46035024
_cell_length_c   8.82172600
_cell_angle_alpha   89.90054345
_cell_angle_beta   90.00000000
_cell_angle_gamma   90.00000000
_symmetry_Int_Tables_number   1
_chemical_formula_structural   Li4Ca4Hg3Au
_chemical_formula_sum   'Li4 Ca4 Hg3 Au1'
_cell_volume   291.54161787
_cell_formula_units_Z   1
loop_
 _symmetry_equiv_pos_site_id
 _symmetry_equiv_pos_as_xyz
  1  'x, y, z'
loop_
 _atom_site_type_symbol
 _atom_site_label
 _atom_site_symmetry_multiplicity
 _atom_site_fract_x
 _atom_site_fract_y
 _atom_site_fract_z
 _atom_site_occupancy
  Li  Li0  1  0.750000  0.875591  0.061500  1
  Li  Li1  1  0.250000  0.139235  0.945787  1
  Li  Li2  1  0.250000  0.634218  0.561866  1
  Li  Li3  1  0.750000  0.362333  0.434514  1
  Ca  Ca4  1  0.250000  0.040242  0.309644  1
  Ca  Ca5  1  0.750000  0.458526  0.829311  1
  Ca  Ca6  1  0.750000  0.961868  0.676672  1
  Ca  Ca7  1  0.250000  0.525338  0.178912  1
  Hg  Hg8  1  0.250000  0.267283  0.619047  1
  Hg  Hg9  1  0.250000  0.768329  0.882446  1
  Hg  Hg10  1  0.750000  0.731600  0.379301  1
  Au  Au11  1  0.750000  0.235438  0.121001  1
