# generated using pymatgen
data_Eu3HoSi10NiPt5
_symmetry_space_group_name_H-M   'P 1'
_cell_length_a   8.25933421
_cell_length_b   8.24733429
_cell_length_c   8.24650069
_cell_angle_alpha   137.56504773
_cell_angle_beta   104.58119382
_cell_angle_gamma   90.58480569
_symmetry_Int_Tables_number   1
_chemical_formula_structural   Eu3HoSi10NiPt5
_chemical_formula_sum   'Eu3 Ho1 Si10 Ni1 Pt5'
_cell_volume   349.90711231
_cell_formula_units_Z   1
loop_
 _symmetry_equiv_pos_site_id
 _symmetry_equiv_pos_as_xyz
  1  'x, y, z'
loop_
 _atom_site_type_symbol
 _atom_site_label
 _atom_site_symmetry_multiplicity
 _atom_site_fract_x
 _atom_site_fract_y
 _atom_site_fract_z
 _atom_site_occupancy
  Eu  Eu0  1  0.895192  0.131635  0.769129  1
  Eu  Eu1  1  0.636773  0.367843  0.263130  1
  Eu  Eu2  1  0.363450  0.626943  0.730884  1
  Ho  Ho3  1  0.103789  0.873700  0.235145  1
  Si  Si4  1  0.999379  0.746092  0.746250  1
  Si  Si5  1  0.999428  0.252809  0.253121  1
  Si  Si6  1  0.275383  0.024161  0.750602  1
  Si  Si7  1  0.727541  0.475784  0.750263  1
  Si  Si8  1  0.727204  0.978053  0.251784  1
  Si  Si9  1  0.274789  0.524008  0.250849  1
  Si  Si10  1  0.755179  0.620247  0.158101  1
  Si  Si11  1  0.246291  0.407229  0.867647  1
  Si  Si12  1  0.456337  0.091801  0.337531  1
  Si  Si13  1  0.540908  0.880050  0.636543  1
  Ni  Ni14  1  0.497308  0.751096  0.249956  1
  Pt  Pt15  1  0.496489  0.247421  0.745731  1
  Pt  Pt16  1  0.025579  0.641801  0.386848  1
  Pt  Pt17  1  0.979240  0.364173  0.617724  1
  Pt  Pt18  1  0.247125  0.133098  0.111284  1
  Pt  Pt19  1  0.752615  0.862057  0.887478  1
