# generated using pymatgen
data_TbPr9Ga2Br15
_symmetry_space_group_name_H-M   'P 1'
_cell_length_a   9.62478254
_cell_length_b   10.13835483
_cell_length_c   11.43718878
_cell_angle_alpha   90.58598510
_cell_angle_beta   114.99738620
_cell_angle_gamma   110.34249530
_symmetry_Int_Tables_number   1
_chemical_formula_structural   TbPr9Ga2Br15
_chemical_formula_sum   'Tb1 Pr9 Ga2 Br15'
_cell_volume   932.05400581
_cell_formula_units_Z   1
loop_
 _symmetry_equiv_pos_site_id
 _symmetry_equiv_pos_as_xyz
  1  'x, y, z'
loop_
 _atom_site_type_symbol
 _atom_site_label
 _atom_site_symmetry_multiplicity
 _atom_site_fract_x
 _atom_site_fract_y
 _atom_site_fract_z
 _atom_site_occupancy
  Tb  Tb0  1  0.257578  0.917334  0.947121  1
  Pr  Pr1  1  0.809400  0.431968  0.283812  1
  Pr  Pr2  1  0.189641  0.567632  0.716530  1
  Pr  Pr3  1  0.681521  0.729264  0.816945  1
  Pr  Pr4  1  0.317276  0.269790  0.182083  1
  Pr  Pr5  1  0.527595  0.672242  0.102961  1
  Pr  Pr6  1  0.470247  0.326557  0.896216  1
  Pr  Pr7  1  0.589364  0.028887  0.337804  1
  Pr  Pr8  1  0.406890  0.970121  0.661191  1
  Pr  Pr9  1  0.754046  0.086245  0.054452  1
  Ga  Ga10  1  0.469086  0.824351  0.881263  1
  Ga  Ga11  1  0.530145  0.174809  0.117967  1
  Br  Br12  1  0.006790  0.995921  0.997966  1
  Br  Br13  1  0.631760  0.879912  0.586205  1
  Br  Br14  1  0.359858  0.114901  0.409663  1
  Br  Br15  1  0.884137  0.294513  0.522462  1
  Br  Br16  1  0.112535  0.705134  0.478445  1
  Br  Br17  1  0.292740  0.761921  0.169773  1
  Br  Br18  1  0.700462  0.242444  0.818978  1
  Br  Br19  1  0.061219  0.355300  0.234342  1
  Br  Br20  1  0.168767  0.059474  0.715614  1
  Br  Br21  1  0.828779  0.933556  0.292534  1
  Br  Br22  1  0.208317  0.402405  0.939468  1
  Br  Br23  1  0.788805  0.596253  0.059715  1
  Br  Br24  1  0.401489  0.458233  0.640049  1
  Br  Br25  1  0.595845  0.540455  0.359309  1
  Br  Br26  1  0.955711  0.660377  0.777132  1
