# generated using pymatgen
data_Hf13ZrAs8
_symmetry_space_group_name_H-M   'P 1'
_cell_length_a   8.31658614
_cell_length_b   8.31658679
_cell_length_c   15.05412400
_cell_angle_alpha   75.98583610
_cell_angle_beta   75.98583434
_cell_angle_gamma   25.08459693
_symmetry_Int_Tables_number   1
_chemical_formula_structural   Hf13ZrAs8
_chemical_formula_sum   'Hf13 Zr1 As8'
_cell_volume   427.63500398
_cell_formula_units_Z   1
loop_
 _symmetry_equiv_pos_site_id
 _symmetry_equiv_pos_as_xyz
  1  'x, y, z'
loop_
 _atom_site_type_symbol
 _atom_site_label
 _atom_site_symmetry_multiplicity
 _atom_site_fract_x
 _atom_site_fract_y
 _atom_site_fract_z
 _atom_site_occupancy
  Hf  Hf0  1  0.000000  0.000000  0.000155  1
  Hf  Hf1  1  0.500208  0.500208  0.499923  1
  Hf  Hf2  1  0.430174  0.430174  0.170652  1
  Hf  Hf3  1  0.569618  0.569618  0.830157  1
  Hf  Hf4  1  0.196911  0.196911  0.691100  1
  Hf  Hf5  1  0.802322  0.802322  0.309286  1
  Hf  Hf6  1  0.207486  0.207486  0.202717  1
  Hf  Hf7  1  0.792605  0.792605  0.797463  1
  Hf  Hf8  1  0.337384  0.337384  0.969414  1
  Hf  Hf9  1  0.662700  0.662700  0.030859  1
  Hf  Hf10  1  0.002350  0.002350  0.333006  1
  Hf  Hf11  1  0.998047  0.998047  0.666879  1
  Hf  Hf12  1  0.177509  0.177509  0.456593  1
  Zr  Zr13  1  0.821742  0.821742  0.542662  1
  As  As14  1  0.176204  0.176204  0.891095  1
  As  As15  1  0.823872  0.823872  0.109238  1
  As  As16  1  0.374507  0.374507  0.398447  1
  As  As17  1  0.626406  0.626406  0.599622  1
  As  As18  1  0.371079  0.371079  0.662751  1
  As  As19  1  0.628885  0.628885  0.337733  1
  As  As20  1  0.063484  0.063484  0.149592  1
  As  As21  1  0.936507  0.936507  0.850656  1
