# generated using pymatgen
data_Ca5La2YbP6
_symmetry_space_group_name_H-M   'P 1'
_cell_length_a   7.62830049
_cell_length_b   7.59267220
_cell_length_c   7.64470100
_cell_angle_alpha   109.51215213
_cell_angle_beta   109.69650633
_cell_angle_gamma   109.42195097
_symmetry_Int_Tables_number   1
_chemical_formula_structural   Ca5La2YbP6
_chemical_formula_sum   'Ca5 La2 Yb1 P6'
_cell_volume   339.93106235
_cell_formula_units_Z   1
loop_
 _symmetry_equiv_pos_site_id
 _symmetry_equiv_pos_as_xyz
  1  'x, y, z'
loop_
 _atom_site_type_symbol
 _atom_site_label
 _atom_site_symmetry_multiplicity
 _atom_site_fract_x
 _atom_site_fract_y
 _atom_site_fract_z
 _atom_site_occupancy
  Ca  Ca0  1  0.136641  0.504486  0.007307  1
  Ca  Ca1  1  0.371755  0.368761  0.365285  1
  Ca  Ca2  1  0.633154  0.496244  0.004122  1
  Ca  Ca3  1  0.496311  0.002213  0.632000  1
  Ca  Ca4  1  0.494666  0.997271  0.129342  1
  La  La5  1  0.861007  0.859820  0.861302  1
  La  La6  1  0.000564  0.140070  0.501881  1
  Yb  Yb7  1  0.003353  0.630857  0.497535  1
  P  P8  1  0.248005  0.124168  0.873052  1
  P  P9  1  0.122452  0.874498  0.249029  1
  P  P10  1  0.753310  0.376222  0.625119  1
  P  P11  1  0.874399  0.247805  0.125704  1
  P  P12  1  0.627816  0.753159  0.378830  1
  P  P13  1  0.376565  0.624425  0.749490  1
