# generated using pymatgen
data_CaEu4(AlSi)5
_symmetry_space_group_name_H-M   'P 1'
_cell_length_a   4.22572600
_cell_length_b   4.22572594
_cell_length_c   22.01498100
_cell_angle_alpha   90.00000000
_cell_angle_beta   90.00000000
_cell_angle_gamma   120.00000044
_symmetry_Int_Tables_number   1
_chemical_formula_structural   CaEu4(AlSi)5
_chemical_formula_sum   'Ca1 Eu4 Al5 Si5'
_cell_volume   340.44864190
_cell_formula_units_Z   1
loop_
 _symmetry_equiv_pos_site_id
 _symmetry_equiv_pos_as_xyz
  1  'x, y, z'
loop_
 _atom_site_type_symbol
 _atom_site_label
 _atom_site_symmetry_multiplicity
 _atom_site_fract_x
 _atom_site_fract_y
 _atom_site_fract_z
 _atom_site_occupancy
  Ca  Ca0  1  0.000000  0.000000  0.497176  1
  Eu  Eu1  1  0.000000  0.000000  0.699991  1
  Eu  Eu2  1  0.000000  0.000000  0.299614  1
  Eu  Eu3  1  0.000000  0.000000  0.100572  1
  Eu  Eu4  1  0.000000  0.000000  0.902665  1
  Al  Al5  1  0.333333  0.666667  0.589209  1
  Al  Al6  1  0.333333  0.666667  0.405231  1
  Al  Al7  1  0.666667  0.333333  0.194580  1
  Al  Al8  1  0.666667  0.333333  0.003606  1
  Al  Al9  1  0.666667  0.333333  0.807118  1
  Si  Si10  1  0.666667  0.333333  0.393604  1
  Si  Si11  1  0.333333  0.666667  0.204944  1
  Si  Si12  1  0.333333  0.666667  0.796835  1
  Si  Si13  1  0.666667  0.333333  0.603564  1
  Si  Si14  1  0.333333  0.666667  0.001288  1
