# generated using pymatgen
data_Mg2CoSi(BIr2)2
_symmetry_space_group_name_H-M   'P 1'
_cell_length_a   9.24319800
_cell_length_b   9.24319800
_cell_length_c   2.89291800
_cell_angle_alpha   90.00000000
_cell_angle_beta   90.00000000
_cell_angle_gamma   90.00000000
_symmetry_Int_Tables_number   1
_chemical_formula_structural   Mg2CoSi(BIr2)2
_chemical_formula_sum   'Mg4 Co2 Si2 B4 Ir8'
_cell_volume   247.16139410
_cell_formula_units_Z   2
loop_
 _symmetry_equiv_pos_site_id
 _symmetry_equiv_pos_as_xyz
  1  'x, y, z'
loop_
 _atom_site_type_symbol
 _atom_site_label
 _atom_site_symmetry_multiplicity
 _atom_site_fract_x
 _atom_site_fract_y
 _atom_site_fract_z
 _atom_site_occupancy
  Mg  Mg0  1  0.674392  0.825608  0.000000  1
  Mg  Mg1  1  0.825608  0.325608  0.000000  1
  Mg  Mg2  1  0.174392  0.674392  0.000000  1
  Mg  Mg3  1  0.325608  0.174392  0.000000  1
  Co  Co4  1  0.500000  0.000000  0.500000  1
  Co  Co5  1  0.000000  0.500000  0.500000  1
  Si  Si6  1  0.500000  0.500000  0.000000  1
  Si  Si7  1  0.000000  0.000000  0.000000  1
  B  B8  1  0.386204  0.886204  0.000000  1
  B  B9  1  0.113796  0.386204  0.000000  1
  B  B10  1  0.886204  0.613796  0.000000  1
  B  B11  1  0.613796  0.113796  0.000000  1
  Ir  Ir12  1  0.565619  0.284383  0.500000  1
  Ir  Ir13  1  0.715617  0.565619  0.500000  1
  Ir  Ir14  1  0.284383  0.434381  0.500000  1
  Ir  Ir15  1  0.215617  0.934381  0.500000  1
  Ir  Ir16  1  0.065619  0.215617  0.500000  1
  Ir  Ir17  1  0.784383  0.065619  0.500000  1
  Ir  Ir18  1  0.934381  0.784383  0.500000  1
  Ir  Ir19  1  0.434381  0.715617  0.500000  1
