# generated using pymatgen
data_TmZr3F15
_symmetry_space_group_name_H-M   'P 1'
_cell_length_a   8.16178480
_cell_length_b   8.16178395
_cell_length_c   8.16107531
_cell_angle_alpha   79.84404893
_cell_angle_beta   79.84405490
_cell_angle_gamma   100.12890368
_symmetry_Int_Tables_number   1
_chemical_formula_structural   TmZr3F15
_chemical_formula_sum   'Tm2 Zr6 F30'
_cell_volume   514.58875330
_cell_formula_units_Z   2
loop_
 _symmetry_equiv_pos_site_id
 _symmetry_equiv_pos_as_xyz
  1  'x, y, z'
loop_
 _atom_site_type_symbol
 _atom_site_label
 _atom_site_symmetry_multiplicity
 _atom_site_fract_x
 _atom_site_fract_y
 _atom_site_fract_z
 _atom_site_occupancy
  Tm  Tm0  1  0.677836  0.322164  0.750000  1
  Tm  Tm1  1  0.322164  0.677836  0.250000  1
  Zr  Zr2  1  0.250270  0.749730  0.750000  1
  Zr  Zr3  1  0.749730  0.250270  0.250000  1
  Zr  Zr4  1  0.822123  0.749248  0.325108  1
  Zr  Zr5  1  0.250752  0.177877  0.174892  1
  Zr  Zr6  1  0.177877  0.250752  0.674892  1
  Zr  Zr7  1  0.749248  0.822123  0.825108  1
  F  F8  1  0.150881  0.184815  0.947820  1
  F  F9  1  0.686456  0.560859  0.848364  1
  F  F10  1  0.041696  0.653693  0.315541  1
  F  F11  1  0.653693  0.041696  0.815541  1
  F  F12  1  0.560859  0.686456  0.348364  1
  F  F13  1  0.184815  0.150881  0.447820  1
  F  F14  1  0.849119  0.815185  0.052180  1
  F  F15  1  0.313544  0.439141  0.151636  1
  F  F16  1  0.958304  0.346307  0.684459  1
  F  F17  1  0.346307  0.958304  0.184459  1
  F  F18  1  0.439141  0.313544  0.651636  1
  F  F19  1  0.815185  0.849119  0.552180  1
  F  F20  1  0.966075  0.033925  0.750000  1
  F  F21  1  0.542196  0.751980  0.029881  1
  F  F22  1  0.248020  0.457804  0.470119  1
  F  F23  1  0.457804  0.248020  0.970119  1
  F  F24  1  0.751980  0.542196  0.529881  1
  F  F25  1  0.033925  0.966075  0.250000  1
  F  F26  1  0.220173  0.726184  0.005053  1
  F  F27  1  0.225504  0.491693  0.780281  1
  F  F28  1  0.991710  0.723128  0.774869  1
  F  F29  1  0.723128  0.991710  0.274869  1
  F  F30  1  0.491693  0.225504  0.280281  1
  F  F31  1  0.726184  0.220173  0.505053  1
  F  F32  1  0.779827  0.273816  0.994947  1
  F  F33  1  0.774496  0.508307  0.219719  1
  F  F34  1  0.008290  0.276872  0.225131  1
  F  F35  1  0.276872  0.008290  0.725131  1
  F  F36  1  0.508307  0.774496  0.719719  1
  F  F37  1  0.273816  0.779827  0.494947  1
