# generated using pymatgen
data_CaYEr2(B6Os)2
_symmetry_space_group_name_H-M   'P 1'
_cell_length_a   3.63799900
_cell_length_b   9.14673556
_cell_length_c   11.55198256
_cell_angle_alpha   89.81792225
_cell_angle_beta   90.00000000
_cell_angle_gamma   90.00000000
_symmetry_Int_Tables_number   1
_chemical_formula_structural   CaYEr2(B6Os)2
_chemical_formula_sum   'Ca2 Y2 Er4 B24 Os4'
_cell_volume   384.39969167
_cell_formula_units_Z   2
loop_
 _symmetry_equiv_pos_site_id
 _symmetry_equiv_pos_as_xyz
  1  'x, y, z'
loop_
 _atom_site_type_symbol
 _atom_site_label
 _atom_site_symmetry_multiplicity
 _atom_site_fract_x
 _atom_site_fract_y
 _atom_site_fract_z
 _atom_site_occupancy
  Ca  Ca0  1  0.000000  0.323401  0.414729  1
  Ca  Ca1  1  0.000000  0.676599  0.585271  1
  Y  Y2  1  0.000000  0.821716  0.086197  1
  Y  Y3  1  0.000000  0.178284  0.913803  1
  Er  Er4  1  0.000000  0.942270  0.370223  1
  Er  Er5  1  0.000000  0.057730  0.629777  1
  Er  Er6  1  0.000000  0.442998  0.130051  1
  Er  Er7  1  0.000000  0.557002  0.869949  1
  B  B8  1  0.500000  0.554352  0.432125  1
  B  B9  1  0.500000  0.445648  0.567875  1
  B  B10  1  0.500000  0.053769  0.066915  1
  B  B11  1  0.500000  0.946231  0.933085  1
  B  B12  1  0.500000  0.748547  0.417366  1
  B  B13  1  0.500000  0.251453  0.582634  1
  B  B14  1  0.500000  0.248641  0.081544  1
  B  B15  1  0.500000  0.751359  0.918456  1
  B  B16  1  0.500000  0.791247  0.264852  1
  B  B17  1  0.500000  0.208753  0.735148  1
  B  B18  1  0.500000  0.290156  0.233960  1
  B  B19  1  0.500000  0.709844  0.766040  1
  B  B20  1  0.500000  0.630995  0.185203  1
  B  B21  1  0.500000  0.369005  0.814797  1
  B  B22  1  0.500000  0.130189  0.313663  1
  B  B23  1  0.500000  0.869811  0.686337  1
  B  B24  1  0.500000  0.982981  0.211892  1
  B  B25  1  0.500000  0.017019  0.788108  1
  B  B26  1  0.500000  0.483855  0.287576  1
  B  B27  1  0.500000  0.516145  0.712424  1
  B  B28  1  0.500000  0.602694  0.028209  1
  B  B29  1  0.500000  0.397306  0.971791  1
  B  B30  1  0.500000  0.098364  0.472731  1
  B  B31  1  0.500000  0.901636  0.527269  1
  Os  Os32  1  0.000000  0.640091  0.318290  1
  Os  Os33  1  0.000000  0.359909  0.681710  1
  Os  Os34  1  0.000000  0.136781  0.177878  1
  Os  Os35  1  0.000000  0.863219  0.822122  1
