# generated using pymatgen
data_HoErTm6Ga3Co
_symmetry_space_group_name_H-M   'P 1'
_cell_length_a   9.90329102
_cell_length_b   9.90307117
_cell_length_c   6.85077200
_cell_angle_alpha   90.00008497
_cell_angle_beta   90.00246179
_cell_angle_gamma   119.99303644
_symmetry_Int_Tables_number   1
_chemical_formula_structural   HoErTm6Ga3Co
_chemical_formula_sum   'Ho2 Er2 Tm12 Ga6 Co2'
_cell_volume   581.90227787
_cell_formula_units_Z   2
loop_
 _symmetry_equiv_pos_site_id
 _symmetry_equiv_pos_as_xyz
  1  'x, y, z'
loop_
 _atom_site_type_symbol
 _atom_site_label
 _atom_site_symmetry_multiplicity
 _atom_site_fract_x
 _atom_site_fract_y
 _atom_site_fract_z
 _atom_site_occupancy
  Ho  Ho0  1  0.999982  0.000023  0.269947  1
  Ho  Ho1  1  0.000002  0.000004  0.769930  1
  Er  Er2  1  0.928387  0.464244  0.793093  1
  Er  Er3  1  0.535760  0.071619  0.793069  1
  Tm  Tm4  1  0.173474  0.826519  0.991149  1
  Tm  Tm5  1  0.826590  0.173406  0.490529  1
  Tm  Tm6  1  0.173660  0.347022  0.991012  1
  Tm  Tm7  1  0.652982  0.826342  0.991015  1
  Tm  Tm8  1  0.346962  0.173581  0.490685  1
  Tm  Tm9  1  0.826409  0.653028  0.490698  1
  Tm  Tm10  1  0.333401  0.666593  0.672138  1
  Tm  Tm11  1  0.666572  0.333417  0.172486  1
  Tm  Tm12  1  0.464003  0.535987  0.293214  1
  Tm  Tm13  1  0.535898  0.464114  0.793243  1
  Tm  Tm14  1  0.463970  0.927927  0.293151  1
  Tm  Tm15  1  0.072074  0.536033  0.293150  1
  Ga  Ga16  1  0.163646  0.836352  0.540211  1
  Ga  Ga17  1  0.836457  0.163534  0.040566  1
  Ga  Ga18  1  0.163649  0.327287  0.540307  1
  Ga  Ga19  1  0.672718  0.836356  0.540305  1
  Ga  Ga20  1  0.327202  0.163678  0.040421  1
  Ga  Ga21  1  0.836322  0.672795  0.040417  1
  Co  Co22  1  0.333340  0.666666  0.057847  1
  Co  Co23  1  0.666538  0.333473  0.557540  1
