# generated using pymatgen
data_TbCe3(AlIr)4
_symmetry_space_group_name_H-M   'P 1'
_cell_length_a   6.87371620
_cell_length_b   4.33828100
_cell_length_c   7.95209313
_cell_angle_alpha   90.00000000
_cell_angle_beta   89.70145703
_cell_angle_gamma   90.00000000
_symmetry_Int_Tables_number   1
_chemical_formula_structural   TbCe3(AlIr)4
_chemical_formula_sum   'Tb1 Ce3 Al4 Ir4'
_cell_volume   237.12909198
_cell_formula_units_Z   1
loop_
 _symmetry_equiv_pos_site_id
 _symmetry_equiv_pos_as_xyz
  1  'x, y, z'
loop_
 _atom_site_type_symbol
 _atom_site_label
 _atom_site_symmetry_multiplicity
 _atom_site_fract_x
 _atom_site_fract_y
 _atom_site_fract_z
 _atom_site_occupancy
  Tb  Tb0  1  0.963951  0.250000  0.183815  1
  Ce  Ce1  1  0.464160  0.250000  0.316677  1
  Ce  Ce2  1  0.034338  0.750000  0.820785  1
  Ce  Ce3  1  0.536147  0.750000  0.683192  1
  Al  Al4  1  0.864157  0.250000  0.559147  1
  Al  Al5  1  0.361390  0.250000  0.940191  1
  Al  Al6  1  0.134086  0.750000  0.436331  1
  Al  Al7  1  0.641034  0.750000  0.063655  1
  Ir  Ir8  1  0.737279  0.250000  0.877749  1
  Ir  Ir9  1  0.238721  0.250000  0.618163  1
  Ir  Ir10  1  0.265118  0.750000  0.115476  1
  Ir  Ir11  1  0.759619  0.750000  0.384819  1
