# generated using pymatgen
data_Ti2BeB2Ru3Rh2
_symmetry_space_group_name_H-M   'P 1'
_cell_length_a   2.94209600
_cell_length_b   9.06426300
_cell_length_c   9.09895600
_cell_angle_alpha   90.00000000
_cell_angle_beta   90.00000000
_cell_angle_gamma   90.00000000
_symmetry_Int_Tables_number   1
_chemical_formula_structural   Ti2BeB2Ru3Rh2
_chemical_formula_sum   'Ti4 Be2 B4 Ru6 Rh4'
_cell_volume   242.65033911
_cell_formula_units_Z   2
loop_
 _symmetry_equiv_pos_site_id
 _symmetry_equiv_pos_as_xyz
  1  'x, y, z'
loop_
 _atom_site_type_symbol
 _atom_site_label
 _atom_site_symmetry_multiplicity
 _atom_site_fract_x
 _atom_site_fract_y
 _atom_site_fract_z
 _atom_site_occupancy
  Ti  Ti0  1  0.000000  0.826667  0.181670  1
  Ti  Ti1  1  0.000000  0.326667  0.318331  1
  Ti  Ti2  1  0.000000  0.676101  0.664202  1
  Ti  Ti3  1  0.000000  0.176102  0.835798  1
  Be  Be4  1  0.000000  0.497883  0.001497  1
  Be  Be5  1  0.000000  0.997883  0.498503  1
  B  B6  1  0.000000  0.129259  0.129879  1
  B  B7  1  0.000000  0.629259  0.370122  1
  B  B8  1  0.000000  0.372757  0.626878  1
  B  B9  1  0.000000  0.872757  0.873123  1
  Ru  Ru10  1  0.499999  0.996986  0.000872  1
  Ru  Ru11  1  0.499999  0.293120  0.066915  1
  Ru  Ru12  1  0.499999  0.569925  0.206508  1
  Ru  Ru13  1  0.499999  0.069924  0.293494  1
  Ru  Ru14  1  0.499999  0.793120  0.433086  1
  Ru  Ru15  1  0.499999  0.496986  0.499128  1
  Rh  Rh16  1  0.499999  0.205728  0.571763  1
  Rh  Rh17  1  0.499999  0.931579  0.707334  1
  Rh  Rh18  1  0.499999  0.431579  0.792668  1
  Rh  Rh19  1  0.499999  0.705728  0.928239  1
