# generated using pymatgen
data_Dy2(ErAu2)5
_symmetry_space_group_name_H-M   'P 1'
_cell_length_a   8.68723231
_cell_length_b   8.68723399
_cell_length_c   10.38286100
_cell_angle_alpha   90.00000000
_cell_angle_beta   90.00000000
_cell_angle_gamma   107.07095373
_symmetry_Int_Tables_number   1
_chemical_formula_structural   Dy2(ErAu2)5
_chemical_formula_sum   'Dy4 Er10 Au20'
_cell_volume   749.05122358
_cell_formula_units_Z   2
loop_
 _symmetry_equiv_pos_site_id
 _symmetry_equiv_pos_as_xyz
  1  'x, y, z'
loop_
 _atom_site_type_symbol
 _atom_site_label
 _atom_site_symmetry_multiplicity
 _atom_site_fract_x
 _atom_site_fract_y
 _atom_site_fract_z
 _atom_site_occupancy
  Dy  Dy0  1  0.312023  0.312023  0.188469  1
  Dy  Dy1  1  0.687977  0.687977  0.811531  1
  Dy  Dy2  1  0.187977  0.187977  0.688469  1
  Dy  Dy3  1  0.812023  0.812023  0.311531  1
  Er  Er4  1  0.694131  0.305869  0.000000  1
  Er  Er5  1  0.305869  0.694131  0.000000  1
  Er  Er6  1  0.805869  0.194131  0.500000  1
  Er  Er7  1  0.194131  0.805869  0.500000  1
  Er  Er8  1  0.000000  0.000000  0.000000  1
  Er  Er9  1  0.500000  0.500000  0.500000  1
  Er  Er10  1  0.002452  0.502452  0.250000  1
  Er  Er11  1  0.997548  0.497548  0.750000  1
  Er  Er12  1  0.497548  0.997548  0.750000  1
  Er  Er13  1  0.502452  0.002452  0.250000  1
  Au  Au14  1  0.859912  0.149886  0.209088  1
  Au  Au15  1  0.140088  0.850114  0.790912  1
  Au  Au16  1  0.640088  0.350114  0.709088  1
  Au  Au17  1  0.649886  0.359912  0.290912  1
  Au  Au18  1  0.359912  0.649886  0.290912  1
  Au  Au19  1  0.350114  0.640088  0.709088  1
  Au  Au20  1  0.850114  0.140088  0.790912  1
  Au  Au21  1  0.149886  0.859912  0.209088  1
  Au  Au22  1  0.938088  0.645003  0.002513  1
  Au  Au23  1  0.061912  0.354997  0.997487  1
  Au  Au24  1  0.561912  0.854997  0.502513  1
  Au  Au25  1  0.145003  0.438088  0.497487  1
  Au  Au26  1  0.438088  0.145003  0.497487  1
  Au  Au27  1  0.854997  0.561912  0.502513  1
  Au  Au28  1  0.354997  0.061912  0.997487  1
  Au  Au29  1  0.645003  0.938088  0.002513  1
  Au  Au30  1  0.105320  0.105320  0.397393  1
  Au  Au31  1  0.894680  0.894680  0.602607  1
  Au  Au32  1  0.394680  0.394680  0.897393  1
  Au  Au33  1  0.605320  0.605320  0.102607  1
