# generated using pymatgen
data_NdY3(SiAu2)8
_symmetry_space_group_name_H-M   'P 1'
_cell_length_a   4.41989200
_cell_length_b   4.41989200
_cell_length_c   27.13571500
_cell_angle_alpha   90.00000000
_cell_angle_beta   90.00000000
_cell_angle_gamma   90.00000000
_symmetry_Int_Tables_number   1
_chemical_formula_structural   NdY3(SiAu2)8
_chemical_formula_sum   'Nd1 Y3 Si8 Au16'
_cell_volume   530.10827583
_cell_formula_units_Z   1
loop_
 _symmetry_equiv_pos_site_id
 _symmetry_equiv_pos_as_xyz
  1  'x, y, z'
loop_
 _atom_site_type_symbol
 _atom_site_label
 _atom_site_symmetry_multiplicity
 _atom_site_fract_x
 _atom_site_fract_y
 _atom_site_fract_z
 _atom_site_occupancy
  Nd  Nd0  1  0.500000  0.500000  0.000000  1
  Y  Y1  1  0.000000  0.500000  0.749503  1
  Y  Y2  1  0.500000  0.000000  0.250497  1
  Y  Y3  1  0.500000  0.500000  0.500000  1
  Si  Si4  1  0.000000  0.000000  0.956281  1
  Si  Si5  1  0.000000  0.000000  0.456995  1
  Si  Si6  1  0.500000  0.000000  0.792735  1
  Si  Si7  1  0.500000  0.000000  0.706227  1
  Si  Si8  1  0.000000  0.500000  0.207265  1
  Si  Si9  1  0.000000  0.500000  0.293773  1
  Si  Si10  1  0.000000  0.000000  0.043719  1
  Si  Si11  1  0.000000  0.000000  0.543005  1
  Au  Au12  1  0.500000  0.000000  0.087657  1
  Au  Au13  1  0.500000  0.500000  0.663146  1
  Au  Au14  1  0.500000  0.500000  0.835778  1
  Au  Au15  1  0.000000  0.500000  0.086940  1
  Au  Au16  1  0.500000  0.000000  0.913060  1
  Au  Au17  1  0.000000  0.000000  0.664265  1
  Au  Au18  1  0.000000  0.500000  0.415081  1
  Au  Au19  1  0.500000  0.500000  0.336854  1
  Au  Au20  1  0.500000  0.000000  0.414456  1
  Au  Au21  1  0.000000  0.000000  0.335735  1
  Au  Au22  1  0.000000  0.000000  0.165476  1
  Au  Au23  1  0.500000  0.000000  0.584919  1
  Au  Au24  1  0.000000  0.000000  0.834524  1
  Au  Au25  1  0.500000  0.500000  0.164222  1
  Au  Au26  1  0.000000  0.500000  0.585544  1
  Au  Au27  1  0.000000  0.500000  0.912343  1
