# generated using pymatgen
data_Tb4Al22Ga2IrPt8
_symmetry_space_group_name_H-M   'P 1'
_cell_length_a   7.53634813
_cell_length_b   7.55674327
_cell_length_c   13.19652921
_cell_angle_alpha   84.57293752
_cell_angle_beta   79.09811469
_cell_angle_gamma   59.88437095
_symmetry_Int_Tables_number   1
_chemical_formula_structural   Tb4Al22Ga2IrPt8
_chemical_formula_sum   'Tb4 Al22 Ga2 Ir1 Pt8'
_cell_volume   638.36522454
_cell_formula_units_Z   1
loop_
 _symmetry_equiv_pos_site_id
 _symmetry_equiv_pos_as_xyz
  1  'x, y, z'
loop_
 _atom_site_type_symbol
 _atom_site_label
 _atom_site_symmetry_multiplicity
 _atom_site_fract_x
 _atom_site_fract_y
 _atom_site_fract_z
 _atom_site_occupancy
  Tb  Tb0  1  0.394334  0.166198  0.811148  1
  Tb  Tb1  1  0.605666  0.833802  0.188852  1
  Tb  Tb2  1  0.733255  0.499571  0.809516  1
  Tb  Tb3  1  0.266745  0.500429  0.190484  1
  Al  Al4  1  0.146982  0.832042  0.561614  1
  Al  Al5  1  0.853018  0.167958  0.438386  1
  Al  Al6  1  0.479666  0.167123  0.559174  1
  Al  Al7  1  0.520334  0.832877  0.440826  1
  Al  Al8  1  0.216771  0.165139  0.330136  1
  Al  Al9  1  0.783229  0.834861  0.669864  1
  Al  Al10  1  0.436801  0.506376  0.671180  1
  Al  Al11  1  0.563199  0.493624  0.328820  1
  Al  Al12  1  0.109552  0.160435  0.669043  1
  Al  Al13  1  0.890448  0.839565  0.330957  1
  Al  Al14  1  0.349275  0.499437  0.945320  1
  Al  Al15  1  0.650725  0.500563  0.054680  1
  Al  Al16  1  0.015782  0.170962  0.955665  1
  Al  Al17  1  0.984218  0.829038  0.044335  1
  Al  Al18  1  0.186949  0.499411  0.441075  1
  Al  Al19  1  0.813051  0.500589  0.558925  1
  Al  Al20  1  0.736546  0.162835  0.183474  1
  Al  Al21  1  0.263454  0.837165  0.816526  1
  Al  Al22  1  0.062907  0.628333  0.817173  1
  Al  Al23  1  0.937093  0.371667  0.182827  1
  Al  Al24  1  0.856286  0.042024  0.816372  1
  Al  Al25  1  0.143714  0.957976  0.183629  1
  Ga  Ga26  1  0.687247  0.830758  0.940190  1
  Ga  Ga27  1  0.312753  0.169242  0.059810  1
  Ir  Ir28  1  0.000000  0.500000  0.000000  1
  Pt  Pt29  1  0.119801  0.492700  0.638506  1
  Pt  Pt30  1  0.880199  0.507300  0.361494  1
  Pt  Pt31  1  0.660562  0.174560  0.999685  1
  Pt  Pt32  1  0.339438  0.825440  0.000315  1
  Pt  Pt33  1  0.537680  0.166802  0.361839  1
  Pt  Pt34  1  0.462320  0.833198  0.638161  1
  Pt  Pt35  1  0.778928  0.174601  0.636928  1
  Pt  Pt36  1  0.221072  0.825399  0.363072  1
