# generated using pymatgen
data_Yb4P2O
_symmetry_space_group_name_H-M   'P 1'
_cell_length_a   4.46062162
_cell_length_b   4.46062111
_cell_length_c   8.08962453
_cell_angle_alpha   106.00375013
_cell_angle_beta   106.00374594
_cell_angle_gamma   89.99999174
_symmetry_Int_Tables_number   1
_chemical_formula_structural   Yb4P2O
_chemical_formula_sum   'Yb4 P2 O1'
_cell_volume   148.22162749
_cell_formula_units_Z   1
loop_
 _symmetry_equiv_pos_site_id
 _symmetry_equiv_pos_as_xyz
  1  'x, y, z'
loop_
 _atom_site_type_symbol
 _atom_site_label
 _atom_site_symmetry_multiplicity
 _atom_site_fract_x
 _atom_site_fract_y
 _atom_site_fract_z
 _atom_site_occupancy
  Yb  Yb0  1  0.500000  0.000000  0.000000  1
  Yb  Yb1  1  0.000000  0.500000  0.000000  1
  Yb  Yb2  1  0.170973  0.170973  0.341947  1
  Yb  Yb3  1  0.829026  0.829026  0.658053  1
  P  P4  1  0.635857  0.635857  0.271714  1
  P  P5  1  0.364144  0.364144  0.728287  1
  O  O6  1  0.000000  0.000000  0.000000  1
