# generated using pymatgen
data_Tb18DyYPb16
_symmetry_space_group_name_H-M   'P 1'
_cell_length_a   8.24138600
_cell_length_b   8.30989213
_cell_length_c   15.70627500
_cell_angle_alpha   90.00000000
_cell_angle_beta   90.00000000
_cell_angle_gamma   90.01013549
_symmetry_Int_Tables_number   1
_chemical_formula_structural   Tb18DyYPb16
_chemical_formula_sum   'Tb18 Dy1 Y1 Pb16'
_cell_volume   1075.64467672
_cell_formula_units_Z   1
loop_
 _symmetry_equiv_pos_site_id
 _symmetry_equiv_pos_as_xyz
  1  'x, y, z'
loop_
 _atom_site_type_symbol
 _atom_site_label
 _atom_site_symmetry_multiplicity
 _atom_site_fract_x
 _atom_site_fract_y
 _atom_site_fract_z
 _atom_site_occupancy
  Tb  Tb0  1  0.377304  0.841829  0.879423  1
  Tb  Tb1  1  0.877258  0.658275  0.620797  1
  Tb  Tb2  1  0.622444  0.158093  0.379034  1
  Tb  Tb3  1  0.122831  0.341679  0.120961  1
  Tb  Tb4  1  0.622444  0.158093  0.120966  1
  Tb  Tb5  1  0.122831  0.341679  0.379039  1
  Tb  Tb6  1  0.377304  0.841829  0.620577  1
  Tb  Tb7  1  0.877258  0.658275  0.879203  1
  Tb  Tb8  1  0.535732  0.324442  0.899926  1
  Tb  Tb9  1  0.035782  0.175549  0.599941  1
  Tb  Tb10  1  0.464068  0.675850  0.399847  1
  Tb  Tb11  1  0.964447  0.824600  0.100124  1
  Tb  Tb12  1  0.464068  0.675850  0.100153  1
  Tb  Tb13  1  0.964447  0.824600  0.399876  1
  Tb  Tb14  1  0.535732  0.324442  0.600074  1
  Tb  Tb15  1  0.035782  0.175549  0.900059  1
  Tb  Tb16  1  0.209598  0.503889  0.750000  1
  Tb  Tb17  1  0.790385  0.496175  0.250000  1
  Dy  Dy18  1  0.290320  0.004132  0.250000  1
  Y  Y19  1  0.709698  0.996267  0.750000  1
  Pb  Pb20  1  0.281371  0.033254  0.043386  1
  Pb  Pb21  1  0.781274  0.466187  0.457159  1
  Pb  Pb22  1  0.718820  0.966324  0.542800  1
  Pb  Pb23  1  0.218630  0.533580  0.957237  1
  Pb  Pb24  1  0.718820  0.966324  0.957200  1
  Pb  Pb25  1  0.218630  0.533580  0.542763  1
  Pb  Pb26  1  0.281371  0.033254  0.456614  1
  Pb  Pb27  1  0.781274  0.466187  0.042841  1
  Pb  Pb28  1  0.573096  0.625332  0.750000  1
  Pb  Pb29  1  0.073108  0.874968  0.750000  1
  Pb  Pb30  1  0.426486  0.374458  0.250000  1
  Pb  Pb31  1  0.927468  0.124421  0.250000  1
  Pb  Pb32  1  0.347771  0.152898  0.750000  1
  Pb  Pb33  1  0.847981  0.346732  0.750000  1
  Pb  Pb34  1  0.651519  0.847111  0.250000  1
  Pb  Pb35  1  0.152645  0.654294  0.250000  1
