# generated using pymatgen
data_Li8Cr12Sb3AsO32
_symmetry_space_group_name_H-M   'P 1'
_cell_length_a   8.50513663
_cell_length_b   8.50513663
_cell_length_c   8.50513663
_cell_angle_alpha   90.37754090
_cell_angle_beta   89.62245910
_cell_angle_gamma   89.62245910
_symmetry_Int_Tables_number   1
_chemical_formula_structural   Li8Cr12Sb3AsO32
_chemical_formula_sum   'Li8 Cr12 Sb3 As1 O32'
_cell_volume   615.19879053
_cell_formula_units_Z   1
loop_
 _symmetry_equiv_pos_site_id
 _symmetry_equiv_pos_as_xyz
  1  'x, y, z'
loop_
 _atom_site_type_symbol
 _atom_site_label
 _atom_site_symmetry_multiplicity
 _atom_site_fract_x
 _atom_site_fract_y
 _atom_site_fract_z
 _atom_site_occupancy
  Li  Li0  1  0.496565  0.496838  0.498523  1
  Li  Li1  1  0.753435  0.751477  0.753162  1
  Li  Li2  1  0.746838  0.246565  0.251477  1
  Li  Li3  1  0.001477  0.503435  0.996838  1
  Li  Li4  1  0.996614  0.003386  0.503386  1
  Li  Li5  1  0.253386  0.746614  0.246614  1
  Li  Li6  1  0.248523  0.253162  0.746565  1
  Li  Li7  1  0.503162  0.998523  0.003435  1
  Cr  Cr8  1  0.622501  0.625903  0.121561  1
  Cr  Cr9  1  0.625000  0.879685  0.370315  1
  Cr  Cr10  1  0.627499  0.128439  0.624097  1
  Cr  Cr11  1  0.870407  0.875000  0.120407  1
  Cr  Cr12  1  0.871561  0.124097  0.872501  1
  Cr  Cr13  1  0.875903  0.372501  0.628439  1
  Cr  Cr14  1  0.120315  0.870315  0.875000  1
  Cr  Cr15  1  0.125000  0.620407  0.629593  1
  Cr  Cr16  1  0.129685  0.375000  0.379685  1
  Cr  Cr17  1  0.374097  0.621561  0.877499  1
  Cr  Cr18  1  0.378439  0.377499  0.125903  1
  Cr  Cr19  1  0.379593  0.129593  0.375000  1
  Sb  Sb20  1  0.874933  0.624933  0.375000  1
  Sb  Sb21  1  0.125000  0.125067  0.124933  1
  Sb  Sb22  1  0.375067  0.875000  0.625067  1
  As  As23  1  0.625000  0.375000  0.875000  1
  O  O24  1  0.616290  0.597917  0.882949  1
  O  O25  1  0.617051  0.383710  0.097917  1
  O  O26  1  0.612855  0.113893  0.388930  1
  O  O27  1  0.637775  0.635782  0.362690  1
  O  O28  1  0.612225  0.887310  0.614218  1
  O  O29  1  0.637145  0.861070  0.136107  1
  O  O30  1  0.632949  0.152083  0.866290  1
  O  O31  1  0.633710  0.367051  0.652083  1
  O  O32  1  0.864594  0.635413  0.137397  1
  O  O33  1  0.863860  0.862192  0.363349  1
  O  O34  1  0.860765  0.139235  0.639235  1
  O  O35  1  0.887397  0.114587  0.114594  1
  O  O36  1  0.847917  0.366290  0.867051  1
  O  O37  1  0.886107  0.888930  0.887145  1
  O  O38  1  0.885413  0.614594  0.612603  1
  O  O39  1  0.885782  0.387775  0.387310  1
  O  O40  1  0.113349  0.887808  0.113860  1
  O  O41  1  0.112690  0.114218  0.887775  1
  O  O42  1  0.111070  0.387145  0.613893  1
  O  O43  1  0.137808  0.863349  0.636140  1
  O  O44  1  0.112192  0.613860  0.386651  1
  O  O45  1  0.138930  0.636107  0.862855  1
  O  O46  1  0.137310  0.362225  0.135782  1
  O  O47  1  0.136651  0.136140  0.362192  1
  O  O48  1  0.364218  0.862690  0.862225  1
  O  O49  1  0.364587  0.637397  0.635406  1
  O  O50  1  0.363893  0.362855  0.361070  1
  O  O51  1  0.402083  0.382949  0.883710  1
  O  O52  1  0.362603  0.135406  0.135413  1
  O  O53  1  0.389235  0.610765  0.110765  1
  O  O54  1  0.386140  0.886651  0.387808  1
  O  O55  1  0.385406  0.112603  0.614587  1
