# generated using pymatgen
data_Ti4Nb3(WN4)3
_symmetry_space_group_name_H-M   'P 1'
_cell_length_a   5.12927400
_cell_length_b   5.12683459
_cell_length_c   10.25160400
_cell_angle_alpha   90.00000000
_cell_angle_beta   90.00000000
_cell_angle_gamma   120.01575388
_symmetry_Int_Tables_number   1
_chemical_formula_structural   Ti4Nb3(WN4)3
_chemical_formula_sum   'Ti4 Nb3 W3 N12'
_cell_volume   233.43108790
_cell_formula_units_Z   1
loop_
 _symmetry_equiv_pos_site_id
 _symmetry_equiv_pos_as_xyz
  1  'x, y, z'
loop_
 _atom_site_type_symbol
 _atom_site_label
 _atom_site_symmetry_multiplicity
 _atom_site_fract_x
 _atom_site_fract_y
 _atom_site_fract_z
 _atom_site_occupancy
  Ti  Ti0  1  0.332174  0.666503  0.502757  1
  Ti  Ti1  1  0.665672  0.333497  0.997243  1
  Ti  Ti2  1  0.665672  0.333497  0.502757  1
  Ti  Ti3  1  0.332174  0.666503  0.997243  1
  Nb  Nb4  1  0.999794  0.674961  0.750000  1
  Nb  Nb5  1  0.324832  0.325039  0.750000  1
  Nb  Nb6  1  0.326416  0.000000  0.250000  1
  W  W7  1  0.676120  0.000000  0.750000  1
  W  W8  1  0.674516  0.675115  0.250000  1
  W  W9  1  0.999401  0.324885  0.250000  1
  N  N10  1  0.344121  0.350128  0.377117  1
  N  N11  1  0.662727  0.000000  0.377654  1
  N  N12  1  0.993993  0.649872  0.377117  1
  N  N13  1  0.994635  0.338067  0.880380  1
  N  N14  1  0.662727  0.000000  0.122346  1
  N  N15  1  0.656568  0.661933  0.880380  1
  N  N16  1  0.349572  0.000000  0.879863  1
  N  N17  1  0.656568  0.661933  0.619620  1
  N  N18  1  0.994635  0.338067  0.619620  1
  N  N19  1  0.993993  0.649872  0.122883  1
  N  N20  1  0.349572  0.000000  0.620137  1
  N  N21  1  0.344121  0.350128  0.122883  1
