# generated using pymatgen
data_DyTh2(ZnPd)3
_symmetry_space_group_name_H-M   'P 1'
_cell_length_a   7.48349457
_cell_length_b   7.51530831
_cell_length_c   3.88038500
_cell_angle_alpha   90.00000000
_cell_angle_beta   90.00000000
_cell_angle_gamma   120.14072134
_symmetry_Int_Tables_number   1
_chemical_formula_structural   DyTh2(ZnPd)3
_chemical_formula_sum   'Dy1 Th2 Zn3 Pd3'
_cell_volume   188.72920918
_cell_formula_units_Z   1
loop_
 _symmetry_equiv_pos_site_id
 _symmetry_equiv_pos_as_xyz
  1  'x, y, z'
loop_
 _atom_site_type_symbol
 _atom_site_label
 _atom_site_symmetry_multiplicity
 _atom_site_fract_x
 _atom_site_fract_y
 _atom_site_fract_z
 _atom_site_occupancy
  Dy  Dy0  1  0.000000  0.599532  0.500000  1
  Th  Th1  1  0.409196  0.407525  0.500000  1
  Th  Th2  1  0.590804  0.998329  0.500000  1
  Zn  Zn3  1  0.755746  0.748710  0.000000  1
  Zn  Zn4  1  0.244254  0.992963  0.000000  1
  Zn  Zn5  1  0.000000  0.256886  0.000000  1
  Pd  Pd6  1  0.664002  0.329399  0.000000  1
  Pd  Pd7  1  0.335998  0.665398  0.000000  1
  Pd  Pd8  1  0.000000  0.001259  0.500000  1
