# generated using pymatgen
data_Pr3TlInHgRh3
_symmetry_space_group_name_H-M   'P 1'
_cell_length_a   7.69288587
_cell_length_b   7.71050003
_cell_length_c   4.07125900
_cell_angle_alpha   90.00000000
_cell_angle_beta   90.00000000
_cell_angle_gamma   119.63605127
_symmetry_Int_Tables_number   1
_chemical_formula_structural   Pr3TlInHgRh3
_chemical_formula_sum   'Pr3 Tl1 In1 Hg1 Rh3'
_cell_volume   209.89991784
_cell_formula_units_Z   1
loop_
 _symmetry_equiv_pos_site_id
 _symmetry_equiv_pos_as_xyz
  1  'x, y, z'
loop_
 _atom_site_type_symbol
 _atom_site_label
 _atom_site_symmetry_multiplicity
 _atom_site_fract_x
 _atom_site_fract_y
 _atom_site_fract_z
 _atom_site_occupancy
  Pr  Pr0  1  0.999337  0.595871  0.500000  1
  Pr  Pr1  1  0.411110  0.408928  0.500000  1
  Pr  Pr2  1  0.592404  0.997197  0.500000  1
  Tl  Tl3  1  0.999052  0.255633  0.000000  1
  In  In4  1  0.253866  0.999060  0.000000  1
  Hg  Hg5  1  0.744517  0.743889  0.000000  1
  Rh  Rh6  1  0.326979  0.670007  0.000000  1
  Rh  Rh7  1  0.017447  0.007120  0.500000  1
  Rh  Rh8  1  0.655287  0.322293  0.000000  1
