# generated using pymatgen
data_TbDy3Co3NiOs4
_symmetry_space_group_name_H-M   'P 1'
_cell_length_a   5.22369845
_cell_length_b   5.08307773
_cell_length_c   9.17570182
_cell_angle_alpha   73.91961978
_cell_angle_beta   89.93838740
_cell_angle_gamma   119.11342659
_symmetry_Int_Tables_number   1
_chemical_formula_structural   TbDy3Co3NiOs4
_chemical_formula_sum   'Tb1 Dy3 Co3 Ni1 Os4'
_cell_volume   201.83226558
_cell_formula_units_Z   1
loop_
 _symmetry_equiv_pos_site_id
 _symmetry_equiv_pos_as_xyz
  1  'x, y, z'
loop_
 _atom_site_type_symbol
 _atom_site_label
 _atom_site_symmetry_multiplicity
 _atom_site_fract_x
 _atom_site_fract_y
 _atom_site_fract_z
 _atom_site_occupancy
  Tb  Tb0  1  0.879325  0.753452  0.372419  1
  Dy  Dy1  1  0.378656  0.752722  0.873211  1
  Dy  Dy2  1  0.996511  0.997466  0.001578  1
  Dy  Dy3  1  0.495015  0.996008  0.503000  1
  Co  Co4  1  0.687389  0.375022  0.937345  1
  Co  Co5  1  0.939091  0.377088  0.184914  1
  Co  Co6  1  0.435968  0.373023  0.689924  1
  Ni  Ni7  1  0.187958  0.375112  0.437733  1
  Os  Os8  1  0.438524  0.376574  0.186025  1
  Os  Os9  1  0.936519  0.373480  0.688912  1
  Os  Os10  1  0.438524  0.875924  0.186025  1
  Os  Os11  1  0.936519  0.874127  0.688912  1
