# generated using pymatgen
data_Pa3Co4Ni5P6
_symmetry_space_group_name_H-M   'P 1'
_cell_length_a   3.78014300
_cell_length_b   10.38203600
_cell_length_c   12.27756600
_cell_angle_alpha   90.00000000
_cell_angle_beta   90.00000000
_cell_angle_gamma   90.00000000
_symmetry_Int_Tables_number   1
_chemical_formula_structural   Pa3Co4Ni5P6
_chemical_formula_sum   'Pa6 Co8 Ni10 P12'
_cell_volume   481.84020739
_cell_formula_units_Z   2
loop_
 _symmetry_equiv_pos_site_id
 _symmetry_equiv_pos_as_xyz
  1  'x, y, z'
loop_
 _atom_site_type_symbol
 _atom_site_label
 _atom_site_symmetry_multiplicity
 _atom_site_fract_x
 _atom_site_fract_y
 _atom_site_fract_z
 _atom_site_occupancy
  Pa  Pa0  1  0.000000  0.500000  0.522326  1
  Pa  Pa1  1  0.500000  0.000000  0.477674  1
  Pa  Pa2  1  0.500000  0.816253  0.206629  1
  Pa  Pa3  1  0.500000  0.183747  0.206629  1
  Pa  Pa4  1  0.000000  0.683747  0.793371  1
  Pa  Pa5  1  0.000000  0.316253  0.793371  1
  Co  Co6  1  0.000000  0.500000  0.976413  1
  Co  Co7  1  0.500000  0.000000  0.023587  1
  Co  Co8  1  0.500000  0.332903  0.995140  1
  Co  Co9  1  0.500000  0.667097  0.995140  1
  Co  Co10  1  0.000000  0.167097  0.004860  1
  Co  Co11  1  0.000000  0.832903  0.004860  1
  Co  Co12  1  0.500000  0.500000  0.701236  1
  Co  Co13  1  0.000000  0.000000  0.298764  1
  Ni  Ni14  1  0.500000  0.303868  0.428459  1
  Ni  Ni15  1  0.500000  0.696132  0.428459  1
  Ni  Ni16  1  0.000000  0.196132  0.571541  1
  Ni  Ni17  1  0.000000  0.803868  0.571541  1
  Ni  Ni18  1  0.500000  0.877623  0.713489  1
  Ni  Ni19  1  0.500000  0.122377  0.713489  1
  Ni  Ni20  1  0.000000  0.622377  0.286511  1
  Ni  Ni21  1  0.000000  0.377623  0.286511  1
  Ni  Ni22  1  0.500000  0.500000  0.156385  1
  Ni  Ni23  1  0.000000  0.000000  0.843615  1
  P  P24  1  0.500000  0.311553  0.613320  1
  P  P25  1  0.500000  0.688447  0.613320  1
  P  P26  1  0.000000  0.188447  0.386680  1
  P  P27  1  0.000000  0.811553  0.386680  1
  P  P28  1  0.500000  0.500000  0.880571  1
  P  P29  1  0.000000  0.000000  0.119429  1
  P  P30  1  0.500000  0.849792  0.898938  1
  P  P31  1  0.500000  0.150208  0.898938  1
  P  P32  1  0.000000  0.650208  0.101062  1
  P  P33  1  0.000000  0.349792  0.101062  1
  P  P34  1  0.500000  0.500000  0.338227  1
  P  P35  1  0.000000  0.000000  0.661773  1
