# generated using pymatgen
data_Y2MnOsBr2
_symmetry_space_group_name_H-M   'P 1'
_cell_length_a   3.95009200
_cell_length_b   3.95009148
_cell_length_c   11.99733500
_cell_angle_alpha   90.00000000
_cell_angle_beta   90.00000000
_cell_angle_gamma   119.99998758
_symmetry_Int_Tables_number   1
_chemical_formula_structural   Y2MnOsBr2
_chemical_formula_sum   'Y2 Mn1 Os1 Br2'
_cell_volume   162.11747706
_cell_formula_units_Z   1
loop_
 _symmetry_equiv_pos_site_id
 _symmetry_equiv_pos_as_xyz
  1  'x, y, z'
loop_
 _atom_site_type_symbol
 _atom_site_label
 _atom_site_symmetry_multiplicity
 _atom_site_fract_x
 _atom_site_fract_y
 _atom_site_fract_z
 _atom_site_occupancy
  Y  Y0  1  0.000000  0.000000  0.177190  1
  Y  Y1  1  0.000000  0.000000  0.823591  1
  Mn  Mn2  1  0.333333  0.666666  0.984840  1
  Os  Os3  1  0.666668  0.333335  0.014013  1
  Br  Br4  1  0.333333  0.666666  0.335127  1
  Br  Br5  1  0.666668  0.333335  0.665239  1
