# generated using pymatgen
data_YbPr2(BPt2)3
_symmetry_space_group_name_H-M   'P 1'
_cell_length_a   5.54525600
_cell_length_b   5.52006852
_cell_length_c   7.79347900
_cell_angle_alpha   90.00000000
_cell_angle_beta   90.00000000
_cell_angle_gamma   120.15104240
_symmetry_Int_Tables_number   1
_chemical_formula_structural   YbPr2(BPt2)3
_chemical_formula_sum   'Yb1 Pr2 B3 Pt6'
_cell_volume   206.28376934
_cell_formula_units_Z   1
loop_
 _symmetry_equiv_pos_site_id
 _symmetry_equiv_pos_as_xyz
  1  'x, y, z'
loop_
 _atom_site_type_symbol
 _atom_site_label
 _atom_site_symmetry_multiplicity
 _atom_site_fract_x
 _atom_site_fract_y
 _atom_site_fract_z
 _atom_site_occupancy
  Yb  Yb0  1  0.500000  0.000000  0.500000  1
  Pr  Pr1  1  0.500000  0.500000  0.827481  1
  Pr  Pr2  1  0.000000  0.500000  0.172519  1
  B  B3  1  0.500000  0.500000  0.339620  1
  B  B4  1  0.500000  0.000000  0.000000  1
  B  B5  1  0.000000  0.500000  0.660380  1
  Pt  Pt6  1  0.153970  0.848531  0.829795  1
  Pt  Pt7  1  0.145370  0.290740  0.500000  1
  Pt  Pt8  1  0.694560  0.848531  0.170205  1
  Pt  Pt9  1  0.846030  0.151469  0.829795  1
  Pt  Pt10  1  0.854630  0.709260  0.500000  1
  Pt  Pt11  1  0.305440  0.151469  0.170205  1
