# generated using pymatgen
data_Pr3Mn2Sb3O14
_symmetry_space_group_name_H-M   'P 1'
_cell_length_a   7.39199313
_cell_length_b   7.39211004
_cell_length_c   7.39205435
_cell_angle_alpha   61.96941766
_cell_angle_beta   61.97002822
_cell_angle_gamma   61.96969417
_symmetry_Int_Tables_number   1
_chemical_formula_structural   Pr3Mn2Sb3O14
_chemical_formula_sum   'Pr3 Mn2 Sb3 O14'
_cell_volume   298.20069523
_cell_formula_units_Z   1
loop_
 _symmetry_equiv_pos_site_id
 _symmetry_equiv_pos_as_xyz
  1  'x, y, z'
loop_
 _atom_site_type_symbol
 _atom_site_label
 _atom_site_symmetry_multiplicity
 _atom_site_fract_x
 _atom_site_fract_y
 _atom_site_fract_z
 _atom_site_occupancy
  Pr  Pr0  1  0.000082  0.999992  0.500020  1
  Pr  Pr1  1  0.500033  0.000010  0.000062  1
  Pr  Pr2  1  0.500028  0.500043  0.500032  1
  Mn  Mn3  1  0.999680  0.500008  0.999871  1
  Mn  Mn4  1  0.499617  0.000103  0.499860  1
  Sb  Sb5  1  0.499969  0.499978  0.999989  1
  Sb  Sb6  1  0.000026  0.499983  0.499966  1
  Sb  Sb7  1  0.000029  0.999952  0.999999  1
  O  O8  1  0.614942  0.114909  0.614917  1
  O  O9  1  0.385190  0.885159  0.385171  1
  O  O10  1  0.078442  0.180705  0.680726  1
  O  O11  1  0.680750  0.180701  0.078422  1
  O  O12  1  0.680745  0.578413  0.680714  1
  O  O13  1  0.921599  0.819289  0.319311  1
  O  O14  1  0.319338  0.819288  0.921577  1
  O  O15  1  0.319327  0.421580  0.319299  1
  O  O16  1  0.646766  0.590999  0.091016  1
  O  O17  1  0.091034  0.590997  0.646738  1
  O  O18  1  0.091043  0.146689  0.091022  1
  O  O19  1  0.353298  0.408991  0.909008  1
  O  O20  1  0.909029  0.408986  0.353269  1
  O  O21  1  0.909033  0.853223  0.909012  1
