# generated using pymatgen
data_SmMg2ZrNi8
_symmetry_space_group_name_H-M   'P 1'
_cell_length_a   4.92053600
_cell_length_b   4.92053536
_cell_length_c   8.54082661
_cell_angle_alpha   73.25817496
_cell_angle_beta   90.00000000
_cell_angle_gamma   120.00000430
_symmetry_Int_Tables_number   1
_chemical_formula_structural   SmMg2ZrNi8
_chemical_formula_sum   'Sm1 Mg2 Zr1 Ni8'
_cell_volume   168.88637653
_cell_formula_units_Z   1
loop_
 _symmetry_equiv_pos_site_id
 _symmetry_equiv_pos_as_xyz
  1  'x, y, z'
loop_
 _atom_site_type_symbol
 _atom_site_label
 _atom_site_symmetry_multiplicity
 _atom_site_fract_x
 _atom_site_fract_y
 _atom_site_fract_z
 _atom_site_occupancy
  Sm  Sm0  1  0.999796  0.999593  0.000611  1
  Mg  Mg1  1  0.873313  0.746628  0.380059  1
  Mg  Mg2  1  0.377630  0.755260  0.867110  1
  Zr  Zr3  1  0.500451  0.000901  0.498648  1
  Ni  Ni4  1  0.434705  0.369431  0.195864  1
  Ni  Ni5  1  0.936855  0.381840  0.681306  1
  Ni  Ni6  1  0.434705  0.869410  0.195864  1
  Ni  Ni7  1  0.936855  0.873709  0.681306  1
  Ni  Ni8  1  0.187641  0.375282  0.437077  1
  Ni  Ni9  1  0.688339  0.376677  0.934984  1
  Ni  Ni10  1  0.934725  0.369431  0.195864  1
  Ni  Ni11  1  0.444984  0.381840  0.681306  1
