# generated using pymatgen
data_Li8Nd8CdBi7
_symmetry_space_group_name_H-M   'P 1'
_cell_length_a   9.78827600
_cell_length_b   9.78827628
_cell_length_c   7.50656100
_cell_angle_alpha   90.00000000
_cell_angle_beta   90.00000000
_cell_angle_gamma   119.99999905
_symmetry_Int_Tables_number   1
_chemical_formula_structural   Li8Nd8CdBi7
_chemical_formula_sum   'Li8 Nd8 Cd1 Bi7'
_cell_volume   622.85087625
_cell_formula_units_Z   1
loop_
 _symmetry_equiv_pos_site_id
 _symmetry_equiv_pos_as_xyz
  1  'x, y, z'
loop_
 _atom_site_type_symbol
 _atom_site_label
 _atom_site_symmetry_multiplicity
 _atom_site_fract_x
 _atom_site_fract_y
 _atom_site_fract_z
 _atom_site_occupancy
  Li  Li0  1  0.167297  0.334594  0.277662  1
  Li  Li1  1  0.167297  0.832703  0.277662  1
  Li  Li2  1  0.665406  0.832703  0.277662  1
  Li  Li3  1  0.831322  0.662644  0.776432  1
  Li  Li4  1  0.831322  0.168678  0.776432  1
  Li  Li5  1  0.337356  0.168678  0.776432  1
  Li  Li6  1  0.333333  0.666667  0.682021  1
  Li  Li7  1  0.666667  0.333333  0.185735  1
  Nd  Nd8  1  0.513194  0.026390  0.498292  1
  Nd  Nd9  1  0.513194  0.486806  0.498292  1
  Nd  Nd10  1  0.973610  0.486806  0.498292  1
  Nd  Nd11  1  0.493354  0.986708  0.990928  1
  Nd  Nd12  1  0.493354  0.506646  0.990928  1
  Nd  Nd13  1  0.013292  0.506646  0.990928  1
  Nd  Nd14  1  0.000000  0.000000  0.503529  1
  Nd  Nd15  1  0.000000  0.000000  0.001016  1
  Cd  Cd16  1  0.666667  0.333333  0.760999  1
  Bi  Bi17  1  0.165799  0.331599  0.736982  1
  Bi  Bi18  1  0.165799  0.834201  0.736982  1
  Bi  Bi19  1  0.668401  0.834201  0.736982  1
  Bi  Bi20  1  0.833409  0.666819  0.235761  1
  Bi  Bi21  1  0.833409  0.166591  0.235761  1
  Bi  Bi22  1  0.333181  0.166591  0.235761  1
  Bi  Bi23  1  0.333333  0.666667  0.260503  1
