# generated using pymatgen
data_TbErTh(InIr)3
_symmetry_space_group_name_H-M   'P 1'
_cell_length_a   7.56161902
_cell_length_b   7.56185085
_cell_length_c   3.93838800
_cell_angle_alpha   90.00000000
_cell_angle_beta   90.00000000
_cell_angle_gamma   118.45783002
_symmetry_Int_Tables_number   1
_chemical_formula_structural   TbErTh(InIr)3
_chemical_formula_sum   'Tb1 Er1 Th1 In3 Ir3'
_cell_volume   197.98546308
_cell_formula_units_Z   1
loop_
 _symmetry_equiv_pos_site_id
 _symmetry_equiv_pos_as_xyz
  1  'x, y, z'
loop_
 _atom_site_type_symbol
 _atom_site_label
 _atom_site_symmetry_multiplicity
 _atom_site_fract_x
 _atom_site_fract_y
 _atom_site_fract_z
 _atom_site_occupancy
  Tb  Tb0  1  0.998214  0.592920  0.000000  1
  Er  Er1  1  0.593482  0.998245  0.000000  1
  Th  Th2  1  0.416626  0.416592  0.000000  1
  In  In3  1  0.988911  0.255743  0.500000  1
  In  In4  1  0.756471  0.757153  0.500000  1
  In  In5  1  0.256773  0.989505  0.500000  1
  Ir  Ir6  1  0.005616  0.006493  0.000000  1
  Ir  Ir7  1  0.333164  0.651654  0.500000  1
  Ir  Ir8  1  0.650742  0.331693  0.500000  1
