# generated using pymatgen
data_SmDyReB6
_symmetry_space_group_name_H-M   'P 1'
_cell_length_a   3.71493100
_cell_length_b   9.22620600
_cell_length_c   11.65434200
_cell_angle_alpha   90.00000000
_cell_angle_beta   90.00000000
_cell_angle_gamma   90.00000000
_symmetry_Int_Tables_number   1
_chemical_formula_structural   SmDyReB6
_chemical_formula_sum   'Sm4 Dy4 Re4 B24'
_cell_volume   399.44929347
_cell_formula_units_Z   4
loop_
 _symmetry_equiv_pos_site_id
 _symmetry_equiv_pos_as_xyz
  1  'x, y, z'
loop_
 _atom_site_type_symbol
 _atom_site_label
 _atom_site_symmetry_multiplicity
 _atom_site_fract_x
 _atom_site_fract_y
 _atom_site_fract_z
 _atom_site_occupancy
  Sm  Sm0  1  0.000000  0.323257  0.413998  1
  Sm  Sm1  1  0.000000  0.676743  0.586002  1
  Sm  Sm2  1  0.000000  0.823257  0.086002  1
  Sm  Sm3  1  0.000000  0.176743  0.913998  1
  Dy  Dy4  1  0.000000  0.943256  0.369878  1
  Dy  Dy5  1  0.000000  0.056744  0.630122  1
  Dy  Dy6  1  0.000000  0.443256  0.130122  1
  Dy  Dy7  1  0.000000  0.556744  0.869878  1
  Re  Re8  1  0.000000  0.639210  0.319971  1
  Re  Re9  1  0.000000  0.360790  0.680029  1
  Re  Re10  1  0.000000  0.139210  0.180029  1
  Re  Re11  1  0.000000  0.860790  0.819971  1
  B  B12  1  0.500000  0.554198  0.431525  1
  B  B13  1  0.500000  0.445802  0.568475  1
  B  B14  1  0.500000  0.054198  0.068475  1
  B  B15  1  0.500000  0.945802  0.931525  1
  B  B16  1  0.500000  0.749035  0.417011  1
  B  B17  1  0.500000  0.250965  0.582989  1
  B  B18  1  0.500000  0.249035  0.082989  1
  B  B19  1  0.500000  0.750965  0.917011  1
  B  B20  1  0.500000  0.791629  0.266079  1
  B  B21  1  0.500000  0.208371  0.733921  1
  B  B22  1  0.500000  0.291629  0.233921  1
  B  B23  1  0.500000  0.708371  0.766079  1
  B  B24  1  0.500000  0.630362  0.186302  1
  B  B25  1  0.500000  0.369638  0.813698  1
  B  B26  1  0.500000  0.130362  0.313698  1
  B  B27  1  0.500000  0.869638  0.686302  1
  B  B28  1  0.500000  0.983484  0.212577  1
  B  B29  1  0.500000  0.016516  0.787423  1
  B  B30  1  0.500000  0.483484  0.287423  1
  B  B31  1  0.500000  0.516516  0.712577  1
  B  B32  1  0.500000  0.598072  0.027354  1
  B  B33  1  0.500000  0.401928  0.972646  1
  B  B34  1  0.500000  0.098072  0.472646  1
  B  B35  1  0.500000  0.901928  0.527354  1
