# generated using pymatgen
data_Tm12FeCo3SnRh
_symmetry_space_group_name_H-M   'P 1'
_cell_length_a   8.17930548
_cell_length_b   8.17930512
_cell_length_c   8.17930501
_cell_angle_alpha   111.39278602
_cell_angle_beta   111.01297148
_cell_angle_gamma   106.06103571
_symmetry_Int_Tables_number   1
_chemical_formula_structural   Tm12FeCo3SnRh
_chemical_formula_sum   'Tm12 Fe1 Co3 Sn1 Rh1'
_cell_volume   420.12224304
_cell_formula_units_Z   1
loop_
 _symmetry_equiv_pos_site_id
 _symmetry_equiv_pos_as_xyz
  1  'x, y, z'
loop_
 _atom_site_type_symbol
 _atom_site_label
 _atom_site_symmetry_multiplicity
 _atom_site_fract_x
 _atom_site_fract_y
 _atom_site_fract_z
 _atom_site_occupancy
  Tm  Tm0  1  0.412062  0.215131  0.196931  1
  Tm  Tm1  1  0.588174  0.784982  0.803193  1
  Tm  Tm2  1  0.018212  0.215018  0.803193  1
  Tm  Tm3  1  0.981799  0.784869  0.196931  1
  Tm  Tm4  1  0.186805  0.286193  0.472998  1
  Tm  Tm5  1  0.813263  0.711861  0.525124  1
  Tm  Tm6  1  0.186805  0.713807  0.900611  1
  Tm  Tm7  1  0.813263  0.288139  0.101401  1
  Tm  Tm8  1  0.311334  0.618784  0.303968  1
  Tm  Tm9  1  0.685187  0.381216  0.692553  1
  Tm  Tm10  1  0.311334  0.007366  0.692553  1
  Tm  Tm11  1  0.685187  0.992634  0.303968  1
  Fe  Fe12  1  0.384174  0.000000  0.384174  1
  Co  Co13  1  0.624604  0.000000  0.624604  1
  Co  Co14  1  0.110897  0.611668  0.499228  1
  Co  Co15  1  0.887560  0.388332  0.499228  1
  Sn  Sn16  1  0.499602  0.500000  0.999602  1
  Rh  Rh17  1  0.999741  0.000000  0.999741  1
