# generated using pymatgen
data_Zr3Zn3IrAu2
_symmetry_space_group_name_H-M   'P 1'
_cell_length_a   7.36448300
_cell_length_b   7.36448107
_cell_length_c   3.50719500
_cell_angle_alpha   90.00000000
_cell_angle_beta   90.00000000
_cell_angle_gamma   120.00000298
_symmetry_Int_Tables_number   1
_chemical_formula_structural   Zr3Zn3IrAu2
_chemical_formula_sum   'Zr3 Zn3 Ir1 Au2'
_cell_volume   164.73085255
_cell_formula_units_Z   1
loop_
 _symmetry_equiv_pos_site_id
 _symmetry_equiv_pos_as_xyz
  1  'x, y, z'
loop_
 _atom_site_type_symbol
 _atom_site_label
 _atom_site_symmetry_multiplicity
 _atom_site_fract_x
 _atom_site_fract_y
 _atom_site_fract_z
 _atom_site_occupancy
  Zr  Zr0  1  0.409344  0.021593  0.499999  1
  Zr  Zr1  1  0.978407  0.387751  0.499999  1
  Zr  Zr2  1  0.612250  0.590657  0.499999  1
  Zn  Zn3  1  0.724409  0.996341  0.000000  1
  Zn  Zn4  1  0.271932  0.275592  0.000000  1
  Zn  Zn5  1  0.003659  0.728068  0.000000  1
  Ir  Ir6  1  0.666667  0.333333  0.000000  1
  Au  Au7  1  0.333333  0.666666  0.000000  1
  Au  Au8  1  0.000000  0.000000  0.499999  1
