# generated using pymatgen
data_SmPa3(TaN2)4
_symmetry_space_group_name_H-M   'P 1'
_cell_length_a   3.31846000
_cell_length_b   5.72156553
_cell_length_c   10.99689299
_cell_angle_alpha   90.04890590
_cell_angle_beta   90.00000000
_cell_angle_gamma   90.00000000
_symmetry_Int_Tables_number   1
_chemical_formula_structural   SmPa3(TaN2)4
_chemical_formula_sum   'Sm1 Pa3 Ta4 N8'
_cell_volume   208.79558153
_cell_formula_units_Z   1
loop_
 _symmetry_equiv_pos_site_id
 _symmetry_equiv_pos_as_xyz
  1  'x, y, z'
loop_
 _atom_site_type_symbol
 _atom_site_label
 _atom_site_symmetry_multiplicity
 _atom_site_fract_x
 _atom_site_fract_y
 _atom_site_fract_z
 _atom_site_occupancy
  Sm  Sm0  1  0.250000  0.579331  0.855202  1
  Pa  Pa1  1  0.750000  0.424866  0.139964  1
  Pa  Pa2  1  0.750000  0.922523  0.357224  1
  Pa  Pa3  1  0.250000  0.078819  0.644879  1
  Ta  Ta4  1  0.250000  0.922158  0.100707  1
  Ta  Ta5  1  0.750000  0.072783  0.902620  1
  Ta  Ta6  1  0.750000  0.576132  0.600059  1
  Ta  Ta7  1  0.250000  0.424566  0.399950  1
  N  N8  1  0.250000  0.661614  0.247072  1
  N  N9  1  0.750000  0.328418  0.748658  1
  N  N10  1  0.750000  0.845304  0.742939  1
  N  N11  1  0.250000  0.161144  0.254915  1
  N  N12  1  0.250000  0.758591  0.506437  1
  N  N13  1  0.750000  0.242233  0.494119  1
  N  N14  1  0.750000  0.744996  0.007911  1
  N  N15  1  0.250000  0.256522  0.997342  1
