# generated using pymatgen
data_YbAl2(Fe3Ge2)2
_symmetry_space_group_name_H-M   'P 1'
_cell_length_a   5.00602000
_cell_length_b   5.00690085
_cell_length_c   8.28728200
_cell_angle_alpha   90.00000000
_cell_angle_beta   90.00000000
_cell_angle_gamma   119.99419377
_symmetry_Int_Tables_number   1
_chemical_formula_structural   YbAl2(Fe3Ge2)2
_chemical_formula_sum   'Yb1 Al2 Fe6 Ge4'
_cell_volume   179.89940497
_cell_formula_units_Z   1
loop_
 _symmetry_equiv_pos_site_id
 _symmetry_equiv_pos_as_xyz
  1  'x, y, z'
loop_
 _atom_site_type_symbol
 _atom_site_label
 _atom_site_symmetry_multiplicity
 _atom_site_fract_x
 _atom_site_fract_y
 _atom_site_fract_z
 _atom_site_occupancy
  Yb  Yb0  1  0.999781  0.000000  0.000000  1
  Al  Al1  1  0.333482  0.666975  0.500000  1
  Al  Al2  1  0.666507  0.333025  0.500000  1
  Fe  Fe3  1  0.500053  0.000000  0.245795  1
  Fe  Fe4  1  0.500039  0.500040  0.245937  1
  Fe  Fe5  1  0.999999  0.499960  0.245937  1
  Fe  Fe6  1  0.500053  0.000000  0.754205  1
  Fe  Fe7  1  0.500039  0.500040  0.754063  1
  Fe  Fe8  1  0.999999  0.499960  0.754063  1
  Ge  Ge9  1  0.332983  0.666352  0.000000  1
  Ge  Ge10  1  0.666631  0.333648  0.000000  1
  Ge  Ge11  1  0.000117  0.000000  0.345710  1
  Ge  Ge12  1  0.000117  0.000000  0.654290  1
