# generated using pymatgen
data_Sc4SbSe3
_symmetry_space_group_name_H-M   'P 1'
_cell_length_a   3.90227900
_cell_length_b   3.90227810
_cell_length_c   13.21468900
_cell_angle_alpha   90.00000000
_cell_angle_beta   90.00000000
_cell_angle_gamma   119.99999912
_symmetry_Int_Tables_number   1
_chemical_formula_structural   Sc4SbSe3
_chemical_formula_sum   'Sc4 Sb1 Se3'
_cell_volume   174.27059582
_cell_formula_units_Z   1
loop_
 _symmetry_equiv_pos_site_id
 _symmetry_equiv_pos_as_xyz
  1  'x, y, z'
loop_
 _atom_site_type_symbol
 _atom_site_label
 _atom_site_symmetry_multiplicity
 _atom_site_fract_x
 _atom_site_fract_y
 _atom_site_fract_z
 _atom_site_occupancy
  Sc  Sc0  1  0.333333  0.666667  0.890472  1
  Sc  Sc1  1  0.666667  0.333333  0.122352  1
  Sc  Sc2  1  0.666667  0.333333  0.377648  1
  Sc  Sc3  1  0.333333  0.666667  0.609528  1
  Sb  Sb4  1  0.666667  0.333333  0.750000  1
  Se  Se5  1  0.333333  0.666667  0.250000  1
  Se  Se6  1  0.000000  0.000000  0.492305  1
  Se  Se7  1  0.000000  0.000000  0.007695  1
