# generated using pymatgen
data_Lu5Cu2Ni17
_symmetry_space_group_name_H-M   'P 1'
_cell_length_a   4.86203358
_cell_length_b   4.86203485
_cell_length_c   16.30536619
_cell_angle_alpha   81.42562055
_cell_angle_beta   81.42561646
_cell_angle_gamma   59.99999328
_symmetry_Int_Tables_number   1
_chemical_formula_structural   Lu5Cu2Ni17
_chemical_formula_sum   'Lu5 Cu2 Ni17'
_cell_volume   328.82436091
_cell_formula_units_Z   1
loop_
 _symmetry_equiv_pos_site_id
 _symmetry_equiv_pos_as_xyz
  1  'x, y, z'
loop_
 _atom_site_type_symbol
 _atom_site_label
 _atom_site_symmetry_multiplicity
 _atom_site_fract_x
 _atom_site_fract_y
 _atom_site_fract_z
 _atom_site_occupancy
  Lu  Lu0  1  0.000000  0.000000  0.000000  1
  Lu  Lu1  1  0.922417  0.922417  0.232749  1
  Lu  Lu2  1  0.077583  0.077583  0.767251  1
  Lu  Lu3  1  0.848059  0.848059  0.455823  1
  Lu  Lu4  1  0.151941  0.151941  0.544177  1
  Cu  Cu5  1  0.749616  0.749617  0.751153  1
  Cu  Cu6  1  0.250383  0.250383  0.248848  1
  Ni  Ni7  1  0.500000  0.500000  0.500000  1
  Ni  Ni8  1  0.666723  0.666723  0.999832  1
  Ni  Ni9  1  0.333277  0.333277  0.000168  1
  Ni  Ni10  1  0.583595  0.583595  0.249216  1
  Ni  Ni11  1  0.416405  0.416405  0.750784  1
  Ni  Ni12  1  0.374945  0.374945  0.373686  1
  Ni  Ni13  1  0.876421  0.374945  0.373686  1
  Ni  Ni14  1  0.374945  0.876421  0.373686  1
  Ni  Ni15  1  0.625055  0.625055  0.626314  1
  Ni  Ni16  1  0.123579  0.625055  0.626314  1
  Ni  Ni17  1  0.625055  0.123579  0.626314  1
  Ni  Ni18  1  0.459518  0.459518  0.122764  1
  Ni  Ni19  1  0.958201  0.459518  0.122764  1
  Ni  Ni20  1  0.459518  0.958201  0.122764  1
  Ni  Ni21  1  0.540482  0.540482  0.877236  1
  Ni  Ni22  1  0.041799  0.540482  0.877236  1
  Ni  Ni23  1  0.540482  0.041799  0.877236  1
