# generated using pymatgen
data_Mg3Ta(B4Ru5)2
_symmetry_space_group_name_H-M   'P 1'
_cell_length_a   2.96359500
_cell_length_b   8.45684143
_cell_length_c   10.07827263
_cell_angle_alpha   90.68496671
_cell_angle_beta   90.00000000
_cell_angle_gamma   90.00000000
_symmetry_Int_Tables_number   1
_chemical_formula_structural   Mg3Ta(B4Ru5)2
_chemical_formula_sum   'Mg3 Ta1 B8 Ru10'
_cell_volume   252.57019985
_cell_formula_units_Z   1
loop_
 _symmetry_equiv_pos_site_id
 _symmetry_equiv_pos_as_xyz
  1  'x, y, z'
loop_
 _atom_site_type_symbol
 _atom_site_label
 _atom_site_symmetry_multiplicity
 _atom_site_fract_x
 _atom_site_fract_y
 _atom_site_fract_z
 _atom_site_occupancy
  Mg  Mg0  1  0.500000  0.349699  0.188002  1
  Mg  Mg1  1  0.500000  0.153091  0.677310  1
  Mg  Mg2  1  0.500000  0.851920  0.314545  1
  Ta  Ta3  1  0.500000  0.653657  0.819694  1
  B  B4  1  0.500000  0.854790  0.597353  1
  B  B5  1  0.500000  0.144965  0.395093  1
  B  B6  1  0.500000  0.347470  0.899451  1
  B  B7  1  0.500000  0.647265  0.107541  1
  B  B8  1  0.500000  0.962245  0.909782  1
  B  B9  1  0.500000  0.039999  0.088616  1
  B  B10  1  0.500000  0.458300  0.589262  1
  B  B11  1  0.500000  0.535791  0.411736  1
  Ru  Ru12  1  0.000000  0.400210  0.740305  1
  Ru  Ru13  1  0.000000  0.603160  0.264663  1
  Ru  Ru14  1  0.000000  0.901537  0.760367  1
  Ru  Ru15  1  0.000000  0.102574  0.235667  1
  Ru  Ru16  1  0.000000  0.999585  0.498708  1
  Ru  Ru17  1  0.000000  0.500124  0.000029  1
  Ru  Ru18  1  0.000000  0.656647  0.555121  1
  Ru  Ru19  1  0.000000  0.343411  0.454535  1
  Ru  Ru20  1  0.000000  0.155763  0.950994  1
  Ru  Ru21  1  0.000000  0.837794  0.041226  1
