# generated using pymatgen
data_TbBi3(MoO4)6
_symmetry_space_group_name_H-M   'P 1'
_cell_length_a   7.58697183
_cell_length_b   7.58697183
_cell_length_c   10.88983145
_cell_angle_alpha   90.15262484
_cell_angle_beta   89.84737516
_cell_angle_gamma   89.88057034
_symmetry_Int_Tables_number   1
_chemical_formula_structural   TbBi3(MoO4)6
_chemical_formula_sum   'Tb1 Bi3 Mo6 O24'
_cell_volume   626.83619956
_cell_formula_units_Z   1
loop_
 _symmetry_equiv_pos_site_id
 _symmetry_equiv_pos_as_xyz
  1  'x, y, z'
loop_
 _atom_site_type_symbol
 _atom_site_label
 _atom_site_symmetry_multiplicity
 _atom_site_fract_x
 _atom_site_fract_y
 _atom_site_fract_z
 _atom_site_occupancy
  Tb  Tb0  1  0.310349  0.189651  0.736011  1
  Bi  Bi1  1  0.191384  0.690922  0.260847  1
  Bi  Bi2  1  0.809078  0.308616  0.260847  1
  Bi  Bi3  1  0.690145  0.809855  0.740164  1
  Mo  Mo4  1  0.208198  0.706760  0.647211  1
  Mo  Mo5  1  0.793240  0.291802  0.647211  1
  Mo  Mo6  1  0.707015  0.792985  0.353308  1
  Mo  Mo7  1  0.292882  0.207118  0.359001  1
  Mo  Mo8  1  0.002888  0.002201  0.997620  1
  Mo  Mo9  1  0.497799  0.497112  0.997620  1
  O  O10  1  0.197777  0.697098  0.484270  1
  O  O11  1  0.802902  0.302223  0.484270  1
  O  O12  1  0.694270  0.805730  0.515984  1
  O  O13  1  0.304793  0.195207  0.522403  1
  O  O14  1  0.622292  0.134153  0.692977  1
  O  O15  1  0.365847  0.877708  0.692977  1
  O  O16  1  0.129057  0.370943  0.313468  1
  O  O17  1  0.871734  0.628266  0.308371  1
  O  O18  1  0.774819  0.001287  0.292923  1
  O  O19  1  0.226061  0.998789  0.298137  1
  O  O20  1  0.501211  0.273939  0.298137  1
  O  O21  1  0.498713  0.725181  0.292923  1
  O  O22  1  0.003570  0.222374  0.703299  1
  O  O23  1  0.997367  0.769699  0.707096  1
  O  O24  1  0.730301  0.502633  0.707096  1
  O  O25  1  0.277626  0.496430  0.703299  1
  O  O26  1  0.811398  0.956153  0.906265  1
  O  O27  1  0.186296  0.049851  0.899829  1
  O  O28  1  0.450149  0.313704  0.899829  1
  O  O29  1  0.543847  0.688602  0.906265  1
  O  O30  1  0.958911  0.189696  0.093700  1
  O  O31  1  0.052169  0.814394  0.091470  1
  O  O32  1  0.685606  0.447831  0.091470  1
  O  O33  1  0.310304  0.541089  0.093700  1
