# generated using pymatgen
data_Y3Ho7Si5Sb
_symmetry_space_group_name_H-M   'P 1'
_cell_length_a   8.49966800
_cell_length_b   8.53110373
_cell_length_c   6.38554800
_cell_angle_alpha   90.00000000
_cell_angle_beta   90.00000000
_cell_angle_gamma   119.87818124
_symmetry_Int_Tables_number   1
_chemical_formula_structural   Y3Ho7Si5Sb
_chemical_formula_sum   'Y3 Ho7 Si5 Sb1'
_cell_volume   401.48358245
_cell_formula_units_Z   1
loop_
 _symmetry_equiv_pos_site_id
 _symmetry_equiv_pos_as_xyz
  1  'x, y, z'
loop_
 _atom_site_type_symbol
 _atom_site_label
 _atom_site_symmetry_multiplicity
 _atom_site_fract_x
 _atom_site_fract_y
 _atom_site_fract_z
 _atom_site_occupancy
  Y  Y0  1  0.998632  0.243201  0.250000  1
  Y  Y1  1  0.755431  0.756799  0.250000  1
  Y  Y2  1  0.240961  0.000000  0.250000  1
  Ho  Ho3  1  0.988119  0.747397  0.750000  1
  Ho  Ho4  1  0.765671  0.000000  0.750000  1
  Ho  Ho5  1  0.240722  0.252603  0.750000  1
  Ho  Ho6  1  0.331067  0.656327  0.496553  1
  Ho  Ho7  1  0.674740  0.343673  0.003447  1
  Ho  Ho8  1  0.674740  0.343673  0.496553  1
  Ho  Ho9  1  0.331067  0.656327  0.003447  1
  Si  Si10  1  0.393781  0.391824  0.250000  1
  Si  Si11  1  0.001956  0.608176  0.250000  1
  Si  Si12  1  0.998865  0.394465  0.750000  1
  Si  Si13  1  0.604400  0.605535  0.750000  1
  Si  Si14  1  0.605751  0.000000  0.250000  1
  Sb  Sb15  1  0.394097  0.000000  0.750000  1
