# generated using pymatgen
data_Tm6Lu2Sc11Si16Rh
_symmetry_space_group_name_H-M   'P 1'
_cell_length_a   6.94022621
_cell_length_b   7.36127056
_cell_length_c   13.82485146
_cell_angle_alpha   89.97495460
_cell_angle_beta   89.98396596
_cell_angle_gamma   89.88747042
_symmetry_Int_Tables_number   1
_chemical_formula_structural   Tm6Lu2Sc11Si16Rh
_chemical_formula_sum   'Tm6 Lu2 Sc11 Si16 Rh1'
_cell_volume   706.29476067
_cell_formula_units_Z   1
loop_
 _symmetry_equiv_pos_site_id
 _symmetry_equiv_pos_as_xyz
  1  'x, y, z'
loop_
 _atom_site_type_symbol
 _atom_site_label
 _atom_site_symmetry_multiplicity
 _atom_site_fract_x
 _atom_site_fract_y
 _atom_site_fract_z
 _atom_site_occupancy
  Tm  Tm0  1  0.489248  0.674862  0.903273  1
  Tm  Tm1  1  0.990663  0.814359  0.597401  1
  Tm  Tm2  1  0.510203  0.321664  0.093872  1
  Tm  Tm3  1  0.012260  0.179357  0.406759  1
  Tm  Tm4  1  0.510132  0.321844  0.405956  1
  Tm  Tm5  1  0.489297  0.674841  0.596888  1
  Lu  Lu6  1  0.012324  0.179633  0.093401  1
  Lu  Lu7  1  0.990585  0.813819  0.902303  1
  Sc  Sc8  1  0.840679  0.495824  0.249838  1
  Sc  Sc9  1  0.342192  0.005333  0.249892  1
  Sc  Sc10  1  0.653116  0.996718  0.750100  1
  Sc  Sc11  1  0.321293  0.176665  0.628347  1
  Sc  Sc12  1  0.672639  0.825204  0.374294  1
  Sc  Sc13  1  0.173346  0.673600  0.376000  1
  Sc  Sc14  1  0.672645  0.825328  0.125521  1
  Sc  Sc15  1  0.831070  0.328482  0.629720  1
  Sc  Sc16  1  0.321153  0.176627  0.871868  1
  Sc  Sc17  1  0.831252  0.328309  0.870428  1
  Sc  Sc18  1  0.173165  0.673904  0.123826  1
  Si  Si19  1  0.023454  0.093107  0.750284  1
  Si  Si20  1  0.973460  0.890037  0.249823  1
  Si  Si21  1  0.469783  0.612419  0.249956  1
  Si  Si22  1  0.516965  0.396634  0.750060  1
  Si  Si23  1  0.282301  0.861417  0.750232  1
  Si  Si24  1  0.716897  0.132456  0.249754  1
  Si  Si25  1  0.214974  0.369179  0.249791  1
  Si  Si26  1  0.792472  0.630440  0.750236  1
  Si  Si27  1  0.161271  0.464286  0.542426  1
  Si  Si28  1  0.841905  0.534680  0.463711  1
  Si  Si29  1  0.343475  0.964979  0.463203  1
  Si  Si30  1  0.842159  0.534687  0.036259  1
  Si  Si31  1  0.659604  0.034612  0.540172  1
  Si  Si32  1  0.161004  0.464452  0.957550  1
  Si  Si33  1  0.660311  0.034328  0.959776  1
  Si  Si34  1  0.342791  0.965288  0.036858  1
  Rh  Rh35  1  0.159912  0.530628  0.750221  1
