# generated using pymatgen
data_Er8ReTc(RuC4)2
_symmetry_space_group_name_H-M   'P 1'
_cell_length_a   5.04852000
_cell_length_b   6.48340024
_cell_length_c   9.74631978
_cell_angle_alpha   90.17871993
_cell_angle_beta   90.00000000
_cell_angle_gamma   90.00000000
_symmetry_Int_Tables_number   1
_chemical_formula_structural   Er8ReTc(RuC4)2
_chemical_formula_sum   'Er8 Re1 Tc1 Ru2 C8'
_cell_volume   319.01085231
_cell_formula_units_Z   1
loop_
 _symmetry_equiv_pos_site_id
 _symmetry_equiv_pos_as_xyz
  1  'x, y, z'
loop_
 _atom_site_type_symbol
 _atom_site_label
 _atom_site_symmetry_multiplicity
 _atom_site_fract_x
 _atom_site_fract_y
 _atom_site_fract_z
 _atom_site_occupancy
  Er  Er0  1  0.750000  0.530987  0.782466  1
  Er  Er1  1  0.250000  0.968501  0.285275  1
  Er  Er2  1  0.750000  0.673654  0.444313  1
  Er  Er3  1  0.250000  0.821988  0.943202  1
  Er  Er4  1  0.750000  0.179390  0.057673  1
  Er  Er5  1  0.250000  0.325936  0.556175  1
  Er  Er6  1  0.250000  0.467992  0.218230  1
  Er  Er7  1  0.750000  0.030563  0.714519  1
  Re  Re8  1  0.750000  0.717338  0.132351  1
  Tc  Tc9  1  0.250000  0.282853  0.867394  1
  Ru  Ru10  1  0.250000  0.782712  0.633263  1
  Ru  Ru11  1  0.750000  0.218042  0.367363  1
  C  C12  1  0.250000  0.673309  0.446775  1
  C  C13  1  0.250000  0.548237  0.759323  1
  C  C14  1  0.750000  0.452948  0.239686  1
  C  C15  1  0.750000  0.823711  0.945931  1
  C  C16  1  0.250000  0.048883  0.742833  1
  C  C17  1  0.250000  0.175461  0.053000  1
  C  C18  1  0.750000  0.326171  0.553508  1
  C  C19  1  0.750000  0.951321  0.256721  1
