# generated using pymatgen
data_TbTm19(Ir2Os)4
_symmetry_space_group_name_H-M   'P 1'
_cell_length_a   10.75960391
_cell_length_b   10.72853600
_cell_length_c   6.34976100
_cell_angle_alpha   90.19787137
_cell_angle_beta   89.80563944
_cell_angle_gamma   90.07898393
_symmetry_Int_Tables_number   1
_chemical_formula_structural   TbTm19(Ir2Os)4
_chemical_formula_sum   'Tb1 Tm19 Ir8 Os4'
_cell_volume   732.97410446
_cell_formula_units_Z   1
loop_
 _symmetry_equiv_pos_site_id
 _symmetry_equiv_pos_as_xyz
  1  'x, y, z'
loop_
 _atom_site_type_symbol
 _atom_site_label
 _atom_site_symmetry_multiplicity
 _atom_site_fract_x
 _atom_site_fract_y
 _atom_site_fract_z
 _atom_site_occupancy
  Tb  Tb0  1  0.292509  0.086574  0.375015  1
  Tm  Tm1  1  0.294303  0.912915  0.876250  1
  Tm  Tm2  1  0.706646  0.085694  0.876948  1
  Tm  Tm3  1  0.706111  0.913522  0.376199  1
  Tm  Tm4  1  0.586086  0.793563  0.876283  1
  Tm  Tm5  1  0.588343  0.206095  0.376840  1
  Tm  Tm6  1  0.415100  0.792151  0.375961  1
  Tm  Tm7  1  0.415214  0.206517  0.876238  1
  Tm  Tm8  1  0.206081  0.414451  0.623196  1
  Tm  Tm9  1  0.205812  0.585890  0.123253  1
  Tm  Tm10  1  0.793593  0.414916  0.123087  1
  Tm  Tm11  1  0.793638  0.586137  0.623416  1
  Tm  Tm12  1  0.914446  0.706624  0.124158  1
  Tm  Tm13  1  0.914034  0.293839  0.622564  1
  Tm  Tm14  1  0.085631  0.706460  0.623943  1
  Tm  Tm15  1  0.084547  0.294797  0.121771  1
  Tm  Tm16  1  0.998106  0.999395  0.500790  1
  Tm  Tm17  1  0.000226  0.999672  0.000408  1
  Tm  Tm18  1  0.499957  0.500614  0.001186  1
  Tm  Tm19  1  0.500737  0.499195  0.501376  1
  Ir  Ir20  1  0.847821  0.152568  0.249578  1
  Ir  Ir21  1  0.847041  0.847527  0.750982  1
  Ir  Ir22  1  0.151186  0.152845  0.752821  1
  Ir  Ir23  1  0.151457  0.846317  0.249656  1
  Ir  Ir24  1  0.652629  0.347545  0.750827  1
  Ir  Ir25  1  0.652354  0.652369  0.250533  1
  Ir  Ir26  1  0.347362  0.349753  0.248617  1
  Ir  Ir27  1  0.347834  0.652125  0.750372  1
  Os  Os28  1  0.500891  0.999515  0.122437  1
  Os  Os29  1  0.500918  0.999522  0.623729  1
  Os  Os30  1  0.999656  0.500439  0.875412  1
  Os  Os31  1  0.999729  0.500458  0.376152  1
