# generated using pymatgen
data_TbYLuGa5
_symmetry_space_group_name_H-M   'P 1'
_cell_length_a   6.06983500
_cell_length_b   9.59178000
_cell_length_c   11.57347400
_cell_angle_alpha   90.00000000
_cell_angle_beta   90.00000000
_cell_angle_gamma   90.00000000
_symmetry_Int_Tables_number   1
_chemical_formula_structural   TbYLuGa5
_chemical_formula_sum   'Tb4 Y4 Lu4 Ga20'
_cell_volume   673.81369713
_cell_formula_units_Z   4
loop_
 _symmetry_equiv_pos_site_id
 _symmetry_equiv_pos_as_xyz
  1  'x, y, z'
loop_
 _atom_site_type_symbol
 _atom_site_label
 _atom_site_symmetry_multiplicity
 _atom_site_fract_x
 _atom_site_fract_y
 _atom_site_fract_z
 _atom_site_occupancy
  Tb  Tb0  1  0.889951  0.506766  0.350858  1
  Tb  Tb1  1  0.610049  0.993234  0.850858  1
  Tb  Tb2  1  0.110049  0.006766  0.649142  1
  Tb  Tb3  1  0.389951  0.493234  0.149142  1
  Y  Y4  1  0.110046  0.493295  0.649288  1
  Y  Y5  1  0.389954  0.006705  0.149288  1
  Y  Y6  1  0.889954  0.993295  0.350712  1
  Y  Y7  1  0.610046  0.506705  0.850712  1
  Lu  Lu8  1  0.850556  0.749934  0.075205  1
  Lu  Lu9  1  0.649444  0.750066  0.575205  1
  Lu  Lu10  1  0.149444  0.249934  0.924795  1
  Lu  Lu11  1  0.350556  0.250066  0.424795  1
  Ga  Ga12  1  0.875570  0.053542  0.089000  1
  Ga  Ga13  1  0.624430  0.446458  0.589000  1
  Ga  Ga14  1  0.124430  0.553542  0.911000  1
  Ga  Ga15  1  0.375570  0.946458  0.411000  1
  Ga  Ga16  1  0.124310  0.946396  0.911011  1
  Ga  Ga17  1  0.375690  0.553604  0.411011  1
  Ga  Ga18  1  0.875690  0.446396  0.088989  1
  Ga  Ga19  1  0.624310  0.053604  0.588989  1
  Ga  Ga20  1  0.167042  0.750019  0.254850  1
  Ga  Ga21  1  0.332958  0.749981  0.754850  1
  Ga  Ga22  1  0.832958  0.250019  0.745150  1
  Ga  Ga23  1  0.667042  0.249981  0.245150  1
  Ga  Ga24  1  0.380144  0.750019  0.001774  1
  Ga  Ga25  1  0.119856  0.749981  0.501774  1
  Ga  Ga26  1  0.619856  0.250019  0.998226  1
  Ga  Ga27  1  0.880144  0.249981  0.498226  1
  Ga  Ga28  1  0.602880  0.750006  0.298874  1
  Ga  Ga29  1  0.897120  0.749994  0.798874  1
  Ga  Ga30  1  0.397120  0.250006  0.701126  1
  Ga  Ga31  1  0.102880  0.249994  0.201126  1
