# generated using pymatgen
data_TbEr(CuSi)2
_symmetry_space_group_name_H-M   'P 1'
_cell_length_a   4.15828000
_cell_length_b   4.15828027
_cell_length_c   7.43736500
_cell_angle_alpha   90.00000000
_cell_angle_beta   90.00000000
_cell_angle_gamma   119.99998198
_symmetry_Int_Tables_number   1
_chemical_formula_structural   TbEr(CuSi)2
_chemical_formula_sum   'Tb1 Er1 Cu2 Si2'
_cell_volume   111.37232674
_cell_formula_units_Z   1
loop_
 _symmetry_equiv_pos_site_id
 _symmetry_equiv_pos_as_xyz
  1  'x, y, z'
loop_
 _atom_site_type_symbol
 _atom_site_label
 _atom_site_symmetry_multiplicity
 _atom_site_fract_x
 _atom_site_fract_y
 _atom_site_fract_z
 _atom_site_occupancy
  Tb  Tb0  1  0.000000  0.000000  0.500000  1
  Er  Er1  1  0.000000  0.000000  0.000000  1
  Cu  Cu2  1  0.333333  0.666667  0.247421  1
  Cu  Cu3  1  0.666667  0.333333  0.752579  1
  Si  Si4  1  0.666667  0.333333  0.246768  1
  Si  Si5  1  0.333333  0.666667  0.753232  1
