# generated using pymatgen
data_NdEr(Tc2P)4
_symmetry_space_group_name_H-M   'P 1'
_cell_length_a   7.44699452
_cell_length_b   7.44699452
_cell_length_c   3.95708100
_cell_angle_alpha   90.00000000
_cell_angle_beta   90.00000000
_cell_angle_gamma   89.25467974
_symmetry_Int_Tables_number   1
_chemical_formula_structural   NdEr(Tc2P)4
_chemical_formula_sum   'Nd1 Er1 Tc8 P4'
_cell_volume   219.43215221
_cell_formula_units_Z   1
loop_
 _symmetry_equiv_pos_site_id
 _symmetry_equiv_pos_as_xyz
  1  'x, y, z'
loop_
 _atom_site_type_symbol
 _atom_site_label
 _atom_site_symmetry_multiplicity
 _atom_site_fract_x
 _atom_site_fract_y
 _atom_site_fract_z
 _atom_site_occupancy
  Nd  Nd0  1  0.500000  0.500000  0.000000  1
  Er  Er1  1  0.000000  0.000000  0.500000  1
  Tc  Tc2  1  0.584200  0.157400  0.500000  1
  Tc  Tc3  1  0.415800  0.842600  0.500000  1
  Tc  Tc4  1  0.080577  0.337656  0.000000  1
  Tc  Tc5  1  0.919423  0.662344  0.000000  1
  Tc  Tc6  1  0.157400  0.584200  0.500000  1
  Tc  Tc7  1  0.842600  0.415800  0.500000  1
  Tc  Tc8  1  0.337656  0.080577  0.000000  1
  Tc  Tc9  1  0.662344  0.919423  0.000000  1
  P  P10  1  0.715982  0.715982  0.500000  1
  P  P11  1  0.284018  0.284018  0.500000  1
  P  P12  1  0.209104  0.790896  0.000000  1
  P  P13  1  0.790896  0.209104  0.000000  1
