# generated using pymatgen
data_NdLu2Ga2Co9B4
_symmetry_space_group_name_H-M   'P 1'
_cell_length_a   5.13600600
_cell_length_b   5.13564293
_cell_length_c   9.56144200
_cell_angle_alpha   89.99977917
_cell_angle_beta   90.00044163
_cell_angle_gamma   120.00232578
_symmetry_Int_Tables_number   1
_chemical_formula_structural   NdLu2Ga2Co9B4
_chemical_formula_sum   'Nd1 Lu2 Ga2 Co9 B4'
_cell_volume   218.40581169
_cell_formula_units_Z   1
loop_
 _symmetry_equiv_pos_site_id
 _symmetry_equiv_pos_as_xyz
  1  'x, y, z'
loop_
 _atom_site_type_symbol
 _atom_site_label
 _atom_site_symmetry_multiplicity
 _atom_site_fract_x
 _atom_site_fract_y
 _atom_site_fract_z
 _atom_site_occupancy
  Nd  Nd0  1  0.000009  0.000000  0.999986  1
  Lu  Lu1  1  0.999992  0.000000  0.341521  1
  Lu  Lu2  1  0.999983  0.000000  0.658488  1
  Ga  Ga3  1  0.333337  0.666681  0.999987  1
  Ga  Ga4  1  0.666655  0.333319  0.999987  1
  Co  Co5  1  0.499993  0.000000  0.500016  1
  Co  Co6  1  0.499994  0.499998  0.500016  1
  Co  Co7  1  0.999996  0.500002  0.500016  1
  Co  Co8  1  0.499991  0.000000  0.209952  1
  Co  Co9  1  0.499988  0.499999  0.209941  1
  Co  Co10  1  0.999989  0.500001  0.209941  1
  Co  Co11  1  0.499995  0.000000  0.790043  1
  Co  Co12  1  0.499996  0.499996  0.790047  1
  Co  Co13  1  0.000000  0.500004  0.790047  1
  B  B14  1  0.333331  0.666680  0.350510  1
  B  B15  1  0.666651  0.333320  0.350510  1
  B  B16  1  0.666659  0.333318  0.649496  1
  B  B17  1  0.333340  0.666682  0.649496  1
