# generated using pymatgen
data_Tb5CuSe4
_symmetry_space_group_name_H-M   'P 1'
_cell_length_a   7.07544032
_cell_length_b   7.07544684
_cell_length_c   7.07546680
_cell_angle_alpha   99.72421555
_cell_angle_beta   99.72424710
_cell_angle_gamma   131.46714287
_symmetry_Int_Tables_number   1
_chemical_formula_structural   Tb5CuSe4
_chemical_formula_sum   'Tb5 Cu1 Se4'
_cell_volume   241.97106301
_cell_formula_units_Z   1
loop_
 _symmetry_equiv_pos_site_id
 _symmetry_equiv_pos_as_xyz
  1  'x, y, z'
loop_
 _atom_site_type_symbol
 _atom_site_label
 _atom_site_symmetry_multiplicity
 _atom_site_fract_x
 _atom_site_fract_y
 _atom_site_fract_z
 _atom_site_occupancy
  Tb  Tb0  1  0.401061  0.791762  0.192826  1
  Tb  Tb1  1  0.000000  0.000000  0.000000  1
  Tb  Tb2  1  0.598939  0.208238  0.807174  1
  Tb  Tb3  1  0.208237  0.401061  0.609297  1
  Tb  Tb4  1  0.791763  0.598939  0.390703  1
  Cu  Cu5  1  0.500000  0.500000  0.000000  1
  Se  Se6  1  0.095016  0.696422  0.791437  1
  Se  Se7  1  0.696417  0.904991  0.601409  1
  Se  Se8  1  0.303583  0.095009  0.398591  1
  Se  Se9  1  0.904984  0.303578  0.208563  1
