# generated using pymatgen
data_CsSb12(OsRh)2
_symmetry_space_group_name_H-M   'P 1'
_cell_length_a   8.20015543
_cell_length_b   8.19141853
_cell_length_c   8.19141880
_cell_angle_alpha   109.37904319
_cell_angle_beta   109.41732000
_cell_angle_gamma   109.57410411
_symmetry_Int_Tables_number   1
_chemical_formula_structural   CsSb12(OsRh)2
_chemical_formula_sum   'Cs1 Sb12 Os2 Rh2'
_cell_volume   423.78802140
_cell_formula_units_Z   1
loop_
 _symmetry_equiv_pos_site_id
 _symmetry_equiv_pos_as_xyz
  1  'x, y, z'
loop_
 _atom_site_type_symbol
 _atom_site_label
 _atom_site_symmetry_multiplicity
 _atom_site_fract_x
 _atom_site_fract_y
 _atom_site_fract_z
 _atom_site_occupancy
  Cs  Cs0  1  0.000000  0.000000  0.000000  1
  Sb  Sb1  1  0.345562  0.186757  0.843161  1
  Sb  Sb2  1  0.654438  0.813243  0.156839  1
  Sb  Sb3  1  0.654438  0.497598  0.841195  1
  Sb  Sb4  1  0.345562  0.502402  0.158805  1
  Sb  Sb5  1  0.188740  0.842627  0.346113  1
  Sb  Sb6  1  0.811260  0.157373  0.653887  1
  Sb  Sb7  1  0.498671  0.841093  0.657579  1
  Sb  Sb8  1  0.501329  0.158907  0.342421  1
  Sb  Sb9  1  0.840494  0.343289  0.186271  1
  Sb  Sb10  1  0.159506  0.656711  0.813729  1
  Sb  Sb11  1  0.840494  0.654222  0.497204  1
  Sb  Sb12  1  0.159506  0.345778  0.502796  1
  Os  Os13  1  0.500000  0.000000  0.000000  1
  Os  Os14  1  0.500000  0.500000  0.500000  1
  Rh  Rh15  1  0.000000  0.000000  0.500000  1
  Rh  Rh16  1  0.000000  0.500000  0.000000  1
