# generated using pymatgen
data_Zn3FeSb(PN2)6
_symmetry_space_group_name_H-M   'P 1'
_cell_length_a   7.25707932
_cell_length_b   7.24291855
_cell_length_c   7.25707901
_cell_angle_alpha   109.43168253
_cell_angle_beta   109.51071059
_cell_angle_gamma   109.43171812
_symmetry_Int_Tables_number   1
_chemical_formula_structural   Zn3FeSb(PN2)6
_chemical_formula_sum   'Zn3 Fe1 Sb1 P6 N12'
_cell_volume   293.78324723
_cell_formula_units_Z   1
loop_
 _symmetry_equiv_pos_site_id
 _symmetry_equiv_pos_as_xyz
  1  'x, y, z'
loop_
 _atom_site_type_symbol
 _atom_site_label
 _atom_site_symmetry_multiplicity
 _atom_site_fract_x
 _atom_site_fract_y
 _atom_site_fract_z
 _atom_site_occupancy
  Zn  Zn0  1  0.650422  0.649840  0.650422  1
  Zn  Zn1  1  0.349578  0.999418  0.000000  1
  Zn  Zn2  1  0.000000  0.999418  0.349578  1
  Fe  Fe3  1  0.000000  0.370612  0.000000  1
  Sb  Sb4  1  0.000000  0.012388  0.000000  1
  P  P5  1  0.750034  0.248155  0.498357  1
  P  P6  1  0.251677  0.749798  0.501643  1
  P  P7  1  0.501643  0.749798  0.251677  1
  P  P8  1  0.498357  0.248155  0.750034  1
  P  P9  1  0.748323  0.498121  0.249966  1
  P  P10  1  0.249966  0.498121  0.748323  1
  N  N11  1  0.565386  0.273036  0.000000  1
  N  N12  1  0.439399  0.437995  0.715778  1
  N  N13  1  0.000000  0.273036  0.565386  1
  N  N14  1  0.276379  0.998595  0.560601  1
  N  N15  1  0.715778  0.437995  0.439399  1
  N  N16  1  0.000000  0.560228  0.275844  1
  N  N17  1  0.560601  0.998595  0.276379  1
  N  N18  1  0.434614  0.707652  0.434614  1
  N  N19  1  0.275844  0.560228  0.000000  1
  N  N20  1  0.724156  0.284384  0.724156  1
  N  N21  1  0.723621  0.722216  0.284222  1
  N  N22  1  0.284222  0.722216  0.723621  1
