# generated using pymatgen
data_Dy4CdSnAu4
_symmetry_space_group_name_H-M   'P 1'
_cell_length_a   8.01806300
_cell_length_b   8.01806300
_cell_length_c   7.35882800
_cell_angle_alpha   90.00000000
_cell_angle_beta   90.00000000
_cell_angle_gamma   90.00000000
_symmetry_Int_Tables_number   1
_chemical_formula_structural   Dy4CdSnAu4
_chemical_formula_sum   'Dy8 Cd2 Sn2 Au8'
_cell_volume   473.09415314
_cell_formula_units_Z   2
loop_
 _symmetry_equiv_pos_site_id
 _symmetry_equiv_pos_as_xyz
  1  'x, y, z'
loop_
 _atom_site_type_symbol
 _atom_site_label
 _atom_site_symmetry_multiplicity
 _atom_site_fract_x
 _atom_site_fract_y
 _atom_site_fract_z
 _atom_site_occupancy
  Dy  Dy0  1  0.841253  0.158747  0.500000  1
  Dy  Dy1  1  0.158747  0.841253  0.500000  1
  Dy  Dy2  1  0.341253  0.341253  0.000000  1
  Dy  Dy3  1  0.658747  0.658747  0.000000  1
  Dy  Dy4  1  0.683023  0.683023  0.500000  1
  Dy  Dy5  1  0.316977  0.316977  0.500000  1
  Dy  Dy6  1  0.183023  0.816977  0.000000  1
  Dy  Dy7  1  0.816977  0.183023  0.000000  1
  Cd  Cd8  1  0.500000  0.000000  0.250000  1
  Cd  Cd9  1  0.000000  0.500000  0.750000  1
  Sn  Sn10  1  0.500000  0.000000  0.750000  1
  Sn  Sn11  1  0.000000  0.500000  0.250000  1
  Au  Au12  1  0.625081  0.368720  0.274192  1
  Au  Au13  1  0.374919  0.631280  0.274192  1
  Au  Au14  1  0.125081  0.131280  0.774192  1
  Au  Au15  1  0.874919  0.868720  0.774192  1
  Au  Au16  1  0.368720  0.625081  0.725808  1
  Au  Au17  1  0.631280  0.374919  0.725808  1
  Au  Au18  1  0.868720  0.874919  0.225808  1
  Au  Au19  1  0.131280  0.125081  0.225808  1
