# generated using pymatgen
data_AcH2ClO2
_symmetry_space_group_name_H-M   'P 1'
_cell_length_a   6.62951829
_cell_length_b   4.15510300
_cell_length_c   7.10305126
_cell_angle_alpha   90.00000000
_cell_angle_beta   113.36438593
_cell_angle_gamma   90.00000000
_symmetry_Int_Tables_number   1
_chemical_formula_structural   AcH2ClO2
_chemical_formula_sum   'Ac2 H4 Cl2 O4'
_cell_volume   179.61889336
_cell_formula_units_Z   2
loop_
 _symmetry_equiv_pos_site_id
 _symmetry_equiv_pos_as_xyz
  1  'x, y, z'
loop_
 _atom_site_type_symbol
 _atom_site_label
 _atom_site_symmetry_multiplicity
 _atom_site_fract_x
 _atom_site_fract_y
 _atom_site_fract_z
 _atom_site_occupancy
  Ac  Ac0  1  0.311685  0.250001  0.135245  1
  Ac  Ac1  1  0.688315  0.750001  0.864755  1
  H  H2  1  0.889107  0.250001  0.214259  1
  H  H3  1  0.688235  0.750001  0.303714  1
  H  H4  1  0.311764  0.250001  0.696286  1
  H  H5  1  0.110893  0.750001  0.785741  1
  Cl  Cl6  1  0.250253  0.750001  0.444773  1
  Cl  Cl7  1  0.749746  0.250001  0.555227  1
  O  O8  1  0.899175  0.250001  0.080845  1
  O  O9  1  0.572055  0.750001  0.165758  1
  O  O10  1  0.427944  0.250001  0.834242  1
  O  O11  1  0.100825  0.750001  0.919154  1
