# generated using pymatgen
data_La2Al20Re2RuRh
_symmetry_space_group_name_H-M   'P 1'
_cell_length_a   6.94517089
_cell_length_b   6.94039779
_cell_length_c   9.27817796
_cell_angle_alpha   89.50061624
_cell_angle_beta   89.56784929
_cell_angle_gamma   96.78921536
_symmetry_Int_Tables_number   1
_chemical_formula_structural   La2Al20Re2RuRh
_chemical_formula_sum   'La2 Al20 Re2 Ru1 Rh1'
_cell_volume   444.05955321
_cell_formula_units_Z   1
loop_
 _symmetry_equiv_pos_site_id
 _symmetry_equiv_pos_as_xyz
  1  'x, y, z'
loop_
 _atom_site_type_symbol
 _atom_site_label
 _atom_site_symmetry_multiplicity
 _atom_site_fract_x
 _atom_site_fract_y
 _atom_site_fract_z
 _atom_site_occupancy
  La  La0  1  0.874810  0.122618  0.749283  1
  La  La1  1  0.125190  0.877382  0.250717  1
  Al  Al2  1  0.622165  0.378296  0.545379  1
  Al  Al3  1  0.377835  0.621704  0.454621  1
  Al  Al4  1  0.381018  0.622783  0.046923  1
  Al  Al5  1  0.618982  0.377217  0.953077  1
  Al  Al6  1  0.227171  0.225169  0.498488  1
  Al  Al7  1  0.772829  0.774831  0.501512  1
  Al  Al8  1  0.773134  0.773221  0.000052  1
  Al  Al9  1  0.226866  0.226779  0.999948  1
  Al  Al10  1  0.837819  0.159775  0.102266  1
  Al  Al11  1  0.162181  0.840225  0.897734  1
  Al  Al12  1  0.159890  0.838628  0.600428  1
  Al  Al13  1  0.840110  0.161372  0.399572  1
  Al  Al14  1  0.860706  0.593163  0.749844  1
  Al  Al15  1  0.139294  0.406837  0.250156  1
  Al  Al16  1  0.407174  0.138575  0.748943  1
  Al  Al17  1  0.592826  0.861425  0.251057  1
  Al  Al18  1  0.221254  0.479715  0.744885  1
  Al  Al19  1  0.778746  0.520285  0.255115  1
  Al  Al20  1  0.519669  0.779755  0.752670  1
  Al  Al21  1  0.480331  0.220245  0.247330  1
  Re  Re22  1  0.000000  0.500000  0.500000  1
  Re  Re23  1  0.500000  0.000000  0.000000  1
  Ru  Ru24  1  0.500000  0.000000  0.500000  1
  Rh  Rh25  1  0.000000  0.500000  0.000000  1
