# generated using pymatgen
data_HoLuB6Ir
_symmetry_space_group_name_H-M   'P 1'
_cell_length_a   3.60607700
_cell_length_b   9.10494400
_cell_length_c   11.46022900
_cell_angle_alpha   90.00000000
_cell_angle_beta   90.00000000
_cell_angle_gamma   90.00000000
_symmetry_Int_Tables_number   1
_chemical_formula_structural   HoLuB6Ir
_chemical_formula_sum   'Ho4 Lu4 B24 Ir4'
_cell_volume   376.27517878
_cell_formula_units_Z   4
loop_
 _symmetry_equiv_pos_site_id
 _symmetry_equiv_pos_as_xyz
  1  'x, y, z'
loop_
 _atom_site_type_symbol
 _atom_site_label
 _atom_site_symmetry_multiplicity
 _atom_site_fract_x
 _atom_site_fract_y
 _atom_site_fract_z
 _atom_site_occupancy
  Ho  Ho0  1  0.000000  0.320759  0.413605  1
  Ho  Ho1  1  0.000000  0.679241  0.586395  1
  Ho  Ho2  1  0.000000  0.820759  0.086395  1
  Ho  Ho3  1  0.000000  0.179241  0.913605  1
  Lu  Lu4  1  0.000000  0.944232  0.374345  1
  Lu  Lu5  1  0.000000  0.055768  0.625655  1
  Lu  Lu6  1  0.000000  0.444232  0.125655  1
  Lu  Lu7  1  0.000000  0.555768  0.874345  1
  B  B8  1  0.500000  0.553608  0.434060  1
  B  B9  1  0.500000  0.446392  0.565940  1
  B  B10  1  0.500000  0.053608  0.065940  1
  B  B11  1  0.500000  0.946392  0.934060  1
  B  B12  1  0.500000  0.751009  0.420609  1
  B  B13  1  0.500000  0.248991  0.579391  1
  B  B14  1  0.500000  0.251009  0.079391  1
  B  B15  1  0.500000  0.748991  0.920609  1
  B  B16  1  0.500000  0.793737  0.265107  1
  B  B17  1  0.500000  0.206263  0.734892  1
  B  B18  1  0.500000  0.293737  0.234893  1
  B  B19  1  0.500000  0.706263  0.765108  1
  B  B20  1  0.500000  0.631033  0.183332  1
  B  B21  1  0.500000  0.368967  0.816668  1
  B  B22  1  0.500000  0.131033  0.316668  1
  B  B23  1  0.500000  0.868967  0.683332  1
  B  B24  1  0.500000  0.981289  0.213784  1
  B  B25  1  0.500000  0.018711  0.786216  1
  B  B26  1  0.500000  0.481289  0.286216  1
  B  B27  1  0.500000  0.518711  0.713784  1
  B  B28  1  0.500000  0.605911  0.028915  1
  B  B29  1  0.500000  0.394089  0.971085  1
  B  B30  1  0.500000  0.105911  0.471085  1
  B  B31  1  0.500000  0.894089  0.528915  1
  Ir  Ir32  1  0.000000  0.638975  0.320531  1
  Ir  Ir33  1  0.000000  0.361025  0.679469  1
  Ir  Ir34  1  0.000000  0.138975  0.179469  1
  Ir  Ir35  1  0.000000  0.861025  0.820531  1
