# generated using pymatgen
data_Tb(Al3Pd)3
_symmetry_space_group_name_H-M   'P 1'
_cell_length_a   10.44695654
_cell_length_b   10.44695570
_cell_length_c   10.44695625
_cell_angle_alpha   42.23536169
_cell_angle_beta   42.23535802
_cell_angle_gamma   42.23536160
_symmetry_Int_Tables_number   1
_chemical_formula_structural   Tb(Al3Pd)3
_chemical_formula_sum   'Tb2 Al18 Pd6'
_cell_volume   466.21367897
_cell_formula_units_Z   2
loop_
 _symmetry_equiv_pos_site_id
 _symmetry_equiv_pos_as_xyz
  1  'x, y, z'
loop_
 _atom_site_type_symbol
 _atom_site_label
 _atom_site_symmetry_multiplicity
 _atom_site_fract_x
 _atom_site_fract_y
 _atom_site_fract_z
 _atom_site_occupancy
  Tb  Tb0  1  0.166870  0.166870  0.166870  1
  Tb  Tb1  1  0.833130  0.833130  0.833130  1
  Al  Al2  1  0.107013  0.434506  0.762548  1
  Al  Al3  1  0.434506  0.762548  0.107013  1
  Al  Al4  1  0.565494  0.892987  0.237452  1
  Al  Al5  1  0.949990  0.949990  0.949990  1
  Al  Al6  1  0.050010  0.050010  0.050010  1
  Al  Al7  1  0.296044  0.703956  0.500000  1
  Al  Al8  1  0.892987  0.237452  0.565494  1
  Al  Al9  1  0.384662  0.384662  0.384662  1
  Al  Al10  1  0.500000  0.296044  0.703956  1
  Al  Al11  1  0.237452  0.565494  0.892987  1
  Al  Al12  1  0.716284  0.716284  0.716284  1
  Al  Al13  1  0.615338  0.615338  0.615338  1
  Al  Al14  1  0.334480  0.000000  0.665520  1
  Al  Al15  1  0.703956  0.500000  0.296044  1
  Al  Al16  1  0.665520  0.334480  0.000000  1
  Al  Al17  1  0.283716  0.283716  0.283716  1
  Al  Al18  1  0.000000  0.665520  0.334480  1
  Al  Al19  1  0.762548  0.107013  0.434506  1
  Pd  Pd20  1  0.418641  0.077182  0.759876  1
  Pd  Pd21  1  0.581359  0.240124  0.922818  1
  Pd  Pd22  1  0.077182  0.759876  0.418641  1
  Pd  Pd23  1  0.759876  0.418641  0.077182  1
  Pd  Pd24  1  0.922818  0.581359  0.240124  1
  Pd  Pd25  1  0.240124  0.922818  0.581359  1
