# generated using pymatgen
data_La4PrNd3(TeO6)4
_symmetry_space_group_name_H-M   'P 1'
_cell_length_a   5.53537209
_cell_length_b   9.48702400
_cell_length_c   10.39983717
_cell_angle_alpha   89.99764350
_cell_angle_beta   89.97950539
_cell_angle_gamma   90.00193907
_symmetry_Int_Tables_number   1
_chemical_formula_structural   La4PrNd3(TeO6)4
_chemical_formula_sum   'La4 Pr1 Nd3 Te4 O24'
_cell_volume   546.13917526
_cell_formula_units_Z   1
loop_
 _symmetry_equiv_pos_site_id
 _symmetry_equiv_pos_as_xyz
  1  'x, y, z'
loop_
 _atom_site_type_symbol
 _atom_site_label
 _atom_site_symmetry_multiplicity
 _atom_site_fract_x
 _atom_site_fract_y
 _atom_site_fract_z
 _atom_site_occupancy
  La  La0  1  0.530257  0.218070  0.358558  1
  La  La1  1  0.030199  0.282063  0.641459  1
  La  La2  1  0.469589  0.717897  0.141688  1
  La  La3  1  0.969798  0.781743  0.858293  1
  Pr  Pr4  1  0.524391  0.104125  0.956631  1
  Nd  Nd5  1  0.023916  0.396860  0.043692  1
  Nd  Nd6  1  0.475786  0.603680  0.543497  1
  Nd  Nd7  1  0.975848  0.896290  0.456523  1
  Te  Te8  1  0.461453  0.994041  0.640295  1
  Te  Te9  1  0.961492  0.505767  0.359216  1
  Te  Te10  1  0.538374  0.494698  0.859045  1
  Te  Te11  1  0.038643  0.005415  0.141296  1
  O  O12  1  0.303546  0.138464  0.173455  1
  O  O13  1  0.803412  0.361254  0.827842  1
  O  O14  1  0.696155  0.638648  0.327716  1
  O  O15  1  0.196197  0.861207  0.672203  1
  O  O16  1  0.721725  0.109808  0.563172  1
  O  O17  1  0.221676  0.390264  0.436714  1
  O  O18  1  0.278203  0.610184  0.936538  1
  O  O19  1  0.778406  0.890062  0.063603  1
  O  O20  1  0.675503  0.635082  0.745143  1
  O  O21  1  0.175481  0.864760  0.255058  1
  O  O22  1  0.323820  0.135050  0.753677  1
  O  O23  1  0.824574  0.365007  0.245319  1
  O  O24  1  0.667183  0.947218  0.784353  1
  O  O25  1  0.166832  0.552126  0.214707  1
  O  O26  1  0.333166  0.447938  0.714690  1
  O  O27  1  0.832803  0.052013  0.285364  1
  O  O28  1  0.254644  0.081997  0.506657  1
  O  O29  1  0.754639  0.417915  0.493001  1
  O  O30  1  0.745303  0.582336  0.992868  1
  O  O31  1  0.244384  0.916730  0.007520  1
  O  O32  1  0.079496  0.652068  0.475448  1
  O  O33  1  0.579407  0.847773  0.524203  1
  O  O34  1  0.923705  0.152207  0.024676  1
  O  O35  1  0.419997  0.349237  0.975881  1
