# generated using pymatgen
data_ReTc5(HSe4)2
_symmetry_space_group_name_H-M   'P 1'
_cell_length_a   10.60068800
_cell_length_b   6.67054095
_cell_length_c   10.28822928
_cell_angle_alpha   70.46164907
_cell_angle_beta   90.00000000
_cell_angle_gamma   90.00000000
_symmetry_Int_Tables_number   1
_chemical_formula_structural   ReTc5(HSe4)2
_chemical_formula_sum   'Re2 Tc10 H4 Se16'
_cell_volume   685.61331438
_cell_formula_units_Z   2
loop_
 _symmetry_equiv_pos_site_id
 _symmetry_equiv_pos_as_xyz
  1  'x, y, z'
loop_
 _atom_site_type_symbol
 _atom_site_label
 _atom_site_symmetry_multiplicity
 _atom_site_fract_x
 _atom_site_fract_y
 _atom_site_fract_z
 _atom_site_occupancy
  Re  Re0  1  0.619976  0.997990  0.368194  1
  Re  Re1  1  0.880024  0.997990  0.868194  1
  Tc  Tc2  1  0.379127  0.002243  0.632622  1
  Tc  Tc3  1  0.120873  0.002243  0.132622  1
  Tc  Tc4  1  0.368666  0.990939  0.379546  1
  Tc  Tc5  1  0.131334  0.990939  0.879546  1
  Tc  Tc6  1  0.630800  0.009084  0.620818  1
  Tc  Tc7  1  0.869200  0.009084  0.120818  1
  Tc  Tc8  1  0.502809  0.702411  0.569094  1
  Tc  Tc9  1  0.997191  0.702411  0.069094  1
  Tc  Tc10  1  0.496866  0.297158  0.431466  1
  Tc  Tc11  1  0.003134  0.297158  0.931466  1
  H  H12  1  0.235015  0.989114  0.267520  1
  H  H13  1  0.264985  0.989114  0.767520  1
  H  H14  1  0.766861  0.010289  0.734097  1
  H  H15  1  0.733139  0.010289  0.234097  1
  Se  Se16  1  0.492710  0.717662  0.310402  1
  Se  Se17  1  0.007290  0.717662  0.810402  1
  Se  Se18  1  0.507170  0.282400  0.688478  1
  Se  Se19  1  0.992830  0.282400  0.188478  1
  Se  Se20  1  0.265949  0.711313  0.577391  1
  Se  Se21  1  0.234051  0.711313  0.077391  1
  Se  Se22  1  0.734996  0.289336  0.422033  1
  Se  Se23  1  0.765004  0.289336  0.922033  1
  Se  Se24  1  0.487985  0.269913  0.192069  1
  Se  Se25  1  0.012015  0.269913  0.692069  1
  Se  Se26  1  0.512154  0.730647  0.806615  1
  Se  Se27  1  0.987846  0.730647  0.306615  1
  Se  Se28  1  0.740858  0.723319  0.555059  1
  Se  Se29  1  0.759142  0.723319  0.055059  1
  Se  Se30  1  0.260098  0.276181  0.444597  1
  Se  Se31  1  0.239902  0.276181  0.944597  1
