# generated using pymatgen
data_Pr16HoEr3Sn16
_symmetry_space_group_name_H-M   'P 1'
_cell_length_a   8.28912800
_cell_length_b   8.45082788
_cell_length_c   16.04432800
_cell_angle_alpha   90.00000000
_cell_angle_beta   90.00000000
_cell_angle_gamma   90.02617042
_symmetry_Int_Tables_number   1
_chemical_formula_structural   Pr16HoEr3Sn16
_chemical_formula_sum   'Pr16 Ho1 Er3 Sn16'
_cell_volume   1123.90496315
_cell_formula_units_Z   1
loop_
 _symmetry_equiv_pos_site_id
 _symmetry_equiv_pos_as_xyz
  1  'x, y, z'
loop_
 _atom_site_type_symbol
 _atom_site_label
 _atom_site_symmetry_multiplicity
 _atom_site_fract_x
 _atom_site_fract_y
 _atom_site_fract_z
 _atom_site_occupancy
  Pr  Pr0  1  0.366800  0.837948  0.878198  1
  Pr  Pr1  1  0.866892  0.661412  0.620484  1
  Pr  Pr2  1  0.633337  0.162324  0.379287  1
  Pr  Pr3  1  0.132709  0.338174  0.120135  1
  Pr  Pr4  1  0.633337  0.162324  0.120713  1
  Pr  Pr5  1  0.132709  0.338174  0.379865  1
  Pr  Pr6  1  0.366800  0.837948  0.621802  1
  Pr  Pr7  1  0.866892  0.661412  0.879516  1
  Pr  Pr8  1  0.518278  0.318409  0.901259  1
  Pr  Pr9  1  0.018281  0.181391  0.599574  1
  Pr  Pr10  1  0.481689  0.681186  0.401549  1
  Pr  Pr11  1  0.981930  0.818549  0.098380  1
  Pr  Pr12  1  0.481689  0.681186  0.098451  1
  Pr  Pr13  1  0.981930  0.818549  0.401620  1
  Pr  Pr14  1  0.518278  0.318409  0.598741  1
  Pr  Pr15  1  0.018281  0.181391  0.900426  1
  Ho  Ho16  1  0.302232  0.001587  0.250000  1
  Er  Er17  1  0.198733  0.501670  0.750000  1
  Er  Er18  1  0.698331  0.997983  0.750000  1
  Er  Er19  1  0.801811  0.497659  0.250000  1
  Sn  Sn20  1  0.292756  0.035097  0.043696  1
  Sn  Sn21  1  0.792095  0.466457  0.454828  1
  Sn  Sn22  1  0.707258  0.965977  0.544806  1
  Sn  Sn23  1  0.208178  0.534132  0.954899  1
  Sn  Sn24  1  0.707258  0.965977  0.955194  1
  Sn  Sn25  1  0.208178  0.534132  0.545101  1
  Sn  Sn26  1  0.292756  0.035097  0.456304  1
  Sn  Sn27  1  0.792095  0.466457  0.045172  1
  Sn  Sn28  1  0.563667  0.615748  0.750000  1
  Sn  Sn29  1  0.062390  0.883377  0.750000  1
  Sn  Sn30  1  0.436819  0.383843  0.250000  1
  Sn  Sn31  1  0.937242  0.116600  0.250000  1
  Sn  Sn32  1  0.323182  0.147826  0.750000  1
  Sn  Sn33  1  0.822423  0.352673  0.750000  1
  Sn  Sn34  1  0.676735  0.852628  0.250000  1
  Sn  Sn35  1  0.176024  0.646293  0.250000  1
