# generated using pymatgen
data_La4Al11Ga3Cu2
_symmetry_space_group_name_H-M   'P 1'
_cell_length_a   6.11158499
_cell_length_b   6.11768730
_cell_length_c   11.65448392
_cell_angle_alpha   74.78387633
_cell_angle_beta   74.79943104
_cell_angle_gamma   89.99999427
_symmetry_Int_Tables_number   1
_chemical_formula_structural   La4Al11Ga3Cu2
_chemical_formula_sum   'La4 Al11 Ga3 Cu2'
_cell_volume   404.65045850
_cell_formula_units_Z   1
loop_
 _symmetry_equiv_pos_site_id
 _symmetry_equiv_pos_as_xyz
  1  'x, y, z'
loop_
 _atom_site_type_symbol
 _atom_site_label
 _atom_site_symmetry_multiplicity
 _atom_site_fract_x
 _atom_site_fract_y
 _atom_site_fract_z
 _atom_site_occupancy
  La  La0  1  0.998126  0.998126  0.003750  1
  La  La1  1  0.501736  0.501736  0.996528  1
  La  La2  1  0.751839  0.251839  0.496322  1
  La  La3  1  0.248473  0.748473  0.503055  1
  Al  Al4  1  0.199834  0.199834  0.600334  1
  Al  Al5  1  0.810405  0.810405  0.379191  1
  Al  Al6  1  0.611284  0.131317  0.250883  1
  Al  Al7  1  0.137832  0.617798  0.250883  1
  Al  Al8  1  0.611284  0.617798  0.250883  1
  Al  Al9  1  0.137832  0.131317  0.250883  1
  Al  Al10  1  0.869779  0.359053  0.754338  1
  Al  Al11  1  0.375883  0.886607  0.754338  1
  Al  Al12  1  0.869779  0.886607  0.754338  1
  Al  Al13  1  0.375883  0.359053  0.754338  1
  Al  Al14  1  0.691329  0.691329  0.617342  1
  Ga  Ga15  1  0.059360  0.559360  0.881280  1
  Ga  Ga16  1  0.449063  0.949063  0.101872  1
  Ga  Ga17  1  0.942583  0.442583  0.114834  1
  Cu  Cu18  1  0.311781  0.311781  0.376438  1
  Cu  Cu19  1  0.560746  0.060746  0.878507  1
