# generated using pymatgen
data_Pr20Co3Sn8Rh
_symmetry_space_group_name_H-M   'P 1'
_cell_length_a   8.22230021
_cell_length_b   9.23899400
_cell_length_c   12.80262130
_cell_angle_alpha   90.00000000
_cell_angle_beta   90.02534323
_cell_angle_gamma   90.00000000
_symmetry_Int_Tables_number   1
_chemical_formula_structural   Pr20Co3Sn8Rh
_chemical_formula_sum   'Pr20 Co3 Sn8 Rh1'
_cell_volume   972.56104744
_cell_formula_units_Z   1
loop_
 _symmetry_equiv_pos_site_id
 _symmetry_equiv_pos_as_xyz
  1  'x, y, z'
loop_
 _atom_site_type_symbol
 _atom_site_label
 _atom_site_symmetry_multiplicity
 _atom_site_fract_x
 _atom_site_fract_y
 _atom_site_fract_z
 _atom_site_occupancy
  Pr  Pr0  1  0.840953  0.750000  0.791382  1
  Pr  Pr1  1  0.158205  0.250000  0.207365  1
  Pr  Pr2  1  0.340458  0.250000  0.708049  1
  Pr  Pr3  1  0.660515  0.750000  0.286345  1
  Pr  Pr4  1  0.367398  0.750000  0.695755  1
  Pr  Pr5  1  0.633110  0.250000  0.305760  1
  Pr  Pr6  1  0.870688  0.250000  0.807125  1
  Pr  Pr7  1  0.131801  0.750000  0.194805  1
  Pr  Pr8  1  0.951669  0.750000  0.502163  1
  Pr  Pr9  1  0.049718  0.250000  0.497738  1
  Pr  Pr10  1  0.444695  0.250000  0.997175  1
  Pr  Pr11  1  0.549736  0.750000  0.000842  1
  Pr  Pr12  1  0.676564  0.037478  0.574436  1
  Pr  Pr13  1  0.324302  0.974087  0.427679  1
  Pr  Pr14  1  0.175591  0.969071  0.930452  1
  Pr  Pr15  1  0.324302  0.525913  0.427679  1
  Pr  Pr16  1  0.825094  0.027547  0.070158  1
  Pr  Pr17  1  0.676564  0.462522  0.574436  1
  Pr  Pr18  1  0.825094  0.472453  0.070158  1
  Pr  Pr19  1  0.175591  0.530929  0.930452  1
  Co  Co20  1  0.422182  0.250000  0.491063  1
  Co  Co21  1  0.075701  0.250000  0.992177  1
  Co  Co22  1  0.920975  0.750000  0.009303  1
  Sn  Sn23  1  0.564283  0.495274  0.827986  1
  Sn  Sn24  1  0.436679  0.504095  0.171521  1
  Sn  Sn25  1  0.064379  0.504135  0.671964  1
  Sn  Sn26  1  0.436679  0.995905  0.171521  1
  Sn  Sn27  1  0.935045  0.495323  0.328010  1
  Sn  Sn28  1  0.564283  0.004726  0.827986  1
  Sn  Sn29  1  0.935045  0.004677  0.328010  1
  Sn  Sn30  1  0.064379  0.995865  0.671964  1
  Rh  Rh31  1  0.578321  0.750000  0.508540  1
