# generated using pymatgen
data_UCrB6W
_symmetry_space_group_name_H-M   'P 1'
_cell_length_a   3.37125800
_cell_length_b   8.84917600
_cell_length_c   11.20485400
_cell_angle_alpha   90.00000000
_cell_angle_beta   90.00000000
_cell_angle_gamma   90.00000000
_symmetry_Int_Tables_number   1
_chemical_formula_structural   UCrB6W
_chemical_formula_sum   'U4 Cr4 B24 W4'
_cell_volume   334.27278897
_cell_formula_units_Z   4
loop_
 _symmetry_equiv_pos_site_id
 _symmetry_equiv_pos_as_xyz
  1  'x, y, z'
loop_
 _atom_site_type_symbol
 _atom_site_label
 _atom_site_symmetry_multiplicity
 _atom_site_fract_x
 _atom_site_fract_y
 _atom_site_fract_z
 _atom_site_occupancy
  U  U0  1  0.000000  0.821948  0.086840  1
  U  U1  1  0.000000  0.178052  0.913160  1
  U  U2  1  0.000000  0.321948  0.413160  1
  U  U3  1  0.000000  0.678052  0.586840  1
  Cr  Cr4  1  0.000000  0.141873  0.181115  1
  Cr  Cr5  1  0.000000  0.858127  0.818885  1
  Cr  Cr6  1  0.000000  0.641873  0.318885  1
  Cr  Cr7  1  0.000000  0.358127  0.681115  1
  B  B8  1  0.500000  0.053143  0.065653  1
  B  B9  1  0.500000  0.946857  0.934347  1
  B  B10  1  0.500000  0.553143  0.434347  1
  B  B11  1  0.500000  0.446857  0.565653  1
  B  B12  1  0.500000  0.253878  0.080452  1
  B  B13  1  0.500000  0.746122  0.919548  1
  B  B14  1  0.500000  0.753878  0.419548  1
  B  B15  1  0.500000  0.246122  0.580452  1
  B  B16  1  0.500000  0.296985  0.234858  1
  B  B17  1  0.500000  0.703015  0.765142  1
  B  B18  1  0.500000  0.796985  0.265142  1
  B  B19  1  0.500000  0.203015  0.734858  1
  B  B20  1  0.500000  0.129425  0.318152  1
  B  B21  1  0.500000  0.870575  0.681848  1
  B  B22  1  0.500000  0.629425  0.181848  1
  B  B23  1  0.500000  0.370575  0.818152  1
  B  B24  1  0.500000  0.480418  0.286150  1
  B  B25  1  0.500000  0.519582  0.713850  1
  B  B26  1  0.500000  0.980418  0.213850  1
  B  B27  1  0.500000  0.019582  0.786150  1
  B  B28  1  0.500000  0.099755  0.473316  1
  B  B29  1  0.500000  0.900245  0.526684  1
  B  B30  1  0.500000  0.599755  0.026684  1
  B  B31  1  0.500000  0.400245  0.973316  1
  W  W32  1  0.000000  0.444730  0.127419  1
  W  W33  1  0.000000  0.555270  0.872581  1
  W  W34  1  0.000000  0.944730  0.372581  1
  W  W35  1  0.000000  0.055270  0.627419  1
