# generated using pymatgen
data_Nb4InTc24
_symmetry_space_group_name_H-M   'P 1'
_cell_length_a   8.34782217
_cell_length_b   8.34782387
_cell_length_c   8.34782200
_cell_angle_alpha   109.47122095
_cell_angle_beta   109.47122508
_cell_angle_gamma   109.47122578
_symmetry_Int_Tables_number   1
_chemical_formula_structural   Nb4InTc24
_chemical_formula_sum   'Nb4 In1 Tc24'
_cell_volume   447.81403648
_cell_formula_units_Z   1
loop_
 _symmetry_equiv_pos_site_id
 _symmetry_equiv_pos_as_xyz
  1  'x, y, z'
loop_
 _atom_site_type_symbol
 _atom_site_label
 _atom_site_symmetry_multiplicity
 _atom_site_fract_x
 _atom_site_fract_y
 _atom_site_fract_z
 _atom_site_occupancy
  Nb  Nb0  1  0.630539  0.000000  0.000000  1
  Nb  Nb1  1  0.000000  0.630539  0.000000  1
  Nb  Nb2  1  0.000000  0.000000  0.630539  1
  Nb  Nb3  1  0.369461  0.369461  0.369461  1
  In  In4  1  0.000000  0.000000  0.000000  1
  Tc  Tc5  1  0.394942  0.678200  0.000000  1
  Tc  Tc6  1  0.716742  0.321800  0.321800  1
  Tc  Tc7  1  0.394942  0.000000  0.678200  1
  Tc  Tc8  1  0.678200  0.394942  0.000000  1
  Tc  Tc9  1  0.000000  0.394942  0.678200  1
  Tc  Tc10  1  0.321800  0.716742  0.321800  1
  Tc  Tc11  1  0.321800  0.321800  0.716742  1
  Tc  Tc12  1  0.000000  0.678200  0.394942  1
  Tc  Tc13  1  0.678200  0.000000  0.394942  1
  Tc  Tc14  1  0.605058  0.605058  0.283258  1
  Tc  Tc15  1  0.283258  0.605058  0.605058  1
  Tc  Tc16  1  0.605058  0.283258  0.605058  1
  Tc  Tc17  1  0.375836  0.195209  0.000000  1
  Tc  Tc18  1  0.180627  0.804791  0.804791  1
  Tc  Tc19  1  0.375836  0.000000  0.195209  1
  Tc  Tc20  1  0.195209  0.375836  0.000000  1
  Tc  Tc21  1  0.000000  0.375836  0.195209  1
  Tc  Tc22  1  0.804791  0.180627  0.804791  1
  Tc  Tc23  1  0.804791  0.804791  0.180627  1
  Tc  Tc24  1  0.000000  0.195209  0.375836  1
  Tc  Tc25  1  0.195209  0.000000  0.375836  1
  Tc  Tc26  1  0.624164  0.624164  0.819373  1
  Tc  Tc27  1  0.819373  0.624164  0.624164  1
  Tc  Tc28  1  0.624164  0.819373  0.624164  1
