# generated using pymatgen
data_Nd12AlSi7Ni4
_symmetry_space_group_name_H-M   'P 1'
_cell_length_a   4.24256700
_cell_length_b   11.72716682
_cell_length_c   11.75885201
_cell_angle_alpha   89.92072828
_cell_angle_beta   90.00000000
_cell_angle_gamma   90.00000000
_symmetry_Int_Tables_number   1
_chemical_formula_structural   Nd12AlSi7Ni4
_chemical_formula_sum   'Nd12 Al1 Si7 Ni4'
_cell_volume   585.04102519
_cell_formula_units_Z   1
loop_
 _symmetry_equiv_pos_site_id
 _symmetry_equiv_pos_as_xyz
  1  'x, y, z'
loop_
 _atom_site_type_symbol
 _atom_site_label
 _atom_site_symmetry_multiplicity
 _atom_site_fract_x
 _atom_site_fract_y
 _atom_site_fract_z
 _atom_site_occupancy
  Nd  Nd0  1  0.250000  0.374587  0.064190  1
  Nd  Nd1  1  0.750000  0.630474  0.950362  1
  Nd  Nd2  1  0.750000  0.876878  0.439718  1
  Nd  Nd3  1  0.250000  0.122730  0.558863  1
  Nd  Nd4  1  0.250000  0.696914  0.212726  1
  Nd  Nd5  1  0.750000  0.295583  0.784253  1
  Nd  Nd6  1  0.750000  0.195904  0.288563  1
  Nd  Nd7  1  0.250000  0.802304  0.712002  1
  Nd  Nd8  1  0.250000  0.441717  0.383694  1
  Nd  Nd9  1  0.750000  0.557132  0.608188  1
  Nd  Nd10  1  0.750000  0.942300  0.116342  1
  Nd  Nd11  1  0.250000  0.058943  0.883917  1
  Al  Al12  1  0.250000  0.494878  0.801628  1
  Si  Si13  1  0.250000  0.689021  0.469147  1
  Si  Si14  1  0.750000  0.310863  0.527048  1
  Si  Si15  1  0.750000  0.184881  0.030283  1
  Si  Si16  1  0.250000  0.816045  0.969795  1
  Si  Si17  1  0.250000  0.008879  0.300329  1
  Si  Si18  1  0.750000  0.990919  0.699510  1
  Si  Si19  1  0.750000  0.509662  0.201385  1
  Ni  Ni20  1  0.250000  0.133743  0.130058  1
  Ni  Ni21  1  0.750000  0.868181  0.870590  1
  Ni  Ni22  1  0.750000  0.635724  0.370775  1
  Ni  Ni23  1  0.250000  0.361736  0.626635  1
