# generated using pymatgen
data_Ba2YAlSe5
_symmetry_space_group_name_H-M   'P 1'
_cell_length_a   7.40816067
_cell_length_b   8.78695718
_cell_length_c   9.55387810
_cell_angle_alpha   103.54870254
_cell_angle_beta   102.87426613
_cell_angle_gamma   107.43032112
_symmetry_Int_Tables_number   1
_chemical_formula_structural   Ba2YAlSe5
_chemical_formula_sum   'Ba4 Y2 Al2 Se10'
_cell_volume   547.30757283
_cell_formula_units_Z   2
loop_
 _symmetry_equiv_pos_site_id
 _symmetry_equiv_pos_as_xyz
  1  'x, y, z'
loop_
 _atom_site_type_symbol
 _atom_site_label
 _atom_site_symmetry_multiplicity
 _atom_site_fract_x
 _atom_site_fract_y
 _atom_site_fract_z
 _atom_site_occupancy
  Ba  Ba0  1  0.631993  0.976947  0.289301  1
  Ba  Ba1  1  0.368007  0.023053  0.710699  1
  Ba  Ba2  1  0.340184  0.510066  0.706062  1
  Ba  Ba3  1  0.659816  0.489934  0.293938  1
  Y  Y4  1  0.997866  0.729336  0.998159  1
  Y  Y5  1  0.002134  0.270664  0.001841  1
  Al  Al6  1  0.807414  0.873077  0.691691  1
  Al  Al7  1  0.192586  0.126923  0.308309  1
  Se  Se8  1  0.989177  0.687780  0.687355  1
  Se  Se9  1  0.010823  0.312220  0.312645  1
  Se  Se10  1  0.985182  0.150352  0.690622  1
  Se  Se11  1  0.014818  0.849648  0.309378  1
  Se  Se12  1  0.713663  0.908113  0.924395  1
  Se  Se13  1  0.286337  0.091887  0.075605  1
  Se  Se14  1  0.707193  0.411623  0.946917  1
  Se  Se15  1  0.292807  0.588377  0.053083  1
  Se  Se16  1  0.496551  0.744032  0.495725  1
  Se  Se17  1  0.503449  0.255968  0.504275  1
