# generated using pymatgen
data_Nd7Ho12ErGa16
_symmetry_space_group_name_H-M   'P 1'
_cell_length_a   7.92760984
_cell_length_b   7.93252523
_cell_length_c   14.67022500
_cell_angle_alpha   90.00091731
_cell_angle_beta   89.87508924
_cell_angle_gamma   90.07733735
_symmetry_Int_Tables_number   1
_chemical_formula_structural   Nd7Ho12ErGa16
_chemical_formula_sum   'Nd7 Ho12 Er1 Ga16'
_cell_volume   922.54822362
_cell_formula_units_Z   1
loop_
 _symmetry_equiv_pos_site_id
 _symmetry_equiv_pos_as_xyz
  1  'x, y, z'
loop_
 _atom_site_type_symbol
 _atom_site_label
 _atom_site_symmetry_multiplicity
 _atom_site_fract_x
 _atom_site_fract_y
 _atom_site_fract_z
 _atom_site_occupancy
  Nd  Nd0  1  0.358986  0.008403  0.958739  1
  Nd  Nd1  1  0.990526  0.641879  0.539966  1
  Nd  Nd2  1  0.490304  0.858841  0.209840  1
  Nd  Nd3  1  0.510667  0.139117  0.707853  1
  Nd  Nd4  1  0.859812  0.489438  0.791227  1
  Nd  Nd5  1  0.139444  0.509481  0.292072  1
  Nd  Nd6  1  0.008648  0.359194  0.042201  1
  Ho  Ho7  1  0.491481  0.359384  0.124858  1
  Ho  Ho8  1  0.991558  0.139256  0.624085  1
  Ho  Ho9  1  0.859840  0.007661  0.874827  1
  Ho  Ho10  1  0.139791  0.993661  0.375074  1
  Ho  Ho11  1  0.510352  0.642047  0.622593  1
  Ho  Ho12  1  0.359332  0.491527  0.875415  1
  Ho  Ho13  1  0.641299  0.508802  0.376039  1
  Ho  Ho14  1  0.006347  0.858768  0.126440  1
  Ho  Ho15  1  0.636165  0.994438  0.456933  1
  Ho  Ho16  1  0.319161  0.317582  0.500015  1
  Ho  Ho17  1  0.183882  0.817050  0.749118  1
  Ho  Ho18  1  0.815396  0.181791  0.250903  1
  Er  Er19  1  0.682357  0.681802  0.000163  1
  Ga  Ga20  1  0.293808  0.938914  0.560852  1
  Ga  Ga21  1  0.710217  0.062442  0.062031  1
  Ga  Ga22  1  0.935337  0.287828  0.438191  1
  Ga  Ga23  1  0.438244  0.209982  0.312494  1
  Ga  Ga24  1  0.563736  0.787783  0.811581  1
  Ga  Ga25  1  0.211875  0.437100  0.687687  1
  Ga  Ga26  1  0.787931  0.564802  0.189008  1
  Ga  Ga27  1  0.062941  0.710762  0.938402  1
  Ga  Ga28  1  0.799091  0.845420  0.688732  1
  Ga  Ga29  1  0.202745  0.152130  0.188916  1
  Ga  Ga30  1  0.844200  0.800568  0.314944  1
  Ga  Ga31  1  0.350883  0.707026  0.437028  1
  Ga  Ga32  1  0.652494  0.296839  0.938741  1
  Ga  Ga33  1  0.701094  0.343505  0.560408  1
  Ga  Ga34  1  0.296525  0.652624  0.061966  1
  Ga  Ga35  1  0.153532  0.202162  0.810655  1
