# generated using pymatgen
data_Y12Er4Cd4Pd3Pt
_symmetry_space_group_name_H-M   'P 1'
_cell_length_a   9.70381582
_cell_length_b   9.70278126
_cell_length_c   9.70278200
_cell_angle_alpha   60.00000430
_cell_angle_beta   60.00353099
_cell_angle_gamma   60.00352650
_symmetry_Int_Tables_number   1
_chemical_formula_structural   Y12Er4Cd4Pd3Pt
_chemical_formula_sum   'Y12 Er4 Cd4 Pd3 Pt1'
_cell_volume   646.01594565
_cell_formula_units_Z   1
loop_
 _symmetry_equiv_pos_site_id
 _symmetry_equiv_pos_as_xyz
  1  'x, y, z'
loop_
 _atom_site_type_symbol
 _atom_site_label
 _atom_site_symmetry_multiplicity
 _atom_site_fract_x
 _atom_site_fract_y
 _atom_site_fract_z
 _atom_site_occupancy
  Y  Y0  1  0.808928  0.189694  0.189694  1
  Y  Y1  1  0.189887  0.810252  0.810252  1
  Y  Y2  1  0.189887  0.810252  0.189609  1
  Y  Y3  1  0.808928  0.189694  0.811685  1
  Y  Y4  1  0.189887  0.189609  0.810252  1
  Y  Y5  1  0.808928  0.811685  0.189694  1
  Y  Y6  1  0.934472  0.565484  0.565484  1
  Y  Y7  1  0.565349  0.935111  0.935111  1
  Y  Y8  1  0.565349  0.935111  0.564429  1
  Y  Y9  1  0.934472  0.565484  0.934560  1
  Y  Y10  1  0.565349  0.564429  0.935111  1
  Y  Y11  1  0.934472  0.934560  0.565484  1
  Er  Er12  1  0.353888  0.351757  0.351757  1
  Er  Er13  1  0.353888  0.351757  0.942596  1
  Er  Er14  1  0.353888  0.942596  0.351757  1
  Er  Er15  1  0.941852  0.352716  0.352716  1
  Cd  Cd16  1  0.581810  0.581790  0.581790  1
  Cd  Cd17  1  0.581810  0.581790  0.254610  1
  Cd  Cd18  1  0.581810  0.254610  0.581790  1
  Cd  Cd19  1  0.254792  0.581736  0.581736  1
  Pd  Pd20  1  0.145101  0.145312  0.145312  1
  Pd  Pd21  1  0.145101  0.145312  0.564274  1
  Pd  Pd22  1  0.145101  0.564274  0.145312  1
  Pt  Pt23  1  0.565050  0.144983  0.144983  1
