# generated using pymatgen
data_CaPr4InPd4
_symmetry_space_group_name_H-M   'P 1'
_cell_length_a   8.12915100
_cell_length_b   8.12915100
_cell_length_c   3.89812600
_cell_angle_alpha   90.00000000
_cell_angle_beta   90.00000000
_cell_angle_gamma   90.00000000
_symmetry_Int_Tables_number   1
_chemical_formula_structural   CaPr4InPd4
_chemical_formula_sum   'Ca1 Pr4 In1 Pd4'
_cell_volume   257.60023460
_cell_formula_units_Z   1
loop_
 _symmetry_equiv_pos_site_id
 _symmetry_equiv_pos_as_xyz
  1  'x, y, z'
loop_
 _atom_site_type_symbol
 _atom_site_label
 _atom_site_symmetry_multiplicity
 _atom_site_fract_x
 _atom_site_fract_y
 _atom_site_fract_z
 _atom_site_occupancy
  Ca  Ca0  1  0.000000  0.000000  0.000000  1
  Pr  Pr1  1  0.352973  0.811601  0.500000  1
  Pr  Pr2  1  0.811601  0.647027  0.500000  1
  Pr  Pr3  1  0.188399  0.352973  0.500000  1
  Pr  Pr4  1  0.647027  0.188399  0.500000  1
  In  In5  1  0.500000  0.500000  0.000000  1
  Pd  Pd6  1  0.365521  0.124459  0.000000  1
  Pd  Pd7  1  0.875541  0.365521  0.000000  1
  Pd  Pd8  1  0.124459  0.634479  0.000000  1
  Pd  Pd9  1  0.634479  0.875541  0.000000  1
