# generated using pymatgen
data_BaBiAsO5
_symmetry_space_group_name_H-M   'P 1'
_cell_length_a   7.43696533
_cell_length_b   7.31104429
_cell_length_c   6.36527141
_cell_angle_alpha   108.87211106
_cell_angle_beta   103.76223179
_cell_angle_gamma   105.91098648
_symmetry_Int_Tables_number   1
_chemical_formula_structural   BaBiAsO5
_chemical_formula_sum   'Ba2 Bi2 As2 O10'
_cell_volume   293.96227968
_cell_formula_units_Z   2
loop_
 _symmetry_equiv_pos_site_id
 _symmetry_equiv_pos_as_xyz
  1  'x, y, z'
loop_
 _atom_site_type_symbol
 _atom_site_label
 _atom_site_symmetry_multiplicity
 _atom_site_fract_x
 _atom_site_fract_y
 _atom_site_fract_z
 _atom_site_occupancy
  Ba  Ba0  1  0.373098  0.163801  0.313248  1
  Ba  Ba1  1  0.626903  0.836200  0.686752  1
  Bi  Bi2  1  0.751056  0.548853  0.118709  1
  Bi  Bi3  1  0.248944  0.451146  0.881291  1
  As  As4  1  0.844433  0.139027  0.321547  1
  As  As5  1  0.155568  0.860975  0.678454  1
  O  O6  1  0.836591  0.895948  0.148382  1
  O  O7  1  0.709056  0.207521  0.116608  1
  O  O8  1  0.501318  0.533595  0.227461  1
  O  O9  1  0.269529  0.866413  0.476281  1
  O  O10  1  0.093907  0.304853  0.454610  1
  O  O11  1  0.906093  0.695147  0.545390  1
  O  O12  1  0.730471  0.133586  0.523719  1
  O  O13  1  0.498681  0.466404  0.772538  1
  O  O14  1  0.290944  0.792479  0.883392  1
  O  O15  1  0.163409  0.104052  0.851618  1
