# generated using pymatgen
data_Sr2BeCrN4
_symmetry_space_group_name_H-M   'P 1'
_cell_length_a   5.89556597
_cell_length_b   7.29123800
_cell_length_c   5.61221119
_cell_angle_alpha   90.00000000
_cell_angle_beta   114.00132531
_cell_angle_gamma   90.00000000
_symmetry_Int_Tables_number   1
_chemical_formula_structural   Sr2BeCrN4
_chemical_formula_sum   'Sr4 Be2 Cr2 N8'
_cell_volume   220.38725371
_cell_formula_units_Z   2
loop_
 _symmetry_equiv_pos_site_id
 _symmetry_equiv_pos_as_xyz
  1  'x, y, z'
loop_
 _atom_site_type_symbol
 _atom_site_label
 _atom_site_symmetry_multiplicity
 _atom_site_fract_x
 _atom_site_fract_y
 _atom_site_fract_z
 _atom_site_occupancy
  Sr  Sr0  1  0.348805  0.938286  0.681424  1
  Sr  Sr1  1  0.651195  0.438286  0.818576  1
  Sr  Sr2  1  0.698694  0.065709  0.336776  1
  Sr  Sr3  1  0.301306  0.565709  0.163224  1
  Be  Be4  1  0.102089  0.359206  0.565150  1
  Be  Be5  1  0.897911  0.859206  0.934850  1
  Cr  Cr6  1  0.892857  0.633060  0.437536  1
  Cr  Cr7  1  0.107143  0.133060  0.062464  1
  N  N8  1  0.228231  0.911506  0.085327  1
  N  N9  1  0.771769  0.411506  0.414673  1
  N  N10  1  0.787560  0.092666  0.913913  1
  N  N11  1  0.212440  0.592666  0.586087  1
  N  N12  1  0.207871  0.271787  0.872645  1
  N  N13  1  0.792129  0.771787  0.627355  1
  N  N14  1  0.801947  0.727781  0.127345  1
  N  N15  1  0.198053  0.227781  0.372655  1
