# generated using pymatgen
data_Yb3Sm(CuH6)2
_symmetry_space_group_name_H-M   'P 1'
_cell_length_a   6.79992579
_cell_length_b   6.79992255
_cell_length_c   5.10466800
_cell_angle_alpha   90.00074650
_cell_angle_beta   89.99994012
_cell_angle_gamma   135.94845795
_symmetry_Int_Tables_number   1
_chemical_formula_structural   Yb3Sm(CuH6)2
_chemical_formula_sum   'Yb3 Sm1 Cu2 H12'
_cell_volume   164.11607178
_cell_formula_units_Z   1
loop_
 _symmetry_equiv_pos_site_id
 _symmetry_equiv_pos_as_xyz
  1  'x, y, z'
loop_
 _atom_site_type_symbol
 _atom_site_label
 _atom_site_symmetry_multiplicity
 _atom_site_fract_x
 _atom_site_fract_y
 _atom_site_fract_z
 _atom_site_occupancy
  Yb  Yb0  1  0.644639  0.355361  0.000006  1
  Yb  Yb1  1  0.857174  0.142827  0.500001  1
  Yb  Yb2  1  0.357216  0.642784  0.000001  1
  Sm  Sm3  1  0.147897  0.852106  0.500018  1
  Cu  Cu4  1  0.498840  0.501161  0.500000  1
  Cu  Cu5  1  0.997915  0.002081  0.000000  1
  H  H6  1  0.000137  0.501895  0.749178  1
  H  H7  1  0.498120  0.999879  0.250827  1
  H  H8  1  0.000139  0.501894  0.250805  1
  H  H9  1  0.498091  0.999845  0.749200  1
  H  H10  1  0.368619  0.631381  0.500049  1
  H  H11  1  0.868219  0.131780  0.000066  1
  H  H12  1  0.629977  0.370023  0.499950  1
  H  H13  1  0.129300  0.870698  0.999932  1
  H  H14  1  0.249173  0.247317  0.748464  1
  H  H15  1  0.752667  0.750814  0.251522  1
  H  H16  1  0.249482  0.247621  0.251580  1
  H  H17  1  0.752396  0.750534  0.748404  1
