# generated using pymatgen
data_Yb12Y7TmSi16
_symmetry_space_group_name_H-M   'P 1'
_cell_length_a   7.40557228
_cell_length_b   7.81443621
_cell_length_c   15.13630031
_cell_angle_alpha   90.01135822
_cell_angle_beta   89.97982428
_cell_angle_gamma   89.97614969
_symmetry_Int_Tables_number   1
_chemical_formula_structural   Yb12Y7TmSi16
_chemical_formula_sum   'Yb12 Y7 Tm1 Si16'
_cell_volume   875.94318406
_cell_formula_units_Z   1
loop_
 _symmetry_equiv_pos_site_id
 _symmetry_equiv_pos_as_xyz
  1  'x, y, z'
loop_
 _atom_site_type_symbol
 _atom_site_label
 _atom_site_symmetry_multiplicity
 _atom_site_fract_x
 _atom_site_fract_y
 _atom_site_fract_z
 _atom_site_occupancy
  Yb  Yb0  1  0.972883  0.815636  0.403773  1
  Yb  Yb1  1  0.473195  0.684351  0.095942  1
  Yb  Yb2  1  0.527145  0.315626  0.596361  1
  Yb  Yb3  1  0.026696  0.184043  0.903776  1
  Yb  Yb4  1  0.026996  0.184181  0.596433  1
  Yb  Yb5  1  0.527327  0.315603  0.903716  1
  Yb  Yb6  1  0.472806  0.684382  0.403755  1
  Yb  Yb7  1  0.972639  0.815675  0.096045  1
  Yb  Yb8  1  0.352573  0.020575  0.750199  1
  Yb  Yb9  1  0.852287  0.479433  0.750288  1
  Yb  Yb10  1  0.147542  0.520867  0.249981  1
  Yb  Yb11  1  0.647635  0.979080  0.249920  1
  Y  Y12  1  0.314481  0.176622  0.120803  1
  Y  Y13  1  0.814140  0.323112  0.378844  1
  Y  Y14  1  0.185805  0.677249  0.878838  1
  Y  Y15  1  0.685883  0.823060  0.621355  1
  Y  Y16  1  0.314158  0.176877  0.378831  1
  Y  Y17  1  0.814128  0.323112  0.120916  1
  Y  Y18  1  0.185963  0.677013  0.621395  1
  Tm  Tm19  1  0.685495  0.823696  0.878619  1
  Si  Si20  1  0.857890  0.532915  0.538361  1
  Si  Si21  1  0.359337  0.966282  0.961106  1
  Si  Si22  1  0.642179  0.032940  0.461765  1
  Si  Si23  1  0.141551  0.467426  0.038071  1
  Si  Si24  1  0.142188  0.467081  0.461743  1
  Si  Si25  1  0.643325  0.032097  0.037422  1
  Si  Si26  1  0.357764  0.966976  0.538311  1
  Si  Si27  1  0.856241  0.534325  0.961252  1
  Si  Si28  1  0.976696  0.882607  0.750788  1
  Si  Si29  1  0.478306  0.617787  0.750620  1
  Si  Si30  1  0.522436  0.383294  0.249926  1
  Si  Si31  1  0.022512  0.116648  0.249921  1
  Si  Si32  1  0.250264  0.394727  0.750138  1
  Si  Si33  1  0.748767  0.104807  0.750880  1
  Si  Si34  1  0.250465  0.894257  0.249941  1
  Si  Si35  1  0.750302  0.605639  0.249965  1
