# generated using pymatgen
data_S3N8
_symmetry_space_group_name_H-M   'P 1'
_cell_length_a   4.00346902
_cell_length_b   9.45767443
_cell_length_c   11.48817405
_cell_angle_alpha   104.39586740
_cell_angle_beta   87.48030544
_cell_angle_gamma   115.30211885
_symmetry_Int_Tables_number   1
_chemical_formula_structural   S3N8
_chemical_formula_sum   'S3 N8'
_cell_volume   379.94047471
_cell_formula_units_Z   1
loop_
 _symmetry_equiv_pos_site_id
 _symmetry_equiv_pos_as_xyz
  1  'x, y, z'
loop_
 _atom_site_type_symbol
 _atom_site_label
 _atom_site_symmetry_multiplicity
 _atom_site_fract_x
 _atom_site_fract_y
 _atom_site_fract_z
 _atom_site_occupancy
  S  S0  1  0.925146  0.313996  0.927714  1
  S  S1  1  0.335772  0.411552  0.834423  1
  S  S2  1  0.261954  0.335913  0.661833  1
  N  N3  1  0.460257  0.853705  0.800966  1
  N  N4  1  0.825461  0.129057  0.167635  1
  N  N5  1  0.744305  0.910711  0.446615  1
  N  N6  1  0.554380  0.020888  0.156573  1
  N  N7  1  0.009854  0.498141  0.388672  1
  N  N8  1  0.940577  0.561848  0.330851  1
  N  N9  1  0.980138  0.979107  0.397611  1
  N  N10  1  0.306287  0.793918  0.871375  1
