# generated using pymatgen
data_Ba3NaNbS6
_symmetry_space_group_name_H-M   'P 1'
_cell_length_a   8.40421490
_cell_length_b   8.40421494
_cell_length_c   8.40421441
_cell_angle_alpha   91.10262647
_cell_angle_beta   91.10262924
_cell_angle_gamma   91.10261932
_symmetry_Int_Tables_number   1
_chemical_formula_structural   Ba3NaNbS6
_chemical_formula_sum   'Ba6 Na2 Nb2 S12'
_cell_volume   593.26258634
_cell_formula_units_Z   2
loop_
 _symmetry_equiv_pos_site_id
 _symmetry_equiv_pos_as_xyz
  1  'x, y, z'
loop_
 _atom_site_type_symbol
 _atom_site_label
 _atom_site_symmetry_multiplicity
 _atom_site_fract_x
 _atom_site_fract_y
 _atom_site_fract_z
 _atom_site_occupancy
  Ba  Ba0  1  0.250000  0.880559  0.619441  1
  Ba  Ba1  1  0.619441  0.250000  0.880559  1
  Ba  Ba2  1  0.880559  0.619441  0.250000  1
  Ba  Ba3  1  0.750000  0.119441  0.380559  1
  Ba  Ba4  1  0.380559  0.750000  0.119441  1
  Ba  Ba5  1  0.119441  0.380559  0.750000  1
  Na  Na6  1  0.750000  0.750000  0.750000  1
  Na  Na7  1  0.250000  0.250000  0.250000  1
  Nb  Nb8  1  0.500000  0.500000  0.500000  1
  Nb  Nb9  1  0.000000  0.000000  0.000000  1
  S  S10  1  0.053656  0.718627  0.920445  1
  S  S11  1  0.920445  0.053656  0.718627  1
  S  S12  1  0.718627  0.920445  0.053656  1
  S  S13  1  0.446344  0.579555  0.781373  1
  S  S14  1  0.781373  0.446344  0.579555  1
  S  S15  1  0.579555  0.781373  0.446344  1
  S  S16  1  0.946344  0.281373  0.079555  1
  S  S17  1  0.079555  0.946344  0.281373  1
  S  S18  1  0.281373  0.079555  0.946344  1
  S  S19  1  0.553656  0.420445  0.218627  1
  S  S20  1  0.420445  0.218627  0.553656  1
  S  S21  1  0.218627  0.553656  0.420445  1
