# generated using pymatgen
data_Tb3Ho3(CI3)2
_symmetry_space_group_name_H-M   'P 1'
_cell_length_a   3.90646900
_cell_length_b   8.71052815
_cell_length_c   11.95560378
_cell_angle_alpha   92.16498082
_cell_angle_beta   90.00000000
_cell_angle_gamma   90.00000000
_symmetry_Int_Tables_number   1
_chemical_formula_structural   Tb3Ho3(CI3)2
_chemical_formula_sum   'Tb3 Ho3 C2 I6'
_cell_volume   406.52781999
_cell_formula_units_Z   1
loop_
 _symmetry_equiv_pos_site_id
 _symmetry_equiv_pos_as_xyz
  1  'x, y, z'
loop_
 _atom_site_type_symbol
 _atom_site_label
 _atom_site_symmetry_multiplicity
 _atom_site_fract_x
 _atom_site_fract_y
 _atom_site_fract_z
 _atom_site_occupancy
  Tb  Tb0  1  0.250000  0.917321  0.599584  1
  Tb  Tb1  1  0.750000  0.082594  0.400711  1
  Tb  Tb2  1  0.250000  0.887163  0.188138  1
  Ho  Ho3  1  0.750000  0.112938  0.810489  1
  Ho  Ho4  1  0.250000  0.291426  0.614712  1
  Ho  Ho5  1  0.750000  0.708579  0.385322  1
  C  C6  1  0.250000  0.880330  0.387911  1
  C  C7  1  0.750000  0.119568  0.613777  1
  I  I8  1  0.250000  0.860760  0.871925  1
  I  I9  1  0.750000  0.142395  0.127515  1
  I  I10  1  0.250000  0.373854  0.869146  1
  I  I11  1  0.750000  0.623162  0.130615  1
  I  I12  1  0.250000  0.383834  0.369199  1
  I  I13  1  0.750000  0.616077  0.630959  1
