# generated using pymatgen
data_Sm2LuRuI3
_symmetry_space_group_name_H-M   'P 1'
_cell_length_a   4.27515900
_cell_length_b   8.93005930
_cell_length_c   12.35533668
_cell_angle_alpha   85.49079238
_cell_angle_beta   90.00000000
_cell_angle_gamma   90.00000000
_symmetry_Int_Tables_number   1
_chemical_formula_structural   Sm2LuRuI3
_chemical_formula_sum   'Sm4 Lu2 Ru2 I6'
_cell_volume   470.23488794
_cell_formula_units_Z   2
loop_
 _symmetry_equiv_pos_site_id
 _symmetry_equiv_pos_as_xyz
  1  'x, y, z'
loop_
 _atom_site_type_symbol
 _atom_site_label
 _atom_site_symmetry_multiplicity
 _atom_site_fract_x
 _atom_site_fract_y
 _atom_site_fract_z
 _atom_site_occupancy
  Sm  Sm0  1  0.750000  0.095305  0.682334  1
  Sm  Sm1  1  0.250000  0.904695  0.317666  1
  Sm  Sm2  1  0.250000  0.266258  0.900618  1
  Sm  Sm3  1  0.750000  0.733742  0.099382  1
  Lu  Lu4  1  0.750000  0.122845  0.121662  1
  Lu  Lu5  1  0.250000  0.877155  0.878338  1
  Ru  Ru6  1  0.750000  0.050918  0.908826  1
  Ru  Ru7  1  0.250000  0.949082  0.091174  1
  I  I8  1  0.250000  0.354714  0.637284  1
  I  I9  1  0.750000  0.645286  0.362716  1
  I  I10  1  0.750000  0.148464  0.388887  1
  I  I11  1  0.250000  0.851536  0.611113  1
  I  I12  1  0.250000  0.420762  0.134928  1
  I  I13  1  0.750000  0.579238  0.865072  1
