# generated using pymatgen
data_Tm2LuGa5Ir
_symmetry_space_group_name_H-M   'P 1'
_cell_length_a   6.88631509
_cell_length_b   6.88828183
_cell_length_c   4.22443700
_cell_angle_alpha   90.00000000
_cell_angle_beta   90.00000000
_cell_angle_gamma   120.00945262
_symmetry_Int_Tables_number   1
_chemical_formula_structural   Tm2LuGa5Ir
_chemical_formula_sum   'Tm2 Lu1 Ga5 Ir1'
_cell_volume   173.52253862
_cell_formula_units_Z   1
loop_
 _symmetry_equiv_pos_site_id
 _symmetry_equiv_pos_as_xyz
  1  'x, y, z'
loop_
 _atom_site_type_symbol
 _atom_site_label
 _atom_site_symmetry_multiplicity
 _atom_site_fract_x
 _atom_site_fract_y
 _atom_site_fract_z
 _atom_site_occupancy
  Tm  Tm0  1  0.587730  0.000195  0.500000  1
  Tm  Tm1  1  0.412270  0.412465  0.500000  1
  Lu  Lu2  1  0.000000  0.588480  0.500000  1
  Ga  Ga3  1  0.238430  0.999907  0.000000  1
  Ga  Ga4  1  0.000000  0.238476  0.000000  1
  Ga  Ga5  1  0.667132  0.333595  0.000000  1
  Ga  Ga6  1  0.332868  0.666465  0.000000  1
  Ga  Ga7  1  0.761570  0.761476  0.000000  1
  Ir  Ir8  1  0.000000  0.998942  0.500000  1
