# generated using pymatgen
data_Pr7Nd(SiI6)2
_symmetry_space_group_name_H-M   'P 1'
_cell_length_a   4.37804400
_cell_length_b   14.55886790
_cell_length_c   15.35040894
_cell_angle_alpha   90.04022143
_cell_angle_beta   90.00000000
_cell_angle_gamma   90.00000000
_symmetry_Int_Tables_number   1
_chemical_formula_structural   Pr7Nd(SiI6)2
_chemical_formula_sum   'Pr7 Nd1 Si2 I12'
_cell_volume   978.42506597
_cell_formula_units_Z   1
loop_
 _symmetry_equiv_pos_site_id
 _symmetry_equiv_pos_as_xyz
  1  'x, y, z'
loop_
 _atom_site_type_symbol
 _atom_site_label
 _atom_site_symmetry_multiplicity
 _atom_site_fract_x
 _atom_site_fract_y
 _atom_site_fract_z
 _atom_site_occupancy
  Pr  Pr0  1  0.500000  0.115208  0.345874  1
  Pr  Pr1  1  0.500000  0.884798  0.654127  1
  Pr  Pr2  1  0.500000  0.614984  0.153843  1
  Pr  Pr3  1  0.000000  0.113810  0.576326  1
  Pr  Pr4  1  0.000000  0.886299  0.423754  1
  Pr  Pr5  1  0.000000  0.613477  0.923751  1
  Pr  Pr6  1  0.000000  0.386371  0.076025  1
  Nd  Nd7  1  0.500000  0.385236  0.846431  1
  Si  Si8  1  0.500000  0.000018  0.500012  1
  Si  Si9  1  0.500000  0.499510  0.999363  1
  I  I10  1  0.500000  0.244080  0.161870  1
  I  I11  1  0.500000  0.755898  0.838081  1
  I  I12  1  0.500000  0.743997  0.338016  1
  I  I13  1  0.500000  0.256410  0.662593  1
  I  I14  1  0.000000  0.258747  0.414414  1
  I  I15  1  0.000000  0.741236  0.585600  1
  I  I16  1  0.000000  0.758680  0.085613  1
  I  I17  1  0.000000  0.242680  0.913427  1
  I  I18  1  0.000000  0.998434  0.240275  1
  I  I19  1  0.000000  0.001572  0.759730  1
  I  I20  1  0.000000  0.498473  0.259661  1
  I  I21  1  0.000000  0.500082  0.741213  1
