# generated using pymatgen
data_La2Nd14Cd4TcPt3
_symmetry_space_group_name_H-M   'P 1'
_cell_length_a   10.07485297
_cell_length_b   10.07485249
_cell_length_c   10.09408544
_cell_angle_alpha   59.32734377
_cell_angle_beta   59.32733892
_cell_angle_gamma   59.45900003
_symmetry_Int_Tables_number   1
_chemical_formula_structural   La2Nd14Cd4TcPt3
_chemical_formula_sum   'La2 Nd14 Cd4 Tc1 Pt3'
_cell_volume   714.11425234
_cell_formula_units_Z   1
loop_
 _symmetry_equiv_pos_site_id
 _symmetry_equiv_pos_as_xyz
  1  'x, y, z'
loop_
 _atom_site_type_symbol
 _atom_site_label
 _atom_site_symmetry_multiplicity
 _atom_site_fract_x
 _atom_site_fract_y
 _atom_site_fract_z
 _atom_site_occupancy
  La  La0  1  0.351099  0.351099  0.351608  1
  La  La1  1  0.344173  0.344173  0.956802  1
  Nd  Nd2  1  0.348187  0.951329  0.348472  1
  Nd  Nd3  1  0.951329  0.348187  0.348472  1
  Nd  Nd4  1  0.817447  0.188560  0.188385  1
  Nd  Nd5  1  0.189368  0.808241  0.808289  1
  Nd  Nd6  1  0.188560  0.817447  0.188385  1
  Nd  Nd7  1  0.808241  0.189368  0.808289  1
  Nd  Nd8  1  0.188116  0.188116  0.815625  1
  Nd  Nd9  1  0.808091  0.808091  0.189300  1
  Nd  Nd10  1  0.935337  0.564793  0.563943  1
  Nd  Nd11  1  0.557036  0.937101  0.937525  1
  Nd  Nd12  1  0.564793  0.935337  0.563943  1
  Nd  Nd13  1  0.937101  0.557036  0.937525  1
  Nd  Nd14  1  0.564582  0.564582  0.934819  1
  Nd  Nd15  1  0.938180  0.938180  0.556662  1
  Cd  Cd16  1  0.580004  0.580004  0.578854  1
  Cd  Cd17  1  0.581518  0.581518  0.256556  1
  Cd  Cd18  1  0.582217  0.256312  0.579857  1
  Cd  Cd19  1  0.256312  0.582217  0.579857  1
  Tc  Tc20  1  0.144556  0.144556  0.140785  1
  Pt  Pt21  1  0.144729  0.144729  0.573341  1
  Pt  Pt22  1  0.144269  0.574754  0.146353  1
  Pt  Pt23  1  0.574754  0.144269  0.146353  1
