# generated using pymatgen
data_Tb2Y2TmSi3
_symmetry_space_group_name_H-M   'P 1'
_cell_length_a   8.44551730
_cell_length_b   8.44943271
_cell_length_c   6.35172300
_cell_angle_alpha   89.99787245
_cell_angle_beta   90.00106841
_cell_angle_gamma   120.01534406
_symmetry_Int_Tables_number   1
_chemical_formula_structural   Tb2Y2TmSi3
_chemical_formula_sum   'Tb4 Y4 Tm2 Si6'
_cell_volume   392.47212724
_cell_formula_units_Z   2
loop_
 _symmetry_equiv_pos_site_id
 _symmetry_equiv_pos_as_xyz
  1  'x, y, z'
loop_
 _atom_site_type_symbol
 _atom_site_label
 _atom_site_symmetry_multiplicity
 _atom_site_fract_x
 _atom_site_fract_y
 _atom_site_fract_z
 _atom_site_occupancy
  Tb  Tb0  1  0.666724  0.333339  0.500017  1
  Tb  Tb1  1  0.333276  0.666616  0.500017  1
  Tb  Tb2  1  0.755969  0.755954  0.248152  1
  Tb  Tb3  1  0.244031  0.999986  0.248152  1
  Y  Y4  1  0.000000  0.244087  0.248082  1
  Y  Y5  1  0.244093  0.244108  0.751922  1
  Y  Y6  1  0.755907  0.000016  0.751922  1
  Y  Y7  1  0.000000  0.755784  0.751920  1
  Tm  Tm8  1  0.333307  0.666631  0.999948  1
  Tm  Tm9  1  0.666693  0.333323  0.999948  1
  Si  Si10  1  0.394550  0.394757  0.244506  1
  Si  Si11  1  0.605450  0.000207  0.244506  1
  Si  Si12  1  0.000000  0.604994  0.244478  1
  Si  Si13  1  0.605425  0.605505  0.755469  1
  Si  Si14  1  0.394575  0.000080  0.755469  1
  Si  Si15  1  0.000000  0.394614  0.755491  1
