# generated using pymatgen
data_Tb6Al24Os3Rh5
_symmetry_space_group_name_H-M   'P 1'
_cell_length_a   8.84836847
_cell_length_b   8.79815448
_cell_length_c   9.56913212
_cell_angle_alpha   89.99999856
_cell_angle_beta   89.77019910
_cell_angle_gamma   119.81243716
_symmetry_Int_Tables_number   1
_chemical_formula_structural   Tb6Al24Os3Rh5
_chemical_formula_sum   'Tb6 Al24 Os3 Rh5'
_cell_volume   646.35490116
_cell_formula_units_Z   1
loop_
 _symmetry_equiv_pos_site_id
 _symmetry_equiv_pos_as_xyz
  1  'x, y, z'
loop_
 _atom_site_type_symbol
 _atom_site_label
 _atom_site_symmetry_multiplicity
 _atom_site_fract_x
 _atom_site_fract_y
 _atom_site_fract_z
 _atom_site_occupancy
  Tb  Tb0  1  0.188887  0.384506  0.251429  1
  Tb  Tb1  1  0.811113  0.615494  0.748571  1
  Tb  Tb2  1  0.616822  0.808411  0.250287  1
  Tb  Tb3  1  0.383178  0.191589  0.749713  1
  Tb  Tb4  1  0.188887  0.804381  0.251429  1
  Tb  Tb5  1  0.811113  0.195619  0.748571  1
  Al  Al6  1  0.333343  0.666672  0.027478  1
  Al  Al7  1  0.666657  0.333328  0.972522  1
  Al  Al8  1  0.667960  0.333980  0.525989  1
  Al  Al9  1  0.332040  0.666020  0.474011  1
  Al  Al10  1  0.163258  0.328292  0.575924  1
  Al  Al11  1  0.836742  0.671708  0.424076  1
  Al  Al12  1  0.673342  0.836670  0.576551  1
  Al  Al13  1  0.834678  0.671996  0.076452  1
  Al  Al14  1  0.326658  0.163330  0.423449  1
  Al  Al15  1  0.165322  0.328004  0.923548  1
  Al  Al16  1  0.163258  0.834965  0.575924  1
  Al  Al17  1  0.326644  0.163323  0.076492  1
  Al  Al18  1  0.836742  0.165035  0.424076  1
  Al  Al19  1  0.673356  0.836677  0.923508  1
  Al  Al20  1  0.834678  0.162682  0.076452  1
  Al  Al21  1  0.165322  0.837318  0.923548  1
  Al  Al22  1  0.560658  0.123009  0.249634  1
  Al  Al23  1  0.439342  0.876991  0.750366  1
  Al  Al24  1  0.873755  0.436877  0.250136  1
  Al  Al25  1  0.126245  0.563123  0.749864  1
  Al  Al26  1  0.560658  0.437649  0.249634  1
  Al  Al27  1  0.439342  0.562351  0.750366  1
  Al  Al28  1  0.997981  0.998991  0.250062  1
  Al  Al29  1  0.002019  0.001009  0.749938  1
  Os  Os30  1  0.000000  0.500000  0.500000  1
  Os  Os31  1  0.000000  0.000000  0.000000  1
  Os  Os32  1  0.000000  0.000000  0.500000  1
  Rh  Rh33  1  0.500000  0.000000  0.000000  1
  Rh  Rh34  1  0.000000  0.500000  0.000000  1
  Rh  Rh35  1  0.500000  0.000000  0.500000  1
  Rh  Rh36  1  0.500000  0.500000  0.000000  1
  Rh  Rh37  1  0.500000  0.500000  0.500000  1
