# generated using pymatgen
data_ErTm3(SiRh2)8
_symmetry_space_group_name_H-M   'P 1'
_cell_length_a   4.11564200
_cell_length_b   9.07465423
_cell_length_c   11.25549928
_cell_angle_alpha   90.02567701
_cell_angle_beta   90.00000000
_cell_angle_gamma   90.00000000
_symmetry_Int_Tables_number   1
_chemical_formula_structural   ErTm3(SiRh2)8
_chemical_formula_sum   'Er1 Tm3 Si8 Rh16'
_cell_volume   420.37066100
_cell_formula_units_Z   1
loop_
 _symmetry_equiv_pos_site_id
 _symmetry_equiv_pos_as_xyz
  1  'x, y, z'
loop_
 _atom_site_type_symbol
 _atom_site_label
 _atom_site_symmetry_multiplicity
 _atom_site_fract_x
 _atom_site_fract_y
 _atom_site_fract_z
 _atom_site_occupancy
  Er  Er0  1  0.250000  0.147509  0.825024  1
  Tm  Tm1  1  0.250000  0.352802  0.324937  1
  Tm  Tm2  1  0.750000  0.852596  0.175137  1
  Tm  Tm3  1  0.750000  0.647360  0.674938  1
  Si  Si4  1  0.250000  0.412063  0.636925  1
  Si  Si5  1  0.250000  0.088100  0.137200  1
  Si  Si6  1  0.750000  0.588167  0.362773  1
  Si  Si7  1  0.750000  0.911576  0.862969  1
  Si  Si8  1  0.250000  0.616779  0.058664  1
  Si  Si9  1  0.250000  0.883104  0.558649  1
  Si  Si10  1  0.750000  0.383057  0.941471  1
  Si  Si11  1  0.750000  0.116703  0.441417  1
  Rh  Rh12  1  0.250000  0.615604  0.501467  1
  Rh  Rh13  1  0.250000  0.884191  0.001696  1
  Rh  Rh14  1  0.750000  0.384460  0.497955  1
  Rh  Rh15  1  0.750000  0.114987  0.999382  1
  Rh  Rh16  1  0.250000  0.685828  0.268688  1
  Rh  Rh17  1  0.250000  0.813728  0.768724  1
  Rh  Rh18  1  0.750000  0.315385  0.730837  1
  Rh  Rh19  1  0.750000  0.186235  0.231589  1
  Rh  Rh20  1  0.250000  0.172739  0.559042  1
  Rh  Rh21  1  0.250000  0.327376  0.059716  1
  Rh  Rh22  1  0.750000  0.827389  0.440295  1
  Rh  Rh23  1  0.750000  0.672513  0.940713  1
  Rh  Rh24  1  0.250000  0.006785  0.343754  1
  Rh  Rh25  1  0.250000  0.493321  0.844110  1
  Rh  Rh26  1  0.750000  0.992797  0.655883  1
  Rh  Rh27  1  0.750000  0.506843  0.156046  1
