# generated using pymatgen
data_RbFeSn3O8
_symmetry_space_group_name_H-M   'P 1'
_cell_length_a   7.63273324
_cell_length_b   7.63273301
_cell_length_c   10.61577661
_cell_angle_alpha   46.70429802
_cell_angle_beta   46.70430151
_cell_angle_gamma   24.34090869
_symmetry_Int_Tables_number   1
_chemical_formula_structural   RbFeSn3O8
_chemical_formula_sum   'Rb1 Fe1 Sn3 O8'
_cell_volume   181.65722570
_cell_formula_units_Z   1
loop_
 _symmetry_equiv_pos_site_id
 _symmetry_equiv_pos_as_xyz
  1  'x, y, z'
loop_
 _atom_site_type_symbol
 _atom_site_label
 _atom_site_symmetry_multiplicity
 _atom_site_fract_x
 _atom_site_fract_y
 _atom_site_fract_z
 _atom_site_occupancy
  Rb  Rb0  1  0.498356  0.498356  0.997903  1
  Fe  Fe1  1  0.350056  0.350056  0.814640  1
  Sn  Sn2  1  0.656796  0.656796  0.170910  1
  Sn  Sn3  1  0.159554  0.159554  0.491736  1
  Sn  Sn4  1  0.836517  0.836517  0.520666  1
  O  O5  1  0.153347  0.153347  0.046607  1
  O  O6  1  0.847662  0.847662  0.946075  1
  O  O7  1  0.202495  0.202495  0.645851  1
  O  O8  1  0.794654  0.794654  0.363191  1
  O  O9  1  0.538695  0.538695  0.627002  1
  O  O10  1  0.460267  0.460267  0.373357  1
  O  O11  1  0.165561  0.165561  0.291599  1
  O  O12  1  0.836042  0.836042  0.710463  1
