# generated using pymatgen
data_SrPr4Sm2CoI12
_symmetry_space_group_name_H-M   'P 1'
_cell_length_a   9.95131481
_cell_length_b   10.06015013
_cell_length_c   10.02369132
_cell_angle_alpha   106.14402264
_cell_angle_beta   106.41761037
_cell_angle_gamma   106.37272813
_symmetry_Int_Tables_number   1
_chemical_formula_structural   SrPr4Sm2CoI12
_chemical_formula_sum   'Sr1 Pr4 Sm2 Co1 I12'
_cell_volume   850.92015205
_cell_formula_units_Z   1
loop_
 _symmetry_equiv_pos_site_id
 _symmetry_equiv_pos_as_xyz
  1  'x, y, z'
loop_
 _atom_site_type_symbol
 _atom_site_label
 _atom_site_symmetry_multiplicity
 _atom_site_fract_x
 _atom_site_fract_y
 _atom_site_fract_z
 _atom_site_occupancy
  Sr  Sr0  1  0.500000  0.500000  0.500000  1
  Pr  Pr1  1  0.097097  0.301403  0.019993  1
  Pr  Pr2  1  0.285708  0.020062  0.091445  1
  Pr  Pr3  1  0.902903  0.698597  0.980007  1
  Pr  Pr4  1  0.714292  0.979938  0.908555  1
  Sm  Sm5  1  0.979265  0.904557  0.702306  1
  Sm  Sm6  1  0.020735  0.095443  0.297694  1
  Co  Co7  1  0.000000  0.000000  0.000000  1
  I  I8  1  0.543509  0.627755  0.855550  1
  I  I9  1  0.456491  0.372245  0.144450  1
  I  I10  1  0.318213  0.925822  0.772112  1
  I  I11  1  0.369022  0.142846  0.452641  1
  I  I12  1  0.928545  0.780337  0.326048  1
  I  I13  1  0.681787  0.074178  0.227888  1
  I  I14  1  0.071455  0.219663  0.673952  1
  I  I15  1  0.770644  0.321236  0.924944  1
  I  I16  1  0.229356  0.678764  0.075056  1
  I  I17  1  0.861030  0.551779  0.628510  1
  I  I18  1  0.138970  0.448221  0.371490  1
  I  I19  1  0.630978  0.857154  0.547359  1
