# generated using pymatgen
data_Y3In3GePt2
_symmetry_space_group_name_H-M   'P 1'
_cell_length_a   7.50497000
_cell_length_b   7.50496942
_cell_length_c   4.14027400
_cell_angle_alpha   90.00000000
_cell_angle_beta   90.00000000
_cell_angle_gamma   120.00000258
_symmetry_Int_Tables_number   1
_chemical_formula_structural   Y3In3GePt2
_chemical_formula_sum   'Y3 In3 Ge1 Pt2'
_cell_volume   201.95638630
_cell_formula_units_Z   1
loop_
 _symmetry_equiv_pos_site_id
 _symmetry_equiv_pos_as_xyz
  1  'x, y, z'
loop_
 _atom_site_type_symbol
 _atom_site_label
 _atom_site_symmetry_multiplicity
 _atom_site_fract_x
 _atom_site_fract_y
 _atom_site_fract_z
 _atom_site_occupancy
  Y  Y0  1  0.403907  0.992197  0.500000  1
  Y  Y1  1  0.007803  0.411711  0.500000  1
  Y  Y2  1  0.588289  0.596093  0.500000  1
  In  In3  1  0.742974  0.991152  0.000000  1
  In  In4  1  0.248178  0.257026  0.000000  1
  In  In5  1  0.008848  0.751822  0.000000  1
  Ge  Ge6  1  0.666667  0.333333  0.000000  1
  Pt  Pt7  1  0.000000  0.000000  0.500000  1
  Pt  Pt8  1  0.333333  0.666667  0.000000  1
