# generated using pymatgen
data_ZnCd2AsBr3
_symmetry_space_group_name_H-M   'P 1'
_cell_length_a   4.28956500
_cell_length_b   7.18052663
_cell_length_c   7.48041312
_cell_angle_alpha   88.94002075
_cell_angle_beta   90.00000000
_cell_angle_gamma   90.00000000
_symmetry_Int_Tables_number   1
_chemical_formula_structural   ZnCd2AsBr3
_chemical_formula_sum   'Zn1 Cd2 As1 Br3'
_cell_volume   230.36728823
_cell_formula_units_Z   1
loop_
 _symmetry_equiv_pos_site_id
 _symmetry_equiv_pos_as_xyz
  1  'x, y, z'
loop_
 _atom_site_type_symbol
 _atom_site_label
 _atom_site_symmetry_multiplicity
 _atom_site_fract_x
 _atom_site_fract_y
 _atom_site_fract_z
 _atom_site_occupancy
  Zn  Zn0  1  0.000000  0.482091  0.692188  1
  Cd  Cd1  1  0.500000  0.500285  0.131643  1
  Cd  Cd2  1  0.500000  0.022337  0.844205  1
  As  As3  1  0.500000  0.381370  0.807370  1
  Br  Br4  1  0.000000  0.849830  0.669586  1
  Br  Br5  1  0.500000  0.870642  0.173270  1
  Br  Br6  1  0.000000  0.389445  0.348389  1
