# generated using pymatgen
data_DyCrFe3NiP3
_symmetry_space_group_name_H-M   'P 1'
_cell_length_a   3.67060000
_cell_length_b   10.26517700
_cell_length_c   11.99369800
_cell_angle_alpha   90.00000000
_cell_angle_beta   90.00000000
_cell_angle_gamma   90.00000000
_symmetry_Int_Tables_number   1
_chemical_formula_structural   DyCrFe3NiP3
_chemical_formula_sum   'Dy4 Cr4 Fe12 Ni4 P12'
_cell_volume   451.91484904
_cell_formula_units_Z   4
loop_
 _symmetry_equiv_pos_site_id
 _symmetry_equiv_pos_as_xyz
  1  'x, y, z'
loop_
 _atom_site_type_symbol
 _atom_site_label
 _atom_site_symmetry_multiplicity
 _atom_site_fract_x
 _atom_site_fract_y
 _atom_site_fract_z
 _atom_site_occupancy
  Dy  Dy0  1  0.250000  0.581205  0.707833  1
  Dy  Dy1  1  0.250000  0.918795  0.207833  1
  Dy  Dy2  1  0.750000  0.418795  0.292167  1
  Dy  Dy3  1  0.750000  0.081205  0.792167  1
  Cr  Cr4  1  0.250000  0.701578  0.991584  1
  Cr  Cr5  1  0.250000  0.798422  0.491584  1
  Cr  Cr6  1  0.750000  0.298422  0.008416  1
  Cr  Cr7  1  0.750000  0.201578  0.508416  1
  Fe  Fe8  1  0.250000  0.218925  0.171452  1
  Fe  Fe9  1  0.250000  0.281075  0.671452  1
  Fe  Fe10  1  0.750000  0.781075  0.828548  1
  Fe  Fe11  1  0.750000  0.718925  0.328548  1
  Fe  Fe12  1  0.250000  0.880023  0.697521  1
  Fe  Fe13  1  0.250000  0.619977  0.197521  1
  Fe  Fe14  1  0.750000  0.119977  0.302479  1
  Fe  Fe15  1  0.750000  0.380023  0.802479  1
  Fe  Fe16  1  0.250000  0.464505  0.935066  1
  Fe  Fe17  1  0.250000  0.035495  0.435066  1
  Fe  Fe18  1  0.750000  0.535495  0.064934  1
  Fe  Fe19  1  0.750000  0.964505  0.564934  1
  Ni  Ni20  1  0.250000  0.407259  0.485859  1
  Ni  Ni21  1  0.250000  0.092741  0.985859  1
  Ni  Ni22  1  0.750000  0.592741  0.514141  1
  Ni  Ni23  1  0.750000  0.907259  0.014141  1
  P  P24  1  0.250000  0.421089  0.112595  1
  P  P25  1  0.250000  0.078911  0.612595  1
  P  P26  1  0.750000  0.578911  0.887405  1
  P  P27  1  0.750000  0.921089  0.387405  1
  P  P28  1  0.250000  0.273092  0.859181  1
  P  P29  1  0.250000  0.226908  0.359181  1
  P  P30  1  0.750000  0.726908  0.140819  1
  P  P31  1  0.750000  0.773092  0.640819  1
  P  P32  1  0.250000  0.605313  0.384851  1
  P  P33  1  0.250000  0.894687  0.884851  1
  P  P34  1  0.750000  0.394687  0.615149  1
  P  P35  1  0.750000  0.105313  0.115149  1
