# generated using pymatgen
data_CaPr6MnBr12
_symmetry_space_group_name_H-M   'P 1'
_cell_length_a   9.51643635
_cell_length_b   9.51643764
_cell_length_c   9.51643606
_cell_angle_alpha   106.86528853
_cell_angle_beta   106.86528258
_cell_angle_gamma   106.86528194
_symmetry_Int_Tables_number   1
_chemical_formula_structural   CaPr6MnBr12
_chemical_formula_sum   'Ca1 Pr6 Mn1 Br12'
_cell_volume   720.36406794
_cell_formula_units_Z   1
loop_
 _symmetry_equiv_pos_site_id
 _symmetry_equiv_pos_as_xyz
  1  'x, y, z'
loop_
 _atom_site_type_symbol
 _atom_site_label
 _atom_site_symmetry_multiplicity
 _atom_site_fract_x
 _atom_site_fract_y
 _atom_site_fract_z
 _atom_site_occupancy
  Ca  Ca0  1  0.500000  0.500000  0.500000  1
  Pr  Pr1  1  0.972885  0.897002  0.688337  1
  Pr  Pr2  1  0.027115  0.102998  0.311663  1
  Pr  Pr3  1  0.102998  0.311663  0.027115  1
  Pr  Pr4  1  0.311663  0.027115  0.102998  1
  Pr  Pr5  1  0.897002  0.688337  0.972885  1
  Pr  Pr6  1  0.688337  0.972885  0.897002  1
  Mn  Mn7  1  0.000000  0.000000  0.000000  1
  Br  Br8  1  0.541456  0.618459  0.836205  1
  Br  Br9  1  0.458544  0.381541  0.163795  1
  Br  Br10  1  0.314242  0.926613  0.775246  1
  Br  Br11  1  0.381541  0.163795  0.458544  1
  Br  Br12  1  0.926613  0.775246  0.314242  1
  Br  Br13  1  0.685758  0.073387  0.224754  1
  Br  Br14  1  0.073387  0.224754  0.685758  1
  Br  Br15  1  0.775246  0.314242  0.926613  1
  Br  Br16  1  0.224754  0.685758  0.073387  1
  Br  Br17  1  0.836205  0.541456  0.618459  1
  Br  Br18  1  0.163795  0.458544  0.381541  1
  Br  Br19  1  0.618459  0.836205  0.541456  1
