# generated using pymatgen
data_CaPr3(FeO3)4
_symmetry_space_group_name_H-M   'P 1'
_cell_length_a   5.50456351
_cell_length_b   5.60922741
_cell_length_c   7.83764800
_cell_angle_alpha   90.00000000
_cell_angle_beta   90.00000000
_cell_angle_gamma   90.16063502
_symmetry_Int_Tables_number   1
_chemical_formula_structural   CaPr3(FeO3)4
_chemical_formula_sum   'Ca1 Pr3 Fe4 O12'
_cell_volume   241.99700009
_cell_formula_units_Z   1
loop_
 _symmetry_equiv_pos_site_id
 _symmetry_equiv_pos_as_xyz
  1  'x, y, z'
loop_
 _atom_site_type_symbol
 _atom_site_label
 _atom_site_symmetry_multiplicity
 _atom_site_fract_x
 _atom_site_fract_y
 _atom_site_fract_z
 _atom_site_occupancy
  Ca  Ca0  1  0.009176  0.956269  0.250000  1
  Pr  Pr1  1  0.509900  0.547618  0.750000  1
  Pr  Pr2  1  0.488590  0.452708  0.250000  1
  Pr  Pr3  1  0.988616  0.047070  0.750000  1
  Fe  Fe4  1  0.498996  0.999065  0.496009  1
  Fe  Fe5  1  0.498996  0.999065  0.003991  1
  Fe  Fe6  1  0.000102  0.501884  0.003461  1
  Fe  Fe7  1  0.000102  0.501884  0.496539  1
  O  O8  1  0.209408  0.208453  0.045428  1
  O  O9  1  0.209408  0.208453  0.454572  1
  O  O10  1  0.710585  0.289760  0.955467  1
  O  O11  1  0.786093  0.787288  0.548821  1
  O  O12  1  0.296122  0.703858  0.461249  1
  O  O13  1  0.786093  0.787288  0.951179  1
  O  O14  1  0.417143  0.983632  0.750000  1
  O  O15  1  0.917085  0.529095  0.250000  1
  O  O16  1  0.079227  0.480106  0.750000  1
  O  O17  1  0.710585  0.289760  0.544533  1
  O  O18  1  0.296122  0.703858  0.038751  1
  O  O19  1  0.587651  0.022886  0.250000  1
