# generated using pymatgen
data_DyMoN2
_symmetry_space_group_name_H-M   'P 1'
_cell_length_a   3.20981500
_cell_length_b   5.71019900
_cell_length_c   10.60037200
_cell_angle_alpha   90.00000000
_cell_angle_beta   90.00000000
_cell_angle_gamma   90.00000000
_symmetry_Int_Tables_number   1
_chemical_formula_structural   DyMoN2
_chemical_formula_sum   'Dy4 Mo4 N8'
_cell_volume   194.29085174
_cell_formula_units_Z   4
loop_
 _symmetry_equiv_pos_site_id
 _symmetry_equiv_pos_as_xyz
  1  'x, y, z'
loop_
 _atom_site_type_symbol
 _atom_site_label
 _atom_site_symmetry_multiplicity
 _atom_site_fract_x
 _atom_site_fract_y
 _atom_site_fract_z
 _atom_site_occupancy
  Dy  Dy0  1  0.250000  0.079162  0.853836  1
  Dy  Dy1  1  0.250000  0.579162  0.646164  1
  Dy  Dy2  1  0.750000  0.920838  0.146164  1
  Dy  Dy3  1  0.750000  0.420838  0.353836  1
  Mo  Mo4  1  0.250000  0.433486  0.093546  1
  Mo  Mo5  1  0.250000  0.933486  0.406454  1
  Mo  Mo6  1  0.750000  0.566514  0.906454  1
  Mo  Mo7  1  0.750000  0.066514  0.593546  1
  N  N8  1  0.250000  0.164515  0.249595  1
  N  N9  1  0.250000  0.664515  0.250405  1
  N  N10  1  0.750000  0.835485  0.750405  1
  N  N11  1  0.750000  0.335485  0.749595  1
  N  N12  1  0.250000  0.758447  0.993049  1
  N  N13  1  0.250000  0.258447  0.506951  1
  N  N14  1  0.750000  0.241553  0.006951  1
  N  N15  1  0.750000  0.741553  0.493049  1
