# generated using pymatgen
data_Ca5Si12Ir4Pd15
_symmetry_space_group_name_H-M   'P 1'
_cell_length_a   13.10855158
_cell_length_b   13.12587953
_cell_length_c   4.00967500
_cell_angle_alpha   90.00000000
_cell_angle_beta   90.00000000
_cell_angle_gamma   120.02818066
_symmetry_Int_Tables_number   1
_chemical_formula_structural   Ca5Si12Ir4Pd15
_chemical_formula_sum   'Ca5 Si12 Ir4 Pd15'
_cell_volume   597.30964884
_cell_formula_units_Z   1
loop_
 _symmetry_equiv_pos_site_id
 _symmetry_equiv_pos_as_xyz
  1  'x, y, z'
loop_
 _atom_site_type_symbol
 _atom_site_label
 _atom_site_symmetry_multiplicity
 _atom_site_fract_x
 _atom_site_fract_y
 _atom_site_fract_z
 _atom_site_occupancy
  Ca  Ca0  1  0.999632  0.185426  0.500000  1
  Ca  Ca1  1  0.815142  0.815413  0.500000  1
  Ca  Ca2  1  0.184812  0.000054  0.500000  1
  Ca  Ca3  1  0.666739  0.333077  0.000000  1
  Ca  Ca4  1  0.332903  0.666432  0.000000  1
  Si  Si5  1  0.479217  0.310573  0.500000  1
  Si  Si6  1  0.817914  0.001061  0.000000  1
  Si  Si7  1  0.182213  0.183696  0.000000  1
  Si  Si8  1  0.000060  0.816790  0.000000  1
  Si  Si9  1  0.376752  0.005520  0.000000  1
  Si  Si10  1  0.678655  0.159459  0.500000  1
  Si  Si11  1  0.837771  0.522379  0.500000  1
  Si  Si12  1  0.523369  0.838443  0.500000  1
  Si  Si13  1  0.161300  0.684819  0.500000  1
  Si  Si14  1  0.316184  0.476237  0.500000  1
  Si  Si15  1  0.999652  0.371142  0.000000  1
  Si  Si16  1  0.628196  0.628496  0.000000  1
  Ir  Ir17  1  0.999750  0.719405  0.500000  1
  Ir  Ir18  1  0.282242  0.279793  0.500000  1
  Ir  Ir19  1  0.719925  0.000374  0.500000  1
  Ir  Ir20  1  0.482654  0.125076  0.500000  1
  Pd  Pd21  1  0.807046  0.183825  0.000000  1
  Pd  Pd22  1  0.375359  0.192955  0.000000  1
  Pd  Pd23  1  0.640432  0.512331  0.500000  1
  Pd  Pd24  1  0.869965  0.356564  0.500000  1
  Pd  Pd25  1  0.358431  0.869876  0.500000  1
  Pd  Pd26  1  0.514341  0.642993  0.500000  1
  Pd  Pd27  1  0.128098  0.486175  0.500000  1
  Pd  Pd28  1  0.815313  0.623426  0.000000  1
  Pd  Pd29  1  0.624411  0.816761  0.000000  1
  Pd  Pd30  1  0.185248  0.810476  0.000000  1
  Pd  Pd31  1  0.192167  0.375750  0.000000  1
  Pd  Pd32  1  0.001286  0.555028  0.000000  1
  Pd  Pd33  1  0.445102  0.446488  0.000000  1
  Pd  Pd34  1  0.557370  0.003869  0.000000  1
  Pd  Pd35  1  0.000348  0.999821  0.000000  1
