# generated using pymatgen
data_Ca8AlIn2
_symmetry_space_group_name_H-M   'P 1'
_cell_length_a   9.50368008
_cell_length_b   9.64375642
_cell_length_c   9.75179413
_cell_angle_alpha   69.69389262
_cell_angle_beta   79.00288783
_cell_angle_gamma   60.31018746
_symmetry_Int_Tables_number   1
_chemical_formula_structural   Ca8AlIn2
_chemical_formula_sum   'Ca16 Al2 In4'
_cell_volume   727.98081673
_cell_formula_units_Z   2
loop_
 _symmetry_equiv_pos_site_id
 _symmetry_equiv_pos_as_xyz
  1  'x, y, z'
loop_
 _atom_site_type_symbol
 _atom_site_label
 _atom_site_symmetry_multiplicity
 _atom_site_fract_x
 _atom_site_fract_y
 _atom_site_fract_z
 _atom_site_occupancy
  Ca  Ca0  1  0.619846  0.535588  0.388941  1
  Ca  Ca1  1  0.319251  0.427309  0.607654  1
  Ca  Ca2  1  0.996299  0.364194  0.850524  1
  Ca  Ca3  1  0.959469  0.160704  0.611480  1
  Ca  Ca4  1  0.010755  0.894573  0.392902  1
  Ca  Ca5  1  0.710719  0.785489  0.612439  1
  Ca  Ca6  1  0.370831  0.161098  0.387704  1
  Ca  Ca7  1  0.642870  0.063671  0.851989  1
  Ca  Ca8  1  0.335636  0.960793  0.148409  1
  Ca  Ca9  1  0.782541  0.814226  0.202546  1
  Ca  Ca10  1  0.331395  0.957990  0.793334  1
  Ca  Ca11  1  0.265765  0.598712  0.169983  1
  Ca  Ca12  1  0.067451  0.719595  0.830961  1
  Ca  Ca13  1  0.545694  0.506614  0.800170  1
  Ca  Ca14  1  0.001327  0.366033  0.204026  1
  Ca  Ca15  1  0.683591  0.260662  0.150393  1
  Al  Al16  1  0.331419  0.322919  0.001272  1
  Al  Al17  1  0.663818  0.160976  0.501247  1
  In  In18  1  0.664381  0.661390  0.000507  1
  In  In19  1  0.001849  0.498767  0.475389  1
  In  In20  1  0.998048  0.001590  0.000134  1
  In  In21  1  0.328950  0.822807  0.525293  1
