# generated using pymatgen
data_Sm3MnCrC6
_symmetry_space_group_name_H-M   'P 1'
_cell_length_a   8.19708000
_cell_length_b   8.19707905
_cell_length_c   5.11266400
_cell_angle_alpha   90.00000000
_cell_angle_beta   90.00000000
_cell_angle_gamma   119.99999575
_symmetry_Int_Tables_number   1
_chemical_formula_structural   Sm3MnCrC6
_chemical_formula_sum   'Sm6 Mn2 Cr2 C12'
_cell_volume   297.50632244
_cell_formula_units_Z   2
loop_
 _symmetry_equiv_pos_site_id
 _symmetry_equiv_pos_as_xyz
  1  'x, y, z'
loop_
 _atom_site_type_symbol
 _atom_site_label
 _atom_site_symmetry_multiplicity
 _atom_site_fract_x
 _atom_site_fract_y
 _atom_site_fract_z
 _atom_site_occupancy
  Sm  Sm0  1  0.617246  0.684607  0.750000  1
  Sm  Sm1  1  0.932640  0.617246  0.250000  1
  Sm  Sm2  1  0.684607  0.067360  0.250000  1
  Sm  Sm3  1  0.315393  0.932640  0.750000  1
  Sm  Sm4  1  0.067360  0.382754  0.750000  1
  Sm  Sm5  1  0.382754  0.315393  0.250000  1
  Mn  Mn6  1  0.666667  0.333333  0.750000  1
  Mn  Mn7  1  0.333333  0.666667  0.250000  1
  Cr  Cr8  1  0.000000  0.000000  0.500000  1
  Cr  Cr9  1  0.000000  0.000000  0.000000  1
  C  C10  1  0.957732  0.769908  0.750000  1
  C  C11  1  0.187824  0.957732  0.250000  1
  C  C12  1  0.769908  0.812176  0.250000  1
  C  C13  1  0.230092  0.187824  0.750000  1
  C  C14  1  0.812176  0.042268  0.750000  1
  C  C15  1  0.042268  0.230092  0.250000  1
  C  C16  1  0.860790  0.576788  0.750000  1
  C  C17  1  0.284001  0.860790  0.250000  1
  C  C18  1  0.576788  0.715999  0.250000  1
  C  C19  1  0.423212  0.284001  0.750000  1
  C  C20  1  0.139210  0.423212  0.250000  1
  C  C21  1  0.715999  0.139210  0.750000  1
