# generated using pymatgen
data_Mn3SiMo2
_symmetry_space_group_name_H-M   'P 1'
_cell_length_a   4.77383800
_cell_length_b   4.77383852
_cell_length_c   7.76390800
_cell_angle_alpha   90.00000000
_cell_angle_beta   90.00000000
_cell_angle_gamma   120.00001028
_symmetry_Int_Tables_number   1
_chemical_formula_structural   Mn3SiMo2
_chemical_formula_sum   'Mn6 Si2 Mo4'
_cell_volume   153.23090565
_cell_formula_units_Z   2
loop_
 _symmetry_equiv_pos_site_id
 _symmetry_equiv_pos_as_xyz
  1  'x, y, z'
loop_
 _atom_site_type_symbol
 _atom_site_label
 _atom_site_symmetry_multiplicity
 _atom_site_fract_x
 _atom_site_fract_y
 _atom_site_fract_z
 _atom_site_occupancy
  Mn  Mn0  1  0.171877  0.343754  0.250000  1
  Mn  Mn1  1  0.828123  0.656246  0.750000  1
  Mn  Mn2  1  0.656246  0.828123  0.250000  1
  Mn  Mn3  1  0.343754  0.171877  0.750000  1
  Mn  Mn4  1  0.171877  0.828123  0.250000  1
  Mn  Mn5  1  0.828123  0.171877  0.750000  1
  Si  Si6  1  0.000000  0.000000  0.000000  1
  Si  Si7  1  0.000000  0.000000  0.500000  1
  Mo  Mo8  1  0.333333  0.666667  0.563497  1
  Mo  Mo9  1  0.666667  0.333333  0.436503  1
  Mo  Mo10  1  0.666667  0.333333  0.063497  1
  Mo  Mo11  1  0.333333  0.666667  0.936503  1
