# generated using pymatgen
data_Tb2Al9Ir2Pd
_symmetry_space_group_name_H-M   'P 1'
_cell_length_a   7.59685364
_cell_length_b   7.59685413
_cell_length_c   9.48793368
_cell_angle_alpha   89.90972243
_cell_angle_beta   89.90972520
_cell_angle_gamma   119.59445558
_symmetry_Int_Tables_number   1
_chemical_formula_structural   Tb2Al9Ir2Pd
_chemical_formula_sum   'Tb4 Al18 Ir4 Pd2'
_cell_volume   476.13266990
_cell_formula_units_Z   2
loop_
 _symmetry_equiv_pos_site_id
 _symmetry_equiv_pos_as_xyz
  1  'x, y, z'
loop_
 _atom_site_type_symbol
 _atom_site_label
 _atom_site_symmetry_multiplicity
 _atom_site_fract_x
 _atom_site_fract_y
 _atom_site_fract_z
 _atom_site_occupancy
  Tb  Tb0  1  0.995408  0.670550  0.251276  1
  Tb  Tb1  1  0.004592  0.329450  0.748724  1
  Tb  Tb2  1  0.670550  0.995408  0.251276  1
  Tb  Tb3  1  0.329450  0.004592  0.748724  1
  Al  Al4  1  0.127747  0.127747  0.250661  1
  Al  Al5  1  0.872253  0.872253  0.749339  1
  Al  Al6  1  0.001387  0.331302  0.077404  1
  Al  Al7  1  0.998613  0.668698  0.922596  1
  Al  Al8  1  0.999988  0.664851  0.573923  1
  Al  Al9  1  0.335149  0.000012  0.426077  1
  Al  Al10  1  0.000012  0.335149  0.426077  1
  Al  Al11  1  0.664851  0.999988  0.573923  1
  Al  Al12  1  0.668698  0.998613  0.922596  1
  Al  Al13  1  0.331302  0.001387  0.077404  1
  Al  Al14  1  0.332797  0.332797  0.549553  1
  Al  Al15  1  0.667203  0.667203  0.450447  1
  Al  Al16  1  0.668875  0.668875  0.057522  1
  Al  Al17  1  0.331125  0.331125  0.942478  1
  Al  Al18  1  0.340231  0.547102  0.253196  1
  Al  Al19  1  0.659769  0.452898  0.746804  1
  Al  Al20  1  0.547102  0.340231  0.253196  1
  Al  Al21  1  0.452898  0.659769  0.746804  1
  Ir  Ir22  1  0.328198  0.671802  0.500000  1
  Ir  Ir23  1  0.671802  0.328198  0.500000  1
  Ir  Ir24  1  0.000000  0.000000  0.000000  1
  Ir  Ir25  1  0.000000  0.000000  0.500000  1
  Pd  Pd26  1  0.672152  0.327848  0.000000  1
  Pd  Pd27  1  0.327848  0.672152  0.000000  1
