# generated using pymatgen
data_LiLaP7Ru12
_symmetry_space_group_name_H-M   'P 1'
_cell_length_a   9.45864100
_cell_length_b   9.45864064
_cell_length_c   3.93004100
_cell_angle_alpha   90.00000000
_cell_angle_beta   90.00000000
_cell_angle_gamma   119.99999494
_symmetry_Int_Tables_number   1
_chemical_formula_structural   LiLaP7Ru12
_chemical_formula_sum   'Li1 La1 P7 Ru12'
_cell_volume   304.49853194
_cell_formula_units_Z   1
loop_
 _symmetry_equiv_pos_site_id
 _symmetry_equiv_pos_as_xyz
  1  'x, y, z'
loop_
 _atom_site_type_symbol
 _atom_site_label
 _atom_site_symmetry_multiplicity
 _atom_site_fract_x
 _atom_site_fract_y
 _atom_site_fract_z
 _atom_site_occupancy
  Li  Li0  1  0.666667  0.333333  0.500000  1
  La  La1  1  0.333333  0.666667  0.000000  1
  P  P2  1  0.607179  0.710773  0.500000  1
  P  P3  1  0.000000  0.000000  0.000000  1
  P  P4  1  0.289227  0.896406  0.500000  1
  P  P5  1  0.103594  0.392821  0.500000  1
  P  P6  1  0.896228  0.585979  0.000000  1
  P  P7  1  0.414021  0.310248  0.000000  1
  P  P8  1  0.689752  0.103772  0.000000  1
  Ru  Ru9  1  0.561103  0.954572  0.500000  1
  Ru  Ru10  1  0.393469  0.438897  0.500000  1
  Ru  Ru11  1  0.910310  0.115632  0.500000  1
  Ru  Ru12  1  0.205323  0.089690  0.500000  1
  Ru  Ru13  1  0.884368  0.794677  0.500000  1
  Ru  Ru14  1  0.726130  0.879178  0.000000  1
  Ru  Ru15  1  0.120822  0.846950  0.000000  1
  Ru  Ru16  1  0.153050  0.273870  0.000000  1
  Ru  Ru17  1  0.434643  0.081029  0.000000  1
  Ru  Ru18  1  0.918971  0.353617  0.000000  1
  Ru  Ru19  1  0.646383  0.565357  0.000000  1
  Ru  Ru20  1  0.045428  0.606531  0.500000  1
