# generated using pymatgen
data_Sr9Ca5Ta2(Si2N9)2
_symmetry_space_group_name_H-M   'P 1'
_cell_length_a   10.28419708
_cell_length_b   6.30158890
_cell_length_c   9.31574615
_cell_angle_alpha   90.16609974
_cell_angle_beta   90.28942527
_cell_angle_gamma   90.33305034
_symmetry_Int_Tables_number   1
_chemical_formula_structural   Sr9Ca5Ta2(Si2N9)2
_chemical_formula_sum   'Sr9 Ca5 Ta2 Si4 N18'
_cell_volume   603.70304086
_cell_formula_units_Z   1
loop_
 _symmetry_equiv_pos_site_id
 _symmetry_equiv_pos_as_xyz
  1  'x, y, z'
loop_
 _atom_site_type_symbol
 _atom_site_label
 _atom_site_symmetry_multiplicity
 _atom_site_fract_x
 _atom_site_fract_y
 _atom_site_fract_z
 _atom_site_occupancy
  Sr  Sr0  1  0.946193  0.426123  0.160890  1
  Sr  Sr1  1  0.079285  0.237555  0.493946  1
  Sr  Sr2  1  0.445046  0.574177  0.838852  1
  Sr  Sr3  1  0.582204  0.758927  0.508935  1
  Sr  Sr4  1  0.581988  0.074176  0.836315  1
  Sr  Sr5  1  0.919975  0.065170  0.825055  1
  Sr  Sr6  1  0.421714  0.930400  0.169290  1
  Sr  Sr7  1  0.418940  0.248746  0.490693  1
  Sr  Sr8  1  0.081683  0.928178  0.164887  1
  Ca  Ca9  1  0.249356  0.103196  0.795731  1
  Ca  Ca10  1  0.928796  0.734023  0.504117  1
  Ca  Ca11  1  0.061528  0.564878  0.827925  1
  Ca  Ca12  1  0.752312  0.894157  0.207867  1
  Ca  Ca13  1  0.567174  0.431528  0.167240  1
  Ta  Ta14  1  0.748645  0.283415  0.434750  1
  Ta  Ta15  1  0.247265  0.716634  0.566192  1
  Si  Si16  1  0.248602  0.328449  0.061527  1
  Si  Si17  1  0.752052  0.463328  0.719497  1
  Si  Si18  1  0.748821  0.674080  0.939040  1
  Si  Si19  1  0.247847  0.542086  0.280541  1
  N  N20  1  0.393593  0.236152  0.984178  1
  N  N21  1  0.240661  0.259204  0.252029  1
  N  N22  1  0.891815  0.108023  0.349077  1
  N  N23  1  0.621409  0.357343  0.621988  1
  N  N24  1  0.752272  0.550316  0.333491  1
  N  N25  1  0.247297  0.612705  0.092650  1
  N  N26  1  0.889932  0.385616  0.627413  1
  N  N27  1  0.382419  0.632610  0.376510  1
  N  N28  1  0.748916  0.390128  0.907351  1
  N  N29  1  0.098635  0.871980  0.661171  1
  N  N30  1  0.738714  0.744787  0.748627  1
  N  N31  1  0.114603  0.637978  0.375840  1
  N  N32  1  0.607199  0.758743  0.027678  1
  N  N33  1  0.248049  0.451806  0.669071  1
  N  N34  1  0.391162  0.886543  0.658306  1
  N  N35  1  0.603402  0.129378  0.331907  1
  N  N36  1  0.106478  0.240267  0.972432  1
  N  N37  1  0.894019  0.767196  0.016993  1
