# generated using pymatgen
data_Rb12Na5Li3(SiP3)4
_symmetry_space_group_name_H-M   'P 1'
_cell_length_a   10.35551493
_cell_length_b   10.35551529
_cell_length_c   15.36545985
_cell_angle_alpha   89.94233342
_cell_angle_beta   89.94233749
_cell_angle_gamma   143.63655006
_symmetry_Int_Tables_number   1
_chemical_formula_structural   Rb12Na5Li3(SiP3)4
_chemical_formula_sum   'Rb12 Na5 Li3 Si4 P12'
_cell_volume   976.94936623
_cell_formula_units_Z   1
loop_
 _symmetry_equiv_pos_site_id
 _symmetry_equiv_pos_as_xyz
  1  'x, y, z'
loop_
 _atom_site_type_symbol
 _atom_site_label
 _atom_site_symmetry_multiplicity
 _atom_site_fract_x
 _atom_site_fract_y
 _atom_site_fract_z
 _atom_site_occupancy
  Rb  Rb0  1  0.938703  0.612686  0.829817  1
  Rb  Rb1  1  0.557322  0.886405  0.325909  1
  Rb  Rb2  1  0.387314  0.061297  0.170183  1
  Rb  Rb3  1  0.060725  0.386851  0.169950  1
  Rb  Rb4  1  0.887891  0.561045  0.329121  1
  Rb  Rb5  1  0.438955  0.112109  0.670879  1
  Rb  Rb6  1  0.613149  0.939275  0.830050  1
  Rb  Rb7  1  0.272981  0.272090  0.318686  1
  Rb  Rb8  1  0.772606  0.772633  0.178804  1
  Rb  Rb9  1  0.227367  0.227394  0.821196  1
  Rb  Rb10  1  0.727910  0.727019  0.681314  1
  Rb  Rb11  1  0.113595  0.442678  0.674091  1
  Na  Na12  1  0.422952  0.577048  0.500000  1
  Na  Na13  1  0.755707  0.244293  0.000000  1
  Na  Na14  1  0.743347  0.256653  0.500000  1
  Na  Na15  1  0.244336  0.755664  0.000000  1
  Na  Na16  1  0.254845  0.745155  0.500000  1
  Li  Li17  1  0.923851  0.076149  0.000000  1
  Li  Li18  1  0.578790  0.421210  0.500000  1
  Li  Li19  1  0.076104  0.923896  0.000000  1
  Si  Si20  1  0.582461  0.417539  0.000000  1
  Si  Si21  1  0.917031  0.082969  0.500000  1
  Si  Si22  1  0.417528  0.582472  0.000000  1
  Si  Si23  1  0.083894  0.916106  0.500000  1
  P  P24  1  0.860997  0.565972  0.086109  1
  P  P25  1  0.434028  0.139003  0.913891  1
  P  P26  1  0.651451  0.951480  0.592015  1
  P  P27  1  0.932417  0.635770  0.586483  1
  P  P28  1  0.138959  0.433923  0.914002  1
  P  P29  1  0.566077  0.861041  0.085998  1
  P  P30  1  0.364230  0.067583  0.413517  1
  P  P31  1  0.190394  0.186478  0.577389  1
  P  P32  1  0.699688  0.699647  0.925646  1
  P  P33  1  0.300353  0.300312  0.074354  1
  P  P34  1  0.048520  0.348549  0.407985  1
  P  P35  1  0.813522  0.809606  0.422611  1
