# generated using pymatgen
data_Sc2Fe2H9
_symmetry_space_group_name_H-M   'P 1'
_cell_length_a   4.46545542
_cell_length_b   4.51992020
_cell_length_c   5.65832022
_cell_angle_alpha   91.11050796
_cell_angle_beta   89.48779142
_cell_angle_gamma   119.37007711
_symmetry_Int_Tables_number   1
_chemical_formula_structural   Sc2Fe2H9
_chemical_formula_sum   'Sc2 Fe2 H9'
_cell_volume   99.50727918
_cell_formula_units_Z   1
loop_
 _symmetry_equiv_pos_site_id
 _symmetry_equiv_pos_as_xyz
  1  'x, y, z'
loop_
 _atom_site_type_symbol
 _atom_site_label
 _atom_site_symmetry_multiplicity
 _atom_site_fract_x
 _atom_site_fract_y
 _atom_site_fract_z
 _atom_site_occupancy
  Sc  Sc0  1  0.006901  0.359660  0.434994  1
  Sc  Sc1  1  0.329317  0.037333  0.027361  1
  Fe  Fe2  1  0.658390  0.712810  0.238838  1
  Fe  Fe3  1  0.343430  0.017685  0.552825  1
  H  H4  1  0.796332  0.564103  0.038481  1
  H  H5  1  0.163303  0.709765  0.726115  1
  H  H6  1  0.171988  0.180107  0.712698  1
  H  H7  1  0.310076  0.545039  0.091053  1
  H  H8  1  0.560946  0.818924  0.498446  1
  H  H9  1  0.513772  0.341309  0.371988  1
  H  H10  1  0.037350  0.834513  0.355694  1
  H  H11  1  0.656075  0.207134  0.726184  1
  H  H12  1  0.827158  0.059421  0.093319  1
