# generated using pymatgen
data_DyHo2ZnSn3Ir2
_symmetry_space_group_name_H-M   'P 1'
_cell_length_a   7.47230379
_cell_length_b   7.48389768
_cell_length_c   4.02662100
_cell_angle_alpha   90.00000000
_cell_angle_beta   90.00000000
_cell_angle_gamma   120.00151698
_symmetry_Int_Tables_number   1
_chemical_formula_structural   DyHo2ZnSn3Ir2
_chemical_formula_sum   'Dy1 Ho2 Zn1 Sn3 Ir2'
_cell_volume   195.00561139
_cell_formula_units_Z   1
loop_
 _symmetry_equiv_pos_site_id
 _symmetry_equiv_pos_as_xyz
  1  'x, y, z'
loop_
 _atom_site_type_symbol
 _atom_site_label
 _atom_site_symmetry_multiplicity
 _atom_site_fract_x
 _atom_site_fract_y
 _atom_site_fract_z
 _atom_site_occupancy
  Dy  Dy0  1  0.393339  0.409382  0.500000  1
  Ho  Ho1  1  0.590578  0.983371  0.500000  1
  Ho  Ho2  1  0.016687  0.607400  0.500000  1
  Zn  Zn3  1  0.666865  0.333340  0.000000  1
  Sn  Sn4  1  0.744421  0.742579  0.000000  1
  Sn  Sn5  1  0.257391  0.001425  0.000000  1
  Sn  Sn6  1  0.998108  0.255672  0.000000  1
  Ir  Ir7  1  0.333008  0.667128  0.000000  1
  Ir  Ir8  1  0.999605  0.999702  0.500000  1
