# generated using pymatgen
data_Ti2Nb16C15
_symmetry_space_group_name_H-M   'P 1'
_cell_length_a   5.49555104
_cell_length_b   5.49580167
_cell_length_c   15.51962778
_cell_angle_alpha   89.99903195
_cell_angle_beta   89.95305117
_cell_angle_gamma   120.06075927
_symmetry_Int_Tables_number   1
_chemical_formula_structural   Ti2Nb16C15
_chemical_formula_sum   'Ti2 Nb16 C15'
_cell_volume   405.68393392
_cell_formula_units_Z   1
loop_
 _symmetry_equiv_pos_site_id
 _symmetry_equiv_pos_as_xyz
  1  'x, y, z'
loop_
 _atom_site_type_symbol
 _atom_site_label
 _atom_site_symmetry_multiplicity
 _atom_site_fract_x
 _atom_site_fract_y
 _atom_site_fract_z
 _atom_site_occupancy
  Ti  Ti0  1  0.778052  0.532860  0.414960  1
  Ti  Ti1  1  0.754761  0.221529  0.082118  1
  Nb  Nb2  1  0.461891  0.240202  0.748791  1
  Nb  Nb3  1  0.759959  0.535940  0.918332  1
  Nb  Nb4  1  0.778099  0.240242  0.583573  1
  Nb  Nb5  1  0.463521  0.222489  0.250687  1
  Nb  Nb6  1  0.110556  0.535473  0.749176  1
  Nb  Nb7  1  0.466758  0.578249  0.083341  1
  Nb  Nb8  1  0.421558  0.890032  0.415808  1
  Nb  Nb9  1  0.466298  0.889895  0.917766  1
  Nb  Nb10  1  0.424995  0.534299  0.583324  1
  Nb  Nb11  1  0.108285  0.575741  0.250404  1
  Nb  Nb12  1  0.129653  0.887743  0.587851  1
  Nb  Nb13  1  0.110983  0.241002  0.923053  1
  Nb  Nb14  1  0.758528  0.869972  0.255743  1
  Nb  Nb15  1  0.111284  0.868804  0.078163  1
  Nb  Nb16  1  0.759533  0.888702  0.744182  1
  Nb  Nb17  1  0.130585  0.243097  0.410810  1
  C  C18  1  0.450698  0.223548  0.001463  1
  C  C19  1  0.776960  0.553067  0.666117  1
  C  C20  1  0.776059  0.226784  0.334217  1
  C  C21  1  0.108526  0.551298  0.001908  1
  C  C22  1  0.442969  0.886152  0.666217  1
  C  C23  1  0.448793  0.558290  0.334523  1
  C  C24  1  0.778940  0.893491  0.001777  1
  C  C25  1  0.111638  0.221912  0.666166  1
  C  C26  1  0.104886  0.884104  0.334370  1
  C  C27  1  0.444139  0.224411  0.498379  1
  C  C28  1  0.780220  0.555383  0.165632  1
  C  C29  1  0.780173  0.218546  0.833526  1
  C  C30  1  0.102656  0.554458  0.498281  1
  C  C31  1  0.451444  0.898100  0.165697  1
  C  C32  1  0.446605  0.554184  0.833643  1
