# generated using pymatgen
data_Ac2Ho2As4PdPt3
_symmetry_space_group_name_H-M   'P 1'
_cell_length_a   4.36490900
_cell_length_b   4.36491055
_cell_length_c   16.23914900
_cell_angle_alpha   90.00000000
_cell_angle_beta   90.00000000
_cell_angle_gamma   120.00001101
_symmetry_Int_Tables_number   1
_chemical_formula_structural   Ac2Ho2As4PdPt3
_chemical_formula_sum   'Ac2 Ho2 As4 Pd1 Pt3'
_cell_volume   267.94421935
_cell_formula_units_Z   1
loop_
 _symmetry_equiv_pos_site_id
 _symmetry_equiv_pos_as_xyz
  1  'x, y, z'
loop_
 _atom_site_type_symbol
 _atom_site_label
 _atom_site_symmetry_multiplicity
 _atom_site_fract_x
 _atom_site_fract_y
 _atom_site_fract_z
 _atom_site_occupancy
  Ac  Ac0  1  0.000000  0.000000  0.499961  1
  Ac  Ac1  1  0.000000  0.000000  0.999523  1
  Ho  Ho2  1  0.000000  0.000000  0.249646  1
  Ho  Ho3  1  0.000000  0.000000  0.749974  1
  As  As4  1  0.333333  0.666667  0.873701  1
  As  As5  1  0.666667  0.333333  0.126858  1
  As  As6  1  0.666667  0.333333  0.372484  1
  As  As7  1  0.333333  0.666667  0.626100  1
  Pd  Pd8  1  0.333333  0.666667  0.353091  1
  Pt  Pt9  1  0.666667  0.333333  0.647710  1
  Pt  Pt10  1  0.666667  0.333333  0.853088  1
  Pt  Pt11  1  0.333333  0.666667  0.147863  1
