# generated using pymatgen
data_Pa2Co3Ge
_symmetry_space_group_name_H-M   'P 1'
_cell_length_a   5.23066200
_cell_length_b   5.23007556
_cell_length_c   7.80181800
_cell_angle_alpha   90.00000000
_cell_angle_beta   90.00000000
_cell_angle_gamma   120.00370922
_symmetry_Int_Tables_number   1
_chemical_formula_structural   Pa2Co3Ge
_chemical_formula_sum   'Pa4 Co6 Ge2'
_cell_volume   184.83100877
_cell_formula_units_Z   2
loop_
 _symmetry_equiv_pos_site_id
 _symmetry_equiv_pos_as_xyz
  1  'x, y, z'
loop_
 _atom_site_type_symbol
 _atom_site_label
 _atom_site_symmetry_multiplicity
 _atom_site_fract_x
 _atom_site_fract_y
 _atom_site_fract_z
 _atom_site_occupancy
  Pa  Pa0  1  0.666609  0.333217  0.565515  1
  Pa  Pa1  1  0.333391  0.666783  0.434485  1
  Pa  Pa2  1  0.333391  0.666783  0.065515  1
  Pa  Pa3  1  0.666609  0.333217  0.934485  1
  Co  Co4  1  0.168862  0.337723  0.750000  1
  Co  Co5  1  0.662360  0.831202  0.750000  1
  Co  Co6  1  0.168843  0.831202  0.750000  1
  Co  Co7  1  0.831138  0.662277  0.250000  1
  Co  Co8  1  0.337640  0.168798  0.250000  1
  Co  Co9  1  0.831157  0.168798  0.250000  1
  Ge  Ge10  1  0.000000  0.000000  0.000000  1
  Ge  Ge11  1  0.000000  0.000000  0.500000  1
