# generated using pymatgen
data_Pr3Y4Th(MgIr)2
_symmetry_space_group_name_H-M   'P 1'
_cell_length_a   9.90045959
_cell_length_b   9.90045912
_cell_length_c   9.92329100
_cell_angle_alpha   59.92368736
_cell_angle_beta   59.92368895
_cell_angle_gamma   60.10863455
_symmetry_Int_Tables_number   1
_chemical_formula_structural   Pr3Y4Th(MgIr)2
_chemical_formula_sum   'Pr6 Y8 Th2 Mg4 Ir4'
_cell_volume   687.54951556
_cell_formula_units_Z   2
loop_
 _symmetry_equiv_pos_site_id
 _symmetry_equiv_pos_as_xyz
  1  'x, y, z'
loop_
 _atom_site_type_symbol
 _atom_site_label
 _atom_site_symmetry_multiplicity
 _atom_site_fract_x
 _atom_site_fract_y
 _atom_site_fract_z
 _atom_site_occupancy
  Pr  Pr0  1  0.940784  0.560545  0.561077  1
  Pr  Pr1  1  0.560545  0.940784  0.937594  1
  Pr  Pr2  1  0.560545  0.940784  0.561077  1
  Pr  Pr3  1  0.940784  0.560545  0.937594  1
  Pr  Pr4  1  0.561975  0.561975  0.938025  1
  Pr  Pr5  1  0.941889  0.941889  0.558111  1
  Y  Y6  1  0.347492  0.958663  0.346923  1
  Y  Y7  1  0.958663  0.347492  0.346923  1
  Y  Y8  1  0.814460  0.185966  0.186062  1
  Y  Y9  1  0.185966  0.814460  0.813512  1
  Y  Y10  1  0.185966  0.814460  0.186062  1
  Y  Y11  1  0.814460  0.185966  0.813512  1
  Y  Y12  1  0.185073  0.185073  0.814927  1
  Y  Y13  1  0.813745  0.813745  0.186255  1
  Th  Th14  1  0.343684  0.343684  0.347602  1
  Th  Th15  1  0.343684  0.343684  0.965030  1
  Mg  Mg16  1  0.578212  0.578212  0.578466  1
  Mg  Mg17  1  0.578212  0.578212  0.265108  1
  Mg  Mg18  1  0.578099  0.263353  0.579274  1
  Mg  Mg19  1  0.263353  0.578099  0.579274  1
  Ir  Ir20  1  0.142679  0.142679  0.141380  1
  Ir  Ir21  1  0.142679  0.142679  0.573262  1
  Ir  Ir22  1  0.145921  0.571129  0.141475  1
  Ir  Ir23  1  0.571129  0.145921  0.141475  1
