# generated using pymatgen
data_EuGa6Cu7
_symmetry_space_group_name_H-M   'P 1'
_cell_length_a   8.44219604
_cell_length_b   8.44219696
_cell_length_c   8.44219530
_cell_angle_alpha   121.50361557
_cell_angle_beta   119.61944584
_cell_angle_gamma   89.03798997
_symmetry_Int_Tables_number   1
_chemical_formula_structural   EuGa6Cu7
_chemical_formula_sum   'Eu2 Ga12 Cu14'
_cell_volume   421.63169212
_cell_formula_units_Z   2
loop_
 _symmetry_equiv_pos_site_id
 _symmetry_equiv_pos_as_xyz
  1  'x, y, z'
loop_
 _atom_site_type_symbol
 _atom_site_label
 _atom_site_symmetry_multiplicity
 _atom_site_fract_x
 _atom_site_fract_y
 _atom_site_fract_z
 _atom_site_occupancy
  Eu  Eu0  1  0.250000  0.750000  0.500000  1
  Eu  Eu1  1  0.750000  0.250000  0.500000  1
  Ga  Ga2  1  0.553436  0.544521  0.358355  1
  Ga  Ga3  1  0.446564  0.455479  0.641645  1
  Ga  Ga4  1  0.186165  0.195078  0.641645  1
  Ga  Ga5  1  0.313835  0.955479  0.008914  1
  Ga  Ga6  1  0.813835  0.804922  0.358355  1
  Ga  Ga7  1  0.686165  0.044521  0.991086  1
  Ga  Ga8  1  0.946564  0.304922  0.991086  1
  Ga  Ga9  1  0.053436  0.695078  0.008914  1
  Ga  Ga10  1  0.054121  0.307624  0.361745  1
  Ga  Ga11  1  0.945879  0.692376  0.638255  1
  Ga  Ga12  1  0.554121  0.192376  0.746497  1
  Ga  Ga13  1  0.445879  0.807624  0.253503  1
  Cu  Cu14  1  0.288604  0.294703  0.232169  1
  Cu  Cu15  1  0.711396  0.705297  0.767831  1
  Cu  Cu16  1  0.062534  0.056435  0.767831  1
  Cu  Cu17  1  0.437466  0.205297  0.993901  1
  Cu  Cu18  1  0.937466  0.943565  0.232169  1
  Cu  Cu19  1  0.562534  0.794703  0.006099  1
  Cu  Cu20  1  0.211396  0.443565  0.006099  1
  Cu  Cu21  1  0.788604  0.556435  0.993901  1
  Cu  Cu22  1  0.000000  0.000000  0.000000  1
  Cu  Cu23  1  0.500000  0.500000  0.000000  1
  Cu  Cu24  1  0.289341  0.064982  0.354324  1
  Cu  Cu25  1  0.710659  0.935018  0.645676  1
  Cu  Cu26  1  0.789341  0.435018  0.224360  1
  Cu  Cu27  1  0.210659  0.564982  0.775640  1
