# generated using pymatgen
data_Tm4LuBiAu2
_symmetry_space_group_name_H-M   'P 1'
_cell_length_a   8.60651385
_cell_length_b   8.60651308
_cell_length_c   8.60651400
_cell_angle_alpha   124.28873051
_cell_angle_beta   124.28872581
_cell_angle_gamma   82.71949529
_symmetry_Int_Tables_number   1
_chemical_formula_structural   Tm4LuBiAu2
_chemical_formula_sum   'Tm8 Lu2 Bi2 Au4'
_cell_volume   417.85554663
_cell_formula_units_Z   2
loop_
 _symmetry_equiv_pos_site_id
 _symmetry_equiv_pos_as_xyz
  1  'x, y, z'
loop_
 _atom_site_type_symbol
 _atom_site_label
 _atom_site_symmetry_multiplicity
 _atom_site_fract_x
 _atom_site_fract_y
 _atom_site_fract_z
 _atom_site_occupancy
  Tm  Tm0  1  0.514104  0.014104  0.808574  1
  Tm  Tm1  1  0.205529  0.705529  0.191426  1
  Tm  Tm2  1  0.014104  0.205529  0.500000  1
  Tm  Tm3  1  0.705529  0.514104  0.500000  1
  Tm  Tm4  1  0.485896  0.985896  0.191426  1
  Tm  Tm5  1  0.794471  0.294471  0.808574  1
  Tm  Tm6  1  0.985896  0.794471  0.500000  1
  Tm  Tm7  1  0.294471  0.485896  0.500000  1
  Lu  Lu8  1  0.500000  0.500000  0.000000  1
  Lu  Lu9  1  0.000000  0.000000  0.000000  1
  Bi  Bi10  1  0.250000  0.250000  0.000000  1
  Bi  Bi11  1  0.750000  0.750000  0.000000  1
  Au  Au12  1  0.139271  0.639271  0.778542  1
  Au  Au13  1  0.860729  0.360729  0.221458  1
  Au  Au14  1  0.639271  0.860729  0.500000  1
  Au  Au15  1  0.360729  0.139271  0.500000  1
