# generated using pymatgen
data_Lu3Hf(Co5As3)4
_symmetry_space_group_name_H-M   'P 1'
_cell_length_a   3.74230200
_cell_length_b   12.10730220
_cell_length_c   10.61969105
_cell_angle_alpha   89.94901035
_cell_angle_beta   90.00000000
_cell_angle_gamma   90.00000000
_symmetry_Int_Tables_number   1
_chemical_formula_structural   Lu3Hf(Co5As3)4
_chemical_formula_sum   'Lu3 Hf1 Co20 As12'
_cell_volume   481.16931594
_cell_formula_units_Z   1
loop_
 _symmetry_equiv_pos_site_id
 _symmetry_equiv_pos_as_xyz
  1  'x, y, z'
loop_
 _atom_site_type_symbol
 _atom_site_label
 _atom_site_symmetry_multiplicity
 _atom_site_fract_x
 _atom_site_fract_y
 _atom_site_fract_z
 _atom_site_occupancy
  Lu  Lu0  1  0.250000  0.297982  0.918664  1
  Lu  Lu1  1  0.250000  0.798179  0.581543  1
  Lu  Lu2  1  0.750000  0.201693  0.418523  1
  Hf  Hf3  1  0.750000  0.699779  0.078659  1
  Co  Co4  1  0.750000  0.697694  0.383509  1
  Co  Co5  1  0.250000  0.302924  0.614935  1
  Co  Co6  1  0.250000  0.800787  0.888919  1
  Co  Co7  1  0.750000  0.197111  0.114468  1
  Co  Co8  1  0.750000  0.992760  0.215067  1
  Co  Co9  1  0.250000  0.007156  0.785427  1
  Co  Co10  1  0.250000  0.508556  0.715355  1
  Co  Co11  1  0.750000  0.492797  0.283867  1
  Co  Co12  1  0.750000  0.679080  0.785245  1
  Co  Co13  1  0.250000  0.322164  0.214934  1
  Co  Co14  1  0.250000  0.820622  0.282355  1
  Co  Co15  1  0.750000  0.178747  0.716137  1
  Co  Co16  1  0.750000  0.928233  0.971592  1
  Co  Co17  1  0.250000  0.067152  0.030654  1
  Co  Co18  1  0.250000  0.569253  0.468408  1
  Co  Co19  1  0.750000  0.431695  0.530202  1
  Co  Co20  1  0.750000  0.986833  0.592247  1
  Co  Co21  1  0.250000  0.012731  0.407536  1
  Co  Co22  1  0.250000  0.517313  0.092459  1
  Co  Co23  1  0.750000  0.488939  0.909999  1
  As  As24  1  0.750000  0.614795  0.585576  1
  As  As25  1  0.250000  0.385765  0.413935  1
  As  As26  1  0.250000  0.883183  0.086367  1
  As  As27  1  0.750000  0.113071  0.914208  1
  As  As28  1  0.750000  0.889591  0.400709  1
  As  As29  1  0.250000  0.110396  0.599262  1
  As  As30  1  0.250000  0.610916  0.901451  1
  As  As31  1  0.750000  0.389473  0.099022  1
  As  As32  1  0.750000  0.870893  0.768204  1
  As  As33  1  0.250000  0.129531  0.231925  1
  As  As34  1  0.250000  0.630752  0.265930  1
  As  As35  1  0.750000  0.371453  0.732707  1
