# generated using pymatgen
data_Y8Ga12CoCu3
_symmetry_space_group_name_H-M   'P 1'
_cell_length_a   7.07515600
_cell_length_b   8.77949328
_cell_length_c   8.77949300
_cell_angle_alpha   120.00000273
_cell_angle_beta   90.00000000
_cell_angle_gamma   90.00000000
_symmetry_Int_Tables_number   1
_chemical_formula_structural   Y8Ga12CoCu3
_chemical_formula_sum   'Y8 Ga12 Co1 Cu3'
_cell_volume   472.28649512
_cell_formula_units_Z   1
loop_
 _symmetry_equiv_pos_site_id
 _symmetry_equiv_pos_as_xyz
  1  'x, y, z'
loop_
 _atom_site_type_symbol
 _atom_site_label
 _atom_site_symmetry_multiplicity
 _atom_site_fract_x
 _atom_site_fract_y
 _atom_site_fract_z
 _atom_site_occupancy
  Y  Y0  1  0.745695  0.000000  0.000000  1
  Y  Y1  1  0.253272  0.000000  0.000000  1
  Y  Y2  1  0.749691  0.485260  0.514740  1
  Y  Y3  1  0.255341  0.521031  0.478969  1
  Y  Y4  1  0.749691  0.029479  0.514740  1
  Y  Y5  1  0.255341  0.957936  0.478969  1
  Y  Y6  1  0.749691  0.485260  0.970521  1
  Y  Y7  1  0.255341  0.521031  0.042064  1
  Ga  Ga8  1  0.963591  0.831377  0.168623  1
  Ga  Ga9  1  0.039634  0.170116  0.829884  1
  Ga  Ga10  1  0.963591  0.337249  0.168623  1
  Ga  Ga11  1  0.463926  0.169924  0.830076  1
  Ga  Ga12  1  0.039634  0.659766  0.829884  1
  Ga  Ga13  1  0.538593  0.826421  0.173579  1
  Ga  Ga14  1  0.963591  0.831377  0.662751  1
  Ga  Ga15  1  0.463926  0.660149  0.830076  1
  Ga  Ga16  1  0.039634  0.170116  0.340234  1
  Ga  Ga17  1  0.538593  0.347159  0.173579  1
  Ga  Ga18  1  0.463926  0.169924  0.339851  1
  Ga  Ga19  1  0.538593  0.826421  0.652841  1
  Co  Co20  1  0.517988  0.666667  0.333333  1
  Cu  Cu21  1  0.945353  0.666667  0.333333  1
  Cu  Cu22  1  0.045896  0.333333  0.666667  1
  Cu  Cu23  1  0.459471  0.333333  0.666667  1
