# generated using pymatgen
data_Th2Si5AsPd21
_symmetry_space_group_name_H-M   'P 1'
_cell_length_a   8.74849371
_cell_length_b   8.74849196
_cell_length_c   8.71433000
_cell_angle_alpha   60.12915073
_cell_angle_beta   60.12913816
_cell_angle_gamma   59.74179114
_symmetry_Int_Tables_number   1
_chemical_formula_structural   Th2Si5AsPd21
_chemical_formula_sum   'Th2 Si5 As1 Pd21'
_cell_volume   471.59864527
_cell_formula_units_Z   1
loop_
 _symmetry_equiv_pos_site_id
 _symmetry_equiv_pos_as_xyz
  1  'x, y, z'
loop_
 _atom_site_type_symbol
 _atom_site_label
 _atom_site_symmetry_multiplicity
 _atom_site_fract_x
 _atom_site_fract_y
 _atom_site_fract_z
 _atom_site_occupancy
  Th  Th0  1  0.750158  0.750158  0.749842  1
  Th  Th1  1  0.250158  0.250158  0.249842  1
  Si  Si2  1  0.262041  0.738653  0.261347  1
  Si  Si3  1  0.738653  0.262041  0.261347  1
  Si  Si4  1  0.261986  0.261986  0.738014  1
  Si  Si5  1  0.738653  0.262041  0.737959  1
  Si  Si6  1  0.262041  0.738653  0.737959  1
  As  As7  1  0.737915  0.737915  0.262085  1
  Pd  Pd8  1  0.001123  0.001123  0.998877  1
  Pd  Pd9  1  0.612922  0.612922  0.152957  1
  Pd  Pd10  1  0.614432  0.153808  0.615880  1
  Pd  Pd11  1  0.153807  0.614432  0.615880  1
  Pd  Pd12  1  0.612922  0.612922  0.621199  1
  Pd  Pd13  1  0.384119  0.384120  0.846193  1
  Pd  Pd14  1  0.378802  0.847042  0.387078  1
  Pd  Pd15  1  0.847043  0.378802  0.387078  1
  Pd  Pd16  1  0.384120  0.384120  0.385568  1
  Pd  Pd17  1  0.000727  0.000727  0.345443  1
  Pd  Pd18  1  0.652534  0.005519  0.347466  1
  Pd  Pd19  1  0.005518  0.652533  0.347467  1
  Pd  Pd20  1  0.654557  0.346897  0.999273  1
  Pd  Pd21  1  0.999754  0.345293  0.000246  1
  Pd  Pd22  1  0.999754  0.345293  0.654707  1
  Pd  Pd23  1  0.346897  0.654557  0.999273  1
  Pd  Pd24  1  0.345293  0.999754  0.654707  1
  Pd  Pd25  1  0.345293  0.999754  0.000246  1
  Pd  Pd26  1  0.000727  0.000727  0.653103  1
  Pd  Pd27  1  0.005518  0.652533  0.994481  1
  Pd  Pd28  1  0.652533  0.005519  0.994482  1
