# generated using pymatgen
data_Lu5Sn2PbO
_symmetry_space_group_name_H-M   'P 1'
_cell_length_a   8.77621142
_cell_length_b   8.77621061
_cell_length_c   8.77621000
_cell_angle_alpha   125.55159236
_cell_angle_beta   125.55158057
_cell_angle_gamma   80.62639321
_symmetry_Int_Tables_number   1
_chemical_formula_structural   Lu5Sn2PbO
_chemical_formula_sum   'Lu10 Sn4 Pb2 O2'
_cell_volume   431.48345690
_cell_formula_units_Z   2
loop_
 _symmetry_equiv_pos_site_id
 _symmetry_equiv_pos_as_xyz
  1  'x, y, z'
loop_
 _atom_site_type_symbol
 _atom_site_label
 _atom_site_symmetry_multiplicity
 _atom_site_fract_x
 _atom_site_fract_y
 _atom_site_fract_z
 _atom_site_occupancy
  Lu  Lu0  1  0.501186  0.300548  0.500000  1
  Lu  Lu1  1  0.800548  0.001186  0.500000  1
  Lu  Lu2  1  0.001186  0.501186  0.200638  1
  Lu  Lu3  1  0.300548  0.800548  0.799362  1
  Lu  Lu4  1  0.501326  0.701938  0.500000  1
  Lu  Lu5  1  0.201938  0.001326  0.500000  1
  Lu  Lu6  1  0.001326  0.501326  0.799386  1
  Lu  Lu7  1  0.701938  0.201938  0.200614  1
  Lu  Lu8  1  0.501317  0.501317  0.000000  1
  Lu  Lu9  1  0.001317  0.001317  0.000000  1
  Sn  Sn10  1  0.148413  0.354146  0.500000  1
  Sn  Sn11  1  0.854146  0.648413  0.500000  1
  Sn  Sn12  1  0.648413  0.148413  0.794266  1
  Sn  Sn13  1  0.354146  0.854146  0.205734  1
  Pb  Pb14  1  0.751279  0.751279  0.000000  1
  Pb  Pb15  1  0.251279  0.251279  0.000000  1
  O  O16  1  0.751268  0.251268  0.500000  1
  O  O17  1  0.251268  0.751268  0.500000  1
