# generated using pymatgen
data_Pr4NdSi4
_symmetry_space_group_name_H-M   'P 1'
_cell_length_a   7.92184800
_cell_length_b   7.92184800
_cell_length_c   15.30023600
_cell_angle_alpha   90.00000000
_cell_angle_beta   90.00000000
_cell_angle_gamma   90.00000000
_symmetry_Int_Tables_number   1
_chemical_formula_structural   Pr4NdSi4
_chemical_formula_sum   'Pr16 Nd4 Si16'
_cell_volume   960.17664909
_cell_formula_units_Z   4
loop_
 _symmetry_equiv_pos_site_id
 _symmetry_equiv_pos_as_xyz
  1  'x, y, z'
loop_
 _atom_site_type_symbol
 _atom_site_label
 _atom_site_symmetry_multiplicity
 _atom_site_fract_x
 _atom_site_fract_y
 _atom_site_fract_z
 _atom_site_occupancy
  Pr  Pr0  1  0.481645  0.372864  0.126181  1
  Pr  Pr1  1  0.981645  0.127136  0.623819  1
  Pr  Pr2  1  0.872864  0.018355  0.876181  1
  Pr  Pr3  1  0.127136  0.981645  0.376181  1
  Pr  Pr4  1  0.518355  0.627136  0.626181  1
  Pr  Pr5  1  0.372864  0.481645  0.873819  1
  Pr  Pr6  1  0.627136  0.518355  0.373819  1
  Pr  Pr7  1  0.018355  0.872864  0.123819  1
  Pr  Pr8  1  0.622195  0.988564  0.448095  1
  Pr  Pr9  1  0.377805  0.011436  0.948095  1
  Pr  Pr10  1  0.988564  0.622195  0.551905  1
  Pr  Pr11  1  0.488564  0.877805  0.198095  1
  Pr  Pr12  1  0.511436  0.122195  0.698095  1
  Pr  Pr13  1  0.877805  0.488564  0.801905  1
  Pr  Pr14  1  0.122195  0.511436  0.301905  1
  Pr  Pr15  1  0.011436  0.377805  0.051905  1
  Nd  Nd16  1  0.308737  0.308737  0.500000  1
  Nd  Nd17  1  0.191263  0.808737  0.750000  1
  Nd  Nd18  1  0.808737  0.191263  0.250000  1
  Nd  Nd19  1  0.691263  0.691263  0.000000  1
  Si  Si20  1  0.288007  0.921401  0.559721  1
  Si  Si21  1  0.711993  0.078599  0.059721  1
  Si  Si22  1  0.921401  0.288007  0.440279  1
  Si  Si23  1  0.421401  0.211993  0.309721  1
  Si  Si24  1  0.578599  0.788007  0.809721  1
  Si  Si25  1  0.211993  0.421401  0.690279  1
  Si  Si26  1  0.788007  0.578599  0.190279  1
  Si  Si27  1  0.078599  0.711993  0.940279  1
  Si  Si28  1  0.804822  0.830725  0.702047  1
  Si  Si29  1  0.195178  0.169275  0.202047  1
  Si  Si30  1  0.830725  0.804822  0.297953  1
  Si  Si31  1  0.330725  0.695178  0.452047  1
  Si  Si32  1  0.669275  0.304822  0.952047  1
  Si  Si33  1  0.695178  0.330725  0.547953  1
  Si  Si34  1  0.304822  0.669275  0.047953  1
  Si  Si35  1  0.169275  0.195178  0.797953  1
