# generated using pymatgen
data_TiCr3H8
_symmetry_space_group_name_H-M   'P 1'
_cell_length_a   4.18274400
_cell_length_b   4.18274400
_cell_length_c   4.18274400
_cell_angle_alpha   90.00000000
_cell_angle_beta   90.00000000
_cell_angle_gamma   90.00000000
_symmetry_Int_Tables_number   1
_chemical_formula_structural   TiCr3H8
_chemical_formula_sum   'Ti1 Cr3 H8'
_cell_volume   73.17855924
_cell_formula_units_Z   1
loop_
 _symmetry_equiv_pos_site_id
 _symmetry_equiv_pos_as_xyz
  1  'x, y, z'
loop_
 _atom_site_type_symbol
 _atom_site_label
 _atom_site_symmetry_multiplicity
 _atom_site_fract_x
 _atom_site_fract_y
 _atom_site_fract_z
 _atom_site_occupancy
  Ti  Ti0  1  0.000000  0.000000  0.000000  1
  Cr  Cr1  1  0.500000  0.500000  0.000000  1
  Cr  Cr2  1  0.500000  0.000000  0.500000  1
  Cr  Cr3  1  0.000000  0.500000  0.500000  1
  H  H4  1  0.261315  0.261315  0.738685  1
  H  H5  1  0.261315  0.738685  0.261315  1
  H  H6  1  0.738685  0.261315  0.261315  1
  H  H7  1  0.738685  0.738685  0.738685  1
  H  H8  1  0.738685  0.738685  0.261315  1
  H  H9  1  0.738685  0.261315  0.738685  1
  H  H10  1  0.261315  0.738685  0.738685  1
  H  H11  1  0.261315  0.261315  0.261315  1
