# generated using pymatgen
data_Y6Ta2Fe7(Co3P4)3
_symmetry_space_group_name_H-M   'P 1'
_cell_length_a   3.73375700
_cell_length_b   10.66895100
_cell_length_c   12.27004000
_cell_angle_alpha   90.00000000
_cell_angle_beta   90.00000000
_cell_angle_gamma   90.00000000
_symmetry_Int_Tables_number   1
_chemical_formula_structural   Y6Ta2Fe7(Co3P4)3
_chemical_formula_sum   'Y6 Ta2 Fe7 Co9 P12'
_cell_volume   488.78036219
_cell_formula_units_Z   1
loop_
 _symmetry_equiv_pos_site_id
 _symmetry_equiv_pos_as_xyz
  1  'x, y, z'
loop_
 _atom_site_type_symbol
 _atom_site_label
 _atom_site_symmetry_multiplicity
 _atom_site_fract_x
 _atom_site_fract_y
 _atom_site_fract_z
 _atom_site_occupancy
  Y  Y0  1  0.000000  0.500000  0.527148  1
  Y  Y1  1  0.500000  0.000000  0.472865  1
  Y  Y2  1  0.500000  0.821686  0.205040  1
  Y  Y3  1  0.500000  0.178314  0.205040  1
  Y  Y4  1  0.000000  0.677660  0.794928  1
  Y  Y5  1  0.000000  0.322340  0.794928  1
  Ta  Ta6  1  0.500000  0.500000  0.153185  1
  Ta  Ta7  1  0.000000  0.000000  0.846332  1
  Fe  Fe8  1  0.000000  0.500000  0.987372  1
  Fe  Fe9  1  0.500000  0.329350  0.996208  1
  Fe  Fe10  1  0.500000  0.670650  0.996208  1
  Fe  Fe11  1  0.000000  0.168347  0.003597  1
  Fe  Fe12  1  0.000000  0.831653  0.003597  1
  Fe  Fe13  1  0.500000  0.296631  0.431947  1
  Fe  Fe14  1  0.500000  0.703369  0.431947  1
  Co  Co15  1  0.500000  0.500000  0.701265  1
  Co  Co16  1  0.000000  0.000000  0.298511  1
  Co  Co17  1  0.500000  0.000000  0.013409  1
  Co  Co18  1  0.000000  0.203000  0.569488  1
  Co  Co19  1  0.000000  0.797000  0.569488  1
  Co  Co20  1  0.500000  0.879379  0.705151  1
  Co  Co21  1  0.500000  0.120621  0.705151  1
  Co  Co22  1  0.000000  0.620503  0.294528  1
  Co  Co23  1  0.000000  0.379497  0.294528  1
  P  P24  1  0.500000  0.500000  0.887289  1
  P  P25  1  0.000000  0.000000  0.114223  1
  P  P26  1  0.500000  0.500000  0.355398  1
  P  P27  1  0.000000  0.000000  0.645053  1
  P  P28  1  0.500000  0.307977  0.614403  1
  P  P29  1  0.500000  0.692023  0.614403  1
  P  P30  1  0.000000  0.193294  0.384915  1
  P  P31  1  0.000000  0.806706  0.384915  1
  P  P32  1  0.500000  0.840954  0.894489  1
  P  P33  1  0.500000  0.159046  0.894489  1
  P  P34  1  0.000000  0.658704  0.104282  1
  P  P35  1  0.000000  0.341296  0.104282  1
