# generated using pymatgen
data_La2Si6HgPd20
_symmetry_space_group_name_H-M   'P 1'
_cell_length_a   8.75893593
_cell_length_b   8.75893575
_cell_length_c   8.75893600
_cell_angle_alpha   59.99999905
_cell_angle_beta   59.99999972
_cell_angle_gamma   59.99999915
_symmetry_Int_Tables_number   1
_chemical_formula_structural   La2Si6HgPd20
_chemical_formula_sum   'La2 Si6 Hg1 Pd20'
_cell_volume   475.15908609
_cell_formula_units_Z   1
loop_
 _symmetry_equiv_pos_site_id
 _symmetry_equiv_pos_as_xyz
  1  'x, y, z'
loop_
 _atom_site_type_symbol
 _atom_site_label
 _atom_site_symmetry_multiplicity
 _atom_site_fract_x
 _atom_site_fract_y
 _atom_site_fract_z
 _atom_site_occupancy
  La  La0  1  0.750000  0.750000  0.750000  1
  La  La1  1  0.250000  0.250000  0.250000  1
  Si  Si2  1  0.733147  0.733147  0.266853  1
  Si  Si3  1  0.266853  0.266853  0.733147  1
  Si  Si4  1  0.733147  0.266853  0.733147  1
  Si  Si5  1  0.266853  0.733147  0.266853  1
  Si  Si6  1  0.266853  0.733147  0.733147  1
  Si  Si7  1  0.733147  0.266853  0.266853  1
  Hg  Hg8  1  0.000000  0.000000  0.000000  1
  Pd  Pd9  1  0.614461  0.614461  0.614461  1
  Pd  Pd10  1  0.385539  0.385539  0.385539  1
  Pd  Pd11  1  0.156616  0.614461  0.614461  1
  Pd  Pd12  1  0.614461  0.156616  0.614461  1
  Pd  Pd13  1  0.843384  0.385539  0.385539  1
  Pd  Pd14  1  0.385539  0.843384  0.385539  1
  Pd  Pd15  1  0.614461  0.614461  0.156616  1
  Pd  Pd16  1  0.385539  0.385539  0.843384  1
  Pd  Pd17  1  0.000000  0.000000  0.656125  1
  Pd  Pd18  1  0.000000  0.000000  0.343875  1
  Pd  Pd19  1  0.343875  0.656125  0.000000  1
  Pd  Pd20  1  0.656125  0.343875  0.000000  1
  Pd  Pd21  1  0.000000  0.656125  0.000000  1
  Pd  Pd22  1  0.656125  0.000000  0.343875  1
  Pd  Pd23  1  0.000000  0.343875  0.000000  1
  Pd  Pd24  1  0.343875  0.000000  0.656125  1
  Pd  Pd25  1  0.656125  0.000000  0.000000  1
  Pd  Pd26  1  0.343875  0.000000  0.000000  1
  Pd  Pd27  1  0.000000  0.656125  0.343875  1
  Pd  Pd28  1  0.000000  0.343875  0.656125  1
