# generated using pymatgen
data_PrNdMn2(FeO5)2
_symmetry_space_group_name_H-M   'P 1'
_cell_length_a   5.83526500
_cell_length_b   7.59701274
_cell_length_c   8.80099919
_cell_angle_alpha   89.90253456
_cell_angle_beta   90.00000000
_cell_angle_gamma   90.00000000
_symmetry_Int_Tables_number   1
_chemical_formula_structural   PrNdMn2(FeO5)2
_chemical_formula_sum   'Pr2 Nd2 Mn4 Fe4 O20'
_cell_volume   390.15285670
_cell_formula_units_Z   2
loop_
 _symmetry_equiv_pos_site_id
 _symmetry_equiv_pos_as_xyz
  1  'x, y, z'
loop_
 _atom_site_type_symbol
 _atom_site_label
 _atom_site_symmetry_multiplicity
 _atom_site_fract_x
 _atom_site_fract_y
 _atom_site_fract_z
 _atom_site_occupancy
  Pr  Pr0  1  0.000000  0.363004  0.671241  1
  Pr  Pr1  1  0.000000  0.636996  0.328759  1
  Nd  Nd2  1  0.000000  0.863321  0.829216  1
  Nd  Nd3  1  0.000000  0.136679  0.170784  1
  Mn  Mn4  1  0.252136  0.500000  0.000000  1
  Mn  Mn5  1  0.748004  0.000000  0.500000  1
  Mn  Mn6  1  0.747864  0.500000  0.000000  1
  Mn  Mn7  1  0.251996  0.000000  0.500000  1
  Fe  Fe8  1  0.500000  0.109620  0.856833  1
  Fe  Fe9  1  0.500000  0.890380  0.143167  1
  Fe  Fe10  1  0.500000  0.610335  0.643574  1
  Fe  Fe11  1  0.500000  0.389665  0.356426  1
  O  O12  1  0.248763  0.902967  0.294926  1
  O  O13  1  0.248763  0.097033  0.705074  1
  O  O14  1  0.751293  0.400612  0.204480  1
  O  O15  1  0.751293  0.599388  0.795520  1
  O  O16  1  0.751237  0.097033  0.705074  1
  O  O17  1  0.751237  0.902967  0.294926  1
  O  O18  1  0.248707  0.599388  0.795520  1
  O  O19  1  0.248707  0.400612  0.204480  1
  O  O20  1  0.500000  0.347018  0.935623  1
  O  O21  1  0.500000  0.652982  0.064377  1
  O  O22  1  0.500000  0.847029  0.563819  1
  O  O23  1  0.500000  0.152971  0.436181  1
  O  O24  1  0.272778  0.000000  0.000000  1
  O  O25  1  0.725330  0.500000  0.500000  1
  O  O26  1  0.727222  0.000000  0.000000  1
  O  O27  1  0.274670  0.500000  0.500000  1
  O  O28  1  0.000000  0.155907  0.446589  1
  O  O29  1  0.000000  0.844093  0.553411  1
  O  O30  1  0.000000  0.656418  0.051573  1
  O  O31  1  0.000000  0.343582  0.948427  1
