# generated using pymatgen
data_Ho13Th3Mg3CdIr4
_symmetry_space_group_name_H-M   'P 1'
_cell_length_a   9.73388710
_cell_length_b   9.74587113
_cell_length_c   9.74587200
_cell_angle_alpha   60.00000385
_cell_angle_beta   59.95926884
_cell_angle_gamma   59.95926446
_symmetry_Int_Tables_number   1
_chemical_formula_structural   Ho13Th3Mg3CdIr4
_chemical_formula_sum   'Ho13 Th3 Mg3 Cd1 Ir4'
_cell_volume   653.34868963
_cell_formula_units_Z   1
loop_
 _symmetry_equiv_pos_site_id
 _symmetry_equiv_pos_as_xyz
  1  'x, y, z'
loop_
 _atom_site_type_symbol
 _atom_site_label
 _atom_site_symmetry_multiplicity
 _atom_site_fract_x
 _atom_site_fract_y
 _atom_site_fract_z
 _atom_site_occupancy
  Ho  Ho0  1  0.203147  0.598952  0.598952  1
  Ho  Ho1  1  0.062800  0.438034  0.438034  1
  Ho  Ho2  1  0.437746  0.062781  0.062781  1
  Ho  Ho3  1  0.437746  0.062781  0.436693  1
  Ho  Ho4  1  0.062800  0.438034  0.061133  1
  Ho  Ho5  1  0.437746  0.436693  0.062781  1
  Ho  Ho6  1  0.062800  0.061133  0.438034  1
  Ho  Ho7  1  0.187497  0.814138  0.814138  1
  Ho  Ho8  1  0.815726  0.184277  0.184277  1
  Ho  Ho9  1  0.815726  0.184277  0.815720  1
  Ho  Ho10  1  0.187497  0.814138  0.184228  1
  Ho  Ho11  1  0.815726  0.815720  0.184277  1
  Ho  Ho12  1  0.187497  0.184228  0.814138  1
  Th  Th13  1  0.596640  0.599334  0.599334  1
  Th  Th14  1  0.596640  0.599334  0.204692  1
  Th  Th15  1  0.596640  0.204692  0.599334  1
  Mg  Mg16  1  0.830849  0.830167  0.830167  1
  Mg  Mg17  1  0.830849  0.830167  0.508816  1
  Mg  Mg18  1  0.830849  0.508816  0.830167  1
  Cd  Cd19  1  0.501050  0.832983  0.832983  1
  Ir  Ir20  1  0.393249  0.391983  0.391983  1
  Ir  Ir21  1  0.393249  0.391983  0.822787  1
  Ir  Ir22  1  0.393249  0.822787  0.391983  1
  Ir  Ir23  1  0.822287  0.392572  0.392572  1
