# generated using pymatgen
data_Sm2PaTcOs2
_symmetry_space_group_name_H-M   'P 1'
_cell_length_a   5.84439583
_cell_length_b   5.83900901
_cell_length_c   8.40581000
_cell_angle_alpha   90.00000000
_cell_angle_beta   90.00000000
_cell_angle_gamma   119.96949395
_symmetry_Int_Tables_number   1
_chemical_formula_structural   Sm2PaTcOs2
_chemical_formula_sum   'Sm4 Pa2 Tc2 Os4'
_cell_volume   248.49770821
_cell_formula_units_Z   2
loop_
 _symmetry_equiv_pos_site_id
 _symmetry_equiv_pos_as_xyz
  1  'x, y, z'
loop_
 _atom_site_type_symbol
 _atom_site_label
 _atom_site_symmetry_multiplicity
 _atom_site_fract_x
 _atom_site_fract_y
 _atom_site_fract_z
 _atom_site_occupancy
  Sm  Sm0  1  0.334829  0.667415  0.434276  1
  Sm  Sm1  1  0.669337  0.334668  0.558954  1
  Sm  Sm2  1  0.669337  0.334668  0.941046  1
  Sm  Sm3  1  0.334829  0.667415  0.065724  1
  Pa  Pa4  1  0.005072  0.002536  0.996726  1
  Pa  Pa5  1  0.005072  0.002536  0.503274  1
  Tc  Tc6  1  0.162067  0.321484  0.750000  1
  Tc  Tc7  1  0.162067  0.840585  0.750000  1
  Os  Os8  1  0.346807  0.173403  0.250000  1
  Os  Os9  1  0.833872  0.670034  0.250000  1
  Os  Os10  1  0.642840  0.821421  0.750000  1
  Os  Os11  1  0.833872  0.163837  0.250000  1
