# generated using pymatgen
data_CrTe28
_symmetry_space_group_name_H-M   'P 1'
_cell_length_a   9.64321293
_cell_length_b   12.58637907
_cell_length_c   13.63146100
_cell_angle_alpha   127.54007234
_cell_angle_beta   115.21443820
_cell_angle_gamma   83.44953939
_symmetry_Int_Tables_number   1
_chemical_formula_structural   CrTe28
_chemical_formula_sum   'Cr1 Te28'
_cell_volume   1162.22821069
_cell_formula_units_Z   1
loop_
 _symmetry_equiv_pos_site_id
 _symmetry_equiv_pos_as_xyz
  1  'x, y, z'
loop_
 _atom_site_type_symbol
 _atom_site_label
 _atom_site_symmetry_multiplicity
 _atom_site_fract_x
 _atom_site_fract_y
 _atom_site_fract_z
 _atom_site_occupancy
  Cr  Cr0  1  0.500000  0.000000  0.000000  1
  Te  Te1  1  0.200197  0.084196  0.432511  1
  Te  Te2  1  0.655038  0.128188  0.452034  1
  Te  Te3  1  0.156756  0.247281  0.735518  1
  Te  Te4  1  0.839986  0.324547  0.902421  1
  Te  Te5  1  0.181773  0.581950  0.725699  1
  Te  Te6  1  0.643110  0.594794  0.612284  1
  Te  Te7  1  0.344962  0.871812  0.547966  1
  Te  Te8  1  0.799803  0.915804  0.567489  1
  Te  Te9  1  0.160014  0.675453  0.097579  1
  Te  Te10  1  0.843244  0.752719  0.264482  1
  Te  Te11  1  0.356890  0.405206  0.387716  1
  Te  Te12  1  0.818227  0.418050  0.274301  1
  Te  Te13  1  0.734659  0.066452  0.815062  1
  Te  Te14  1  0.214562  0.970271  0.813425  1
  Te  Te15  1  0.840733  0.649764  0.007246  1
  Te  Te16  1  0.427634  0.799083  0.000878  1
  Te  Te17  1  0.558600  0.217328  0.273578  1
  Te  Te18  1  0.030804  0.263583  0.331410  1
  Te  Te19  1  0.785438  0.029729  0.186575  1
  Te  Te20  1  0.265341  0.933548  0.184938  1
  Te  Te21  1  0.572366  0.200917  0.999122  1
  Te  Te22  1  0.159267  0.350236  0.992754  1
  Te  Te23  1  0.969196  0.736417  0.668590  1
  Te  Te24  1  0.441400  0.782672  0.726422  1
  Te  Te25  1  0.935440  0.371392  0.655375  1
  Te  Te26  1  0.493753  0.260687  0.607919  1
  Te  Te27  1  0.506247  0.739313  0.392081  1
  Te  Te28  1  0.064560  0.628608  0.344625  1
