# generated using pymatgen
data_Ba4Tc3NiO12
_symmetry_space_group_name_H-M   'P 1'
_cell_length_a   5.75521964
_cell_length_b   5.75564851
_cell_length_c   9.97083661
_cell_angle_alpha   89.87385387
_cell_angle_beta   106.57593307
_cell_angle_gamma   59.87475710
_symmetry_Int_Tables_number   1
_chemical_formula_structural   Ba4Tc3NiO12
_chemical_formula_sum   'Ba4 Tc3 Ni1 O12'
_cell_volume   269.55747062
_cell_formula_units_Z   1
loop_
 _symmetry_equiv_pos_site_id
 _symmetry_equiv_pos_as_xyz
  1  'x, y, z'
loop_
 _atom_site_type_symbol
 _atom_site_label
 _atom_site_symmetry_multiplicity
 _atom_site_fract_x
 _atom_site_fract_y
 _atom_site_fract_z
 _atom_site_occupancy
  Ba  Ba0  1  0.745920  0.376965  0.368910  1
  Ba  Ba1  1  0.254205  0.622932  0.631183  1
  Ba  Ba2  1  0.754075  0.873004  0.881088  1
  Ba  Ba3  1  0.245933  0.127060  0.118874  1
  Tc  Tc4  1  0.000955  0.749574  0.251541  1
  Tc  Tc5  1  0.499982  0.999983  0.499921  1
  Tc  Tc6  1  0.999080  0.250434  0.748467  1
  Ni  Ni7  1  0.499139  0.500406  0.999505  1
  O  O8  1  0.251002  0.874125  0.377010  1
  O  O9  1  0.749165  0.125698  0.623115  1
  O  O10  1  0.239052  0.371626  0.867651  1
  O  O11  1  0.760951  0.628452  0.132396  1
  O  O12  1  0.749034  0.625242  0.622866  1
  O  O13  1  0.239747  0.889293  0.867536  1
  O  O14  1  0.760410  0.110768  0.132533  1
  O  O15  1  0.251081  0.374607  0.377234  1
  O  O16  1  0.751316  0.874306  0.377086  1
  O  O17  1  0.248817  0.125599  0.623035  1
  O  O18  1  0.756759  0.372007  0.867427  1
  O  O19  1  0.243377  0.627920  0.132620  1
