# generated using pymatgen
data_Hf3Zr3NiSnBi
_symmetry_space_group_name_H-M   'P 1'
_cell_length_a   3.68451100
_cell_length_b   7.84132729
_cell_length_c   7.84132900
_cell_angle_alpha   119.99999458
_cell_angle_beta   90.00000000
_cell_angle_gamma   90.00000000
_symmetry_Int_Tables_number   1
_chemical_formula_structural   Hf3Zr3NiSnBi
_chemical_formula_sum   'Hf3 Zr3 Ni1 Sn1 Bi1'
_cell_volume   196.19582883
_cell_formula_units_Z   1
loop_
 _symmetry_equiv_pos_site_id
 _symmetry_equiv_pos_as_xyz
  1  'x, y, z'
loop_
 _atom_site_type_symbol
 _atom_site_label
 _atom_site_symmetry_multiplicity
 _atom_site_fract_x
 _atom_site_fract_y
 _atom_site_fract_z
 _atom_site_occupancy
  Hf  Hf0  1  0.500000  0.766328  0.763001  1
  Hf  Hf1  1  0.500000  0.996672  0.233672  1
  Hf  Hf2  1  0.500000  0.236999  0.003328  1
  Zr  Zr3  1  0.000000  0.396868  0.391974  1
  Zr  Zr4  1  0.000000  0.995106  0.603132  1
  Zr  Zr5  1  0.000000  0.608026  0.004894  1
  Ni  Ni6  1  0.000000  0.000000  0.000000  1
  Sn  Sn7  1  0.500000  0.666667  0.333333  1
  Bi  Bi8  1  0.500000  0.333333  0.666667  1
