# generated using pymatgen
data_Hf3Ti5Al15Ir7
_symmetry_space_group_name_H-M   'P 1'
_cell_length_a   8.73826373
_cell_length_b   8.72554936
_cell_length_c   8.73826328
_cell_angle_alpha   120.16775851
_cell_angle_beta   119.89511731
_cell_angle_gamma   89.98759426
_symmetry_Int_Tables_number   1
_chemical_formula_structural   Hf3Ti5Al15Ir7
_chemical_formula_sum   'Hf3 Ti5 Al15 Ir7'
_cell_volume   470.71658922
_cell_formula_units_Z   1
loop_
 _symmetry_equiv_pos_site_id
 _symmetry_equiv_pos_as_xyz
  1  'x, y, z'
loop_
 _atom_site_type_symbol
 _atom_site_label
 _atom_site_symmetry_multiplicity
 _atom_site_fract_x
 _atom_site_fract_y
 _atom_site_fract_z
 _atom_site_occupancy
  Hf  Hf0  1  0.801121  0.293608  0.082667  1
  Hf  Hf1  1  0.210940  0.293608  0.492487  1
  Hf  Hf2  1  0.203061  0.699914  0.496853  1
  Ti  Ti3  1  0.219860  0.717814  0.926502  1
  Ti  Ti4  1  0.791311  0.717814  0.497952  1
  Ti  Ti5  1  0.782310  0.280832  0.498522  1
  Ti  Ti6  1  0.378165  0.124482  0.746317  1
  Ti  Ti7  1  0.381859  0.637308  0.255450  1
  Al  Al8  1  0.988081  0.502706  0.514625  1
  Al  Al9  1  0.164213  0.335038  0.170823  1
  Al  Al10  1  0.152714  0.968633  0.815919  1
  Al  Al11  1  0.149419  0.348206  0.808311  1
  Al  Al12  1  0.539894  0.348206  0.198787  1
  Al  Al13  1  0.847132  0.651851  0.804720  1
  Al  Al14  1  0.837928  0.024376  0.186447  1
  Al  Al15  1  0.836202  0.661484  0.181835  1
  Al  Al16  1  0.479648  0.661484  0.825281  1
  Al  Al17  1  0.383804  0.117951  0.256814  1
  Al  Al18  1  0.861138  0.117951  0.734146  1
  Al  Al19  1  0.619688  0.879847  0.260160  1
  Al  Al20  1  0.623342  0.365534  0.742191  1
  Al  Al21  1  0.622273  0.875108  0.740043  1
  Al  Al22  1  0.135064  0.875108  0.252835  1
  Ir  Ir23  1  0.002947  0.000996  0.504184  1
  Ir  Ir24  1  0.496812  0.000996  0.998049  1
  Ir  Ir25  1  0.496568  0.497174  0.000606  1
  Ir  Ir26  1  0.497826  0.500151  0.500355  1
  Ir  Ir27  1  0.999797  0.500151  0.002326  1
  Ir  Ir28  1  0.998395  0.001331  0.002936  1
  Ir  Ir29  1  0.498482  0.000337  0.501855  1
