# generated using pymatgen
data_Pr4YSi12Ir19
_symmetry_space_group_name_H-M   'P 1'
_cell_length_a   12.91994600
_cell_length_b   12.91994611
_cell_length_c   4.02472200
_cell_angle_alpha   90.00000000
_cell_angle_beta   90.00000000
_cell_angle_gamma   120.00000484
_symmetry_Int_Tables_number   1
_chemical_formula_structural   Pr4YSi12Ir19
_chemical_formula_sum   'Pr4 Y1 Si12 Ir19'
_cell_volume   581.81899904
_cell_formula_units_Z   1
loop_
 _symmetry_equiv_pos_site_id
 _symmetry_equiv_pos_as_xyz
  1  'x, y, z'
loop_
 _atom_site_type_symbol
 _atom_site_label
 _atom_site_symmetry_multiplicity
 _atom_site_fract_x
 _atom_site_fract_y
 _atom_site_fract_z
 _atom_site_occupancy
  Pr  Pr0  1  0.666667  0.333333  0.000000  1
  Pr  Pr1  1  0.814430  0.814120  0.500000  1
  Pr  Pr2  1  0.185880  0.000310  0.500000  1
  Pr  Pr3  1  0.999690  0.185570  0.500000  1
  Y  Y4  1  0.333333  0.666667  0.000000  1
  Si  Si5  1  0.688582  0.167708  0.500000  1
  Si  Si6  1  0.832292  0.520873  0.500000  1
  Si  Si7  1  0.479127  0.311418  0.500000  1
  Si  Si8  1  0.171359  0.689276  0.500000  1
  Si  Si9  1  0.517916  0.828641  0.500000  1
  Si  Si10  1  0.310724  0.482084  0.500000  1
  Si  Si11  1  0.629244  0.629306  0.000000  1
  Si  Si12  1  0.370694  0.999938  0.000000  1
  Si  Si13  1  0.000062  0.370756  0.000000  1
  Si  Si14  1  0.183894  0.185143  0.000000  1
  Si  Si15  1  0.814857  0.998751  0.000000  1
  Si  Si16  1  0.001249  0.816106  0.000000  1
  Ir  Ir17  1  0.803924  0.182004  0.000000  1
  Ir  Ir18  1  0.817996  0.621920  0.000000  1
  Ir  Ir19  1  0.378080  0.196076  0.000000  1
  Ir  Ir20  1  0.184149  0.803312  0.000000  1
  Ir  Ir21  1  0.619163  0.815851  0.000000  1
  Ir  Ir22  1  0.196688  0.380837  0.000000  1
  Ir  Ir23  1  0.446728  0.446715  0.000000  1
  Ir  Ir24  1  0.553285  0.000013  0.000000  1
  Ir  Ir25  1  0.999987  0.553272  0.000000  1
  Ir  Ir26  1  0.284876  0.286449  0.500000  1
  Ir  Ir27  1  0.713551  0.998428  0.500000  1
  Ir  Ir28  1  0.001572  0.715124  0.500000  1
  Ir  Ir29  1  0.875587  0.362329  0.500000  1
  Ir  Ir30  1  0.637671  0.513260  0.500000  1
  Ir  Ir31  1  0.486740  0.124413  0.500000  1
  Ir  Ir32  1  0.363155  0.873395  0.500000  1
  Ir  Ir33  1  0.510242  0.636845  0.500000  1
  Ir  Ir34  1  0.126605  0.489758  0.500000  1
  Ir  Ir35  1  0.000000  0.000000  0.000000  1
