# generated using pymatgen
data_TiV2GaC2
_symmetry_space_group_name_H-M   'P 1'
_cell_length_a   2.97708500
_cell_length_b   2.97708641
_cell_length_c   17.90180500
_cell_angle_alpha   90.00000000
_cell_angle_beta   90.00000000
_cell_angle_gamma   120.00001768
_symmetry_Int_Tables_number   1
_chemical_formula_structural   TiV2GaC2
_chemical_formula_sum   'Ti2 V4 Ga2 C4'
_cell_volume   137.40737755
_cell_formula_units_Z   2
loop_
 _symmetry_equiv_pos_site_id
 _symmetry_equiv_pos_as_xyz
  1  'x, y, z'
loop_
 _atom_site_type_symbol
 _atom_site_label
 _atom_site_symmetry_multiplicity
 _atom_site_fract_x
 _atom_site_fract_y
 _atom_site_fract_z
 _atom_site_occupancy
  Ti  Ti0  1  0.000000  0.000000  0.500000  1
  Ti  Ti1  1  0.000000  0.000000  0.000000  1
  V  V2  1  0.666667  0.333333  0.367941  1
  V  V3  1  0.333333  0.666667  0.867941  1
  V  V4  1  0.333333  0.666667  0.632059  1
  V  V5  1  0.666667  0.333333  0.132059  1
  Ga  Ga6  1  0.000000  0.000000  0.750000  1
  Ga  Ga7  1  0.000000  0.000000  0.250000  1
  C  C8  1  0.333333  0.666667  0.426498  1
  C  C9  1  0.666667  0.333333  0.926498  1
  C  C10  1  0.333333  0.666667  0.073502  1
  C  C11  1  0.666667  0.333333  0.573502  1
