# generated using pymatgen
data_Er16Cd4Ir2PdRh
_symmetry_space_group_name_H-M   'P 1'
_cell_length_a   9.56036655
_cell_length_b   9.56835613
_cell_length_c   9.61141600
_cell_angle_alpha   59.85102137
_cell_angle_beta   59.82320653
_cell_angle_gamma   59.64580745
_symmetry_Int_Tables_number   1
_chemical_formula_structural   Er16Cd4Ir2PdRh
_chemical_formula_sum   'Er16 Cd4 Ir2 Pd1 Rh1'
_cell_volume   618.50078710
_cell_formula_units_Z   1
loop_
 _symmetry_equiv_pos_site_id
 _symmetry_equiv_pos_as_xyz
  1  'x, y, z'
loop_
 _atom_site_type_symbol
 _atom_site_label
 _atom_site_symmetry_multiplicity
 _atom_site_fract_x
 _atom_site_fract_y
 _atom_site_fract_z
 _atom_site_occupancy
  Er  Er0  1  0.347608  0.353033  0.352286  1
  Er  Er1  1  0.347608  0.353033  0.947070  1
  Er  Er2  1  0.347989  0.946129  0.352940  1
  Er  Er3  1  0.951081  0.349680  0.349618  1
  Er  Er4  1  0.814955  0.188260  0.189372  1
  Er  Er5  1  0.187697  0.811703  0.811689  1
  Er  Er6  1  0.187697  0.811703  0.188910  1
  Er  Er7  1  0.814955  0.188260  0.807412  1
  Er  Er8  1  0.188816  0.188662  0.811260  1
  Er  Er9  1  0.815829  0.807418  0.188377  1
  Er  Er10  1  0.936530  0.562985  0.564436  1
  Er  Er11  1  0.561310  0.936804  0.935591  1
  Er  Er12  1  0.561310  0.936804  0.566296  1
  Er  Er13  1  0.936530  0.562985  0.936047  1
  Er  Er14  1  0.563347  0.566466  0.935094  1
  Er  Er15  1  0.937155  0.937710  0.562567  1
  Cd  Cd16  1  0.581119  0.580798  0.581489  1
  Cd  Cd17  1  0.581119  0.580798  0.256592  1
  Cd  Cd18  1  0.581340  0.255750  0.581454  1
  Cd  Cd19  1  0.254405  0.581499  0.582048  1
  Ir  Ir20  1  0.144166  0.142696  0.142248  1
  Ir  Ir21  1  0.144166  0.142696  0.570891  1
  Pd  Pd22  1  0.569409  0.143700  0.143446  1
  Rh  Rh23  1  0.143853  0.570425  0.142861  1
