# generated using pymatgen
data_Tb5Yb(Si3Ru)8
_symmetry_space_group_name_H-M   'P 1'
_cell_length_a   10.14098364
_cell_length_b   10.14098376
_cell_length_c   8.15027918
_cell_angle_alpha   89.90733711
_cell_angle_beta   90.09266117
_cell_angle_gamma   132.61346835
_symmetry_Int_Tables_number   1
_chemical_formula_structural   Tb5Yb(Si3Ru)8
_chemical_formula_sum   'Tb5 Yb1 Si24 Ru8'
_cell_volume   616.84092469
_cell_formula_units_Z   1
loop_
 _symmetry_equiv_pos_site_id
 _symmetry_equiv_pos_as_xyz
  1  'x, y, z'
loop_
 _atom_site_type_symbol
 _atom_site_label
 _atom_site_symmetry_multiplicity
 _atom_site_fract_x
 _atom_site_fract_y
 _atom_site_fract_z
 _atom_site_occupancy
  Tb  Tb0  1  0.500211  0.500271  0.500437  1
  Tb  Tb1  1  0.000271  0.000211  0.999563  1
  Tb  Tb2  1  0.998040  0.498040  0.250000  1
  Tb  Tb3  1  0.497278  0.997278  0.250000  1
  Tb  Tb4  1  0.002798  0.502798  0.750000  1
  Yb  Yb5  1  0.502249  0.002249  0.750000  1
  Si  Si6  1  0.793463  0.203844  0.500737  1
  Si  Si7  1  0.295865  0.706473  0.998548  1
  Si  Si8  1  0.206473  0.795865  0.501452  1
  Si  Si9  1  0.703844  0.293463  0.999263  1
  Si  Si10  1  0.333085  0.334148  0.833292  1
  Si  Si11  1  0.666770  0.667782  0.166560  1
  Si  Si12  1  0.167782  0.166770  0.333440  1
  Si  Si13  1  0.834148  0.833085  0.666708  1
  Si  Si14  1  0.121650  0.887450  0.728009  1
  Si  Si15  1  0.111095  0.877515  0.271987  1
  Si  Si16  1  0.611405  0.377941  0.228584  1
  Si  Si17  1  0.622957  0.388948  0.772215  1
  Si  Si18  1  0.877941  0.111405  0.271416  1
  Si  Si19  1  0.888948  0.122957  0.727785  1
  Si  Si20  1  0.387450  0.621650  0.771991  1
  Si  Si21  1  0.377515  0.611095  0.228013  1
  Si  Si22  1  0.344449  0.111210  0.504188  1
  Si  Si23  1  0.888263  0.655190  0.494210  1
  Si  Si24  1  0.388722  0.155091  0.005591  1
  Si  Si25  1  0.844657  0.611886  0.994458  1
  Si  Si26  1  0.655091  0.888722  0.494409  1
  Si  Si27  1  0.111886  0.344657  0.505542  1
  Si  Si28  1  0.611210  0.844449  0.995812  1
  Si  Si29  1  0.155190  0.388263  0.005790  1
  Ru  Ru30  1  0.670007  0.330529  0.500135  1
  Ru  Ru31  1  0.168399  0.829483  0.000972  1
  Ru  Ru32  1  0.329483  0.668399  0.499028  1
  Ru  Ru33  1  0.830529  0.170007  0.999865  1
  Ru  Ru34  1  0.126693  0.126781  0.626944  1
  Ru  Ru35  1  0.873400  0.874001  0.373142  1
  Ru  Ru36  1  0.374001  0.373400  0.126858  1
  Ru  Ru37  1  0.626781  0.626693  0.873056  1
