# generated using pymatgen
data_Dy2Ho6Si12IrRh3
_symmetry_space_group_name_H-M   'P 1'
_cell_length_a   8.15983800
_cell_length_b   8.15983850
_cell_length_c   7.88407500
_cell_angle_alpha   90.00000000
_cell_angle_beta   90.00000000
_cell_angle_gamma   120.00000608
_symmetry_Int_Tables_number   1
_chemical_formula_structural   Dy2Ho6Si12IrRh3
_chemical_formula_sum   'Dy2 Ho6 Si12 Ir1 Rh3'
_cell_volume   454.61572324
_cell_formula_units_Z   1
loop_
 _symmetry_equiv_pos_site_id
 _symmetry_equiv_pos_as_xyz
  1  'x, y, z'
loop_
 _atom_site_type_symbol
 _atom_site_label
 _atom_site_symmetry_multiplicity
 _atom_site_fract_x
 _atom_site_fract_y
 _atom_site_fract_z
 _atom_site_occupancy
  Dy  Dy0  1  0.000000  0.000000  0.248798  1
  Dy  Dy1  1  0.000000  0.000000  0.750287  1
  Ho  Ho2  1  0.508774  0.491226  0.250182  1
  Ho  Ho3  1  0.508774  0.017549  0.250182  1
  Ho  Ho4  1  0.982451  0.491226  0.250182  1
  Ho  Ho5  1  0.490506  0.509494  0.749857  1
  Ho  Ho6  1  0.490506  0.981011  0.749857  1
  Ho  Ho7  1  0.018989  0.509494  0.749857  1
  Si  Si8  1  0.166591  0.833409  0.499218  1
  Si  Si9  1  0.166591  0.333182  0.499218  1
  Si  Si10  1  0.666818  0.833409  0.499218  1
  Si  Si11  1  0.832708  0.167292  0.500169  1
  Si  Si12  1  0.832708  0.665417  0.500169  1
  Si  Si13  1  0.334583  0.167292  0.500169  1
  Si  Si14  1  0.832858  0.167142  0.999937  1
  Si  Si15  1  0.832858  0.665718  0.999937  1
  Si  Si16  1  0.334282  0.167142  0.999937  1
  Si  Si17  1  0.167039  0.832961  0.999516  1
  Si  Si18  1  0.167039  0.334076  0.999516  1
  Si  Si19  1  0.665924  0.832961  0.999516  1
  Ir  Ir20  1  0.333333  0.666667  0.468539  1
  Rh  Rh21  1  0.666667  0.333333  0.533835  1
  Rh  Rh22  1  0.666667  0.333333  0.964643  1
  Rh  Rh23  1  0.333333  0.666667  0.037258  1
