# generated using pymatgen
data_Ce2Dy2ErRu2
_symmetry_space_group_name_H-M   'P 1'
_cell_length_a   6.37960574
_cell_length_b   7.01393907
_cell_length_c   8.83287197
_cell_angle_alpha   95.38442358
_cell_angle_beta   111.16952859
_cell_angle_gamma   90.00000653
_symmetry_Int_Tables_number   1
_chemical_formula_structural   Ce2Dy2ErRu2
_chemical_formula_sum   'Ce4 Dy4 Er2 Ru4'
_cell_volume   366.69415658
_cell_formula_units_Z   2
loop_
 _symmetry_equiv_pos_site_id
 _symmetry_equiv_pos_as_xyz
  1  'x, y, z'
loop_
 _atom_site_type_symbol
 _atom_site_label
 _atom_site_symmetry_multiplicity
 _atom_site_fract_x
 _atom_site_fract_y
 _atom_site_fract_z
 _atom_site_occupancy
  Ce  Ce0  1  0.793222  0.595600  0.811087  1
  Ce  Ce1  1  0.982135  0.904400  0.188913  1
  Ce  Ce2  1  0.206778  0.404400  0.188913  1
  Ce  Ce3  1  0.017865  0.095600  0.811087  1
  Dy  Dy4  1  0.208568  0.684189  0.567439  1
  Dy  Dy5  1  0.641128  0.815811  0.432561  1
  Dy  Dy6  1  0.791432  0.315811  0.432561  1
  Dy  Dy7  1  0.358872  0.184189  0.567439  1
  Er  Er8  1  0.419772  0.750000  0.000000  1
  Er  Er9  1  0.580228  0.250000  0.000000  1
  Ru  Ru10  1  0.627553  0.906462  0.780038  1
  Ru  Ru11  1  0.847514  0.593538  0.219962  1
  Ru  Ru12  1  0.372447  0.093538  0.219962  1
  Ru  Ru13  1  0.152486  0.406462  0.780038  1
