# generated using pymatgen
data_Pr2Si4IrRh5
_symmetry_space_group_name_H-M   'P 1'
_cell_length_a   6.72359168
_cell_length_b   6.71833337
_cell_length_c   6.72359227
_cell_angle_alpha   130.29016117
_cell_angle_beta   114.82999633
_cell_angle_gamma   86.20814681
_symmetry_Int_Tables_number   1
_chemical_formula_structural   Pr2Si4IrRh5
_chemical_formula_sum   'Pr2 Si4 Ir1 Rh5'
_cell_volume   200.78117819
_cell_formula_units_Z   1
loop_
 _symmetry_equiv_pos_site_id
 _symmetry_equiv_pos_as_xyz
  1  'x, y, z'
loop_
 _atom_site_type_symbol
 _atom_site_label
 _atom_site_symmetry_multiplicity
 _atom_site_fract_x
 _atom_site_fract_y
 _atom_site_fract_z
 _atom_site_occupancy
  Pr  Pr0  1  0.250665  0.968811  0.719334  1
  Pr  Pr1  1  0.750523  0.031189  0.281854  1
  Si  Si2  1  0.079152  0.279751  0.200781  1
  Si  Si3  1  0.921029  0.720249  0.799400  1
  Si  Si4  1  0.420748  0.622144  0.199781  1
  Si  Si5  1  0.577638  0.377856  0.798604  1
  Ir  Ir6  1  0.781795  0.500000  0.281795  1
  Rh  Rh7  1  0.500301  0.499632  0.500315  1
  Rh  Rh8  1  0.000683  0.500368  0.000669  1
  Rh  Rh9  1  0.281819  0.000000  0.281819  1
  Rh  Rh10  1  0.717632  0.000000  0.717632  1
  Rh  Rh11  1  0.218016  0.500000  0.718016  1
