# generated using pymatgen
data_YbPaBr6
_symmetry_space_group_name_H-M   'P 1'
_cell_length_a   8.11649153
_cell_length_b   8.11649126
_cell_length_c   8.11649149
_cell_angle_alpha   54.02129907
_cell_angle_beta   54.02129421
_cell_angle_gamma   54.02128923
_symmetry_Int_Tables_number   1
_chemical_formula_structural   YbPaBr6
_chemical_formula_sum   'Yb1 Pa1 Br6'
_cell_volume   325.29079803
_cell_formula_units_Z   1
loop_
 _symmetry_equiv_pos_site_id
 _symmetry_equiv_pos_as_xyz
  1  'x, y, z'
loop_
 _atom_site_type_symbol
 _atom_site_label
 _atom_site_symmetry_multiplicity
 _atom_site_fract_x
 _atom_site_fract_y
 _atom_site_fract_z
 _atom_site_occupancy
  Yb  Yb0  1  0.166905  0.166905  0.166905  1
  Pa  Pa1  1  0.833256  0.833256  0.833256  1
  Br  Br2  1  0.932467  0.214320  0.585629  1
  Br  Br3  1  0.585629  0.932467  0.214320  1
  Br  Br4  1  0.214320  0.585629  0.932467  1
  Br  Br5  1  0.779225  0.429899  0.058298  1
  Br  Br6  1  0.429899  0.058298  0.779225  1
  Br  Br7  1  0.058298  0.779225  0.429899  1
