# generated using pymatgen
data_Pr10GaSi5
_symmetry_space_group_name_H-M   'P 1'
_cell_length_a   7.82268800
_cell_length_b   7.82268800
_cell_length_c   14.44724000
_cell_angle_alpha   90.00000000
_cell_angle_beta   90.00000000
_cell_angle_gamma   90.00000000
_symmetry_Int_Tables_number   1
_chemical_formula_structural   Pr10GaSi5
_chemical_formula_sum   'Pr20 Ga2 Si10'
_cell_volume   884.09087035
_cell_formula_units_Z   2
loop_
 _symmetry_equiv_pos_site_id
 _symmetry_equiv_pos_as_xyz
  1  'x, y, z'
loop_
 _atom_site_type_symbol
 _atom_site_label
 _atom_site_symmetry_multiplicity
 _atom_site_fract_x
 _atom_site_fract_y
 _atom_site_fract_z
 _atom_site_occupancy
  Pr  Pr0  1  0.814023  0.827919  0.605026  1
  Pr  Pr1  1  0.185400  0.830430  0.109334  1
  Pr  Pr2  1  0.172081  0.814023  0.394974  1
  Pr  Pr3  1  0.000000  0.500000  0.728779  1
  Pr  Pr4  1  0.827919  0.185977  0.394974  1
  Pr  Pr5  1  0.685977  0.672081  0.394974  1
  Pr  Pr6  1  0.672081  0.314023  0.605026  1
  Pr  Pr7  1  0.327919  0.685977  0.605026  1
  Pr  Pr8  1  0.000000  0.500000  0.227302  1
  Pr  Pr9  1  0.669570  0.685400  0.109334  1
  Pr  Pr10  1  0.685400  0.330430  0.890666  1
  Pr  Pr11  1  0.830430  0.814600  0.890666  1
  Pr  Pr12  1  0.314023  0.327919  0.394974  1
  Pr  Pr13  1  0.185977  0.172081  0.605026  1
  Pr  Pr14  1  0.814600  0.169570  0.109334  1
  Pr  Pr15  1  0.314600  0.669570  0.890666  1
  Pr  Pr16  1  0.330430  0.314600  0.109334  1
  Pr  Pr17  1  0.500000  0.000000  0.271221  1
  Pr  Pr18  1  0.169570  0.185400  0.890666  1
  Pr  Pr19  1  0.500000  0.000000  0.772698  1
  Ga  Ga20  1  0.500000  0.000000  0.996062  1
  Ga  Ga21  1  0.000000  0.500000  0.003938  1
  Si  Si22  1  0.613913  0.386737  0.253120  1
  Si  Si23  1  0.113913  0.886737  0.746880  1
  Si  Si24  1  0.386737  0.386087  0.746880  1
  Si  Si25  1  0.386087  0.613263  0.253120  1
  Si  Si26  1  0.886737  0.886087  0.253120  1
  Si  Si27  1  0.613263  0.613913  0.746880  1
  Si  Si28  1  0.000000  0.500000  0.507618  1
  Si  Si29  1  0.886087  0.113263  0.746880  1
  Si  Si30  1  0.500000  0.000000  0.492382  1
  Si  Si31  1  0.113263  0.113913  0.253120  1
