# generated using pymatgen
data_Na4InGa3Br16
_symmetry_space_group_name_H-M   'P 1'
_cell_length_a   7.43876907
_cell_length_b   8.00434251
_cell_length_c   14.72072615
_cell_angle_alpha   86.95643679
_cell_angle_beta   90.34428616
_cell_angle_gamma   89.95365209
_symmetry_Int_Tables_number   1
_chemical_formula_structural   Na4InGa3Br16
_chemical_formula_sum   'Na4 In1 Ga3 Br16'
_cell_volume   875.25546685
_cell_formula_units_Z   1
loop_
 _symmetry_equiv_pos_site_id
 _symmetry_equiv_pos_as_xyz
  1  'x, y, z'
loop_
 _atom_site_type_symbol
 _atom_site_label
 _atom_site_symmetry_multiplicity
 _atom_site_fract_x
 _atom_site_fract_y
 _atom_site_fract_z
 _atom_site_occupancy
  Na  Na0  1  0.992839  0.846852  0.373888  1
  Na  Na1  1  0.497064  0.152552  0.127143  1
  Na  Na2  1  0.006264  0.153858  0.627005  1
  Na  Na3  1  0.507967  0.846665  0.871734  1
  In  In4  1  0.307590  0.700903  0.101775  1
  Ga  Ga5  1  0.189135  0.705335  0.601291  1
  Ga  Ga6  1  0.688998  0.294418  0.898469  1
  Ga  Ga7  1  0.810746  0.294309  0.399136  1
  Br  Br8  1  0.319403  0.686643  0.456942  1
  Br  Br9  1  0.819816  0.315362  0.043336  1
  Br  Br10  1  0.679692  0.313755  0.543240  1
  Br  Br11  1  0.174443  0.686848  0.943895  1
  Br  Br12  1  0.113599  0.200039  0.424671  1
  Br  Br13  1  0.630622  0.809242  0.074219  1
  Br  Br14  1  0.885689  0.799499  0.577205  1
  Br  Br15  1  0.386123  0.200456  0.922920  1
  Br  Br16  1  0.331668  0.926668  0.678551  1
  Br  Br17  1  0.830955  0.074161  0.820868  1
  Br  Br18  1  0.668661  0.073191  0.321636  1
  Br  Br19  1  0.161844  0.941778  0.184169  1
  Br  Br20  1  0.205684  0.455451  0.691418  1
  Br  Br21  1  0.704054  0.543692  0.807836  1
  Br  Br22  1  0.794612  0.544178  0.308431  1
  Br  Br23  1  0.292530  0.434144  0.200221  1
