# generated using pymatgen
data_Th3Ga3NiOs2
_symmetry_space_group_name_H-M   'P 1'
_cell_length_a   7.23779300
_cell_length_b   7.23779409
_cell_length_c   4.02893900
_cell_angle_alpha   90.00000000
_cell_angle_beta   90.00000000
_cell_angle_gamma   120.00000872
_symmetry_Int_Tables_number   1
_chemical_formula_structural   Th3Ga3NiOs2
_chemical_formula_sum   'Th3 Ga3 Ni1 Os2'
_cell_volume   182.78210200
_cell_formula_units_Z   1
loop_
 _symmetry_equiv_pos_site_id
 _symmetry_equiv_pos_as_xyz
  1  'x, y, z'
loop_
 _atom_site_type_symbol
 _atom_site_label
 _atom_site_symmetry_multiplicity
 _atom_site_fract_x
 _atom_site_fract_y
 _atom_site_fract_z
 _atom_site_occupancy
  Th  Th0  1  0.000000  0.415063  0.500000  1
  Th  Th1  1  0.584937  0.584937  0.500000  1
  Th  Th2  1  0.415063  0.000000  0.500000  1
  Ga  Ga3  1  0.000000  0.767849  0.000000  1
  Ga  Ga4  1  0.232151  0.232151  0.000000  1
  Ga  Ga5  1  0.767849  0.000000  0.000000  1
  Ni  Ni6  1  0.000000  0.000000  0.500000  1
  Os  Os7  1  0.333333  0.666667  0.000000  1
  Os  Os8  1  0.666667  0.333333  0.000000  1
