# generated using pymatgen
data_Tm3Lu16MgIr12
_symmetry_space_group_name_H-M   'P 1'
_cell_length_a   10.64700901
_cell_length_b   10.64750621
_cell_length_c   6.23183112
_cell_angle_alpha   89.97752528
_cell_angle_beta   90.00321222
_cell_angle_gamma   89.99593207
_symmetry_Int_Tables_number   1
_chemical_formula_structural   Tm3Lu16MgIr12
_chemical_formula_sum   'Tm3 Lu16 Mg1 Ir12'
_cell_volume   706.46583550
_cell_formula_units_Z   1
loop_
 _symmetry_equiv_pos_site_id
 _symmetry_equiv_pos_as_xyz
  1  'x, y, z'
loop_
 _atom_site_type_symbol
 _atom_site_label
 _atom_site_symmetry_multiplicity
 _atom_site_fract_x
 _atom_site_fract_y
 _atom_site_fract_z
 _atom_site_occupancy
  Tm  Tm0  1  0.915353  0.284017  0.622614  1
  Tm  Tm1  1  0.084519  0.716158  0.622621  1
  Tm  Tm2  1  0.087825  0.290693  0.121243  1
  Lu  Lu3  1  0.284822  0.083954  0.377932  1
  Lu  Lu4  1  0.291456  0.912734  0.879404  1
  Lu  Lu5  1  0.708531  0.087264  0.879248  1
  Lu  Lu6  1  0.715455  0.915712  0.377906  1
  Lu  Lu7  1  0.588179  0.792174  0.877686  1
  Lu  Lu8  1  0.586940  0.207989  0.376308  1
  Lu  Lu9  1  0.413066  0.792007  0.376235  1
  Lu  Lu10  1  0.411861  0.207827  0.877585  1
  Lu  Lu11  1  0.208253  0.413074  0.623773  1
  Lu  Lu12  1  0.208088  0.588385  0.122511  1
  Lu  Lu13  1  0.791771  0.411976  0.122515  1
  Lu  Lu14  1  0.791631  0.587163  0.623751  1
  Lu  Lu15  1  0.912234  0.708929  0.120815  1
  Lu  Lu16  1  0.999861  0.999697  0.999785  1
  Lu  Lu17  1  0.500040  0.500075  0.000152  1
  Lu  Lu18  1  0.500066  0.500069  0.499879  1
  Mg  Mg19  1  0.000013  0.999850  0.499482  1
  Ir  Ir20  1  0.845020  0.154593  0.245441  1
  Ir  Ir21  1  0.844210  0.846126  0.753986  1
  Ir  Ir22  1  0.155965  0.153382  0.752619  1
  Ir  Ir23  1  0.154428  0.845120  0.245094  1
  Ir  Ir24  1  0.653495  0.346431  0.749150  1
  Ir  Ir25  1  0.653757  0.654122  0.251278  1
  Ir  Ir26  1  0.346956  0.346035  0.251662  1
  Ir  Ir27  1  0.346584  0.653573  0.749187  1
  Ir  Ir28  1  0.500063  0.999959  0.125031  1
  Ir  Ir29  1  0.499941  0.999919  0.621033  1
  Ir  Ir30  1  0.999814  0.500493  0.875589  1
  Ir  Ir31  1  0.999805  0.500500  0.378483  1
