# generated using pymatgen
data_Li4Dy3HoSi8
_symmetry_space_group_name_H-M   'P 1'
_cell_length_a   3.79539500
_cell_length_b   7.57673169
_cell_length_c   10.17216570
_cell_angle_alpha   90.02698664
_cell_angle_beta   90.00000000
_cell_angle_gamma   90.00000000
_symmetry_Int_Tables_number   1
_chemical_formula_structural   Li4Dy3HoSi8
_chemical_formula_sum   'Li4 Dy3 Ho1 Si8'
_cell_volume   292.51777868
_cell_formula_units_Z   1
loop_
 _symmetry_equiv_pos_site_id
 _symmetry_equiv_pos_as_xyz
  1  'x, y, z'
loop_
 _atom_site_type_symbol
 _atom_site_label
 _atom_site_symmetry_multiplicity
 _atom_site_fract_x
 _atom_site_fract_y
 _atom_site_fract_z
 _atom_site_occupancy
  Li  Li0  1  0.250000  0.990672  0.391655  1
  Li  Li1  1  0.250000  0.490311  0.108180  1
  Li  Li2  1  0.750000  0.009802  0.608451  1
  Li  Li3  1  0.750000  0.509639  0.892015  1
  Dy  Dy4  1  0.250000  0.139135  0.864193  1
  Dy  Dy5  1  0.250000  0.639185  0.635590  1
  Dy  Dy6  1  0.750000  0.860579  0.135872  1
  Ho  Ho7  1  0.750000  0.361040  0.364171  1
  Si  Si8  1  0.250000  0.232283  0.567592  1
  Si  Si9  1  0.250000  0.731816  0.931833  1
  Si  Si10  1  0.750000  0.767895  0.431687  1
  Si  Si11  1  0.750000  0.268288  0.068653  1
  Si  Si12  1  0.250000  0.655594  0.320238  1
  Si  Si13  1  0.250000  0.156808  0.180312  1
  Si  Si14  1  0.750000  0.343789  0.679543  1
  Si  Si15  1  0.750000  0.843163  0.820013  1
