# generated using pymatgen
data_Nd7Sm(GePt)8
_symmetry_space_group_name_H-M   'P 1'
_cell_length_a   4.49198100
_cell_length_b   7.69031800
_cell_length_c   14.59330900
_cell_angle_alpha   90.00000000
_cell_angle_beta   90.00000000
_cell_angle_gamma   90.00000000
_symmetry_Int_Tables_number   1
_chemical_formula_structural   Nd7Sm(GePt)8
_chemical_formula_sum   'Nd7 Sm1 Ge8 Pt8'
_cell_volume   504.12239116
_cell_formula_units_Z   1
loop_
 _symmetry_equiv_pos_site_id
 _symmetry_equiv_pos_as_xyz
  1  'x, y, z'
loop_
 _atom_site_type_symbol
 _atom_site_label
 _atom_site_symmetry_multiplicity
 _atom_site_fract_x
 _atom_site_fract_y
 _atom_site_fract_z
 _atom_site_occupancy
  Nd  Nd0  1  0.500000  0.789544  0.747827  1
  Nd  Nd1  1  0.000000  0.210588  0.751866  1
  Nd  Nd2  1  0.500000  0.789544  0.252173  1
  Nd  Nd3  1  0.000000  0.210588  0.248134  1
  Nd  Nd4  1  0.500000  0.709622  0.000000  1
  Nd  Nd5  1  0.500000  0.704373  0.500000  1
  Nd  Nd6  1  0.000000  0.294983  0.000000  1
  Sm  Sm7  1  0.000000  0.289400  0.500000  1
  Ge  Ge8  1  0.500000  0.411580  0.648374  1
  Ge  Ge9  1  0.000000  0.587994  0.850893  1
  Ge  Ge10  1  0.500000  0.411580  0.351626  1
  Ge  Ge11  1  0.000000  0.587994  0.149107  1
  Ge  Ge12  1  0.500000  0.087358  0.095317  1
  Ge  Ge13  1  0.000000  0.913637  0.404836  1
  Ge  Ge14  1  0.500000  0.087358  0.904683  1
  Ge  Ge15  1  0.000000  0.913637  0.595164  1
  Pt  Pt16  1  0.500000  0.080252  0.608075  1
  Pt  Pt17  1  0.000000  0.921171  0.891095  1
  Pt  Pt18  1  0.500000  0.080252  0.391925  1
  Pt  Pt19  1  0.000000  0.921171  0.108905  1
  Pt  Pt20  1  0.500000  0.419383  0.150753  1
  Pt  Pt21  1  0.000000  0.579305  0.349774  1
  Pt  Pt22  1  0.500000  0.419383  0.849247  1
  Pt  Pt23  1  0.000000  0.579305  0.650226  1
