# generated using pymatgen
data_Hf3Nb(As2Pd)4
_symmetry_space_group_name_H-M   'P 1'
_cell_length_a   5.90367602
_cell_length_b   3.63204900
_cell_length_c   13.26292704
_cell_angle_alpha   90.00000000
_cell_angle_beta   89.99079135
_cell_angle_gamma   90.00000000
_symmetry_Int_Tables_number   1
_chemical_formula_structural   Hf3Nb(As2Pd)4
_chemical_formula_sum   'Hf3 Nb1 As8 Pd4'
_cell_volume   284.38952138
_cell_formula_units_Z   1
loop_
 _symmetry_equiv_pos_site_id
 _symmetry_equiv_pos_as_xyz
  1  'x, y, z'
loop_
 _atom_site_type_symbol
 _atom_site_label
 _atom_site_symmetry_multiplicity
 _atom_site_fract_x
 _atom_site_fract_y
 _atom_site_fract_z
 _atom_site_occupancy
  Hf  Hf0  1  0.982674  0.750001  0.167380  1
  Hf  Hf1  1  0.482466  0.750001  0.330723  1
  Hf  Hf2  1  0.516244  0.249999  0.672326  1
  Nb  Nb3  1  0.017535  0.249999  0.829775  1
  As  As4  1  0.176078  0.249999  0.032400  1
  As  As5  1  0.657271  0.249999  0.200102  1
  As  As6  1  0.156061  0.249999  0.297936  1
  As  As7  1  0.675910  0.249999  0.467083  1
  As  As8  1  0.328109  0.750001  0.534717  1
  As  As9  1  0.847452  0.750001  0.704045  1
  As  As10  1  0.336477  0.750001  0.801065  1
  As  As11  1  0.828410  0.750001  0.961639  1
  Pd  Pd12  1  0.471137  0.750001  0.088451  1
  Pd  Pd13  1  0.970862  0.750001  0.410740  1
  Pd  Pd14  1  0.028260  0.249999  0.591825  1
  Pd  Pd15  1  0.525053  0.249999  0.909796  1
