# generated using pymatgen
data_CeY4Al15
_symmetry_space_group_name_H-M   'P 1'
_cell_length_a   12.44920724
_cell_length_b   12.44920708
_cell_length_c   12.44920872
_cell_angle_alpha   28.66102925
_cell_angle_beta   28.66102893
_cell_angle_gamma   28.66102470
_symmetry_Int_Tables_number   1
_chemical_formula_structural   CeY4Al15
_chemical_formula_sum   'Ce1 Y4 Al15'
_cell_volume   392.38718267
_cell_formula_units_Z   1
loop_
 _symmetry_equiv_pos_site_id
 _symmetry_equiv_pos_as_xyz
  1  'x, y, z'
loop_
 _atom_site_type_symbol
 _atom_site_label
 _atom_site_symmetry_multiplicity
 _atom_site_fract_x
 _atom_site_fract_y
 _atom_site_fract_z
 _atom_site_occupancy
  Ce  Ce0  1  0.000000  0.000000  0.000000  1
  Y  Y1  1  0.599974  0.599974  0.599974  1
  Y  Y2  1  0.400026  0.400026  0.400026  1
  Y  Y3  1  0.869388  0.869388  0.869388  1
  Y  Y4  1  0.130612  0.130612  0.130612  1
  Al  Al5  1  0.565649  0.117297  0.117297  1
  Al  Al6  1  0.117297  0.565649  0.117297  1
  Al  Al7  1  0.117297  0.117297  0.565649  1
  Al  Al8  1  0.434351  0.882703  0.882703  1
  Al  Al9  1  0.882703  0.434351  0.882703  1
  Al  Al10  1  0.500000  0.500000  0.000000  1
  Al  Al11  1  0.500000  0.000000  0.500000  1
  Al  Al12  1  0.000000  0.500000  0.500000  1
  Al  Al13  1  0.636348  0.636348  0.128937  1
  Al  Al14  1  0.636348  0.128937  0.636348  1
  Al  Al15  1  0.128937  0.636348  0.636348  1
  Al  Al16  1  0.363652  0.363652  0.871063  1
  Al  Al17  1  0.363652  0.871063  0.363652  1
  Al  Al18  1  0.871063  0.363652  0.363652  1
  Al  Al19  1  0.882703  0.882703  0.434351  1
