# generated using pymatgen
data_PrNd4SiPb3
_symmetry_space_group_name_H-M   'P 1'
_cell_length_a   9.74162300
_cell_length_b   9.74162189
_cell_length_c   6.66356300
_cell_angle_alpha   90.00000000
_cell_angle_beta   90.00000000
_cell_angle_gamma   120.00000037
_symmetry_Int_Tables_number   1
_chemical_formula_structural   PrNd4SiPb3
_chemical_formula_sum   'Pr2 Nd8 Si2 Pb6'
_cell_volume   547.64575481
_cell_formula_units_Z   2
loop_
 _symmetry_equiv_pos_site_id
 _symmetry_equiv_pos_as_xyz
  1  'x, y, z'
loop_
 _atom_site_type_symbol
 _atom_site_label
 _atom_site_symmetry_multiplicity
 _atom_site_fract_x
 _atom_site_fract_y
 _atom_site_fract_z
 _atom_site_occupancy
  Pr  Pr0  1  0.666667  0.333333  0.500000  1
  Pr  Pr1  1  0.333333  0.666667  0.500000  1
  Nd  Nd2  1  0.333333  0.666667  0.000000  1
  Nd  Nd3  1  0.666667  0.333333  0.000000  1
  Nd  Nd4  1  0.751040  0.751040  0.250094  1
  Nd  Nd5  1  0.248960  0.000000  0.250094  1
  Nd  Nd6  1  0.000000  0.248960  0.250094  1
  Nd  Nd7  1  0.248960  0.248960  0.749906  1
  Nd  Nd8  1  0.751040  0.000000  0.749906  1
  Nd  Nd9  1  0.000000  0.751040  0.749906  1
  Si  Si10  1  0.000000  0.000000  0.500000  1
  Si  Si11  1  0.000000  0.000000  0.000000  1
  Pb  Pb12  1  0.388799  0.388799  0.249241  1
  Pb  Pb13  1  0.611201  0.000000  0.249241  1
  Pb  Pb14  1  0.000000  0.611201  0.249241  1
  Pb  Pb15  1  0.611201  0.611201  0.750759  1
  Pb  Pb16  1  0.388799  0.000000  0.750759  1
  Pb  Pb17  1  0.000000  0.388799  0.750759  1
