# generated using pymatgen
data_Pa5Nb3(As3Rh4)4
_symmetry_space_group_name_H-M   'P 1'
_cell_length_a   13.23645000
_cell_length_b   13.23645054
_cell_length_c   3.98799900
_cell_angle_alpha   90.00000000
_cell_angle_beta   90.00000000
_cell_angle_gamma   120.00000365
_symmetry_Int_Tables_number   1
_chemical_formula_structural   Pa5Nb3(As3Rh4)4
_chemical_formula_sum   'Pa5 Nb3 As12 Rh16'
_cell_volume   605.10218482
_cell_formula_units_Z   1
loop_
 _symmetry_equiv_pos_site_id
 _symmetry_equiv_pos_as_xyz
  1  'x, y, z'
loop_
 _atom_site_type_symbol
 _atom_site_label
 _atom_site_symmetry_multiplicity
 _atom_site_fract_x
 _atom_site_fract_y
 _atom_site_fract_z
 _atom_site_occupancy
  Pa  Pa0  1  0.184122  0.184122  0.500000  1
  Pa  Pa1  1  0.815878  0.000000  0.500000  1
  Pa  Pa2  1  0.000000  0.815878  0.500000  1
  Pa  Pa3  1  0.333333  0.666667  0.000000  1
  Pa  Pa4  1  0.666667  0.333333  0.000000  1
  Nb  Nb5  1  0.552221  0.552221  0.000000  1
  Nb  Nb6  1  0.447779  0.000000  0.000000  1
  Nb  Nb7  1  0.000000  0.447779  0.000000  1
  As  As8  1  0.823874  0.823874  0.000000  1
  As  As9  1  0.176126  0.000000  0.000000  1
  As  As10  1  0.000000  0.176126  0.000000  1
  As  As11  1  0.165454  0.485090  0.500000  1
  As  As12  1  0.514910  0.680364  0.500000  1
  As  As13  1  0.319636  0.834546  0.500000  1
  As  As14  1  0.680364  0.514910  0.500000  1
  As  As15  1  0.834546  0.319636  0.500000  1
  As  As16  1  0.485090  0.165454  0.500000  1
  As  As17  1  0.360726  0.360726  0.000000  1
  As  As18  1  0.639274  0.000000  0.000000  1
  As  As19  1  0.000000  0.639274  0.000000  1
  Rh  Rh20  1  0.720218  0.720218  0.500000  1
  Rh  Rh21  1  0.279782  0.000000  0.500000  1
  Rh  Rh22  1  0.000000  0.279782  0.500000  1
  Rh  Rh23  1  0.178170  0.374302  0.000000  1
  Rh  Rh24  1  0.625698  0.803867  0.000000  1
  Rh  Rh25  1  0.196133  0.821830  0.000000  1
  Rh  Rh26  1  0.803867  0.625698  0.000000  1
  Rh  Rh27  1  0.821830  0.196133  0.000000  1
  Rh  Rh28  1  0.374302  0.178170  0.000000  1
  Rh  Rh29  1  0.354087  0.481043  0.500000  1
  Rh  Rh30  1  0.518957  0.873045  0.500000  1
  Rh  Rh31  1  0.126955  0.645913  0.500000  1
  Rh  Rh32  1  0.873045  0.518957  0.500000  1
  Rh  Rh33  1  0.645913  0.126955  0.500000  1
  Rh  Rh34  1  0.481043  0.354087  0.500000  1
  Rh  Rh35  1  0.000000  0.000000  0.000000  1
