# generated using pymatgen
data_Dy8MgSc10Si16Tc
_symmetry_space_group_name_H-M   'P 1'
_cell_length_a   7.01311000
_cell_length_b   7.36376731
_cell_length_c   13.95324300
_cell_angle_alpha   90.00000000
_cell_angle_beta   90.00000000
_cell_angle_gamma   90.09110507
_symmetry_Int_Tables_number   1
_chemical_formula_structural   Dy8MgSc10Si16Tc
_chemical_formula_sum   'Dy8 Mg1 Sc10 Si16 Tc1'
_cell_volume   720.58516365
_cell_formula_units_Z   1
loop_
 _symmetry_equiv_pos_site_id
 _symmetry_equiv_pos_as_xyz
  1  'x, y, z'
loop_
 _atom_site_type_symbol
 _atom_site_label
 _atom_site_symmetry_multiplicity
 _atom_site_fract_x
 _atom_site_fract_y
 _atom_site_fract_z
 _atom_site_occupancy
  Dy  Dy0  1  0.011374  0.180926  0.094620  1
  Dy  Dy1  1  0.992531  0.818921  0.900318  1
  Dy  Dy2  1  0.486990  0.672076  0.901515  1
  Dy  Dy3  1  0.992531  0.818921  0.599682  1
  Dy  Dy4  1  0.514512  0.325489  0.095903  1
  Dy  Dy5  1  0.011374  0.180926  0.405380  1
  Dy  Dy6  1  0.514512  0.325489  0.404097  1
  Dy  Dy7  1  0.486990  0.672076  0.598485  1
  Mg  Mg8  1  0.842627  0.494191  0.250000  1
  Sc  Sc9  1  0.344050  0.002185  0.250000  1
  Sc  Sc10  1  0.657848  0.996271  0.750000  1
  Sc  Sc11  1  0.325725  0.178922  0.627130  1
  Sc  Sc12  1  0.674700  0.821233  0.375488  1
  Sc  Sc13  1  0.168984  0.673142  0.377054  1
  Sc  Sc14  1  0.674700  0.821233  0.124512  1
  Sc  Sc15  1  0.826530  0.329459  0.628162  1
  Sc  Sc16  1  0.325725  0.178922  0.872870  1
  Sc  Sc17  1  0.826530  0.329459  0.871838  1
  Sc  Sc18  1  0.168984  0.673142  0.122946  1
  Si  Si19  1  0.029797  0.121741  0.750000  1
  Si  Si20  1  0.973746  0.894416  0.250000  1
  Si  Si21  1  0.463184  0.618538  0.250000  1
  Si  Si22  1  0.519158  0.392919  0.750000  1
  Si  Si23  1  0.285194  0.864653  0.750000  1
  Si  Si24  1  0.714188  0.118522  0.250000  1
  Si  Si25  1  0.223247  0.372482  0.250000  1
  Si  Si26  1  0.794621  0.626940  0.750000  1
  Si  Si27  1  0.155157  0.465021  0.547084  1
  Si  Si28  1  0.841408  0.538413  0.467321  1
  Si  Si29  1  0.345303  0.965885  0.462323  1
  Si  Si30  1  0.841408  0.538413  0.032679  1
  Si  Si31  1  0.657169  0.033609  0.539614  1
  Si  Si32  1  0.155157  0.465021  0.952916  1
  Si  Si33  1  0.657169  0.033609  0.960386  1
  Si  Si34  1  0.345303  0.965885  0.037677  1
  Tc  Tc35  1  0.151576  0.490949  0.750000  1
