# generated using pymatgen
data_Ti10BeCu(Sn2Bi)2
_symmetry_space_group_name_H-M   'P 1'
_cell_length_a   8.21854975
_cell_length_b   8.21854974
_cell_length_c   5.54927566
_cell_angle_alpha   89.95228174
_cell_angle_beta   89.95227972
_cell_angle_gamma   119.42557099
_symmetry_Int_Tables_number   1
_chemical_formula_structural   Ti10BeCu(Sn2Bi)2
_chemical_formula_sum   'Ti10 Be1 Cu1 Sn4 Bi2'
_cell_volume   326.46871016
_cell_formula_units_Z   1
loop_
 _symmetry_equiv_pos_site_id
 _symmetry_equiv_pos_as_xyz
  1  'x, y, z'
loop_
 _atom_site_type_symbol
 _atom_site_label
 _atom_site_symmetry_multiplicity
 _atom_site_fract_x
 _atom_site_fract_y
 _atom_site_fract_z
 _atom_site_occupancy
  Ti  Ti0  1  0.253436  0.989859  0.739070  1
  Ti  Ti1  1  0.746564  0.010141  0.260930  1
  Ti  Ti2  1  0.989859  0.253436  0.739070  1
  Ti  Ti3  1  0.010141  0.746564  0.260930  1
  Ti  Ti4  1  0.745403  0.745403  0.739167  1
  Ti  Ti5  1  0.254597  0.254597  0.260833  1
  Ti  Ti6  1  0.330145  0.669855  0.500000  1
  Ti  Ti7  1  0.669855  0.330145  0.500000  1
  Ti  Ti8  1  0.669940  0.330060  0.000000  1
  Ti  Ti9  1  0.330060  0.669940  0.000000  1
  Be  Be10  1  0.000000  0.000000  0.500000  1
  Cu  Cu11  1  0.000000  0.000000  0.000000  1
  Sn  Sn12  1  0.609652  0.997323  0.752785  1
  Sn  Sn13  1  0.390348  0.002677  0.247215  1
  Sn  Sn14  1  0.997323  0.609652  0.752785  1
  Sn  Sn15  1  0.002677  0.390348  0.247215  1
  Bi  Bi16  1  0.381033  0.381033  0.752871  1
  Bi  Bi17  1  0.618967  0.618967  0.247129  1
