# generated using pymatgen
data_Na3Ca2MoO6
_symmetry_space_group_name_H-M   'P 1'
_cell_length_a   10.93688510
_cell_length_b   10.38296075
_cell_length_c   5.83373969
_cell_angle_alpha   79.42957951
_cell_angle_beta   68.94600041
_cell_angle_gamma   31.62440934
_symmetry_Int_Tables_number   1
_chemical_formula_structural   Na3Ca2MoO6
_chemical_formula_sum   'Na6 Ca4 Mo2 O12'
_cell_volume   313.85826139
_cell_formula_units_Z   2
loop_
 _symmetry_equiv_pos_site_id
 _symmetry_equiv_pos_as_xyz
  1  'x, y, z'
loop_
 _atom_site_type_symbol
 _atom_site_label
 _atom_site_symmetry_multiplicity
 _atom_site_fract_x
 _atom_site_fract_y
 _atom_site_fract_z
 _atom_site_occupancy
  Na  Na0  1  0.000000  0.000000  0.000000  1
  Na  Na1  1  0.086017  0.086017  0.413983  1
  Na  Na2  1  0.836017  0.836017  0.163983  1
  Na  Na3  1  0.163983  0.163983  0.836017  1
  Na  Na4  1  0.250000  0.250000  0.250000  1
  Na  Na5  1  0.413983  0.413983  0.086017  1
  Ca  Ca6  1  0.579955  0.579955  0.920045  1
  Ca  Ca7  1  0.920045  0.920045  0.579955  1
  Ca  Ca8  1  0.670045  0.670045  0.329955  1
  Ca  Ca9  1  0.329955  0.329955  0.670045  1
  Mo  Mo10  1  0.750000  0.750000  0.750000  1
  Mo  Mo11  1  0.500000  0.500000  0.500000  1
  O  O12  1  0.284534  0.715466  0.284534  1
  O  O13  1  0.715466  0.284534  0.715466  1
  O  O14  1  0.965466  0.534534  0.965466  1
  O  O15  1  0.534534  0.965466  0.534534  1
  O  O16  1  0.207112  0.647106  0.785207  1
  O  O17  1  0.360575  0.785207  0.647106  1
  O  O18  1  0.785207  0.360575  0.207112  1
  O  O19  1  0.647106  0.207112  0.360575  1
  O  O20  1  0.602894  0.042888  0.889425  1
  O  O21  1  0.889425  0.464793  0.602894  1
  O  O22  1  0.464793  0.889425  0.042888  1
  O  O23  1  0.042888  0.602894  0.464793  1
