# generated using pymatgen
data_Th2Al20CoRe3
_symmetry_space_group_name_H-M   'P 1'
_cell_length_a   6.91314006
_cell_length_b   6.90480093
_cell_length_c   9.19820420
_cell_angle_alpha   90.63143372
_cell_angle_beta   90.23295947
_cell_angle_gamma   97.17401343
_symmetry_Int_Tables_number   1
_chemical_formula_structural   Th2Al20CoRe3
_chemical_formula_sum   'Th2 Al20 Co1 Re3'
_cell_volume   435.59549516
_cell_formula_units_Z   1
loop_
 _symmetry_equiv_pos_site_id
 _symmetry_equiv_pos_as_xyz
  1  'x, y, z'
loop_
 _atom_site_type_symbol
 _atom_site_label
 _atom_site_symmetry_multiplicity
 _atom_site_fract_x
 _atom_site_fract_y
 _atom_site_fract_z
 _atom_site_occupancy
  Th  Th0  1  0.866297  0.124982  0.750982  1
  Th  Th1  1  0.133703  0.875018  0.249018  1
  Al  Al2  1  0.517024  0.779474  0.747317  1
  Al  Al3  1  0.482976  0.220526  0.252683  1
  Al  Al4  1  0.595858  0.859365  0.250103  1
  Al  Al5  1  0.773947  0.773393  0.997207  1
  Al  Al6  1  0.155611  0.836823  0.600765  1
  Al  Al7  1  0.226053  0.226607  0.002793  1
  Al  Al8  1  0.139074  0.409560  0.254289  1
  Al  Al9  1  0.622264  0.378466  0.955122  1
  Al  Al10  1  0.842395  0.159849  0.102625  1
  Al  Al11  1  0.376218  0.620718  0.453271  1
  Al  Al12  1  0.157605  0.840151  0.897375  1
  Al  Al13  1  0.217367  0.481492  0.749182  1
  Al  Al14  1  0.377736  0.621534  0.044878  1
  Al  Al15  1  0.844389  0.163177  0.399235  1
  Al  Al16  1  0.623782  0.379282  0.546729  1
  Al  Al17  1  0.404142  0.140635  0.749897  1
  Al  Al18  1  0.782633  0.518508  0.250818  1
  Al  Al19  1  0.775527  0.769240  0.498535  1
  Al  Al20  1  0.224473  0.230760  0.501465  1
  Al  Al21  1  0.860926  0.590440  0.745711  1
  Co  Co22  1  0.000000  0.500000  0.500000  1
  Re  Re23  1  0.000000  0.500000  0.000000  1
  Re  Re24  1  0.500000  0.000000  0.000000  1
  Re  Re25  1  0.500000  0.000000  0.500000  1
