# generated using pymatgen
data_Dy3Ho5(CoB14)2
_symmetry_space_group_name_H-M   'P 1'
_cell_length_a   7.20716166
_cell_length_b   7.20662366
_cell_length_c   7.49045500
_cell_angle_alpha   90.00000000
_cell_angle_beta   90.00000000
_cell_angle_gamma   89.92216816
_symmetry_Int_Tables_number   1
_chemical_formula_structural   Dy3Ho5(CoB14)2
_chemical_formula_sum   'Dy3 Ho5 Co2 B28'
_cell_volume   389.04864372
_cell_formula_units_Z   1
loop_
 _symmetry_equiv_pos_site_id
 _symmetry_equiv_pos_as_xyz
  1  'x, y, z'
loop_
 _atom_site_type_symbol
 _atom_site_label
 _atom_site_symmetry_multiplicity
 _atom_site_fract_x
 _atom_site_fract_y
 _atom_site_fract_z
 _atom_site_occupancy
  Dy  Dy0  1  0.807032  0.669989  0.000000  1
  Dy  Dy1  1  0.830010  0.692985  0.500000  1
  Dy  Dy2  1  0.169986  0.306992  0.500000  1
  Ho  Ho3  1  0.192941  0.330016  0.000000  1
  Ho  Ho4  1  0.669942  0.192849  0.000000  1
  Ho  Ho5  1  0.330011  0.807112  0.000000  1
  Ho  Ho6  1  0.692851  0.169961  0.500000  1
  Ho  Ho7  1  0.307156  0.830052  0.500000  1
  Co  Co8  1  0.000137  0.000229  0.000000  1
  Co  Co9  1  0.499974  0.499984  0.500000  1
  B  B10  1  0.174384  0.038844  0.230860  1
  B  B11  1  0.961012  0.174338  0.230810  1
  B  B12  1  0.039121  0.825787  0.230930  1
  B  B13  1  0.674209  0.460873  0.268993  1
  B  B14  1  0.325692  0.539016  0.268910  1
  B  B15  1  0.825684  0.961307  0.230960  1
  B  B16  1  0.538678  0.674310  0.268987  1
  B  B17  1  0.461208  0.325625  0.268945  1
  B  B18  1  0.825684  0.961307  0.769040  1
  B  B19  1  0.039121  0.825787  0.769070  1
  B  B20  1  0.961012  0.174338  0.769190  1
  B  B21  1  0.325692  0.539016  0.731090  1
  B  B22  1  0.674209  0.460873  0.731007  1
  B  B23  1  0.174384  0.038844  0.769140  1
  B  B24  1  0.461208  0.325625  0.731055  1
  B  B25  1  0.538678  0.674310  0.731013  1
  B  B26  1  0.088410  0.588239  0.249860  1
  B  B27  1  0.411756  0.088242  0.249974  1
  B  B28  1  0.588222  0.911782  0.249977  1
  B  B29  1  0.911716  0.411607  0.249928  1
  B  B30  1  0.911716  0.411607  0.750072  1
  B  B31  1  0.588222  0.911782  0.750023  1
  B  B32  1  0.411756  0.088242  0.750026  1
  B  B33  1  0.088410  0.588239  0.750140  1
  B  B34  1  0.000026  0.000025  0.388282  1
  B  B35  1  0.499861  0.499921  0.111612  1
  B  B36  1  0.000026  0.000025  0.611718  1
  B  B37  1  0.499861  0.499921  0.888388  1
