# generated using pymatgen
data_Sc10In3Sn5Rh4
_symmetry_space_group_name_H-M   'P 1'
_cell_length_a   3.33990200
_cell_length_b   7.79906202
_cell_length_c   17.57123504
_cell_angle_alpha   90.00764003
_cell_angle_beta   90.00000000
_cell_angle_gamma   90.00000000
_symmetry_Int_Tables_number   1
_chemical_formula_structural   Sc10In3Sn5Rh4
_chemical_formula_sum   'Sc10 In3 Sn5 Rh4'
_cell_volume   457.69733308
_cell_formula_units_Z   1
loop_
 _symmetry_equiv_pos_site_id
 _symmetry_equiv_pos_as_xyz
  1  'x, y, z'
loop_
 _atom_site_type_symbol
 _atom_site_label
 _atom_site_symmetry_multiplicity
 _atom_site_fract_x
 _atom_site_fract_y
 _atom_site_fract_z
 _atom_site_occupancy
  Sc  Sc0  1  0.000000  0.999112  0.002557  1
  Sc  Sc1  1  0.000000  0.499365  0.500374  1
  Sc  Sc2  1  0.000000  0.748435  0.778843  1
  Sc  Sc3  1  0.000000  0.250916  0.219914  1
  Sc  Sc4  1  0.000000  0.249180  0.720794  1
  Sc  Sc5  1  0.000000  0.748256  0.280258  1
  Sc  Sc6  1  0.000000  0.873237  0.582589  1
  Sc  Sc7  1  0.000000  0.126358  0.417339  1
  Sc  Sc8  1  0.000000  0.373581  0.917665  1
  Sc  Sc9  1  0.000000  0.628467  0.082351  1
  In  In10  1  0.500000  0.074271  0.849431  1
  In  In11  1  0.500000  0.423918  0.348069  1
  In  In12  1  0.500000  0.575534  0.651165  1
  Sn  Sn13  1  0.500000  0.796517  0.432029  1
  Sn  Sn14  1  0.500000  0.203823  0.567734  1
  Sn  Sn15  1  0.500000  0.302197  0.066311  1
  Sn  Sn16  1  0.500000  0.704489  0.932211  1
  Sn  Sn17  1  0.500000  0.920973  0.151836  1
  Rh  Rh18  1  0.500000  0.963141  0.693390  1
  Rh  Rh19  1  0.500000  0.037295  0.305326  1
  Rh  Rh20  1  0.500000  0.462933  0.807489  1
  Rh  Rh21  1  0.500000  0.538003  0.192325  1
