# generated using pymatgen
data_SmErTmRuI3
_symmetry_space_group_name_H-M   'P 1'
_cell_length_a   4.21653800
_cell_length_b   8.92773633
_cell_length_c   12.35274603
_cell_angle_alpha   94.04153649
_cell_angle_beta   90.00000000
_cell_angle_gamma   90.00000000
_symmetry_Int_Tables_number   1
_chemical_formula_structural   SmErTmRuI3
_chemical_formula_sum   'Sm2 Er2 Tm2 Ru2 I6'
_cell_volume   463.85211987
_cell_formula_units_Z   2
loop_
 _symmetry_equiv_pos_site_id
 _symmetry_equiv_pos_as_xyz
  1  'x, y, z'
loop_
 _atom_site_type_symbol
 _atom_site_label
 _atom_site_symmetry_multiplicity
 _atom_site_fract_x
 _atom_site_fract_y
 _atom_site_fract_z
 _atom_site_occupancy
  Sm  Sm0  1  0.750000  0.267332  0.601840  1
  Sm  Sm1  1  0.250000  0.732668  0.398160  1
  Er  Er2  1  0.750000  0.901187  0.187429  1
  Er  Er3  1  0.250000  0.098813  0.812571  1
  Tm  Tm4  1  0.750000  0.877330  0.625907  1
  Tm  Tm5  1  0.250000  0.122670  0.374093  1
  Ru  Ru6  1  0.750000  0.944894  0.407715  1
  Ru  Ru7  1  0.250000  0.055106  0.592285  1
  I  I8  1  0.750000  0.419211  0.363138  1
  I  I9  1  0.250000  0.580789  0.636862  1
  I  I10  1  0.750000  0.863994  0.889875  1
  I  I11  1  0.250000  0.136006  0.110125  1
  I  I12  1  0.750000  0.348383  0.865828  1
  I  I13  1  0.250000  0.651617  0.134172  1
