# generated using pymatgen
data_Yb2Pr18Si15Ag
_symmetry_space_group_name_H-M   'P 1'
_cell_length_a   7.92126376
_cell_length_b   7.91608388
_cell_length_c   15.24723100
_cell_angle_alpha   90.05754851
_cell_angle_beta   89.67586584
_cell_angle_gamma   90.20168098
_symmetry_Int_Tables_number   1
_chemical_formula_structural   Yb2Pr18Si15Ag
_chemical_formula_sum   'Yb2 Pr18 Si15 Ag1'
_cell_volume   956.06185494
_cell_formula_units_Z   1
loop_
 _symmetry_equiv_pos_site_id
 _symmetry_equiv_pos_as_xyz
  1  'x, y, z'
loop_
 _atom_site_type_symbol
 _atom_site_label
 _atom_site_symmetry_multiplicity
 _atom_site_fract_x
 _atom_site_fract_y
 _atom_site_fract_z
 _atom_site_occupancy
  Yb  Yb0  1  0.309206  0.309696  0.999360  1
  Yb  Yb1  1  0.190146  0.809817  0.250214  1
  Pr  Pr2  1  0.799630  0.187013  0.751044  1
  Pr  Pr3  1  0.691094  0.689972  0.498362  1
  Pr  Pr4  1  0.375801  0.010294  0.446068  1
  Pr  Pr5  1  0.491733  0.866622  0.700841  1
  Pr  Pr6  1  0.508217  0.123172  0.197160  1
  Pr  Pr7  1  0.874412  0.490239  0.298214  1
  Pr  Pr8  1  0.118921  0.518262  0.804505  1
  Pr  Pr9  1  0.628197  0.991134  0.952826  1
  Pr  Pr10  1  0.000381  0.381078  0.545909  1
  Pr  Pr11  1  0.991321  0.623725  0.052755  1
  Pr  Pr12  1  0.131303  0.987372  0.879725  1
  Pr  Pr13  1  0.513122  0.627902  0.126076  1
  Pr  Pr14  1  0.482917  0.373068  0.626404  1
  Pr  Pr15  1  0.629987  0.517588  0.877362  1
  Pr  Pr16  1  0.373352  0.483881  0.371797  1
  Pr  Pr17  1  0.872767  0.016253  0.375224  1
  Pr  Pr18  1  0.987576  0.125777  0.124111  1
  Pr  Pr19  1  0.015243  0.864963  0.622260  1
  Si  Si20  1  0.334565  0.699448  0.950503  1
  Si  Si21  1  0.662942  0.301349  0.449187  1
  Si  Si22  1  0.703296  0.336020  0.053013  1
  Si  Si23  1  0.305964  0.668933  0.546411  1
  Si  Si24  1  0.800568  0.834639  0.199694  1
  Si  Si25  1  0.165644  0.200494  0.298495  1
  Si  Si26  1  0.836020  0.804329  0.800105  1
  Si  Si27  1  0.287973  0.918705  0.060525  1
  Si  Si28  1  0.580519  0.787502  0.308637  1
  Si  Si29  1  0.433267  0.207096  0.815946  1
  Si  Si30  1  0.789080  0.576820  0.691437  1
  Si  Si31  1  0.212488  0.419760  0.190142  1
  Si  Si32  1  0.707122  0.076569  0.558588  1
  Si  Si33  1  0.920655  0.288942  0.941743  1
  Si  Si34  1  0.080120  0.713063  0.439051  1
  Ag  Ag35  1  0.194445  0.168505  0.696304  1
