# generated using pymatgen
data_LaCe3(MgIr)4
_symmetry_space_group_name_H-M   'P 1'
_cell_length_a   4.11670200
_cell_length_b   7.18096739
_cell_length_c   8.76556163
_cell_angle_alpha   89.45853350
_cell_angle_beta   90.00000000
_cell_angle_gamma   90.00000000
_symmetry_Int_Tables_number   1
_chemical_formula_structural   LaCe3(MgIr)4
_chemical_formula_sum   'La1 Ce3 Mg4 Ir4'
_cell_volume   259.11511004
_cell_formula_units_Z   1
loop_
 _symmetry_equiv_pos_site_id
 _symmetry_equiv_pos_as_xyz
  1  'x, y, z'
loop_
 _atom_site_type_symbol
 _atom_site_label
 _atom_site_symmetry_multiplicity
 _atom_site_fract_x
 _atom_site_fract_y
 _atom_site_fract_z
 _atom_site_occupancy
  La  La0  1  0.250000  0.536996  0.182219  1
  Ce  Ce1  1  0.750000  0.462617  0.816852  1
  Ce  Ce2  1  0.750000  0.964344  0.681444  1
  Ce  Ce3  1  0.250000  0.038895  0.315766  1
  Mg  Mg4  1  0.250000  0.636773  0.557035  1
  Mg  Mg5  1  0.750000  0.364668  0.444936  1
  Mg  Mg6  1  0.750000  0.864725  0.054547  1
  Mg  Mg7  1  0.250000  0.131700  0.942363  1
  Ir  Ir8  1  0.250000  0.742876  0.859730  1
  Ir  Ir9  1  0.750000  0.241195  0.134593  1
  Ir  Ir10  1  0.750000  0.769660  0.374372  1
  Ir  Ir11  1  0.250000  0.245551  0.636146  1
