# generated using pymatgen
data_Ho6Mn5AsO18
_symmetry_space_group_name_H-M   'P 1'
_cell_length_a   6.20820716
_cell_length_b   6.20820629
_cell_length_c   11.69221703
_cell_angle_alpha   89.58142944
_cell_angle_beta   89.58142902
_cell_angle_gamma   119.92766483
_symmetry_Int_Tables_number   1
_chemical_formula_structural   Ho6Mn5AsO18
_chemical_formula_sum   'Ho6 Mn5 As1 O18'
_cell_volume   390.50776609
_cell_formula_units_Z   1
loop_
 _symmetry_equiv_pos_site_id
 _symmetry_equiv_pos_as_xyz
  1  'x, y, z'
loop_
 _atom_site_type_symbol
 _atom_site_label
 _atom_site_symmetry_multiplicity
 _atom_site_fract_x
 _atom_site_fract_y
 _atom_site_fract_z
 _atom_site_occupancy
  Ho  Ho0  1  0.664331  0.322970  0.724978  1
  Ho  Ho1  1  0.000990  0.000990  0.766774  1
  Ho  Ho2  1  0.332114  0.669055  0.234956  1
  Ho  Ho3  1  0.669055  0.332114  0.234956  1
  Ho  Ho4  1  0.008848  0.008848  0.272685  1
  Ho  Ho5  1  0.322970  0.664331  0.724978  1
  Mn  Mn6  1  0.001354  0.335823  0.995489  1
  Mn  Mn7  1  0.995216  0.667283  0.497240  1
  Mn  Mn8  1  0.335823  0.001354  0.995489  1
  Mn  Mn9  1  0.667283  0.995216  0.497240  1
  Mn  Mn10  1  0.336903  0.336903  0.497896  1
  As  As11  1  0.665907  0.665907  0.998218  1
  O  O12  1  0.667459  0.330508  0.518341  1
  O  O13  1  0.630666  0.630666  0.840376  1
  O  O14  1  0.351379  0.997410  0.823753  1
  O  O15  1  0.692603  0.992125  0.660168  1
  O  O16  1  0.997410  0.351379  0.823753  1
  O  O17  1  0.330508  0.667459  0.518341  1
  O  O18  1  0.001674  0.316556  0.168369  1
  O  O19  1  0.365353  0.365353  0.334607  1
  O  O20  1  0.996023  0.641858  0.334992  1
  O  O21  1  0.310932  0.310932  0.660367  1
  O  O22  1  0.702395  0.702395  0.158597  1
  O  O23  1  0.951277  0.951277  0.972537  1
  O  O24  1  0.316556  0.001674  0.168369  1
  O  O25  1  0.380472  0.666685  0.017893  1
  O  O26  1  0.992125  0.692603  0.660168  1
  O  O27  1  0.641858  0.996023  0.334992  1
  O  O28  1  0.003832  0.003832  0.471574  1
  O  O29  1  0.666685  0.380472  0.017893  1
