# generated using pymatgen
data_Er4Mn2(AlRe)3
_symmetry_space_group_name_H-M   'P 1'
_cell_length_a   5.41439000
_cell_length_b   5.41439062
_cell_length_c   8.78558700
_cell_angle_alpha   90.00000000
_cell_angle_beta   90.00000000
_cell_angle_gamma   119.99999622
_symmetry_Int_Tables_number   1
_chemical_formula_structural   Er4Mn2(AlRe)3
_chemical_formula_sum   'Er4 Mn2 Al3 Re3'
_cell_volume   223.04913913
_cell_formula_units_Z   1
loop_
 _symmetry_equiv_pos_site_id
 _symmetry_equiv_pos_as_xyz
  1  'x, y, z'
loop_
 _atom_site_type_symbol
 _atom_site_label
 _atom_site_symmetry_multiplicity
 _atom_site_fract_x
 _atom_site_fract_y
 _atom_site_fract_z
 _atom_site_occupancy
  Er  Er0  1  0.666667  0.333333  0.066438  1
  Er  Er1  1  0.666667  0.333333  0.433562  1
  Er  Er2  1  0.333334  0.666667  0.555935  1
  Er  Er3  1  0.333334  0.666667  0.944065  1
  Mn  Mn4  1  0.000000  0.000000  0.004887  1
  Mn  Mn5  1  0.000000  0.000000  0.495113  1
  Al  Al6  1  0.330813  0.165406  0.750000  1
  Al  Al7  1  0.834592  0.165406  0.750000  1
  Al  Al8  1  0.834594  0.669186  0.750000  1
  Re  Re9  1  0.169378  0.338756  0.250000  1
  Re  Re10  1  0.169377  0.830623  0.250000  1
  Re  Re11  1  0.661245  0.830623  0.250000  1
