# generated using pymatgen
data_Ho5BiPbO12
_symmetry_space_group_name_H-M   'P 1'
_cell_length_a   6.49251826
_cell_length_b   6.59207360
_cell_length_c   6.55267972
_cell_angle_alpha   99.49925735
_cell_angle_beta   99.21263769
_cell_angle_gamma   98.57094286
_symmetry_Int_Tables_number   1
_chemical_formula_structural   Ho5BiPbO12
_chemical_formula_sum   'Ho5 Bi1 Pb1 O12'
_cell_volume   268.56508235
_cell_formula_units_Z   1
loop_
 _symmetry_equiv_pos_site_id
 _symmetry_equiv_pos_as_xyz
  1  'x, y, z'
loop_
 _atom_site_type_symbol
 _atom_site_label
 _atom_site_symmetry_multiplicity
 _atom_site_fract_x
 _atom_site_fract_y
 _atom_site_fract_z
 _atom_site_occupancy
  Ho  Ho0  1  0.390811  0.857217  0.688556  1
  Ho  Ho1  1  0.689765  0.392647  0.866413  1
  Ho  Ho2  1  0.315837  0.612268  0.143570  1
  Ho  Ho3  1  0.606711  0.140268  0.305855  1
  Ho  Ho4  1  0.854190  0.689129  0.388719  1
  Bi  Bi5  1  0.001198  0.997939  0.996036  1
  Pb  Pb6  1  0.142953  0.320342  0.604656  1
  O  O7  1  0.075168  0.314219  0.944843  1
  O  O8  1  0.047224  0.912005  0.683151  1
  O  O9  1  0.415974  0.571247  0.822273  1
  O  O10  1  0.178335  0.580246  0.426241  1
  O  O11  1  0.682444  0.053221  0.928642  1
  O  O12  1  0.420230  0.183043  0.586063  1
  O  O13  1  0.568052  0.828499  0.416092  1
  O  O14  1  0.318046  0.948500  0.071734  1
  O  O15  1  0.827712  0.405923  0.572604  1
  O  O16  1  0.588627  0.432680  0.183270  1
  O  O17  1  0.952320  0.074485  0.318135  1
  O  O18  1  0.924403  0.686123  0.053147  1
