# generated using pymatgen
data_Tb10Ho2Si11Ni
_symmetry_space_group_name_H-M   'P 1'
_cell_length_a   3.86876300
_cell_length_b   5.73205332
_cell_length_c   23.87795955
_cell_angle_alpha   82.77069410
_cell_angle_beta   90.00000000
_cell_angle_gamma   90.00000000
_symmetry_Int_Tables_number   1
_chemical_formula_structural   Tb10Ho2Si11Ni
_chemical_formula_sum   'Tb10 Ho2 Si11 Ni1'
_cell_volume   525.30716525
_cell_formula_units_Z   1
loop_
 _symmetry_equiv_pos_site_id
 _symmetry_equiv_pos_as_xyz
  1  'x, y, z'
loop_
 _atom_site_type_symbol
 _atom_site_label
 _atom_site_symmetry_multiplicity
 _atom_site_fract_x
 _atom_site_fract_y
 _atom_site_fract_z
 _atom_site_occupancy
  Tb  Tb0  1  0.250000  0.660139  0.941038  1
  Tb  Tb1  1  0.250000  0.469631  0.773746  1
  Tb  Tb2  1  0.750000  0.167204  0.392346  1
  Tb  Tb3  1  0.250000  0.829027  0.606466  1
  Tb  Tb4  1  0.750000  0.353175  0.559390  1
  Tb  Tb5  1  0.250000  0.643674  0.438914  1
  Tb  Tb6  1  0.750000  0.996485  0.726926  1
  Tb  Tb7  1  0.250000  0.994624  0.271864  1
  Tb  Tb8  1  0.750000  0.169559  0.893896  1
  Tb  Tb9  1  0.250000  0.836708  0.108273  1
  Ho  Ho10  1  0.750000  0.355424  0.066404  1
  Ho  Ho11  1  0.750000  0.518562  0.220600  1
  Si  Si12  1  0.750000  0.877499  0.013735  1
  Si  Si13  1  0.250000  0.148181  0.989701  1
  Si  Si14  1  0.750000  0.052726  0.178672  1
  Si  Si15  1  0.250000  0.955304  0.821559  1
  Si  Si16  1  0.750000  0.701249  0.344171  1
  Si  Si17  1  0.250000  0.292608  0.654126  1
  Si  Si18  1  0.750000  0.865036  0.511747  1
  Si  Si19  1  0.250000  0.132559  0.486755  1
  Si  Si20  1  0.750000  0.534161  0.679126  1
  Si  Si21  1  0.250000  0.462128  0.318146  1
  Si  Si22  1  0.750000  0.683992  0.846288  1
  Ni  Ni23  1  0.250000  0.300347  0.156110  1
