# generated using pymatgen
data_Ce2YHo7(Al2Ru3)2
_symmetry_space_group_name_H-M   'P 1'
_cell_length_a   8.44991547
_cell_length_b   8.35501949
_cell_length_c   8.32523854
_cell_angle_alpha   110.00291113
_cell_angle_beta   109.31904959
_cell_angle_gamma   110.21454580
_symmetry_Int_Tables_number   1
_chemical_formula_structural   Ce2YHo7(Al2Ru3)2
_chemical_formula_sum   'Ce2 Y1 Ho7 Al4 Ru6'
_cell_volume   446.05206665
_cell_formula_units_Z   1
loop_
 _symmetry_equiv_pos_site_id
 _symmetry_equiv_pos_as_xyz
  1  'x, y, z'
loop_
 _atom_site_type_symbol
 _atom_site_label
 _atom_site_symmetry_multiplicity
 _atom_site_fract_x
 _atom_site_fract_y
 _atom_site_fract_z
 _atom_site_occupancy
  Ce  Ce0  1  0.943477  0.251019  0.195430  1
  Ce  Ce1  1  0.197405  0.942316  0.251693  1
  Y  Y2  1  0.254186  0.189011  0.932878  1
  Ho  Ho3  1  0.781698  0.786084  0.778782  1
  Ho  Ho4  1  0.317527  0.566520  0.754250  1
  Ho  Ho5  1  0.751209  0.317139  0.568260  1
  Ho  Ho6  1  0.568055  0.748691  0.313597  1
  Ho  Ho7  1  0.720712  0.503256  0.998557  1
  Ho  Ho8  1  0.999097  0.719050  0.505659  1
  Ho  Ho9  1  0.501167  0.991905  0.715849  1
  Al  Al10  1  0.416673  0.411760  0.409780  1
  Al  Al11  1  0.091511  0.491832  0.996455  1
  Al  Al12  1  0.997922  0.090813  0.502431  1
  Al  Al13  1  0.502338  0.010064  0.094371  1
  Ru  Ru14  1  0.865899  0.115932  0.739392  1
  Ru  Ru15  1  0.753586  0.902647  0.122061  1
  Ru  Ru16  1  0.126490  0.762708  0.908055  1
  Ru  Ru17  1  0.224439  0.591143  0.363862  1
  Ru  Ru18  1  0.358345  0.221635  0.595092  1
  Ru  Ru19  1  0.628263  0.386476  0.253544  1
