# generated using pymatgen
data_Tm6Al12V4Os7
_symmetry_space_group_name_H-M   'P 1'
_cell_length_a   8.88633574
_cell_length_b   8.88633628
_cell_length_c   8.88633700
_cell_angle_alpha   60.00000848
_cell_angle_beta   60.00000648
_cell_angle_gamma   60.00000847
_symmetry_Int_Tables_number   1
_chemical_formula_structural   Tm6Al12V4Os7
_chemical_formula_sum   'Tm6 Al12 V4 Os7'
_cell_volume   496.19606937
_cell_formula_units_Z   1
loop_
 _symmetry_equiv_pos_site_id
 _symmetry_equiv_pos_as_xyz
  1  'x, y, z'
loop_
 _atom_site_type_symbol
 _atom_site_label
 _atom_site_symmetry_multiplicity
 _atom_site_fract_x
 _atom_site_fract_y
 _atom_site_fract_z
 _atom_site_occupancy
  Tm  Tm0  1  0.710170  0.710170  0.289830  1
  Tm  Tm1  1  0.289830  0.710170  0.289830  1
  Tm  Tm2  1  0.710170  0.289830  0.289830  1
  Tm  Tm3  1  0.289830  0.289830  0.710170  1
  Tm  Tm4  1  0.710170  0.289830  0.710170  1
  Tm  Tm5  1  0.289830  0.710170  0.710170  1
  Al  Al6  1  0.119882  0.119882  0.640355  1
  Al  Al7  1  0.119882  0.640355  0.119882  1
  Al  Al8  1  0.640355  0.119882  0.119882  1
  Al  Al9  1  0.119882  0.119882  0.119882  1
  Al  Al10  1  0.667642  0.667642  0.997074  1
  Al  Al11  1  0.667642  0.997074  0.667642  1
  Al  Al12  1  0.997074  0.667642  0.667642  1
  Al  Al13  1  0.667642  0.667642  0.667642  1
  Al  Al14  1  0.332165  0.332165  0.003503  1
  Al  Al15  1  0.332165  0.003503  0.332165  1
  Al  Al16  1  0.003503  0.332165  0.332165  1
  Al  Al17  1  0.332165  0.332165  0.332165  1
  V  V18  1  0.879674  0.879674  0.360979  1
  V  V19  1  0.879674  0.360979  0.879674  1
  V  V20  1  0.360979  0.879674  0.879674  1
  V  V21  1  0.879674  0.879674  0.879674  1
  Os  Os22  1  0.000000  0.000000  0.000000  1
  Os  Os23  1  0.996521  0.996521  0.503479  1
  Os  Os24  1  0.503479  0.996521  0.503479  1
  Os  Os25  1  0.996521  0.503479  0.503479  1
  Os  Os26  1  0.503479  0.503479  0.996521  1
  Os  Os27  1  0.996521  0.503479  0.996521  1
  Os  Os28  1  0.503479  0.996521  0.996521  1
