# generated using pymatgen
data_Hf5Zr(GaPd)6
_symmetry_space_group_name_H-M   'P 1'
_cell_length_a   7.21977120
_cell_length_b   7.23186125
_cell_length_c   6.98697304
_cell_angle_alpha   90.01958413
_cell_angle_beta   89.98129629
_cell_angle_gamma   120.25358056
_symmetry_Int_Tables_number   1
_chemical_formula_structural   Hf5Zr(GaPd)6
_chemical_formula_sum   'Hf5 Zr1 Ga6 Pd6'
_cell_volume   315.12131245
_cell_formula_units_Z   1
loop_
 _symmetry_equiv_pos_site_id
 _symmetry_equiv_pos_as_xyz
  1  'x, y, z'
loop_
 _atom_site_type_symbol
 _atom_site_label
 _atom_site_symmetry_multiplicity
 _atom_site_fract_x
 _atom_site_fract_y
 _atom_site_fract_z
 _atom_site_occupancy
  Hf  Hf0  1  0.591285  0.977880  0.750055  1
  Hf  Hf1  1  0.388690  0.409853  0.749986  1
  Hf  Hf2  1  0.023351  0.613131  0.749949  1
  Hf  Hf3  1  0.976646  0.589075  0.249988  1
  Hf  Hf4  1  0.611458  0.022509  0.249974  1
  Zr  Zr5  1  0.410116  0.387510  0.250035  1
  Ga  Ga6  1  0.268288  0.000923  0.000034  1
  Ga  Ga7  1  0.268289  0.000925  0.499984  1
  Ga  Ga8  1  0.000185  0.267827  0.499514  1
  Ga  Ga9  1  0.000204  0.267848  0.000454  1
  Ga  Ga10  1  0.730913  0.730745  0.998774  1
  Ga  Ga11  1  0.730905  0.730769  0.501238  1
  Pd  Pd12  1  0.668872  0.333456  0.535308  1
  Pd  Pd13  1  0.000248  0.999807  0.750000  1
  Pd  Pd14  1  0.668802  0.333392  0.964717  1
  Pd  Pd15  1  0.332659  0.669148  0.031001  1
  Pd  Pd16  1  0.332682  0.669152  0.468998  1
  Pd  Pd17  1  0.996403  0.996048  0.249993  1
