# generated using pymatgen
data_Nd2Dy2LuPb4
_symmetry_space_group_name_H-M   'P 1'
_cell_length_a   8.21361300
_cell_length_b   8.31837300
_cell_length_c   15.66103500
_cell_angle_alpha   90.00000000
_cell_angle_beta   90.00000000
_cell_angle_gamma   90.00000000
_symmetry_Int_Tables_number   1
_chemical_formula_structural   Nd2Dy2LuPb4
_chemical_formula_sum   'Nd8 Dy8 Lu4 Pb16'
_cell_volume   1070.02293617
_cell_formula_units_Z   4
loop_
 _symmetry_equiv_pos_site_id
 _symmetry_equiv_pos_as_xyz
  1  'x, y, z'
loop_
 _atom_site_type_symbol
 _atom_site_label
 _atom_site_symmetry_multiplicity
 _atom_site_fract_x
 _atom_site_fract_y
 _atom_site_fract_z
 _atom_site_occupancy
  Nd  Nd0  1  0.474057  0.677351  0.597404  1
  Nd  Nd1  1  0.974057  0.822649  0.902596  1
  Nd  Nd2  1  0.525943  0.322649  0.097404  1
  Nd  Nd3  1  0.025943  0.177351  0.402596  1
  Nd  Nd4  1  0.525943  0.322649  0.402596  1
  Nd  Nd5  1  0.025943  0.177351  0.097404  1
  Nd  Nd6  1  0.474057  0.677351  0.902596  1
  Nd  Nd7  1  0.974057  0.822649  0.597404  1
  Dy  Dy8  1  0.633322  0.157987  0.622405  1
  Dy  Dy9  1  0.133322  0.342013  0.877595  1
  Dy  Dy10  1  0.366678  0.842013  0.122405  1
  Dy  Dy11  1  0.866678  0.657987  0.377595  1
  Dy  Dy12  1  0.366678  0.842013  0.377595  1
  Dy  Dy13  1  0.866678  0.657987  0.122405  1
  Dy  Dy14  1  0.633322  0.157987  0.877595  1
  Dy  Dy15  1  0.133322  0.342013  0.622405  1
  Lu  Lu16  1  0.799379  0.494555  0.750000  1
  Lu  Lu17  1  0.299379  0.005445  0.750000  1
  Lu  Lu18  1  0.200621  0.505445  0.250000  1
  Lu  Lu19  1  0.700621  0.994555  0.250000  1
  Pb  Pb20  1  0.706310  0.959704  0.456127  1
  Pb  Pb21  1  0.206310  0.540296  0.043873  1
  Pb  Pb22  1  0.293690  0.040296  0.956127  1
  Pb  Pb23  1  0.793690  0.459704  0.543873  1
  Pb  Pb24  1  0.293690  0.040296  0.543873  1
  Pb  Pb25  1  0.793690  0.459704  0.956127  1
  Pb  Pb26  1  0.706310  0.959704  0.043873  1
  Pb  Pb27  1  0.206310  0.540296  0.456127  1
  Pb  Pb28  1  0.437830  0.372530  0.750000  1
  Pb  Pb29  1  0.937830  0.127470  0.750000  1
  Pb  Pb30  1  0.562170  0.627470  0.250000  1
  Pb  Pb31  1  0.062170  0.872530  0.250000  1
  Pb  Pb32  1  0.663063  0.847624  0.750000  1
  Pb  Pb33  1  0.163063  0.652376  0.750000  1
  Pb  Pb34  1  0.336937  0.152376  0.250000  1
  Pb  Pb35  1  0.836937  0.347624  0.250000  1
