# generated using pymatgen
data_TbEr7Ti9Si16Tc3
_symmetry_space_group_name_H-M   'P 1'
_cell_length_a   6.95456029
_cell_length_b   6.95360480
_cell_length_c   12.76963501
_cell_angle_alpha   90.07130296
_cell_angle_beta   89.92221279
_cell_angle_gamma   90.00076494
_symmetry_Int_Tables_number   1
_chemical_formula_structural   TbEr7Ti9Si16Tc3
_chemical_formula_sum   'Tb1 Er7 Ti9 Si16 Tc3'
_cell_volume   617.52910129
_cell_formula_units_Z   1
loop_
 _symmetry_equiv_pos_site_id
 _symmetry_equiv_pos_as_xyz
  1  'x, y, z'
loop_
 _atom_site_type_symbol
 _atom_site_label
 _atom_site_symmetry_multiplicity
 _atom_site_fract_x
 _atom_site_fract_y
 _atom_site_fract_z
 _atom_site_occupancy
  Tb  Tb0  1  0.340305  0.002078  0.467307  1
  Er  Er1  1  0.499092  0.841756  0.719484  1
  Er  Er2  1  0.500141  0.158565  0.217727  1
  Er  Er3  1  0.841897  0.498962  0.280445  1
  Er  Er4  1  0.158472  0.500164  0.782362  1
  Er  Er5  1  0.658723  0.999636  0.968495  1
  Er  Er6  1  0.001329  0.340828  0.532747  1
  Er  Er7  1  0.999645  0.658697  0.031630  1
  Ti  Ti8  1  0.673905  0.673576  0.500061  1
  Ti  Ti9  1  0.151671  0.005301  0.876963  1
  Ti  Ti10  1  0.494713  0.653117  0.124214  1
  Ti  Ti11  1  0.505104  0.348371  0.627559  1
  Ti  Ti12  1  0.653121  0.494723  0.875765  1
  Ti  Ti13  1  0.348267  0.504790  0.372536  1
  Ti  Ti14  1  0.847350  0.992522  0.375569  1
  Ti  Ti15  1  0.005149  0.151702  0.123070  1
  Ti  Ti16  1  0.992486  0.847245  0.624489  1
  Si  Si17  1  0.200250  0.130146  0.684002  1
  Si  Si18  1  0.369699  0.701150  0.932600  1
  Si  Si19  1  0.632889  0.297557  0.433919  1
  Si  Si20  1  0.701122  0.369765  0.067454  1
  Si  Si21  1  0.296567  0.630958  0.566317  1
  Si  Si22  1  0.798603  0.869401  0.183050  1
  Si  Si23  1  0.129177  0.201303  0.315865  1
  Si  Si24  1  0.869382  0.798515  0.816931  1
  Si  Si25  1  0.291055  0.952136  0.066629  1
  Si  Si26  1  0.547718  0.790161  0.315339  1
  Si  Si27  1  0.452310  0.210125  0.816748  1
  Si  Si28  1  0.790824  0.547039  0.684309  1
  Si  Si29  1  0.210079  0.452510  0.183204  1
  Si  Si30  1  0.708593  0.049373  0.567701  1
  Si  Si31  1  0.952169  0.291117  0.933414  1
  Si  Si32  1  0.048356  0.706815  0.432487  1
  Tc  Tc33  1  0.328058  0.328032  0.999935  1
  Tc  Tc34  1  0.173629  0.827924  0.248188  1
  Tc  Tc35  1  0.828153  0.173941  0.751485  1
