# generated using pymatgen
data_Ca2Lu2Sb6Rh7
_symmetry_space_group_name_H-M   'P 1'
_cell_length_a   7.61743162
_cell_length_b   7.61743106
_cell_length_c   7.55752112
_cell_angle_alpha   109.46034011
_cell_angle_beta   109.46034205
_cell_angle_gamma   109.81180325
_symmetry_Int_Tables_number   1
_chemical_formula_structural   Ca2Lu2Sb6Rh7
_chemical_formula_sum   'Ca2 Lu2 Sb6 Rh7'
_cell_volume   336.24034886
_cell_formula_units_Z   1
loop_
 _symmetry_equiv_pos_site_id
 _symmetry_equiv_pos_as_xyz
  1  'x, y, z'
loop_
 _atom_site_type_symbol
 _atom_site_label
 _atom_site_symmetry_multiplicity
 _atom_site_fract_x
 _atom_site_fract_y
 _atom_site_fract_z
 _atom_site_occupancy
  Ca  Ca0  1  0.000000  0.000000  0.500000  1
  Ca  Ca1  1  0.500000  0.500000  0.500000  1
  Lu  Lu2  1  0.500000  0.000000  0.000000  1
  Lu  Lu3  1  0.000000  0.500000  0.000000  1
  Sb  Sb4  1  0.317431  0.001340  0.318771  1
  Sb  Sb5  1  0.998660  0.682569  0.681229  1
  Sb  Sb6  1  0.682054  0.682054  0.000000  1
  Sb  Sb7  1  0.682569  0.998660  0.681229  1
  Sb  Sb8  1  0.001340  0.317431  0.318771  1
  Sb  Sb9  1  0.317946  0.317946  0.000000  1
  Rh  Rh10  1  0.249588  0.506821  0.756409  1
  Rh  Rh11  1  0.506821  0.249588  0.756409  1
  Rh  Rh12  1  0.750000  0.250000  0.500000  1
  Rh  Rh13  1  0.493179  0.750412  0.243591  1
  Rh  Rh14  1  0.000000  0.000000  0.000000  1
  Rh  Rh15  1  0.250000  0.750000  0.500000  1
  Rh  Rh16  1  0.750412  0.493179  0.243591  1
