# generated using pymatgen
data_Nd2Th3Pb3Cl
_symmetry_space_group_name_H-M   'P 1'
_cell_length_a   9.58745605
_cell_length_b   9.59527204
_cell_length_c   6.69555400
_cell_angle_alpha   90.00000000
_cell_angle_beta   90.00000000
_cell_angle_gamma   119.97097616
_symmetry_Int_Tables_number   1
_chemical_formula_structural   Nd2Th3Pb3Cl
_chemical_formula_sum   'Nd4 Th6 Pb6 Cl2'
_cell_volume   533.58641986
_cell_formula_units_Z   2
loop_
 _symmetry_equiv_pos_site_id
 _symmetry_equiv_pos_as_xyz
  1  'x, y, z'
loop_
 _atom_site_type_symbol
 _atom_site_label
 _atom_site_symmetry_multiplicity
 _atom_site_fract_x
 _atom_site_fract_y
 _atom_site_fract_z
 _atom_site_occupancy
  Nd  Nd0  1  0.999768  0.266059  0.250000  1
  Nd  Nd1  1  0.000221  0.733846  0.750000  1
  Nd  Nd2  1  0.733681  0.733919  0.250000  1
  Nd  Nd3  1  0.266369  0.266185  0.750000  1
  Th  Th4  1  0.270145  0.999978  0.250000  1
  Th  Th5  1  0.729882  0.000003  0.750000  1
  Th  Th6  1  0.334627  0.669305  0.999965  1
  Th  Th7  1  0.665332  0.330703  0.999960  1
  Th  Th8  1  0.665332  0.330703  0.500040  1
  Th  Th9  1  0.334627  0.669305  0.500035  1
  Pb  Pb10  1  0.617596  0.999997  0.250000  1
  Pb  Pb11  1  0.382378  0.000014  0.750000  1
  Pb  Pb12  1  0.999590  0.615279  0.250000  1
  Pb  Pb13  1  0.000371  0.384656  0.750000  1
  Pb  Pb14  1  0.384275  0.384659  0.250000  1
  Pb  Pb15  1  0.615746  0.615396  0.750000  1
  Cl  Cl16  1  0.000030  0.999997  0.999992  1
  Cl  Cl17  1  0.000030  0.999997  0.500008  1
