# generated using pymatgen
data_Y4ThRu2
_symmetry_space_group_name_H-M   'P 1'
_cell_length_a   6.45879454
_cell_length_b   7.25612945
_cell_length_c   8.70644511
_cell_angle_alpha   96.44812428
_cell_angle_beta   111.77238293
_cell_angle_gamma   90.00000028
_symmetry_Int_Tables_number   1
_chemical_formula_structural   Y4ThRu2
_chemical_formula_sum   'Y8 Th2 Ru4'
_cell_volume   376.14671375
_cell_formula_units_Z   2
loop_
 _symmetry_equiv_pos_site_id
 _symmetry_equiv_pos_as_xyz
  1  'x, y, z'
loop_
 _atom_site_type_symbol
 _atom_site_label
 _atom_site_symmetry_multiplicity
 _atom_site_fract_x
 _atom_site_fract_y
 _atom_site_fract_z
 _atom_site_occupancy
  Y  Y0  1  0.022233  0.085119  0.814275  1
  Y  Y1  1  0.207959  0.414881  0.185725  1
  Y  Y2  1  0.642477  0.816716  0.432172  1
  Y  Y3  1  0.210305  0.683284  0.567828  1
  Y  Y4  1  0.355149  0.187776  0.568270  1
  Y  Y5  1  0.786879  0.312224  0.431730  1
  Y  Y6  1  0.425533  0.750000  0.000000  1
  Y  Y7  1  0.579208  0.250000  0.000000  1
  Th  Th8  1  0.992467  0.906768  0.192815  1
  Th  Th9  1  0.799652  0.593232  0.807185  1
  Ru  Ru10  1  0.833049  0.588142  0.218555  1
  Ru  Ru11  1  0.614493  0.911858  0.781445  1
  Ru  Ru12  1  0.154282  0.430176  0.777967  1
  Ru  Ru13  1  0.376316  0.069824  0.222033  1
