# generated using pymatgen
data_CrReMoO8
_symmetry_space_group_name_H-M   'P 1'
_cell_length_a   5.74297159
_cell_length_b   5.74308623
_cell_length_c   6.51177979
_cell_angle_alpha   90.08093017
_cell_angle_beta   89.89797655
_cell_angle_gamma   120.03818010
_symmetry_Int_Tables_number   1
_chemical_formula_structural   CrReMoO8
_chemical_formula_sum   'Cr1 Re1 Mo1 O8'
_cell_volume   185.92781292
_cell_formula_units_Z   1
loop_
 _symmetry_equiv_pos_site_id
 _symmetry_equiv_pos_as_xyz
  1  'x, y, z'
loop_
 _atom_site_type_symbol
 _atom_site_label
 _atom_site_symmetry_multiplicity
 _atom_site_fract_x
 _atom_site_fract_y
 _atom_site_fract_z
 _atom_site_occupancy
  Cr  Cr0  1  0.000197  0.000185  0.010360  1
  Re  Re1  1  0.667177  0.333111  0.732624  1
  Mo  Mo2  1  0.332853  0.666871  0.267288  1
  O  O3  1  0.332748  0.666837  0.534761  1
  O  O4  1  0.667081  0.333089  0.467974  1
  O  O5  1  0.675636  0.838165  0.174331  1
  O  O6  1  0.161470  0.838201  0.174941  1
  O  O7  1  0.161446  0.324000  0.174645  1
  O  O8  1  0.332691  0.165999  0.821286  1
  O  O9  1  0.834372  0.165907  0.820665  1
  O  O10  1  0.834328  0.667636  0.821127  1
