# generated using pymatgen
data_LaSc(SiTc2)4
_symmetry_space_group_name_H-M   'P 1'
_cell_length_a   7.36376825
_cell_length_b   7.36376825
_cell_length_c   4.14854300
_cell_angle_alpha   90.00000000
_cell_angle_beta   90.00000000
_cell_angle_gamma   87.25591181
_symmetry_Int_Tables_number   1
_chemical_formula_structural   LaSc(SiTc2)4
_chemical_formula_sum   'La1 Sc1 Si4 Tc8'
_cell_volume   224.69713911
_cell_formula_units_Z   1
loop_
 _symmetry_equiv_pos_site_id
 _symmetry_equiv_pos_as_xyz
  1  'x, y, z'
loop_
 _atom_site_type_symbol
 _atom_site_label
 _atom_site_symmetry_multiplicity
 _atom_site_fract_x
 _atom_site_fract_y
 _atom_site_fract_z
 _atom_site_occupancy
  La  La0  1  0.500000  0.500000  0.000000  1
  Sc  Sc1  1  0.000000  0.000000  0.500000  1
  Si  Si2  1  0.719508  0.719508  0.500000  1
  Si  Si3  1  0.280492  0.280492  0.500000  1
  Si  Si4  1  0.195822  0.804178  0.000000  1
  Si  Si5  1  0.804178  0.195822  0.000000  1
  Tc  Tc6  1  0.604937  0.148089  0.500000  1
  Tc  Tc7  1  0.395063  0.851911  0.500000  1
  Tc  Tc8  1  0.084351  0.338484  0.000000  1
  Tc  Tc9  1  0.915649  0.661516  0.000000  1
  Tc  Tc10  1  0.148089  0.604937  0.500000  1
  Tc  Tc11  1  0.851911  0.395063  0.500000  1
  Tc  Tc12  1  0.338484  0.084351  0.000000  1
  Tc  Tc13  1  0.661516  0.915649  0.000000  1
