# generated using pymatgen
data_Er3Sn3IrRhAu
_symmetry_space_group_name_H-M   'P 1'
_cell_length_a   7.65107700
_cell_length_b   7.65107657
_cell_length_c   3.82217600
_cell_angle_alpha   90.00000000
_cell_angle_beta   90.00000000
_cell_angle_gamma   119.99998022
_symmetry_Int_Tables_number   1
_chemical_formula_structural   Er3Sn3IrRhAu
_chemical_formula_sum   'Er3 Sn3 Ir1 Rh1 Au1'
_cell_volume   193.76999169
_cell_formula_units_Z   1
loop_
 _symmetry_equiv_pos_site_id
 _symmetry_equiv_pos_as_xyz
  1  'x, y, z'
loop_
 _atom_site_type_symbol
 _atom_site_label
 _atom_site_symmetry_multiplicity
 _atom_site_fract_x
 _atom_site_fract_y
 _atom_site_fract_z
 _atom_site_occupancy
  Er  Er0  1  0.391974  0.410545  0.000000  1
  Er  Er1  1  0.018572  0.608026  0.000000  1
  Er  Er2  1  0.589455  0.981428  0.000000  1
  Sn  Sn3  1  0.739851  0.741534  0.500000  1
  Sn  Sn4  1  0.001683  0.260149  0.500000  1
  Sn  Sn5  1  0.258466  0.998317  0.500000  1
  Ir  Ir6  1  0.333333  0.666667  0.500000  1
  Rh  Rh7  1  0.000000  0.000000  0.000000  1
  Au  Au8  1  0.666667  0.333333  0.500000  1
