# generated using pymatgen
data_Th2MnCo16
_symmetry_space_group_name_H-M   'P 1'
_cell_length_a   6.31745534
_cell_length_b   6.31745479
_cell_length_c   6.31745541
_cell_angle_alpha   83.03468418
_cell_angle_beta   83.03468897
_cell_angle_gamma   83.03468300
_symmetry_Int_Tables_number   1
_chemical_formula_structural   Th2MnCo16
_chemical_formula_sum   'Th2 Mn1 Co16'
_cell_volume   246.96611727
_cell_formula_units_Z   1
loop_
 _symmetry_equiv_pos_site_id
 _symmetry_equiv_pos_as_xyz
  1  'x, y, z'
loop_
 _atom_site_type_symbol
 _atom_site_label
 _atom_site_symmetry_multiplicity
 _atom_site_fract_x
 _atom_site_fract_y
 _atom_site_fract_z
 _atom_site_occupancy
  Th  Th0  1  0.656328  0.656328  0.656328  1
  Th  Th1  1  0.345949  0.345949  0.345949  1
  Mn  Mn2  1  0.096486  0.096486  0.096486  1
  Co  Co3  1  0.714772  0.284891  0.999121  1
  Co  Co4  1  0.999121  0.714772  0.284891  1
  Co  Co5  1  0.284891  0.999121  0.714772  1
  Co  Co6  1  0.999121  0.284891  0.714772  1
  Co  Co7  1  0.714772  0.999121  0.284891  1
  Co  Co8  1  0.284891  0.714772  0.999121  1
  Co  Co9  1  0.347800  0.347800  0.852207  1
  Co  Co10  1  0.852207  0.347800  0.347800  1
  Co  Co11  1  0.347800  0.852207  0.347800  1
  Co  Co12  1  0.654290  0.654290  0.149306  1
  Co  Co13  1  0.149306  0.654290  0.654290  1
  Co  Co14  1  0.654290  0.149306  0.654290  1
  Co  Co15  1  0.997750  0.997750  0.504215  1
  Co  Co16  1  0.504215  0.997750  0.997750  1
  Co  Co17  1  0.997750  0.504215  0.997750  1
  Co  Co18  1  0.898262  0.898262  0.898262  1
