# generated using pymatgen
data_Nd4Cu3Hg2Ru
_symmetry_space_group_name_H-M   'P 1'
_cell_length_a   5.67429698
_cell_length_b   5.67282348
_cell_length_c   7.52053101
_cell_angle_alpha   77.86475796
_cell_angle_beta   77.81923567
_cell_angle_gamma   83.52100776
_symmetry_Int_Tables_number   1
_chemical_formula_structural   Nd4Cu3Hg2Ru
_chemical_formula_sum   'Nd4 Cu3 Hg2 Ru1'
_cell_volume   230.74800350
_cell_formula_units_Z   1
loop_
 _symmetry_equiv_pos_site_id
 _symmetry_equiv_pos_as_xyz
  1  'x, y, z'
loop_
 _atom_site_type_symbol
 _atom_site_label
 _atom_site_symmetry_multiplicity
 _atom_site_fract_x
 _atom_site_fract_y
 _atom_site_fract_z
 _atom_site_occupancy
  Nd  Nd0  1  0.676259  0.681382  0.770599  1
  Nd  Nd1  1  0.318777  0.320596  0.234500  1
  Nd  Nd2  1  0.192287  0.186175  0.767165  1
  Nd  Nd3  1  0.807735  0.808662  0.238334  1
  Cu  Cu4  1  0.137453  0.651756  0.902211  1
  Cu  Cu5  1  0.662964  0.148472  0.899304  1
  Cu  Cu6  1  0.858657  0.342212  0.095977  1
  Hg  Hg7  1  0.242271  0.762169  0.502622  1
  Hg  Hg8  1  0.754822  0.240049  0.499192  1
  Ru  Ru9  1  0.348774  0.858527  0.090094  1
