# generated using pymatgen
data_Tm14Lu6(BiSb3)3
_symmetry_space_group_name_H-M   'P 1'
_cell_length_a   8.02266731
_cell_length_b   9.25622469
_cell_length_c   11.72412362
_cell_angle_alpha   90.05601115
_cell_angle_beta   89.91039560
_cell_angle_gamma   90.07450616
_symmetry_Int_Tables_number   1
_chemical_formula_structural   Tm14Lu6(BiSb3)3
_chemical_formula_sum   'Tm14 Lu6 Bi3 Sb9'
_cell_volume   870.62664718
_cell_formula_units_Z   1
loop_
 _symmetry_equiv_pos_site_id
 _symmetry_equiv_pos_as_xyz
  1  'x, y, z'
loop_
 _atom_site_type_symbol
 _atom_site_label
 _atom_site_symmetry_multiplicity
 _atom_site_fract_x
 _atom_site_fract_y
 _atom_site_fract_z
 _atom_site_occupancy
  Tm  Tm0  1  0.528013  0.245252  0.988276  1
  Tm  Tm1  1  0.354520  0.244207  0.285272  1
  Tm  Tm2  1  0.648487  0.753846  0.714390  1
  Tm  Tm3  1  0.141975  0.752977  0.783776  1
  Tm  Tm4  1  0.854984  0.243966  0.215018  1
  Tm  Tm5  1  0.183659  0.246013  0.781016  1
  Tm  Tm6  1  0.814518  0.756524  0.217945  1
  Tm  Tm7  1  0.314959  0.756688  0.282219  1
  Tm  Tm8  1  0.688680  0.247542  0.717327  1
  Tm  Tm9  1  0.810867  0.564200  0.938883  1
  Tm  Tm10  1  0.692893  0.061977  0.440351  1
  Tm  Tm11  1  0.190546  0.435621  0.058620  1
  Tm  Tm12  1  0.692100  0.435793  0.443302  1
  Tm  Tm13  1  0.306715  0.563621  0.559476  1
  Lu  Lu14  1  0.027018  0.247663  0.512649  1
  Lu  Lu15  1  0.971651  0.752520  0.490800  1
  Lu  Lu16  1  0.472830  0.754843  0.010959  1
  Lu  Lu17  1  0.191901  0.062818  0.060111  1
  Lu  Lu18  1  0.807923  0.936758  0.939740  1
  Lu  Lu19  1  0.307136  0.936910  0.560458  1
  Bi  Bi20  1  0.066486  0.496940  0.325748  1
  Bi  Bi21  1  0.566526  0.497103  0.174402  1
  Bi  Bi22  1  0.432924  0.503952  0.825825  1
  Sb  Sb23  1  0.407357  0.249017  0.542126  1
  Sb  Sb24  1  0.591566  0.749805  0.458572  1
  Sb  Sb25  1  0.093147  0.751005  0.041442  1
  Sb  Sb26  1  0.907857  0.248761  0.958320  1
  Sb  Sb27  1  0.065988  0.004023  0.328235  1
  Sb  Sb28  1  0.933722  0.996335  0.672836  1
  Sb  Sb29  1  0.433087  0.995348  0.826377  1
  Sb  Sb30  1  0.934186  0.504116  0.672325  1
  Sb  Sb31  1  0.565782  0.003855  0.173204  1
