# generated using pymatgen
data_Lu12Tc2OsPt
_symmetry_space_group_name_H-M   'P 1'
_cell_length_a   7.28068724
_cell_length_b   8.90703200
_cell_length_c   6.18239809
_cell_angle_alpha   90.00000000
_cell_angle_beta   90.07829405
_cell_angle_gamma   90.00000000
_symmetry_Int_Tables_number   1
_chemical_formula_structural   Lu12Tc2OsPt
_chemical_formula_sum   'Lu12 Tc2 Os1 Pt1'
_cell_volume   400.92390189
_cell_formula_units_Z   1
loop_
 _symmetry_equiv_pos_site_id
 _symmetry_equiv_pos_as_xyz
  1  'x, y, z'
loop_
 _atom_site_type_symbol
 _atom_site_label
 _atom_site_symmetry_multiplicity
 _atom_site_fract_x
 _atom_site_fract_y
 _atom_site_fract_z
 _atom_site_occupancy
  Lu  Lu0  1  0.672607  0.057931  0.336069  1
  Lu  Lu1  1  0.181564  0.441805  0.166642  1
  Lu  Lu2  1  0.323974  0.562375  0.666171  1
  Lu  Lu3  1  0.822574  0.933603  0.828600  1
  Lu  Lu4  1  0.323974  0.937625  0.666171  1
  Lu  Lu5  1  0.822574  0.566397  0.828600  1
  Lu  Lu6  1  0.672607  0.442069  0.336069  1
  Lu  Lu7  1  0.181564  0.058195  0.166642  1
  Lu  Lu8  1  0.534495  0.250000  0.875352  1
  Lu  Lu9  1  0.041802  0.250000  0.627552  1
  Lu  Lu10  1  0.462085  0.750000  0.123572  1
  Lu  Lu11  1  0.959204  0.750000  0.373300  1
  Tc  Tc12  1  0.386104  0.250000  0.461951  1
  Tc  Tc13  1  0.113611  0.750000  0.965156  1
  Os  Os14  1  0.615580  0.750000  0.535422  1
  Pt  Pt15  1  0.885684  0.250000  0.042734  1
