# generated using pymatgen
data_Zr6Ti14Al2Ir7
_symmetry_space_group_name_H-M   'P 1'
_cell_length_a   8.96201641
_cell_length_b   8.94536908
_cell_length_c   8.94536904
_cell_angle_alpha   59.72004515
_cell_angle_beta   59.93842072
_cell_angle_gamma   59.93841906
_symmetry_Int_Tables_number   1
_chemical_formula_structural   Zr6Ti14Al2Ir7
_chemical_formula_sum   'Zr6 Ti14 Al2 Ir7'
_cell_volume   505.54150011
_cell_formula_units_Z   1
loop_
 _symmetry_equiv_pos_site_id
 _symmetry_equiv_pos_as_xyz
  1  'x, y, z'
loop_
 _atom_site_type_symbol
 _atom_site_label
 _atom_site_symmetry_multiplicity
 _atom_site_fract_x
 _atom_site_fract_y
 _atom_site_fract_z
 _atom_site_occupancy
  Zr  Zr0  1  0.685841  0.688945  0.311385  1
  Zr  Zr1  1  0.313828  0.688945  0.311385  1
  Zr  Zr2  1  0.691183  0.308817  0.308817  1
  Zr  Zr3  1  0.313828  0.311385  0.688945  1
  Zr  Zr4  1  0.685841  0.311385  0.688945  1
  Zr  Zr5  1  0.313894  0.686106  0.686106  1
  Ti  Ti6  1  0.354418  0.881055  0.881055  1
  Ti  Ti7  1  0.883473  0.881055  0.881055  1
  Ti  Ti8  1  0.113941  0.124358  0.647759  1
  Ti  Ti9  1  0.113941  0.647759  0.124358  1
  Ti  Ti10  1  0.646056  0.120567  0.120567  1
  Ti  Ti11  1  0.112808  0.120567  0.120567  1
  Ti  Ti12  1  0.669882  0.669160  0.991074  1
  Ti  Ti13  1  0.669882  0.991074  0.669160  1
  Ti  Ti14  1  0.000751  0.665955  0.665955  1
  Ti  Ti15  1  0.667338  0.665955  0.665955  1
  Ti  Ti16  1  0.330195  0.330565  0.009047  1
  Ti  Ti17  1  0.330195  0.009047  0.330565  1
  Ti  Ti18  1  0.007892  0.330798  0.330798  1
  Ti  Ti19  1  0.330515  0.330798  0.330798  1
  Al  Al20  1  0.879883  0.881881  0.358353  1
  Al  Al21  1  0.879883  0.358353  0.881881  1
  Ir  Ir22  1  0.001133  0.998867  0.998867  1
  Ir  Ir23  1  0.999935  0.000212  0.497847  1
  Ir  Ir24  1  0.502006  0.000212  0.497847  1
  Ir  Ir25  1  0.999265  0.500735  0.500735  1
  Ir  Ir26  1  0.502006  0.497847  0.000212  1
  Ir  Ir27  1  0.999935  0.497847  0.000212  1
  Ir  Ir28  1  0.500252  0.999748  0.999748  1
