# generated using pymatgen
data_Zr16Pd8CO3
_symmetry_space_group_name_H-M   'P 1'
_cell_length_a   8.92060638
_cell_length_b   8.92060661
_cell_length_c   8.92060588
_cell_angle_alpha   59.74590085
_cell_angle_beta   59.74590402
_cell_angle_gamma   59.74589344
_symmetry_Int_Tables_number   1
_chemical_formula_structural   Zr16Pd8CO3
_chemical_formula_sum   'Zr16 Pd8 C1 O3'
_cell_volume   499.06243383
_cell_formula_units_Z   1
loop_
 _symmetry_equiv_pos_site_id
 _symmetry_equiv_pos_as_xyz
  1  'x, y, z'
loop_
 _atom_site_type_symbol
 _atom_site_label
 _atom_site_symmetry_multiplicity
 _atom_site_fract_x
 _atom_site_fract_y
 _atom_site_fract_z
 _atom_site_occupancy
  Zr  Zr0  1  0.125000  0.625000  0.625000  1
  Zr  Zr1  1  0.625000  0.125000  0.625000  1
  Zr  Zr2  1  0.625000  0.625000  0.125000  1
  Zr  Zr3  1  0.625000  0.625000  0.625000  1
  Zr  Zr4  1  0.819004  0.819004  0.180879  1
  Zr  Zr5  1  0.181144  0.181144  0.821621  1
  Zr  Zr6  1  0.819004  0.180879  0.819004  1
  Zr  Zr7  1  0.181144  0.821621  0.181144  1
  Zr  Zr8  1  0.180879  0.819004  0.819004  1
  Zr  Zr9  1  0.821621  0.181144  0.181144  1
  Zr  Zr10  1  0.430996  0.430996  0.069121  1
  Zr  Zr11  1  0.068856  0.068856  0.428379  1
  Zr  Zr12  1  0.430996  0.069121  0.430996  1
  Zr  Zr13  1  0.068856  0.428379  0.068856  1
  Zr  Zr14  1  0.069121  0.430996  0.430996  1
  Zr  Zr15  1  0.428379  0.068856  0.068856  1
  Pd  Pd16  1  0.770257  0.410633  0.410633  1
  Pd  Pd17  1  0.410633  0.770257  0.410633  1
  Pd  Pd18  1  0.410633  0.410633  0.770257  1
  Pd  Pd19  1  0.410624  0.410624  0.410624  1
  Pd  Pd20  1  0.479743  0.839367  0.839367  1
  Pd  Pd21  1  0.839367  0.479743  0.839367  1
  Pd  Pd22  1  0.839367  0.839367  0.479743  1
  Pd  Pd23  1  0.839376  0.839376  0.839376  1
  C  C24  1  0.125000  0.125000  0.125000  1
  O  O25  1  0.625000  0.125000  0.125000  1
  O  O26  1  0.125000  0.625000  0.125000  1
  O  O27  1  0.125000  0.125000  0.625000  1
