# generated using pymatgen
data_PrNd3Te7Pd
_symmetry_space_group_name_H-M   'P 1'
_cell_length_a   4.33162430
_cell_length_b   8.86371300
_cell_length_c   9.41755700
_cell_angle_alpha   90.00000000
_cell_angle_beta   90.04431153
_cell_angle_gamma   90.00000000
_symmetry_Int_Tables_number   1
_chemical_formula_structural   PrNd3Te7Pd
_chemical_formula_sum   'Pr1 Nd3 Te7 Pd1'
_cell_volume   361.58016118
_cell_formula_units_Z   1
loop_
 _symmetry_equiv_pos_site_id
 _symmetry_equiv_pos_as_xyz
  1  'x, y, z'
loop_
 _atom_site_type_symbol
 _atom_site_label
 _atom_site_symmetry_multiplicity
 _atom_site_fract_x
 _atom_site_fract_y
 _atom_site_fract_z
 _atom_site_occupancy
  Pr  Pr0  1  0.003094  0.250000  0.742051  1
  Nd  Nd1  1  0.000790  0.750000  0.711786  1
  Nd  Nd2  1  0.499287  0.002867  0.268207  1
  Nd  Nd3  1  0.499287  0.497133  0.268207  1
  Te  Te4  1  0.997591  0.942280  0.001254  1
  Te  Te5  1  0.997591  0.557720  0.001254  1
  Te  Te6  1  0.503431  0.250000  0.002692  1
  Te  Te7  1  0.999565  0.750000  0.368036  1
  Te  Te8  1  0.000034  0.250000  0.373849  1
  Te  Te9  1  0.501324  0.001261  0.627613  1
  Te  Te10  1  0.501324  0.498739  0.627613  1
  Pd  Pd11  1  0.496677  0.750000  0.008363  1
