# generated using pymatgen
data_Zr4Nb3Si3GeW
_symmetry_space_group_name_H-M   'P 1'
_cell_length_a   3.61741700
_cell_length_b   7.05253393
_cell_length_c   8.47495000
_cell_angle_alpha   90.11789762
_cell_angle_beta   90.00000000
_cell_angle_gamma   90.00000000
_symmetry_Int_Tables_number   1
_chemical_formula_structural   Zr4Nb3Si3GeW
_chemical_formula_sum   'Zr4 Nb3 Si3 Ge1 W1'
_cell_volume   216.21209490
_cell_formula_units_Z   1
loop_
 _symmetry_equiv_pos_site_id
 _symmetry_equiv_pos_as_xyz
  1  'x, y, z'
loop_
 _atom_site_type_symbol
 _atom_site_label
 _atom_site_symmetry_multiplicity
 _atom_site_fract_x
 _atom_site_fract_y
 _atom_site_fract_z
 _atom_site_occupancy
  Zr  Zr0  1  0.250000  0.051111  0.335029  1
  Zr  Zr1  1  0.250000  0.540901  0.166169  1
  Zr  Zr2  1  0.750000  0.957611  0.668386  1
  Zr  Zr3  1  0.750000  0.456536  0.831793  1
  Nb  Nb4  1  0.250000  0.133725  0.940824  1
  Nb  Nb5  1  0.250000  0.624867  0.561734  1
  Nb  Nb6  1  0.750000  0.869860  0.057635  1
  Si  Si7  1  0.250000  0.253651  0.636031  1
  Si  Si8  1  0.250000  0.754017  0.859214  1
  Si  Si9  1  0.750000  0.246891  0.142931  1
  Ge  Ge10  1  0.750000  0.745805  0.359357  1
  W  W11  1  0.750000  0.365024  0.440898  1
