# generated using pymatgen
data_Tb8Lu12Si15S
_symmetry_space_group_name_H-M   'P 1'
_cell_length_a   7.36578038
_cell_length_b   7.54020136
_cell_length_c   14.35197400
_cell_angle_alpha   89.67825386
_cell_angle_beta   86.74838428
_cell_angle_gamma   89.85512437
_symmetry_Int_Tables_number   1
_chemical_formula_structural   Tb8Lu12Si15S
_chemical_formula_sum   'Tb8 Lu12 Si15 S1'
_cell_volume   795.80321673
_cell_formula_units_Z   1
loop_
 _symmetry_equiv_pos_site_id
 _symmetry_equiv_pos_as_xyz
  1  'x, y, z'
loop_
 _atom_site_type_symbol
 _atom_site_label
 _atom_site_symmetry_multiplicity
 _atom_site_fract_x
 _atom_site_fract_y
 _atom_site_fract_z
 _atom_site_occupancy
  Tb  Tb0  1  0.013117  0.178602  0.099204  1
  Tb  Tb1  1  0.987222  0.823701  0.900214  1
  Tb  Tb2  1  0.488297  0.680028  0.901080  1
  Tb  Tb3  1  0.008474  0.826732  0.600503  1
  Tb  Tb4  1  0.512286  0.321405  0.098606  1
  Tb  Tb5  1  0.983078  0.167985  0.395860  1
  Tb  Tb6  1  0.491606  0.313888  0.399054  1
  Tb  Tb7  1  0.512509  0.683673  0.600215  1
  Lu  Lu8  1  0.177585  0.507362  0.751177  1
  Lu  Lu9  1  0.822734  0.494456  0.253433  1
  Lu  Lu10  1  0.320444  0.001607  0.252696  1
  Lu  Lu11  1  0.678544  0.997907  0.746857  1
  Lu  Lu12  1  0.360850  0.169270  0.620733  1
  Lu  Lu13  1  0.638960  0.831691  0.378857  1
  Lu  Lu14  1  0.140924  0.658392  0.384530  1
  Lu  Lu15  1  0.664271  0.820644  0.123853  1
  Lu  Lu16  1  0.863003  0.336555  0.617261  1
  Lu  Lu17  1  0.335069  0.179236  0.875001  1
  Lu  Lu18  1  0.834226  0.324208  0.875135  1
  Lu  Lu19  1  0.165920  0.675926  0.123619  1
  Si  Si20  1  0.051281  0.117223  0.748039  1
  Si  Si21  1  0.948648  0.881822  0.249892  1
  Si  Si22  1  0.447428  0.611056  0.251243  1
  Si  Si23  1  0.551715  0.388596  0.747639  1
  Si  Si24  1  0.298144  0.873016  0.750713  1
  Si  Si25  1  0.701400  0.126627  0.247341  1
  Si  Si26  1  0.203295  0.369841  0.249122  1
  Si  Si27  1  0.799152  0.630440  0.750204  1
  Si  Si28  1  0.791357  0.531164  0.455873  1
  Si  Si29  1  0.293243  0.962985  0.459096  1
  Si  Si30  1  0.845475  0.531840  0.039104  1
  Si  Si31  1  0.700784  0.037984  0.542385  1
  Si  Si32  1  0.153889  0.470014  0.959325  1
  Si  Si33  1  0.654250  0.033602  0.960202  1
  Si  Si34  1  0.344634  0.967854  0.039222  1
  S  S35  1  0.216187  0.472672  0.552711  1
