# generated using pymatgen
data_LuTc6NiO24
_symmetry_space_group_name_H-M   'P 1'
_cell_length_a   10.53013680
_cell_length_b   10.53013593
_cell_length_c   10.53013600
_cell_angle_alpha   48.97700293
_cell_angle_beta   48.97701426
_cell_angle_gamma   48.97701006
_symmetry_Int_Tables_number   1
_chemical_formula_structural   LuTc6NiO24
_chemical_formula_sum   'Lu1 Tc6 Ni1 O24'
_cell_volume   610.19023744
_cell_formula_units_Z   1
loop_
 _symmetry_equiv_pos_site_id
 _symmetry_equiv_pos_as_xyz
  1  'x, y, z'
loop_
 _atom_site_type_symbol
 _atom_site_label
 _atom_site_symmetry_multiplicity
 _atom_site_fract_x
 _atom_site_fract_y
 _atom_site_fract_z
 _atom_site_occupancy
  Lu  Lu0  1  0.000000  0.000000  0.000000  1
  Tc  Tc1  1  0.584990  0.899684  0.258353  1
  Tc  Tc2  1  0.258353  0.584990  0.899684  1
  Tc  Tc3  1  0.899684  0.258353  0.584990  1
  Tc  Tc4  1  0.741647  0.415010  0.100316  1
  Tc  Tc5  1  0.100316  0.741647  0.415010  1
  Tc  Tc6  1  0.415010  0.100316  0.741647  1
  Ni  Ni7  1  0.500000  0.500000  0.500000  1
  O  O8  1  0.804115  0.875923  0.184217  1
  O  O9  1  0.184217  0.804115  0.875923  1
  O  O10  1  0.875923  0.184217  0.804115  1
  O  O11  1  0.667147  0.395397  0.317917  1
  O  O12  1  0.317917  0.667147  0.395397  1
  O  O13  1  0.395397  0.317917  0.667147  1
  O  O14  1  0.195885  0.124077  0.815783  1
  O  O15  1  0.815783  0.195885  0.124077  1
  O  O16  1  0.124077  0.815783  0.195885  1
  O  O17  1  0.332853  0.604603  0.682083  1
  O  O18  1  0.682083  0.332853  0.604603  1
  O  O19  1  0.604603  0.682083  0.332853  1
  O  O20  1  0.432010  0.974152  0.432202  1
  O  O21  1  0.432202  0.432010  0.974152  1
  O  O22  1  0.974152  0.432202  0.432010  1
  O  O23  1  0.919380  0.484488  0.944093  1
  O  O24  1  0.944093  0.919380  0.484488  1
  O  O25  1  0.484488  0.944093  0.919380  1
  O  O26  1  0.567990  0.025848  0.567798  1
  O  O27  1  0.567798  0.567990  0.025848  1
  O  O28  1  0.025848  0.567798  0.567990  1
  O  O29  1  0.080620  0.515512  0.055907  1
  O  O30  1  0.055907  0.080620  0.515512  1
  O  O31  1  0.515512  0.055907  0.080620  1
