# generated using pymatgen
data_Cs8ErZr(PaTe6)2
_symmetry_space_group_name_H-M   'P 1'
_cell_length_a   15.34145182
_cell_length_b   7.38506729
_cell_length_c   10.28609217
_cell_angle_alpha   71.82406742
_cell_angle_beta   89.97127441
_cell_angle_gamma   90.00708307
_symmetry_Int_Tables_number   1
_chemical_formula_structural   Cs8ErZr(PaTe6)2
_chemical_formula_sum   'Cs8 Er1 Zr1 Pa2 Te12'
_cell_volume   1107.24064707
_cell_formula_units_Z   1
loop_
 _symmetry_equiv_pos_site_id
 _symmetry_equiv_pos_as_xyz
  1  'x, y, z'
loop_
 _atom_site_type_symbol
 _atom_site_label
 _atom_site_symmetry_multiplicity
 _atom_site_fract_x
 _atom_site_fract_y
 _atom_site_fract_z
 _atom_site_occupancy
  Cs  Cs0  1  0.953336  0.671528  0.657429  1
  Cs  Cs1  1  0.456982  0.830216  0.340478  1
  Cs  Cs2  1  0.043042  0.328895  0.342588  1
  Cs  Cs3  1  0.546344  0.170381  0.656728  1
  Cs  Cs4  1  0.868991  0.084502  0.901085  1
  Cs  Cs5  1  0.369355  0.416386  0.099238  1
  Cs  Cs6  1  0.130524  0.922018  0.100848  1
  Cs  Cs7  1  0.631441  0.576149  0.899934  1
  Er  Er8  1  0.250612  0.343973  0.706399  1
  Zr  Zr9  1  0.749766  0.155016  0.295484  1
  Pa  Pa10  1  0.749794  0.654410  0.297065  1
  Pa  Pa11  1  0.249987  0.845584  0.702260  1
  Te  Te12  1  0.905040  0.919397  0.280903  1
  Te  Te13  1  0.408623  0.594669  0.717326  1
  Te  Te14  1  0.092037  0.086004  0.718524  1
  Te  Te15  1  0.594438  0.402420  0.280315  1
  Te  Te16  1  0.814592  0.300940  0.516060  1
  Te  Te17  1  0.316780  0.188544  0.481098  1
  Te  Te18  1  0.183075  0.694375  0.481547  1
  Te  Te19  1  0.685032  0.818068  0.515956  1
  Te  Te20  1  0.840398  0.487537  0.092969  1
  Te  Te21  1  0.342274  0.997398  0.911695  1
  Te  Te22  1  0.157932  0.511031  0.911053  1
  Te  Te23  1  0.659604  0.000561  0.093019  1
