# generated using pymatgen
data_Tb9Tm10LuPt16
_symmetry_space_group_name_H-M   'P 1'
_cell_length_a   7.42954622
_cell_length_b   7.52993027
_cell_length_c   14.70840106
_cell_angle_alpha   89.99438394
_cell_angle_beta   90.16499166
_cell_angle_gamma   90.02266386
_symmetry_Int_Tables_number   1
_chemical_formula_structural   Tb9Tm10LuPt16
_chemical_formula_sum   'Tb9 Tm10 Lu1 Pt16'
_cell_volume   822.84279333
_cell_formula_units_Z   1
loop_
 _symmetry_equiv_pos_site_id
 _symmetry_equiv_pos_as_xyz
  1  'x, y, z'
loop_
 _atom_site_type_symbol
 _atom_site_label
 _atom_site_symmetry_multiplicity
 _atom_site_fract_x
 _atom_site_fract_y
 _atom_site_fract_z
 _atom_site_occupancy
  Tb  Tb0  1  0.139161  0.331261  0.619987  1
  Tb  Tb1  1  0.483214  0.676022  0.595267  1
  Tb  Tb2  1  0.983677  0.826156  0.905522  1
  Tb  Tb3  1  0.516782  0.326474  0.095526  1
  Tb  Tb4  1  0.018529  0.170845  0.401690  1
  Tb  Tb5  1  0.517341  0.325586  0.404403  1
  Tb  Tb6  1  0.016067  0.174036  0.095614  1
  Tb  Tb7  1  0.483128  0.672820  0.905382  1
  Tb  Tb8  1  0.981789  0.826804  0.595935  1
  Tm  Tm9  1  0.639440  0.167911  0.622370  1
  Tm  Tm10  1  0.140495  0.331608  0.878621  1
  Tm  Tm11  1  0.359870  0.832089  0.121652  1
  Tm  Tm12  1  0.859969  0.668917  0.377955  1
  Tm  Tm13  1  0.362505  0.832223  0.377076  1
  Tm  Tm14  1  0.859230  0.668586  0.121687  1
  Tm  Tm15  1  0.640614  0.168030  0.879063  1
  Tm  Tm16  1  0.800869  0.509723  0.751028  1
  Tm  Tm17  1  0.302022  0.990247  0.751312  1
  Tm  Tm18  1  0.198342  0.491132  0.249699  1
  Lu  Lu19  1  0.698492  0.009336  0.249338  1
  Pt  Pt20  1  0.694569  0.970803  0.457477  1
  Pt  Pt21  1  0.191921  0.530715  0.042423  1
  Pt  Pt22  1  0.308040  0.030543  0.957921  1
  Pt  Pt23  1  0.801904  0.472497  0.542255  1
  Pt  Pt24  1  0.309644  0.025474  0.541722  1
  Pt  Pt25  1  0.808391  0.469378  0.958135  1
  Pt  Pt26  1  0.692028  0.970006  0.042985  1
  Pt  Pt27  1  0.193389  0.531874  0.454481  1
  Pt  Pt28  1  0.435465  0.379357  0.751445  1
  Pt  Pt29  1  0.933623  0.119121  0.751633  1
  Pt  Pt30  1  0.565900  0.621530  0.249440  1
  Pt  Pt31  1  0.065125  0.878679  0.249362  1
  Pt  Pt32  1  0.662809  0.858847  0.751057  1
  Pt  Pt33  1  0.164023  0.641378  0.751567  1
  Pt  Pt34  1  0.336654  0.140387  0.249500  1
  Pt  Pt35  1  0.834984  0.359608  0.249469  1
