# generated using pymatgen
data_Gd4Si7Ir
_symmetry_space_group_name_H-M   'P 1'
_cell_length_a   8.17008300
_cell_length_b   8.17008411
_cell_length_c   8.15559200
_cell_angle_alpha   90.00000000
_cell_angle_beta   90.00000000
_cell_angle_gamma   119.99999145
_symmetry_Int_Tables_number   1
_chemical_formula_structural   Gd4Si7Ir
_chemical_formula_sum   'Gd8 Si14 Ir2'
_cell_volume   471.45381721
_cell_formula_units_Z   2
loop_
 _symmetry_equiv_pos_site_id
 _symmetry_equiv_pos_as_xyz
  1  'x, y, z'
loop_
 _atom_site_type_symbol
 _atom_site_label
 _atom_site_symmetry_multiplicity
 _atom_site_fract_x
 _atom_site_fract_y
 _atom_site_fract_z
 _atom_site_occupancy
  Gd  Gd0  1  0.000000  0.000000  0.246926  1
  Gd  Gd1  1  0.000000  0.000000  0.753074  1
  Gd  Gd2  1  0.500155  0.499845  0.250268  1
  Gd  Gd3  1  0.500155  0.000311  0.250268  1
  Gd  Gd4  1  0.999689  0.499845  0.250268  1
  Gd  Gd5  1  0.499845  0.500155  0.749732  1
  Gd  Gd6  1  0.499845  0.999689  0.749732  1
  Gd  Gd7  1  0.000311  0.500155  0.749732  1
  Si  Si8  1  0.167323  0.832677  0.499505  1
  Si  Si9  1  0.167323  0.334646  0.499505  1
  Si  Si10  1  0.665354  0.832677  0.499505  1
  Si  Si11  1  0.832677  0.167323  0.500495  1
  Si  Si12  1  0.832677  0.665354  0.500495  1
  Si  Si13  1  0.334646  0.167323  0.500495  1
  Si  Si14  1  0.833478  0.166522  0.000849  1
  Si  Si15  1  0.833478  0.666957  0.000849  1
  Si  Si16  1  0.333043  0.166522  0.000849  1
  Si  Si17  1  0.166522  0.833478  0.999151  1
  Si  Si18  1  0.166522  0.333043  0.999151  1
  Si  Si19  1  0.666957  0.833478  0.999151  1
  Si  Si20  1  0.666667  0.333333  0.998779  1
  Si  Si21  1  0.333333  0.666667  0.001221  1
  Ir  Ir22  1  0.333333  0.666667  0.499914  1
  Ir  Ir23  1  0.666667  0.333333  0.500086  1
