# generated using pymatgen
data_CsScCdF6
_symmetry_space_group_name_H-M   'P 1'
_cell_length_a   7.84461000
_cell_length_b   7.95925600
_cell_length_c   11.15361500
_cell_angle_alpha   90.00000000
_cell_angle_beta   90.00000000
_cell_angle_gamma   90.00000000
_symmetry_Int_Tables_number   1
_chemical_formula_structural   CsScCdF6
_chemical_formula_sum   'Cs4 Sc4 Cd4 F24'
_cell_volume   696.40115089
_cell_formula_units_Z   4
loop_
 _symmetry_equiv_pos_site_id
 _symmetry_equiv_pos_as_xyz
  1  'x, y, z'
loop_
 _atom_site_type_symbol
 _atom_site_label
 _atom_site_symmetry_multiplicity
 _atom_site_fract_x
 _atom_site_fract_y
 _atom_site_fract_z
 _atom_site_occupancy
  Cs  Cs0  1  0.487528  0.250000  0.122279  1
  Cs  Cs1  1  0.987528  0.250000  0.377721  1
  Cs  Cs2  1  0.512472  0.750000  0.877721  1
  Cs  Cs3  1  0.012472  0.750000  0.622279  1
  Sc  Sc4  1  0.000000  0.000000  0.000000  1
  Sc  Sc5  1  0.500000  0.500000  0.500000  1
  Sc  Sc6  1  0.000000  0.500000  0.000000  1
  Sc  Sc7  1  0.500000  0.000000  0.500000  1
  Cd  Cd8  1  0.272243  0.250000  0.758002  1
  Cd  Cd9  1  0.772243  0.250000  0.741998  1
  Cd  Cd10  1  0.727757  0.750000  0.241998  1
  Cd  Cd11  1  0.227757  0.750000  0.258002  1
  F  F12  1  0.029243  0.250000  0.657885  1
  F  F13  1  0.529243  0.250000  0.842115  1
  F  F14  1  0.970757  0.750000  0.342115  1
  F  F15  1  0.470757  0.750000  0.157885  1
  F  F16  1  0.471597  0.250000  0.459598  1
  F  F17  1  0.971597  0.250000  0.040402  1
  F  F18  1  0.528403  0.750000  0.540402  1
  F  F19  1  0.028403  0.750000  0.959598  1
  F  F20  1  0.153629  0.978557  0.144766  1
  F  F21  1  0.653629  0.521443  0.355234  1
  F  F22  1  0.846371  0.478557  0.855234  1
  F  F23  1  0.346371  0.021443  0.644766  1
  F  F24  1  0.846371  0.021443  0.855234  1
  F  F25  1  0.346371  0.478557  0.644766  1
  F  F26  1  0.153629  0.521443  0.144766  1
  F  F27  1  0.653629  0.978557  0.355234  1
  F  F28  1  0.207580  0.048363  0.897854  1
  F  F29  1  0.707580  0.451637  0.602146  1
  F  F30  1  0.792420  0.548363  0.102146  1
  F  F31  1  0.292420  0.951637  0.397854  1
  F  F32  1  0.792420  0.951637  0.102146  1
  F  F33  1  0.292420  0.548363  0.397854  1
  F  F34  1  0.207580  0.451637  0.897854  1
  F  F35  1  0.707580  0.048363  0.602146  1
