# generated using pymatgen
data_Ta5Nb3Cd4O24
_symmetry_space_group_name_H-M   'P 1'
_cell_length_a   5.18960327
_cell_length_b   6.00883876
_cell_length_c   15.01103904
_cell_angle_alpha   90.60370041
_cell_angle_beta   90.07275885
_cell_angle_gamma   89.96609644
_symmetry_Int_Tables_number   1
_chemical_formula_structural   Ta5Nb3Cd4O24
_chemical_formula_sum   'Ta5 Nb3 Cd4 O24'
_cell_volume   468.07013534
_cell_formula_units_Z   1
loop_
 _symmetry_equiv_pos_site_id
 _symmetry_equiv_pos_as_xyz
  1  'x, y, z'
loop_
 _atom_site_type_symbol
 _atom_site_label
 _atom_site_symmetry_multiplicity
 _atom_site_fract_x
 _atom_site_fract_y
 _atom_site_fract_z
 _atom_site_occupancy
  Ta  Ta0  1  0.258829  0.824688  0.167076  1
  Ta  Ta1  1  0.260355  0.324814  0.334668  1
  Ta  Ta2  1  0.742417  0.175564  0.833048  1
  Ta  Ta3  1  0.758799  0.674495  0.333635  1
  Ta  Ta4  1  0.242057  0.324679  0.666730  1
  Nb  Nb5  1  0.240498  0.820836  0.835416  1
  Nb  Nb6  1  0.760650  0.178185  0.164827  1
  Nb  Nb7  1  0.740711  0.678770  0.664320  1
  Cd  Cd8  1  0.247275  0.816984  0.499154  1
  Cd  Cd9  1  0.751518  0.187063  0.499425  1
  Cd  Cd10  1  0.746249  0.686262  0.000139  1
  Cd  Cd11  1  0.253977  0.313670  0.999448  1
  O  O12  1  0.110981  0.623725  0.914705  1
  O  O13  1  0.888984  0.376303  0.085912  1
  O  O14  1  0.610728  0.876431  0.585400  1
  O  O15  1  0.386641  0.623179  0.086401  1
  O  O16  1  0.387403  0.124878  0.413944  1
  O  O17  1  0.613494  0.377168  0.913827  1
  O  O18  1  0.885800  0.876722  0.413892  1
  O  O19  1  0.111584  0.123320  0.586361  1
  O  O20  1  0.059773  0.590205  0.605254  1
  O  O21  1  0.941127  0.410110  0.394057  1
  O  O22  1  0.559429  0.910712  0.894768  1
  O  O23  1  0.440936  0.591253  0.394930  1
  O  O24  1  0.440849  0.089084  0.105581  1
  O  O25  1  0.558330  0.406893  0.604698  1
  O  O26  1  0.941718  0.906437  0.105152  1
  O  O27  1  0.058349  0.093029  0.895593  1
  O  O28  1  0.413090  0.630208  0.744486  1
  O  O29  1  0.582699  0.367615  0.255637  1
  O  O30  1  0.912718  0.870172  0.755787  1
  O  O31  1  0.081234  0.633025  0.254581  1
  O  O32  1  0.087860  0.131261  0.245028  1
  O  O33  1  0.921716  0.364025  0.746094  1
  O  O34  1  0.579809  0.862131  0.245971  1
  O  O35  1  0.421415  0.136103  0.754050  1
