# generated using pymatgen
data_TbNp3(WN2)4
_symmetry_space_group_name_H-M   'P 1'
_cell_length_a   3.18570700
_cell_length_b   5.63312667
_cell_length_c   10.86536272
_cell_angle_alpha   89.87089288
_cell_angle_beta   90.00000000
_cell_angle_gamma   90.00000000
_symmetry_Int_Tables_number   1
_chemical_formula_structural   TbNp3(WN2)4
_chemical_formula_sum   'Tb1 Np3 W4 N8'
_cell_volume   194.98377451
_cell_formula_units_Z   1
loop_
 _symmetry_equiv_pos_site_id
 _symmetry_equiv_pos_as_xyz
  1  'x, y, z'
loop_
 _atom_site_type_symbol
 _atom_site_label
 _atom_site_symmetry_multiplicity
 _atom_site_fract_x
 _atom_site_fract_y
 _atom_site_fract_z
 _atom_site_occupancy
  Tb  Tb0  1  0.750000  0.424887  0.355094  1
  Np  Np1  1  0.250000  0.074921  0.856683  1
  Np  Np2  1  0.250000  0.570184  0.642306  1
  Np  Np3  1  0.750000  0.925610  0.143308  1
  W  W4  1  0.250000  0.431581  0.103357  1
  W  W5  1  0.250000  0.934583  0.401418  1
  W  W6  1  0.750000  0.568404  0.897974  1
  W  W7  1  0.750000  0.066562  0.601465  1
  N  N8  1  0.250000  0.162422  0.245396  1
  N  N9  1  0.250000  0.672047  0.253907  1
  N  N10  1  0.750000  0.832675  0.754286  1
  N  N11  1  0.750000  0.333407  0.745401  1
  N  N12  1  0.250000  0.754057  0.994996  1
  N  N13  1  0.250000  0.257725  0.504380  1
  N  N14  1  0.750000  0.244965  0.004659  1
  N  N15  1  0.750000  0.745971  0.495372  1
