# generated using pymatgen
data_TbAl2(Fe4Re)2
_symmetry_space_group_name_H-M   'P 1'
_cell_length_a   4.76074093
_cell_length_b   6.52812137
_cell_length_c   6.52812129
_cell_angle_alpha   96.48419528
_cell_angle_beta   111.38501070
_cell_angle_gamma   68.61498814
_symmetry_Int_Tables_number   1
_chemical_formula_structural   TbAl2(Fe4Re)2
_chemical_formula_sum   'Tb1 Al2 Fe8 Re2'
_cell_volume   175.86342823
_cell_formula_units_Z   1
loop_
 _symmetry_equiv_pos_site_id
 _symmetry_equiv_pos_as_xyz
  1  'x, y, z'
loop_
 _atom_site_type_symbol
 _atom_site_label
 _atom_site_symmetry_multiplicity
 _atom_site_fract_x
 _atom_site_fract_y
 _atom_site_fract_z
 _atom_site_occupancy
  Tb  Tb0  1  0.000000  0.000000  0.000000  1
  Al  Al1  1  0.712720  0.787280  0.212720  1
  Al  Al2  1  0.287280  0.212720  0.787280  1
  Fe  Fe3  1  0.500000  0.770228  0.770228  1
  Fe  Fe4  1  0.500000  0.229772  0.229772  1
  Fe  Fe5  1  0.500000  0.000000  0.500000  1
  Fe  Fe6  1  0.000000  0.000000  0.500000  1
  Fe  Fe7  1  0.500000  0.500000  0.000000  1
  Fe  Fe8  1  0.000000  0.500000  0.000000  1
  Fe  Fe9  1  0.638851  0.361149  0.638851  1
  Fe  Fe10  1  0.361149  0.638851  0.361149  1
  Re  Re11  1  0.000000  0.358290  0.358290  1
  Re  Re12  1  0.000000  0.641710  0.641710  1
