# generated using pymatgen
data_Li8Pr8InSb7
_symmetry_space_group_name_H-M   'P 1'
_cell_length_a   9.59679800
_cell_length_b   9.59679898
_cell_length_c   7.41373100
_cell_angle_alpha   90.00000000
_cell_angle_beta   90.00000000
_cell_angle_gamma   119.99999661
_symmetry_Int_Tables_number   1
_chemical_formula_structural   Li8Pr8InSb7
_chemical_formula_sum   'Li8 Pr8 In1 Sb7'
_cell_volume   591.31680585
_cell_formula_units_Z   1
loop_
 _symmetry_equiv_pos_site_id
 _symmetry_equiv_pos_as_xyz
  1  'x, y, z'
loop_
 _atom_site_type_symbol
 _atom_site_label
 _atom_site_symmetry_multiplicity
 _atom_site_fract_x
 _atom_site_fract_y
 _atom_site_fract_z
 _atom_site_occupancy
  Li  Li0  1  0.166712  0.333425  0.268476  1
  Li  Li1  1  0.166712  0.833288  0.268476  1
  Li  Li2  1  0.666575  0.833288  0.268476  1
  Li  Li3  1  0.833419  0.666839  0.769051  1
  Li  Li4  1  0.833419  0.166581  0.769051  1
  Li  Li5  1  0.333161  0.166581  0.769051  1
  Li  Li6  1  0.333333  0.666667  0.692920  1
  Li  Li7  1  0.666667  0.333333  0.197710  1
  Pr  Pr8  1  0.509018  0.018037  0.496892  1
  Pr  Pr9  1  0.509018  0.490982  0.496892  1
  Pr  Pr10  1  0.981963  0.490982  0.496892  1
  Pr  Pr11  1  0.493945  0.987889  0.993929  1
  Pr  Pr12  1  0.493945  0.506055  0.993929  1
  Pr  Pr13  1  0.012111  0.506055  0.993929  1
  Pr  Pr14  1  0.000000  0.000000  0.501874  1
  Pr  Pr15  1  0.000000  0.000000  0.000682  1
  In  In16  1  0.666667  0.333333  0.760901  1
  Sb  Sb17  1  0.166149  0.332297  0.740781  1
  Sb  Sb18  1  0.166149  0.833851  0.740781  1
  Sb  Sb19  1  0.667703  0.833851  0.740781  1
  Sb  Sb20  1  0.833349  0.666698  0.239943  1
  Sb  Sb21  1  0.833349  0.166651  0.239943  1
  Sb  Sb22  1  0.333302  0.166651  0.239943  1
  Sb  Sb23  1  0.333333  0.666667  0.260671  1
