# generated using pymatgen
data_Lu3(ThTl2)2
_symmetry_space_group_name_H-M   'P 1'
_cell_length_a   8.28421000
_cell_length_b   7.92374408
_cell_length_c   8.26260531
_cell_angle_alpha   71.47572301
_cell_angle_beta   90.00000000
_cell_angle_gamma   90.00000000
_symmetry_Int_Tables_number   1
_chemical_formula_structural   Lu3(ThTl2)2
_chemical_formula_sum   'Lu6 Th4 Tl8'
_cell_volume   514.27275504
_cell_formula_units_Z   2
loop_
 _symmetry_equiv_pos_site_id
 _symmetry_equiv_pos_as_xyz
  1  'x, y, z'
loop_
 _atom_site_type_symbol
 _atom_site_label
 _atom_site_symmetry_multiplicity
 _atom_site_fract_x
 _atom_site_fract_y
 _atom_site_fract_z
 _atom_site_occupancy
  Lu  Lu0  1  0.665522  0.748283  0.256275  1
  Lu  Lu1  1  0.334478  0.251717  0.743725  1
  Lu  Lu2  1  0.165522  0.751717  0.743725  1
  Lu  Lu3  1  0.834478  0.248283  0.256275  1
  Lu  Lu4  1  0.000000  0.000000  0.000000  1
  Lu  Lu5  1  0.500000  0.500000  0.000000  1
  Th  Th6  1  0.678972  0.935884  0.690534  1
  Th  Th7  1  0.321028  0.064116  0.309466  1
  Th  Th8  1  0.178972  0.564116  0.309466  1
  Th  Th9  1  0.821028  0.435884  0.690534  1
  Tl  Tl10  1  0.960845  0.850053  0.416936  1
  Tl  Tl11  1  0.039155  0.149947  0.583064  1
  Tl  Tl12  1  0.460845  0.649947  0.583064  1
  Tl  Tl13  1  0.539155  0.350053  0.416936  1
  Tl  Tl14  1  0.867800  0.636480  0.994076  1
  Tl  Tl15  1  0.132200  0.363520  0.005924  1
  Tl  Tl16  1  0.367800  0.863520  0.005924  1
  Tl  Tl17  1  0.632200  0.136480  0.994076  1
