# generated using pymatgen
data_Tm7C3I6N
_symmetry_space_group_name_H-M   'P 1'
_cell_length_a   3.81280600
_cell_length_b   11.36045700
_cell_length_c   22.29898700
_cell_angle_alpha   90.00000000
_cell_angle_beta   90.00000000
_cell_angle_gamma   90.00000000
_symmetry_Int_Tables_number   1
_chemical_formula_structural   Tm7C3I6N
_chemical_formula_sum   'Tm14 C6 I12 N2'
_cell_volume   965.88549674
_cell_formula_units_Z   2
loop_
 _symmetry_equiv_pos_site_id
 _symmetry_equiv_pos_as_xyz
  1  'x, y, z'
loop_
 _atom_site_type_symbol
 _atom_site_label
 _atom_site_symmetry_multiplicity
 _atom_site_fract_x
 _atom_site_fract_y
 _atom_site_fract_z
 _atom_site_occupancy
  Tm  Tm0  1  0.500000  0.636848  0.969023  1
  Tm  Tm1  1  0.000000  0.701244  0.668686  1
  Tm  Tm2  1  0.500000  0.510319  0.750000  1
  Tm  Tm3  1  0.000000  0.442945  0.606765  1
  Tm  Tm4  1  0.000000  0.298756  0.168686  1
  Tm  Tm5  1  0.500000  0.489681  0.250000  1
  Tm  Tm6  1  0.500000  0.363152  0.469023  1
  Tm  Tm7  1  0.000000  0.442945  0.893235  1
  Tm  Tm8  1  0.000000  0.557055  0.106765  1
  Tm  Tm9  1  0.000000  0.701244  0.831314  1
  Tm  Tm10  1  0.500000  0.636848  0.530977  1
  Tm  Tm11  1  0.500000  0.363152  0.030977  1
  Tm  Tm12  1  0.000000  0.298756  0.331314  1
  Tm  Tm13  1  0.000000  0.557055  0.393235  1
  C  C14  1  0.500000  0.424524  0.132879  1
  C  C15  1  0.500000  0.575476  0.632879  1
  C  C16  1  0.000000  0.500000  0.000000  1
  C  C17  1  0.500000  0.575476  0.867121  1
  C  C18  1  0.000000  0.500000  0.500000  1
  C  C19  1  0.500000  0.424524  0.367121  1
  I  I20  1  0.500000  0.121508  0.250000  1
  I  I21  1  0.000000  0.702185  0.250000  1
  I  I22  1  0.000000  0.145685  0.057015  1
  I  I23  1  0.500000  0.231211  0.906811  1
  I  I24  1  0.500000  0.768789  0.406811  1
  I  I25  1  0.000000  0.854315  0.942985  1
  I  I26  1  0.000000  0.145685  0.442985  1
  I  I27  1  0.500000  0.768789  0.093189  1
  I  I28  1  0.000000  0.854315  0.557015  1
  I  I29  1  0.000000  0.297815  0.750000  1
  I  I30  1  0.500000  0.231211  0.593189  1
  I  I31  1  0.500000  0.878492  0.750000  1
  N  N32  1  0.000000  0.604873  0.750000  1
  N  N33  1  0.000000  0.395127  0.250000  1
