# generated using pymatgen
data_Zr12Ta4Ir7RhN4
_symmetry_space_group_name_H-M   'P 1'
_cell_length_a   8.74269500
_cell_length_b   8.74269495
_cell_length_c   8.74269515
_cell_angle_alpha   59.92060504
_cell_angle_beta   59.92060558
_cell_angle_gamma   59.92059955
_symmetry_Int_Tables_number   1
_chemical_formula_structural   Zr12Ta4Ir7RhN4
_chemical_formula_sum   'Zr12 Ta4 Ir7 Rh1 N4'
_cell_volume   471.66984689
_cell_formula_units_Z   1
loop_
 _symmetry_equiv_pos_site_id
 _symmetry_equiv_pos_as_xyz
  1  'x, y, z'
loop_
 _atom_site_type_symbol
 _atom_site_label
 _atom_site_symmetry_multiplicity
 _atom_site_fract_x
 _atom_site_fract_y
 _atom_site_fract_z
 _atom_site_occupancy
  Zr  Zr0  1  0.812727  0.812727  0.187930  1
  Zr  Zr1  1  0.187334  0.187334  0.812747  1
  Zr  Zr2  1  0.812727  0.187930  0.812727  1
  Zr  Zr3  1  0.187334  0.812747  0.187334  1
  Zr  Zr4  1  0.187930  0.812727  0.812727  1
  Zr  Zr5  1  0.812747  0.187334  0.187334  1
  Zr  Zr6  1  0.437185  0.437185  0.063060  1
  Zr  Zr7  1  0.063414  0.063414  0.436466  1
  Zr  Zr8  1  0.437185  0.063060  0.437185  1
  Zr  Zr9  1  0.063414  0.436466  0.063414  1
  Zr  Zr10  1  0.063060  0.437185  0.437185  1
  Zr  Zr11  1  0.436466  0.063414  0.063414  1
  Ta  Ta12  1  0.123891  0.625410  0.625410  1
  Ta  Ta13  1  0.625410  0.123891  0.625410  1
  Ta  Ta14  1  0.625410  0.625410  0.123891  1
  Ta  Ta15  1  0.625412  0.625412  0.625412  1
  Ir  Ir16  1  0.756236  0.414654  0.414654  1
  Ir  Ir17  1  0.414654  0.756236  0.414654  1
  Ir  Ir18  1  0.414654  0.414654  0.756236  1
  Ir  Ir19  1  0.414581  0.414581  0.414581  1
  Ir  Ir20  1  0.491362  0.836024  0.836024  1
  Ir  Ir21  1  0.836024  0.491362  0.836024  1
  Ir  Ir22  1  0.836024  0.836024  0.491362  1
  Rh  Rh23  1  0.835357  0.835357  0.835357  1
  N  N24  1  0.625084  0.124740  0.124740  1
  N  N25  1  0.124740  0.625084  0.124740  1
  N  N26  1  0.124740  0.124740  0.625084  1
  N  N27  1  0.124899  0.124899  0.124899  1
