# generated using pymatgen
data_Tb3Pr(WO6)2
_symmetry_space_group_name_H-M   'P 1'
_cell_length_a   5.47551100
_cell_length_b   7.80972187
_cell_length_c   11.61326556
_cell_angle_alpha   75.64765100
_cell_angle_beta   90.00000000
_cell_angle_gamma   90.00000000
_symmetry_Int_Tables_number   1
_chemical_formula_structural   Tb3Pr(WO6)2
_chemical_formula_sum   'Tb6 Pr2 W4 O24'
_cell_volume   481.10965496
_cell_formula_units_Z   2
loop_
 _symmetry_equiv_pos_site_id
 _symmetry_equiv_pos_as_xyz
  1  'x, y, z'
loop_
 _atom_site_type_symbol
 _atom_site_label
 _atom_site_symmetry_multiplicity
 _atom_site_fract_x
 _atom_site_fract_y
 _atom_site_fract_z
 _atom_site_occupancy
  Tb  Tb0  1  0.740175  0.000000  0.750000  1
  Tb  Tb1  1  0.259825  0.000000  0.250000  1
  Tb  Tb2  1  0.187633  0.797581  0.576428  1
  Tb  Tb3  1  0.812367  0.797581  0.076428  1
  Tb  Tb4  1  0.187633  0.202419  0.923572  1
  Tb  Tb5  1  0.812367  0.202419  0.423572  1
  Pr  Pr6  1  0.684920  0.500000  0.750000  1
  Pr  Pr7  1  0.315080  0.500000  0.250000  1
  W  W8  1  0.252682  0.727600  0.884361  1
  W  W9  1  0.747318  0.727600  0.384361  1
  W  W10  1  0.252682  0.272400  0.615639  1
  W  W11  1  0.747318  0.272400  0.115639  1
  O  O12  1  0.041496  0.940398  0.895796  1
  O  O13  1  0.528932  0.847574  0.930365  1
  O  O14  1  0.958504  0.940398  0.395796  1
  O  O15  1  0.454826  0.793275  0.728369  1
  O  O16  1  0.471068  0.847574  0.430365  1
  O  O17  1  0.986491  0.718488  0.770558  1
  O  O18  1  0.545174  0.793275  0.228369  1
  O  O19  1  0.853663  0.641733  0.544750  1
  O  O20  1  0.349046  0.494463  0.887445  1
  O  O21  1  0.013509  0.718488  0.270558  1
  O  O22  1  0.349046  0.505537  0.612555  1
  O  O23  1  0.853663  0.358267  0.955250  1
  O  O24  1  0.146337  0.641733  0.044750  1
  O  O25  1  0.650954  0.494463  0.387445  1
  O  O26  1  0.986491  0.281512  0.729442  1
  O  O27  1  0.650954  0.505537  0.112555  1
  O  O28  1  0.146337  0.358267  0.455250  1
  O  O29  1  0.454826  0.206725  0.771631  1
  O  O30  1  0.013509  0.281512  0.229442  1
  O  O31  1  0.528932  0.152426  0.569635  1
  O  O32  1  0.545174  0.206725  0.271631  1
  O  O33  1  0.041496  0.059602  0.604204  1
  O  O34  1  0.471068  0.152426  0.069635  1
  O  O35  1  0.958504  0.059602  0.104204  1
