# generated using pymatgen
data_Sc3CO2
_symmetry_space_group_name_H-M   'P 1'
_cell_length_a   3.22400038
_cell_length_b   5.58481490
_cell_length_c   5.58322953
_cell_angle_alpha   47.88517464
_cell_angle_beta   73.06377799
_cell_angle_gamma   73.06982000
_symmetry_Int_Tables_number   1
_chemical_formula_structural   Sc3CO2
_chemical_formula_sum   'Sc3 C1 O2'
_cell_volume   70.68432779
_cell_formula_units_Z   1
loop_
 _symmetry_equiv_pos_site_id
 _symmetry_equiv_pos_as_xyz
  1  'x, y, z'
loop_
 _atom_site_type_symbol
 _atom_site_label
 _atom_site_symmetry_multiplicity
 _atom_site_fract_x
 _atom_site_fract_y
 _atom_site_fract_z
 _atom_site_occupancy
  Sc  Sc0  1  0.036043  0.890566  0.817436  1
  Sc  Sc1  1  0.374595  0.550859  0.478185  1
  Sc  Sc2  1  0.698129  0.230157  0.156763  1
  C  C3  1  0.036435  0.390570  0.317419  1
  O  O4  1  0.704159  0.724526  0.650632  1
  O  O5  1  0.368328  0.056488  0.984337  1
