# generated using pymatgen
data_La6Nd3U3Se20
_symmetry_space_group_name_H-M   'P 1'
_cell_length_a   7.93579985
_cell_length_b   8.52804621
_cell_length_c   12.59631961
_cell_angle_alpha   90.05523041
_cell_angle_beta   90.15106529
_cell_angle_gamma   90.05973891
_symmetry_Int_Tables_number   1
_chemical_formula_structural   La6Nd3U3Se20
_chemical_formula_sum   'La6 Nd3 U3 Se20'
_cell_volume   852.47563266
_cell_formula_units_Z   1
loop_
 _symmetry_equiv_pos_site_id
 _symmetry_equiv_pos_as_xyz
  1  'x, y, z'
loop_
 _atom_site_type_symbol
 _atom_site_label
 _atom_site_symmetry_multiplicity
 _atom_site_fract_x
 _atom_site_fract_y
 _atom_site_fract_z
 _atom_site_occupancy
  La  La0  1  0.526160  0.502742  0.322937  1
  La  La1  1  0.973372  0.999323  0.823471  1
  La  La2  1  0.476048  0.000520  0.675970  1
  La  La3  1  0.022595  0.501787  0.177345  1
  La  La4  1  0.475513  0.499286  0.676658  1
  La  La5  1  0.023098  0.998894  0.178138  1
  Nd  Nd6  1  0.524927  0.000486  0.320822  1
  Nd  Nd7  1  0.975040  0.497015  0.822234  1
  Nd  Nd8  1  0.075648  0.750191  0.493573  1
  U  U9  1  0.425705  0.749735  0.988721  1
  U  U10  1  0.937049  0.249246  0.505201  1
  U  U11  1  0.569364  0.250674  0.010178  1
  Se  Se12  1  0.835661  0.968387  0.598694  1
  Se  Se13  1  0.658795  0.543490  0.092720  1
  Se  Se14  1  0.163557  0.450439  0.403335  1
  Se  Se15  1  0.337934  0.044380  0.906412  1
  Se  Se16  1  0.165614  0.050211  0.403781  1
  Se  Se17  1  0.335727  0.454890  0.906964  1
  Se  Se18  1  0.835551  0.530414  0.598965  1
  Se  Se19  1  0.659691  0.957712  0.092522  1
  Se  Se20  1  0.824534  0.752314  0.310844  1
  Se  Se21  1  0.669336  0.748016  0.816427  1
  Se  Se22  1  0.168368  0.251404  0.684495  1
  Se  Se23  1  0.333331  0.248351  0.183951  1
  Se  Se24  1  0.461475  0.753298  0.497150  1
  Se  Se25  1  0.043627  0.747001  0.998441  1
  Se  Se26  1  0.550457  0.247375  0.498512  1
  Se  Se27  1  0.952399  0.252493  0.001320  1
  Se  Se28  1  0.197633  0.747161  0.721029  1
  Se  Se29  1  0.306428  0.752452  0.211650  1
  Se  Se30  1  0.802951  0.248718  0.286052  1
  Se  Se31  1  0.692412  0.251597  0.791488  1
