# generated using pymatgen
data_Ho5Er3Sc12Si15P
_symmetry_space_group_name_H-M   'P 1'
_cell_length_a   7.06525217
_cell_length_b   7.34823870
_cell_length_c   13.92689207
_cell_angle_alpha   89.99589469
_cell_angle_beta   89.98901721
_cell_angle_gamma   90.09951637
_symmetry_Int_Tables_number   1
_chemical_formula_structural   Ho5Er3Sc12Si15P
_chemical_formula_sum   'Ho5 Er3 Sc12 Si15 P1'
_cell_volume   723.04357011
_cell_formula_units_Z   1
loop_
 _symmetry_equiv_pos_site_id
 _symmetry_equiv_pos_as_xyz
  1  'x, y, z'
loop_
 _atom_site_type_symbol
 _atom_site_label
 _atom_site_symmetry_multiplicity
 _atom_site_fract_x
 _atom_site_fract_y
 _atom_site_fract_z
 _atom_site_occupancy
  Ho  Ho0  1  0.990307  0.826423  0.599186  1
  Ho  Ho1  1  0.511562  0.324199  0.096144  1
  Ho  Ho2  1  0.010665  0.175312  0.403542  1
  Ho  Ho3  1  0.511520  0.324208  0.403757  1
  Ho  Ho4  1  0.489310  0.675722  0.596188  1
  Er  Er5  1  0.010693  0.175352  0.096462  1
  Er  Er6  1  0.990327  0.826199  0.900756  1
  Er  Er7  1  0.489216  0.675911  0.903718  1
  Sc  Sc8  1  0.159827  0.502387  0.750085  1
  Sc  Sc9  1  0.838941  0.497186  0.249969  1
  Sc  Sc10  1  0.339259  0.002644  0.249969  1
  Sc  Sc11  1  0.662459  0.998871  0.750073  1
  Sc  Sc12  1  0.327447  0.173790  0.627154  1
  Sc  Sc13  1  0.668288  0.823383  0.375385  1
  Sc  Sc14  1  0.168245  0.677250  0.375222  1
  Sc  Sc15  1  0.668287  0.823397  0.124556  1
  Sc  Sc16  1  0.832784  0.322221  0.626371  1
  Sc  Sc17  1  0.327362  0.173741  0.872919  1
  Sc  Sc18  1  0.832846  0.322162  0.873689  1
  Sc  Sc19  1  0.168202  0.677347  0.124713  1
  Si  Si20  1  0.965381  0.884255  0.249914  1
  Si  Si21  1  0.466176  0.615107  0.249977  1
  Si  Si22  1  0.531665  0.383309  0.750087  1
  Si  Si23  1  0.294575  0.863962  0.750214  1
  Si  Si24  1  0.714693  0.126873  0.249903  1
  Si  Si25  1  0.214732  0.372762  0.249908  1
  Si  Si26  1  0.786528  0.628935  0.750204  1
  Si  Si27  1  0.158139  0.463960  0.539911  1
  Si  Si28  1  0.841673  0.535420  0.461338  1
  Si  Si29  1  0.340076  0.965392  0.460735  1
  Si  Si30  1  0.841727  0.535395  0.038652  1
  Si  Si31  1  0.659740  0.036373  0.540183  1
  Si  Si32  1  0.158273  0.464102  0.960060  1
  Si  Si33  1  0.660066  0.036034  0.959747  1
  Si  Si34  1  0.339735  0.965363  0.039245  1
  P  P35  1  0.029277  0.125052  0.750065  1
