# generated using pymatgen
data_CeHf2(PaSb2)5
_symmetry_space_group_name_H-M   'P 1'
_cell_length_a   9.31820063
_cell_length_b   9.31820057
_cell_length_c   6.18479600
_cell_angle_alpha   90.00000000
_cell_angle_beta   90.00000000
_cell_angle_gamma   119.74627349
_symmetry_Int_Tables_number   1
_chemical_formula_structural   CeHf2(PaSb2)5
_chemical_formula_sum   'Ce1 Hf2 Pa5 Sb10'
_cell_volume   466.25641730
_cell_formula_units_Z   1
loop_
 _symmetry_equiv_pos_site_id
 _symmetry_equiv_pos_as_xyz
  1  'x, y, z'
loop_
 _atom_site_type_symbol
 _atom_site_label
 _atom_site_symmetry_multiplicity
 _atom_site_fract_x
 _atom_site_fract_y
 _atom_site_fract_z
 _atom_site_occupancy
  Ce  Ce0  1  0.616212  0.616212  0.750000  1
  Hf  Hf1  1  0.000458  0.000458  0.999976  1
  Hf  Hf2  1  0.000458  0.000458  0.500024  1
  Pa  Pa3  1  0.615207  0.998056  0.250000  1
  Pa  Pa4  1  0.386872  0.000176  0.750000  1
  Pa  Pa5  1  0.998056  0.615207  0.250000  1
  Pa  Pa6  1  0.000176  0.386872  0.750000  1
  Pa  Pa7  1  0.383495  0.383495  0.250000  1
  Sb  Sb8  1  0.270469  0.999589  0.250000  1
  Sb  Sb9  1  0.731805  0.003535  0.750000  1
  Sb  Sb10  1  0.999589  0.270469  0.250000  1
  Sb  Sb11  1  0.003535  0.731805  0.750000  1
  Sb  Sb12  1  0.730714  0.730714  0.250000  1
  Sb  Sb13  1  0.269598  0.269598  0.750000  1
  Sb  Sb14  1  0.330588  0.666088  0.001812  1
  Sb  Sb15  1  0.666088  0.330588  0.001812  1
  Sb  Sb16  1  0.666088  0.330588  0.498188  1
  Sb  Sb17  1  0.330588  0.666088  0.498188  1
