# generated using pymatgen
data_Y15Lu(In3Ni)2
_symmetry_space_group_name_H-M   'P 1'
_cell_length_a   10.48230200
_cell_length_b   10.48230215
_cell_length_c   6.96122300
_cell_angle_alpha   90.00000000
_cell_angle_beta   90.00000000
_cell_angle_gamma   119.99999951
_symmetry_Int_Tables_number   1
_chemical_formula_structural   Y15Lu(In3Ni)2
_chemical_formula_sum   'Y15 Lu1 In6 Ni2'
_cell_volume   662.41402986
_cell_formula_units_Z   1
loop_
 _symmetry_equiv_pos_site_id
 _symmetry_equiv_pos_as_xyz
  1  'x, y, z'
loop_
 _atom_site_type_symbol
 _atom_site_label
 _atom_site_symmetry_multiplicity
 _atom_site_fract_x
 _atom_site_fract_y
 _atom_site_fract_z
 _atom_site_occupancy
  Y  Y0  1  0.532530  0.065061  0.524685  1
  Y  Y1  1  0.934939  0.467470  0.524685  1
  Y  Y2  1  0.532530  0.467470  0.524685  1
  Y  Y3  1  0.467538  0.935075  0.024864  1
  Y  Y4  1  0.064925  0.532462  0.024864  1
  Y  Y5  1  0.467538  0.532462  0.024864  1
  Y  Y6  1  0.176529  0.353057  0.732190  1
  Y  Y7  1  0.646943  0.823471  0.732190  1
  Y  Y8  1  0.176529  0.823471  0.732190  1
  Y  Y9  1  0.823628  0.647255  0.230319  1
  Y  Y10  1  0.352745  0.176372  0.230319  1
  Y  Y11  1  0.823628  0.176372  0.230319  1
  Y  Y12  1  0.666667  0.333333  0.907904  1
  Y  Y13  1  0.333333  0.666667  0.407429  1
  Y  Y14  1  0.000000  0.000000  0.506195  1
  Lu  Lu15  1  0.000000  0.000000  0.005682  1
  In  In16  1  0.837464  0.674929  0.767238  1
  In  In17  1  0.325071  0.162536  0.767238  1
  In  In18  1  0.837464  0.162536  0.767238  1
  In  In19  1  0.162633  0.325265  0.265894  1
  In  In20  1  0.674735  0.837367  0.265894  1
  In  In21  1  0.162633  0.837367  0.265894  1
  Ni  Ni22  1  0.666667  0.333333  0.296772  1
  Ni  Ni23  1  0.333333  0.666667  0.796128  1
