# generated using pymatgen
data_Zr5Co(P2Ru3)6
_symmetry_space_group_name_H-M   'P 1'
_cell_length_a   12.37194400
_cell_length_b   12.37194331
_cell_length_c   3.90863900
_cell_angle_alpha   90.00000000
_cell_angle_beta   90.00000000
_cell_angle_gamma   120.00000185
_symmetry_Int_Tables_number   1
_chemical_formula_structural   Zr5Co(P2Ru3)6
_chemical_formula_sum   'Zr5 Co1 P12 Ru18'
_cell_volume   518.12202176
_cell_formula_units_Z   1
loop_
 _symmetry_equiv_pos_site_id
 _symmetry_equiv_pos_as_xyz
  1  'x, y, z'
loop_
 _atom_site_type_symbol
 _atom_site_label
 _atom_site_symmetry_multiplicity
 _atom_site_fract_x
 _atom_site_fract_y
 _atom_site_fract_z
 _atom_site_occupancy
  Zr  Zr0  1  0.333333  0.666667  0.000000  1
  Zr  Zr1  1  0.666667  0.333333  0.000000  1
  Zr  Zr2  1  0.184787  0.000000  0.500000  1
  Zr  Zr3  1  0.000000  0.184787  0.500000  1
  Zr  Zr4  1  0.815213  0.815213  0.500000  1
  Co  Co5  1  0.000000  0.000000  0.000000  1
  P  P6  1  0.369469  0.000000  0.000000  1
  P  P7  1  0.000000  0.369469  0.000000  1
  P  P8  1  0.630531  0.630531  0.000000  1
  P  P9  1  0.306951  0.478164  0.500000  1
  P  P10  1  0.521836  0.828787  0.500000  1
  P  P11  1  0.171213  0.693049  0.500000  1
  P  P12  1  0.828787  0.521836  0.500000  1
  P  P13  1  0.693049  0.171213  0.500000  1
  P  P14  1  0.478164  0.306951  0.500000  1
  P  P15  1  0.827801  0.000000  0.000000  1
  P  P16  1  0.000000  0.827801  0.000000  1
  P  P17  1  0.172199  0.172199  0.000000  1
  Ru  Ru18  1  0.188780  0.371753  0.000000  1
  Ru  Ru19  1  0.628247  0.817026  0.000000  1
  Ru  Ru20  1  0.182974  0.811220  0.000000  1
  Ru  Ru21  1  0.817026  0.628247  0.000000  1
  Ru  Ru22  1  0.811220  0.182974  0.000000  1
  Ru  Ru23  1  0.371753  0.188780  0.000000  1
  Ru  Ru24  1  0.555964  0.000000  0.000000  1
  Ru  Ru25  1  0.000000  0.555964  0.000000  1
  Ru  Ru26  1  0.444036  0.444036  0.000000  1
  Ru  Ru27  1  0.128456  0.493251  0.500000  1
  Ru  Ru28  1  0.506749  0.635203  0.500000  1
  Ru  Ru29  1  0.364797  0.871544  0.500000  1
  Ru  Ru30  1  0.635203  0.506749  0.500000  1
  Ru  Ru31  1  0.871544  0.364797  0.500000  1
  Ru  Ru32  1  0.493251  0.128456  0.500000  1
  Ru  Ru33  1  0.722809  0.000000  0.500000  1
  Ru  Ru34  1  0.000000  0.722809  0.500000  1
  Ru  Ru35  1  0.277191  0.277191  0.500000  1
