# generated using pymatgen
data_Sm3Tm(B4W)4
_symmetry_space_group_name_H-M   'P 1'
_cell_length_a   3.65470300
_cell_length_b   6.07367222
_cell_length_c   11.74346214
_cell_angle_alpha   89.88614886
_cell_angle_beta   90.00000000
_cell_angle_gamma   90.00000000
_symmetry_Int_Tables_number   1
_chemical_formula_structural   Sm3Tm(B4W)4
_chemical_formula_sum   'Sm3 Tm1 B16 W4'
_cell_volume   260.67461126
_cell_formula_units_Z   1
loop_
 _symmetry_equiv_pos_site_id
 _symmetry_equiv_pos_as_xyz
  1  'x, y, z'
loop_
 _atom_site_type_symbol
 _atom_site_label
 _atom_site_symmetry_multiplicity
 _atom_site_fract_x
 _atom_site_fract_y
 _atom_site_fract_z
 _atom_site_occupancy
  Sm  Sm0  1  0.000000  0.626211  0.349989  1
  Sm  Sm1  1  0.000000  0.373775  0.650561  1
  Sm  Sm2  1  0.000000  0.126220  0.149523  1
  Tm  Tm3  1  0.000000  0.873749  0.850779  1
  B  B4  1  0.500000  0.784452  0.184869  1
  B  B5  1  0.500000  0.212278  0.814566  1
  B  B6  1  0.500000  0.284348  0.314230  1
  B  B7  1  0.500000  0.715991  0.687754  1
  B  B8  1  0.500000  0.865642  0.030066  1
  B  B9  1  0.500000  0.133936  0.966393  1
  B  B10  1  0.500000  0.364665  0.468410  1
  B  B11  1  0.500000  0.635487  0.533074  1
  B  B12  1  0.500000  0.886948  0.454023  1
  B  B13  1  0.500000  0.112149  0.547626  1
  B  B14  1  0.500000  0.388012  0.045413  1
  B  B15  1  0.500000  0.615610  0.951472  1
  B  B16  1  0.500000  0.975605  0.308128  1
  B  B17  1  0.500000  0.022377  0.694395  1
  B  B18  1  0.500000  0.475851  0.191233  1
  B  B19  1  0.500000  0.526151  0.807710  1
  W  W20  1  0.000000  0.630810  0.082624  1
  W  W21  1  0.000000  0.370238  0.915028  1
  W  W22  1  0.000000  0.129586  0.416527  1
  W  W23  1  0.000000  0.869907  0.585608  1
