# generated using pymatgen
data_RbTmTa4(NbBr9)2
_symmetry_space_group_name_H-M   'P 1'
_cell_length_a   10.75521403
_cell_length_b   10.76952137
_cell_length_c   10.75568344
_cell_angle_alpha   55.65541441
_cell_angle_beta   55.71345122
_cell_angle_gamma   55.65233065
_symmetry_Int_Tables_number   1
_chemical_formula_structural   RbTmTa4(NbBr9)2
_chemical_formula_sum   'Rb1 Tm1 Ta4 Nb2 Br18'
_cell_volume   792.50290052
_cell_formula_units_Z   1
loop_
 _symmetry_equiv_pos_site_id
 _symmetry_equiv_pos_as_xyz
  1  'x, y, z'
loop_
 _atom_site_type_symbol
 _atom_site_label
 _atom_site_symmetry_multiplicity
 _atom_site_fract_x
 _atom_site_fract_y
 _atom_site_fract_z
 _atom_site_occupancy
  Rb  Rb0  1  0.220519  0.221156  0.221110  1
  Tm  Tm1  1  0.498418  0.498041  0.498104  1
  Ta  Ta2  1  0.811742  0.141333  0.915690  1
  Ta  Ta3  1  0.915947  0.812648  0.140730  1
  Ta  Ta4  1  0.140518  0.916258  0.812414  1
  Ta  Ta5  1  0.189167  0.859570  0.083637  1
  Nb  Nb6  1  0.084074  0.190453  0.858456  1
  Nb  Nb7  1  0.858559  0.084125  0.190484  1
  Br  Br8  1  0.865175  0.409908  0.725136  1
  Br  Br9  1  0.725220  0.865519  0.410012  1
  Br  Br10  1  0.409258  0.725077  0.868072  1
  Br  Br11  1  0.131865  0.590997  0.277237  1
  Br  Br12  1  0.277824  0.130412  0.589241  1
  Br  Br13  1  0.589412  0.277773  0.130330  1
  Br  Br14  1  0.537161  0.339956  0.799790  1
  Br  Br15  1  0.799995  0.537924  0.339489  1
  Br  Br16  1  0.340305  0.799058  0.538121  1
  Br  Br17  1  0.460982  0.659866  0.201727  1
  Br  Br18  1  0.203611  0.462318  0.658682  1
  Br  Br19  1  0.659205  0.202765  0.462976  1
  Br  Br20  1  0.663640  0.939951  0.068841  1
  Br  Br21  1  0.069247  0.663888  0.939585  1
  Br  Br22  1  0.939124  0.069517  0.663659  1
  Br  Br23  1  0.341272  0.056749  0.928320  1
  Br  Br24  1  0.927252  0.340667  0.059557  1
  Br  Br25  1  0.061648  0.925209  0.339739  1
