# generated using pymatgen
data_Ca5Si5As7Rh19
_symmetry_space_group_name_H-M   'P 1'
_cell_length_a   13.02536207
_cell_length_b   13.06610599
_cell_length_c   3.98466400
_cell_angle_alpha   90.00000000
_cell_angle_beta   90.00000000
_cell_angle_gamma   119.85048636
_symmetry_Int_Tables_number   1
_chemical_formula_structural   Ca5Si5As7Rh19
_chemical_formula_sum   'Ca5 Si5 As7 Rh19'
_cell_volume   588.18054715
_cell_formula_units_Z   1
loop_
 _symmetry_equiv_pos_site_id
 _symmetry_equiv_pos_as_xyz
  1  'x, y, z'
loop_
 _atom_site_type_symbol
 _atom_site_label
 _atom_site_symmetry_multiplicity
 _atom_site_fract_x
 _atom_site_fract_y
 _atom_site_fract_z
 _atom_site_occupancy
  Ca  Ca0  1  0.999217  0.185704  0.500000  1
  Ca  Ca1  1  0.814393  0.814707  0.500000  1
  Ca  Ca2  1  0.183345  0.997467  0.500000  1
  Ca  Ca3  1  0.670566  0.334687  0.000000  1
  Ca  Ca4  1  0.333516  0.666087  0.000000  1
  Si  Si5  1  0.684398  0.164890  0.500000  1
  Si  Si6  1  0.836932  0.520209  0.500000  1
  Si  Si7  1  0.519125  0.836437  0.500000  1
  Si  Si8  1  0.164178  0.682408  0.500000  1
  Si  Si9  1  0.316982  0.480331  0.500000  1
  As  As10  1  0.486775  0.315764  0.500000  1
  As  As11  1  0.818492  0.000942  0.000000  1
  As  As12  1  0.180560  0.181110  0.000000  1
  As  As13  1  0.000187  0.818267  0.000000  1
  As  As14  1  0.366055  0.996746  0.000000  1
  As  As15  1  0.999343  0.367745  0.000000  1
  As  As16  1  0.633330  0.634733  0.000000  1
  Rh  Rh17  1  0.798686  0.180829  0.000000  1
  Rh  Rh18  1  0.378989  0.196770  0.000000  1
  Rh  Rh19  1  0.645163  0.516726  0.500000  1
  Rh  Rh20  1  0.869867  0.358185  0.500000  1
  Rh  Rh21  1  0.356564  0.867892  0.500000  1
  Rh  Rh22  1  0.511260  0.644745  0.500000  1
  Rh  Rh23  1  0.131069  0.487973  0.500000  1
  Rh  Rh24  1  0.820220  0.620093  0.000000  1
  Rh  Rh25  1  0.619220  0.819780  0.000000  1
  Rh  Rh26  1  0.180416  0.798510  0.000000  1
  Rh  Rh27  1  0.198271  0.379680  0.000000  1
  Rh  Rh28  1  0.000617  0.713478  0.500000  1
  Rh  Rh29  1  0.286635  0.285872  0.500000  1
  Rh  Rh30  1  0.713115  0.000086  0.500000  1
  Rh  Rh31  1  0.001084  0.552668  0.000000  1
  Rh  Rh32  1  0.443351  0.456362  0.000000  1
  Rh  Rh33  1  0.551328  0.997534  0.000000  1
  Rh  Rh34  1  0.999760  0.999689  0.000000  1
  Rh  Rh35  1  0.486988  0.124891  0.500000  1
