# generated using pymatgen
data_Ho4GaTc7
_symmetry_space_group_name_H-M   'P 1'
_cell_length_a   5.31142500
_cell_length_b   5.31142477
_cell_length_c   9.04261200
_cell_angle_alpha   90.00000000
_cell_angle_beta   90.00000000
_cell_angle_gamma   119.99999522
_symmetry_Int_Tables_number   1
_chemical_formula_structural   Ho4GaTc7
_chemical_formula_sum   'Ho4 Ga1 Tc7'
_cell_volume   220.92590205
_cell_formula_units_Z   1
loop_
 _symmetry_equiv_pos_site_id
 _symmetry_equiv_pos_as_xyz
  1  'x, y, z'
loop_
 _atom_site_type_symbol
 _atom_site_label
 _atom_site_symmetry_multiplicity
 _atom_site_fract_x
 _atom_site_fract_y
 _atom_site_fract_z
 _atom_site_occupancy
  Ho  Ho0  1  0.333333  0.666667  0.433436  1
  Ho  Ho1  1  0.666667  0.333333  0.566564  1
  Ho  Ho2  1  0.666667  0.333333  0.933622  1
  Ho  Ho3  1  0.333333  0.666667  0.066378  1
  Ga  Ga4  1  0.000000  0.000000  0.500000  1
  Tc  Tc5  1  0.000000  0.000000  0.000000  1
  Tc  Tc6  1  0.829868  0.170132  0.250944  1
  Tc  Tc7  1  0.829868  0.659735  0.250944  1
  Tc  Tc8  1  0.340265  0.170132  0.250944  1
  Tc  Tc9  1  0.170132  0.829868  0.749056  1
  Tc  Tc10  1  0.170132  0.340265  0.749056  1
  Tc  Tc11  1  0.659735  0.829868  0.749056  1
