# generated using pymatgen
data_Li2DyYO4
_symmetry_space_group_name_H-M   'P 1'
_cell_length_a   3.39519900
_cell_length_b   5.31942500
_cell_length_c   11.23711800
_cell_angle_alpha   90.00000000
_cell_angle_beta   90.00000000
_cell_angle_gamma   90.00000000
_symmetry_Int_Tables_number   1
_chemical_formula_structural   Li2DyYO4
_chemical_formula_sum   'Li4 Dy2 Y2 O8'
_cell_volume   202.94804201
_cell_formula_units_Z   2
loop_
 _symmetry_equiv_pos_site_id
 _symmetry_equiv_pos_as_xyz
  1  'x, y, z'
loop_
 _atom_site_type_symbol
 _atom_site_label
 _atom_site_symmetry_multiplicity
 _atom_site_fract_x
 _atom_site_fract_y
 _atom_site_fract_z
 _atom_site_occupancy
  Li  Li0  1  0.250000  0.097956  0.066959  1
  Li  Li1  1  0.250000  0.402044  0.566959  1
  Li  Li2  1  0.750000  0.598001  0.433068  1
  Li  Li3  1  0.750000  0.901999  0.933068  1
  Dy  Dy4  1  0.750000  0.547342  0.140398  1
  Dy  Dy5  1  0.750000  0.952658  0.640398  1
  Y  Y6  1  0.250000  0.047277  0.359707  1
  Y  Y7  1  0.250000  0.452723  0.859707  1
  O  O8  1  0.250000  0.189827  0.705743  1
  O  O9  1  0.750000  0.242712  0.474056  1
  O  O10  1  0.750000  0.257288  0.974056  1
  O  O11  1  0.250000  0.310173  0.205743  1
  O  O12  1  0.750000  0.690970  0.793817  1
  O  O13  1  0.250000  0.742417  0.026252  1
  O  O14  1  0.250000  0.757583  0.526252  1
  O  O15  1  0.750000  0.809030  0.293817  1
