# generated using pymatgen
data_ErLuBe25Co
_symmetry_space_group_name_H-M   'P 1'
_cell_length_a   7.19054003
_cell_length_b   7.17330751
_cell_length_c   7.23798103
_cell_angle_alpha   59.86134699
_cell_angle_beta   59.63516705
_cell_angle_gamma   59.89805477
_symmetry_Int_Tables_number   1
_chemical_formula_structural   ErLuBe25Co
_chemical_formula_sum   'Er1 Lu1 Be25 Co1'
_cell_volume   262.77485106
_cell_formula_units_Z   1
loop_
 _symmetry_equiv_pos_site_id
 _symmetry_equiv_pos_as_xyz
  1  'x, y, z'
loop_
 _atom_site_type_symbol
 _atom_site_label
 _atom_site_symmetry_multiplicity
 _atom_site_fract_x
 _atom_site_fract_y
 _atom_site_fract_z
 _atom_site_occupancy
  Er  Er0  1  0.253134  0.249809  0.244932  1
  Lu  Lu1  1  0.750080  0.746021  0.748045  1
  Be  Be2  1  0.933223  0.066395  0.712204  1
  Be  Be3  1  0.298345  0.702314  0.058967  1
  Be  Be4  1  0.065002  0.934455  0.292537  1
  Be  Be5  1  0.705899  0.939288  0.063032  1
  Be  Be6  1  0.707958  0.063252  0.293796  1
  Be  Be7  1  0.060504  0.294680  0.708412  1
  Be  Be8  1  0.936340  0.292522  0.064569  1
  Be  Be9  1  0.940464  0.705434  0.291774  1
  Be  Be10  1  0.294101  0.938214  0.703731  1
  Be  Be11  1  0.295035  0.059072  0.937271  1
  Be  Be12  1  0.061360  0.706241  0.935699  1
  Be  Be13  1  0.789432  0.436886  0.564929  1
  Be  Be14  1  0.563663  0.210166  0.790819  1
  Be  Be15  1  0.208282  0.565198  0.437007  1
  Be  Be16  1  0.435155  0.791267  0.210203  1
  Be  Be17  1  0.793260  0.206280  0.436511  1
  Be  Be18  1  0.789899  0.565532  0.214897  1
  Be  Be19  1  0.434022  0.566419  0.785763  1
  Be  Be20  1  0.564459  0.788896  0.435016  1
  Be  Be21  1  0.566201  0.434317  0.210653  1
  Be  Be22  1  0.210843  0.435893  0.788034  1
  Be  Be23  1  0.207653  0.791832  0.565873  1
  Be  Be24  1  0.434798  0.209697  0.570481  1
  Be  Be25  1  0.997656  0.002389  0.998494  1
  Be  Be26  1  0.501339  0.498663  0.496978  1
  Co  Co27  1  0.701892  0.298866  0.939371  1
