# generated using pymatgen
data_Ac2TmPa3N8
_symmetry_space_group_name_H-M   'P 1'
_cell_length_a   7.18300832
_cell_length_b   7.18303998
_cell_length_c   7.04642250
_cell_angle_alpha   120.63963022
_cell_angle_beta   90.00635283
_cell_angle_gamma   119.99639945
_symmetry_Int_Tables_number   1
_chemical_formula_structural   Ac2TmPa3N8
_chemical_formula_sum   'Ac2 Tm1 Pa3 N8'
_cell_volume   254.56593053
_cell_formula_units_Z   1
loop_
 _symmetry_equiv_pos_site_id
 _symmetry_equiv_pos_as_xyz
  1  'x, y, z'
loop_
 _atom_site_type_symbol
 _atom_site_label
 _atom_site_symmetry_multiplicity
 _atom_site_fract_x
 _atom_site_fract_y
 _atom_site_fract_z
 _atom_site_occupancy
  Ac  Ac0  1  0.996098  0.992196  0.988291  1
  Ac  Ac1  1  0.753903  0.507804  0.261709  1
  Tm  Tm2  1  0.375000  0.750000  0.125000  1
  Pa  Pa3  1  0.375000  0.750000  0.624999  1
  Pa  Pa4  1  0.375000  0.249999  0.624999  1
  Pa  Pa5  1  0.874999  0.249999  0.625000  1
  N  N6  1  0.611368  0.222787  0.408496  1
  N  N7  1  0.185716  0.797136  0.408500  1
  N  N8  1  0.611422  0.797139  0.408559  1
  N  N9  1  0.144874  0.289802  0.434677  1
  N  N10  1  0.605125  0.210199  0.815323  1
  N  N11  1  0.138578  0.702860  0.841439  1
  N  N12  1  0.138633  0.277214  0.841504  1
  N  N13  1  0.564284  0.702863  0.841500  1
