# generated using pymatgen
data_Tb7Ho3(OsRu)2
_symmetry_space_group_name_H-M   'P 1'
_cell_length_a   6.39367926
_cell_length_b   7.31019901
_cell_length_c   8.48259827
_cell_angle_alpha   96.77308882
_cell_angle_beta   112.23130795
_cell_angle_gamma   89.97667650
_symmetry_Int_Tables_number   1
_chemical_formula_structural   Tb7Ho3(OsRu)2
_chemical_formula_sum   'Tb7 Ho3 Os2 Ru2'
_cell_volume   364.01372784
_cell_formula_units_Z   1
loop_
 _symmetry_equiv_pos_site_id
 _symmetry_equiv_pos_as_xyz
  1  'x, y, z'
loop_
 _atom_site_type_symbol
 _atom_site_label
 _atom_site_symmetry_multiplicity
 _atom_site_fract_x
 _atom_site_fract_y
 _atom_site_fract_z
 _atom_site_occupancy
  Tb  Tb0  1  0.976798  0.916643  0.183595  1
  Tb  Tb1  1  0.794391  0.583287  0.814913  1
  Tb  Tb2  1  0.021567  0.085016  0.814198  1
  Tb  Tb3  1  0.207752  0.415457  0.186994  1
  Tb  Tb4  1  0.640380  0.814917  0.434301  1
  Tb  Tb5  1  0.205199  0.685291  0.566002  1
  Tb  Tb6  1  0.360443  0.185427  0.566186  1
  Ho  Ho7  1  0.794482  0.314817  0.433075  1
  Ho  Ho8  1  0.424767  0.749463  0.999622  1
  Ho  Ho9  1  0.577380  0.250459  0.000604  1
  Os  Os10  1  0.821136  0.575128  0.218913  1
  Os  Os11  1  0.603354  0.925269  0.782530  1
  Ru  Ru12  1  0.175207  0.423385  0.779286  1
  Ru  Ru13  1  0.397145  0.075441  0.219782  1
