# generated using pymatgen
data_Ca5DySbWO12
_symmetry_space_group_name_H-M   'P 1'
_cell_length_a   6.61062749
_cell_length_b   6.61277037
_cell_length_c   6.63986373
_cell_angle_alpha   91.53965240
_cell_angle_beta   91.73700963
_cell_angle_gamma   91.73826693
_symmetry_Int_Tables_number   1
_chemical_formula_structural   Ca5DySbWO12
_chemical_formula_sum   'Ca5 Dy1 Sb1 W1 O12'
_cell_volume   289.87965407
_cell_formula_units_Z   1
loop_
 _symmetry_equiv_pos_site_id
 _symmetry_equiv_pos_as_xyz
  1  'x, y, z'
loop_
 _atom_site_type_symbol
 _atom_site_label
 _atom_site_symmetry_multiplicity
 _atom_site_fract_x
 _atom_site_fract_y
 _atom_site_fract_z
 _atom_site_occupancy
  Ca  Ca0  1  0.749907  0.936789  0.436054  1
  Ca  Ca1  1  0.557175  0.247433  0.065266  1
  Ca  Ca2  1  0.440335  0.749469  0.936029  1
  Ca  Ca3  1  0.251991  0.059147  0.561044  1
  Ca  Ca4  1  0.063652  0.566260  0.250785  1
  Dy  Dy5  1  0.933961  0.435338  0.750197  1
  Sb  Sb6  1  0.999179  0.000516  0.999440  1
  W  W7  1  0.498716  0.499515  0.499538  1
  O  O8  1  0.931723  0.296378  0.061684  1
  O  O9  1  0.930464  0.082526  0.709158  1
  O  O10  1  0.787539  0.574102  0.463410  1
  O  O11  1  0.711380  0.932356  0.067207  1
  O  O12  1  0.587638  0.452897  0.783700  1
  O  O13  1  0.543640  0.218371  0.424426  1
  O  O14  1  0.456571  0.779290  0.578718  1
  O  O15  1  0.423333  0.546471  0.221559  1
  O  O16  1  0.286866  0.065091  0.929286  1
  O  O17  1  0.215302  0.423904  0.554547  1
  O  O18  1  0.069862  0.929777  0.286120  1
  O  O19  1  0.060766  0.704372  0.921832  1
