# generated using pymatgen
data_YbPrUS5
_symmetry_space_group_name_H-M   'P 1'
_cell_length_a   7.48242000
_cell_length_b   8.03708900
_cell_length_c   11.77747700
_cell_angle_alpha   90.00000000
_cell_angle_beta   90.00000000
_cell_angle_gamma   90.00000000
_symmetry_Int_Tables_number   1
_chemical_formula_structural   YbPrUS5
_chemical_formula_sum   'Yb4 Pr4 U4 S20'
_cell_volume   708.26066776
_cell_formula_units_Z   4
loop_
 _symmetry_equiv_pos_site_id
 _symmetry_equiv_pos_as_xyz
  1  'x, y, z'
loop_
 _atom_site_type_symbol
 _atom_site_label
 _atom_site_symmetry_multiplicity
 _atom_site_fract_x
 _atom_site_fract_y
 _atom_site_fract_z
 _atom_site_occupancy
  Yb  Yb0  1  0.525897  0.499506  0.321903  1
  Yb  Yb1  1  0.974103  0.000494  0.821903  1
  Yb  Yb2  1  0.474103  0.999506  0.678097  1
  Yb  Yb3  1  0.025897  0.500494  0.178097  1
  Pr  Pr4  1  0.464143  0.497387  0.673326  1
  Pr  Pr5  1  0.035857  0.002613  0.173326  1
  Pr  Pr6  1  0.535857  0.997387  0.326674  1
  Pr  Pr7  1  0.964143  0.502613  0.826674  1
  U  U8  1  0.070269  0.752325  0.492731  1
  U  U9  1  0.429731  0.747675  0.992731  1
  U  U10  1  0.929731  0.252325  0.507269  1
  U  U11  1  0.570269  0.247675  0.007269  1
  S  S12  1  0.837554  0.959525  0.587483  1
  S  S13  1  0.662446  0.540475  0.087483  1
  S  S14  1  0.162446  0.459525  0.412517  1
  S  S15  1  0.337554  0.040475  0.912517  1
  S  S16  1  0.165368  0.044930  0.410278  1
  S  S17  1  0.334632  0.455070  0.910278  1
  S  S18  1  0.834632  0.544930  0.589722  1
  S  S19  1  0.665368  0.955070  0.089722  1
  S  S20  1  0.844082  0.751474  0.314367  1
  S  S21  1  0.655918  0.748526  0.814367  1
  S  S22  1  0.155918  0.251474  0.685633  1
  S  S23  1  0.344082  0.248526  0.185633  1
  S  S24  1  0.446830  0.750255  0.496383  1
  S  S25  1  0.053170  0.749745  0.996383  1
  S  S26  1  0.553170  0.250255  0.503617  1
  S  S27  1  0.946830  0.249745  0.003617  1
  S  S28  1  0.184783  0.751080  0.710869  1
  S  S29  1  0.315217  0.748920  0.210869  1
  S  S30  1  0.815217  0.251080  0.289131  1
  S  S31  1  0.684783  0.248920  0.789131  1
