# generated using pymatgen
data_LiTb16Cd3(PdPt)2
_symmetry_space_group_name_H-M   'P 1'
_cell_length_a   9.73152551
_cell_length_b   9.73152507
_cell_length_c   9.72492349
_cell_angle_alpha   60.04892550
_cell_angle_beta   60.04892393
_cell_angle_gamma   60.08749501
_symmetry_Int_Tables_number   1
_chemical_formula_structural   LiTb16Cd3(PdPt)2
_chemical_formula_sum   'Li1 Tb16 Cd3 Pd2 Pt2'
_cell_volume   652.13959058
_cell_formula_units_Z   1
loop_
 _symmetry_equiv_pos_site_id
 _symmetry_equiv_pos_as_xyz
  1  'x, y, z'
loop_
 _atom_site_type_symbol
 _atom_site_label
 _atom_site_symmetry_multiplicity
 _atom_site_fract_x
 _atom_site_fract_y
 _atom_site_fract_z
 _atom_site_occupancy
  Li  Li0  1  0.571616  0.571616  0.571892  1
  Tb  Tb1  1  0.351204  0.351204  0.349680  1
  Tb  Tb2  1  0.353366  0.353366  0.942909  1
  Tb  Tb3  1  0.354656  0.941399  0.352764  1
  Tb  Tb4  1  0.941399  0.354656  0.352764  1
  Tb  Tb5  1  0.808865  0.192428  0.192142  1
  Tb  Tb6  1  0.188404  0.811818  0.813774  1
  Tb  Tb7  1  0.192428  0.808865  0.192142  1
  Tb  Tb8  1  0.811818  0.188404  0.813774  1
  Tb  Tb9  1  0.192636  0.192636  0.809732  1
  Tb  Tb10  1  0.812828  0.812828  0.188245  1
  Tb  Tb11  1  0.935487  0.566429  0.565176  1
  Tb  Tb12  1  0.564784  0.935736  0.935497  1
  Tb  Tb13  1  0.566429  0.935487  0.565176  1
  Tb  Tb14  1  0.935736  0.564784  0.935497  1
  Tb  Tb15  1  0.565398  0.565398  0.935499  1
  Tb  Tb16  1  0.935243  0.935243  0.564546  1
  Cd  Cd17  1  0.582213  0.582213  0.253209  1
  Cd  Cd18  1  0.581845  0.253432  0.582383  1
  Cd  Cd19  1  0.253432  0.581845  0.582383  1
  Pd  Pd20  1  0.144818  0.144818  0.145337  1
  Pd  Pd21  1  0.142893  0.142893  0.569214  1
  Pt  Pt22  1  0.142617  0.569884  0.143133  1
  Pt  Pt23  1  0.569884  0.142617  0.143133  1
