# generated using pymatgen
data_TbY15Cd4Ir3Pd
_symmetry_space_group_name_H-M   'P 1'
_cell_length_a   9.67617996
_cell_length_b   9.67617893
_cell_length_c   9.67617818
_cell_angle_alpha   60.17919893
_cell_angle_beta   60.17920359
_cell_angle_gamma   60.17919979
_symmetry_Int_Tables_number   1
_chemical_formula_structural   TbY15Cd4Ir3Pd
_chemical_formula_sum   'Tb1 Y15 Cd4 Ir3 Pd1'
_cell_volume   643.21419983
_cell_formula_units_Z   1
loop_
 _symmetry_equiv_pos_site_id
 _symmetry_equiv_pos_as_xyz
  1  'x, y, z'
loop_
 _atom_site_type_symbol
 _atom_site_label
 _atom_site_symmetry_multiplicity
 _atom_site_fract_x
 _atom_site_fract_y
 _atom_site_fract_z
 _atom_site_occupancy
  Tb  Tb0  1  0.347151  0.347151  0.347151  1
  Y  Y1  1  0.354037  0.354037  0.946609  1
  Y  Y2  1  0.354037  0.946609  0.354037  1
  Y  Y3  1  0.946609  0.354037  0.354037  1
  Y  Y4  1  0.804355  0.190705  0.190705  1
  Y  Y5  1  0.188584  0.810287  0.810287  1
  Y  Y6  1  0.190705  0.804355  0.190705  1
  Y  Y7  1  0.810287  0.188584  0.810287  1
  Y  Y8  1  0.190705  0.190705  0.804355  1
  Y  Y9  1  0.810287  0.810287  0.188584  1
  Y  Y10  1  0.938804  0.562945  0.562945  1
  Y  Y11  1  0.564818  0.937231  0.937231  1
  Y  Y12  1  0.562945  0.938804  0.562945  1
  Y  Y13  1  0.937231  0.564818  0.937231  1
  Y  Y14  1  0.562945  0.562945  0.938804  1
  Y  Y15  1  0.937231  0.937231  0.564818  1
  Cd  Cd16  1  0.580751  0.580751  0.580751  1
  Cd  Cd17  1  0.580705  0.580705  0.256441  1
  Cd  Cd18  1  0.580705  0.256441  0.580705  1
  Cd  Cd19  1  0.256441  0.580705  0.580705  1
  Ir  Ir20  1  0.141782  0.141782  0.573828  1
  Ir  Ir21  1  0.141782  0.573828  0.141782  1
  Ir  Ir22  1  0.573828  0.141782  0.141782  1
  Pd  Pd23  1  0.143278  0.143278  0.143278  1
