# generated using pymatgen
data_YSiTc4P
_symmetry_space_group_name_H-M   'P 1'
_cell_length_a   7.40457855
_cell_length_b   7.40457855
_cell_length_c   4.02877700
_cell_angle_alpha   90.00000000
_cell_angle_beta   90.00000000
_cell_angle_gamma   90.20242318
_symmetry_Int_Tables_number   1
_chemical_formula_structural   YSiTc4P
_chemical_formula_sum   'Y2 Si2 Tc8 P2'
_cell_volume   220.88753476
_cell_formula_units_Z   2
loop_
 _symmetry_equiv_pos_site_id
 _symmetry_equiv_pos_as_xyz
  1  'x, y, z'
loop_
 _atom_site_type_symbol
 _atom_site_label
 _atom_site_symmetry_multiplicity
 _atom_site_fract_x
 _atom_site_fract_y
 _atom_site_fract_z
 _atom_site_occupancy
  Y  Y0  1  0.500000  0.500000  0.500000  1
  Y  Y1  1  0.000000  0.000000  0.000000  1
  Si  Si2  1  0.787899  0.212101  0.500000  1
  Si  Si3  1  0.212101  0.787899  0.500000  1
  Tc  Tc4  1  0.655743  0.908768  0.500000  1
  Tc  Tc5  1  0.344257  0.091232  0.500000  1
  Tc  Tc6  1  0.161934  0.582991  0.000000  1
  Tc  Tc7  1  0.838066  0.417009  0.000000  1
  Tc  Tc8  1  0.908768  0.655743  0.500000  1
  Tc  Tc9  1  0.091232  0.344257  0.500000  1
  Tc  Tc10  1  0.582991  0.161934  0.000000  1
  Tc  Tc11  1  0.417009  0.838066  0.000000  1
  P  P12  1  0.289956  0.289956  0.000000  1
  P  P13  1  0.710044  0.710044  0.000000  1
