# generated using pymatgen
data_Dy3Y2(OsO6)2
_symmetry_space_group_name_H-M   'P 1'
_cell_length_a   6.89511440
_cell_length_b   6.89511462
_cell_length_c   7.51020200
_cell_angle_alpha   73.97679127
_cell_angle_beta   73.97679169
_cell_angle_gamma   48.46087670
_symmetry_Int_Tables_number   1
_chemical_formula_structural   Dy3Y2(OsO6)2
_chemical_formula_sum   'Dy3 Y2 Os2 O12'
_cell_volume   254.71891007
_cell_formula_units_Z   1
loop_
 _symmetry_equiv_pos_site_id
 _symmetry_equiv_pos_as_xyz
  1  'x, y, z'
loop_
 _atom_site_type_symbol
 _atom_site_label
 _atom_site_symmetry_multiplicity
 _atom_site_fract_x
 _atom_site_fract_y
 _atom_site_fract_z
 _atom_site_occupancy
  Dy  Dy0  1  0.698811  0.698811  0.641925  1
  Dy  Dy1  1  0.311856  0.311856  0.829057  1
  Dy  Dy2  1  0.688138  0.688138  0.170963  1
  Y  Y3  1  0.301266  0.301266  0.358122  1
  Y  Y4  1  0.000037  0.000037  0.499999  1
  Os  Os5  1  0.780739  0.219327  0.999942  1
  Os  Os6  1  0.219327  0.780739  0.999942  1
  O  O7  1  0.913163  0.418950  0.914652  1
  O  O8  1  0.418950  0.913163  0.914652  1
  O  O9  1  0.086679  0.581296  0.085122  1
  O  O10  1  0.581296  0.086679  0.085122  1
  O  O11  1  0.098238  0.595502  0.573431  1
  O  O12  1  0.595502  0.098238  0.573431  1
  O  O13  1  0.900859  0.405024  0.426887  1
  O  O14  1  0.405024  0.900859  0.426887  1
  O  O15  1  0.999169  0.999169  0.796882  1
  O  O16  1  0.000823  0.000823  0.203084  1
  O  O17  1  0.500964  0.500964  0.825876  1
  O  O18  1  0.499159  0.499159  0.174025  1
