# generated using pymatgen
data_Tb16Al4CuRu3
_symmetry_space_group_name_H-M   'P 1'
_cell_length_a   9.56889229
_cell_length_b   9.56889271
_cell_length_c   9.56889187
_cell_angle_alpha   60.10103853
_cell_angle_beta   60.10103500
_cell_angle_gamma   60.10104061
_symmetry_Int_Tables_number   1
_chemical_formula_structural   Tb16Al4CuRu3
_chemical_formula_sum   'Tb16 Al4 Cu1 Ru3'
_cell_volume   620.95925439
_cell_formula_units_Z   1
loop_
 _symmetry_equiv_pos_site_id
 _symmetry_equiv_pos_as_xyz
  1  'x, y, z'
loop_
 _atom_site_type_symbol
 _atom_site_label
 _atom_site_symmetry_multiplicity
 _atom_site_fract_x
 _atom_site_fract_y
 _atom_site_fract_z
 _atom_site_occupancy
  Tb  Tb0  1  0.104998  0.691491  0.104998  1
  Tb  Tb1  1  0.944100  0.944100  0.549936  1
  Tb  Tb2  1  0.944100  0.549936  0.944100  1
  Tb  Tb3  1  0.310486  0.690286  0.310486  1
  Tb  Tb4  1  0.943647  0.555625  0.555625  1
  Tb  Tb5  1  0.310486  0.310486  0.690286  1
  Tb  Tb6  1  0.100690  0.100690  0.100690  1
  Tb  Tb7  1  0.555625  0.555625  0.943647  1
  Tb  Tb8  1  0.104998  0.104998  0.691491  1
  Tb  Tb9  1  0.688310  0.315952  0.688310  1
  Tb  Tb10  1  0.688310  0.688310  0.315952  1
  Tb  Tb11  1  0.690286  0.310486  0.310486  1
  Tb  Tb12  1  0.315952  0.688310  0.688310  1
  Tb  Tb13  1  0.555625  0.943647  0.555625  1
  Tb  Tb14  1  0.691491  0.104998  0.104998  1
  Tb  Tb15  1  0.549936  0.944100  0.944100  1
  Al  Al16  1  0.326914  0.326914  0.326914  1
  Al  Al17  1  0.019629  0.326953  0.326953  1
  Al  Al18  1  0.326953  0.019629  0.326953  1
  Al  Al19  1  0.326953  0.326953  0.019629  1
  Cu  Cu20  1  0.892644  0.892644  0.892644  1
  Ru  Ru21  1  0.890466  0.890466  0.326934  1
  Ru  Ru22  1  0.326934  0.890466  0.890466  1
  Ru  Ru23  1  0.890466  0.326934  0.890466  1
