# generated using pymatgen
data_K3TlCl6
_symmetry_space_group_name_H-M   'P 1'
_cell_length_a   7.76968700
_cell_length_b   12.57317600
_cell_length_c   25.07468200
_cell_angle_alpha   90.00000000
_cell_angle_beta   90.00000000
_cell_angle_gamma   90.00000000
_symmetry_Int_Tables_number   1
_chemical_formula_structural   K3TlCl6
_chemical_formula_sum   'K24 Tl8 Cl48'
_cell_volume   2449.53671075
_cell_formula_units_Z   8
loop_
 _symmetry_equiv_pos_site_id
 _symmetry_equiv_pos_as_xyz
  1  'x, y, z'
loop_
 _atom_site_type_symbol
 _atom_site_label
 _atom_site_symmetry_multiplicity
 _atom_site_fract_x
 _atom_site_fract_y
 _atom_site_fract_z
 _atom_site_occupancy
  K  K0  1  0.180825  0.758581  0.839633  1
  K  K1  1  0.252197  0.084792  0.549972  1
  K  K2  1  0.747803  0.915208  0.049972  1
  K  K3  1  0.819175  0.258581  0.660367  1
  K  K4  1  0.747803  0.584792  0.950028  1
  K  K5  1  0.747803  0.915208  0.450028  1
  K  K6  1  0.315835  0.407361  0.657707  1
  K  K7  1  0.684165  0.907361  0.657707  1
  K  K8  1  0.252197  0.415208  0.450028  1
  K  K9  1  0.819175  0.241419  0.339633  1
  K  K10  1  0.252197  0.415208  0.049972  1
  K  K11  1  0.684165  0.592639  0.157707  1
  K  K12  1  0.684165  0.907361  0.842293  1
  K  K13  1  0.315835  0.407361  0.842293  1
  K  K14  1  0.315835  0.092639  0.157707  1
  K  K15  1  0.315835  0.092639  0.342293  1
  K  K16  1  0.180825  0.741419  0.339633  1
  K  K17  1  0.684165  0.592639  0.342293  1
  K  K18  1  0.747803  0.584792  0.549972  1
  K  K19  1  0.819175  0.258581  0.839633  1
  K  K20  1  0.819175  0.241419  0.160367  1
  K  K21  1  0.252197  0.084792  0.950028  1
  K  K22  1  0.180825  0.758581  0.660367  1
  K  K23  1  0.180825  0.741419  0.160367  1
  Tl  Tl24  1  0.255322  0.081366  0.750000  1
  Tl  Tl25  1  0.744678  0.581366  0.750000  1
  Tl  Tl26  1  0.790783  0.250000  0.000000  1
  Tl  Tl27  1  0.209217  0.750000  0.000000  1
  Tl  Tl28  1  0.744678  0.918634  0.250000  1
  Tl  Tl29  1  0.255322  0.418634  0.250000  1
  Tl  Tl30  1  0.790783  0.250000  0.500000  1
  Tl  Tl31  1  0.209217  0.750000  0.500000  1
  Cl  Cl32  1  0.467098  0.366356  0.328115  1
  Cl  Cl33  1  0.051243  0.314730  0.937173  1
  Cl  Cl34  1  0.440278  0.846672  0.562122  1
  Cl  Cl35  1  0.784882  0.419976  0.444684  1
  Cl  Cl36  1  0.784882  0.080024  0.555316  1
  Cl  Cl37  1  0.215118  0.580024  0.944684  1
  Cl  Cl38  1  0.559722  0.346672  0.937878  1
  Cl  Cl39  1  0.467098  0.133644  0.828115  1
  Cl  Cl40  1  0.440278  0.653328  0.062122  1
  Cl  Cl41  1  0.957279  0.527799  0.826833  1
  Cl  Cl42  1  0.604098  0.387411  0.750000  1
  Cl  Cl43  1  0.051243  0.314730  0.562827  1
  Cl  Cl44  1  0.051243  0.185270  0.062827  1
  Cl  Cl45  1  0.215118  0.580024  0.555316  1
  Cl  Cl46  1  0.051243  0.185270  0.437173  1
  Cl  Cl47  1  0.559722  0.153328  0.062122  1
  Cl  Cl48  1  0.532902  0.633644  0.828115  1
  Cl  Cl49  1  0.532902  0.866356  0.328115  1
  Cl  Cl50  1  0.559722  0.346672  0.562122  1
  Cl  Cl51  1  0.116582  0.275863  0.750000  1
  Cl  Cl52  1  0.948757  0.685270  0.062827  1
  Cl  Cl53  1  0.440278  0.653328  0.437878  1
  Cl  Cl54  1  0.784882  0.080024  0.944684  1
  Cl  Cl55  1  0.604098  0.112589  0.250000  1
  Cl  Cl56  1  0.042721  0.027799  0.673167  1
  Cl  Cl57  1  0.559722  0.153328  0.437878  1
  Cl  Cl58  1  0.948757  0.685270  0.437173  1
  Cl  Cl59  1  0.957279  0.972201  0.326833  1
  Cl  Cl60  1  0.215118  0.919976  0.055316  1
  Cl  Cl61  1  0.042721  0.472201  0.173167  1
  Cl  Cl62  1  0.395902  0.887411  0.750000  1
  Cl  Cl63  1  0.948757  0.814730  0.937173  1
  Cl  Cl64  1  0.467098  0.366356  0.171885  1
  Cl  Cl65  1  0.116582  0.224137  0.250000  1
  Cl  Cl66  1  0.948757  0.814730  0.562827  1
  Cl  Cl67  1  0.042721  0.472201  0.326833  1
  Cl  Cl68  1  0.957279  0.527799  0.673167  1
  Cl  Cl69  1  0.784882  0.419976  0.055316  1
  Cl  Cl70  1  0.883418  0.724137  0.250000  1
  Cl  Cl71  1  0.467098  0.133644  0.671885  1
  Cl  Cl72  1  0.883418  0.775863  0.750000  1
  Cl  Cl73  1  0.215118  0.919976  0.444684  1
  Cl  Cl74  1  0.532902  0.866356  0.171885  1
  Cl  Cl75  1  0.042721  0.027799  0.826833  1
  Cl  Cl76  1  0.440278  0.846672  0.937878  1
  Cl  Cl77  1  0.395902  0.612589  0.250000  1
  Cl  Cl78  1  0.957279  0.972201  0.173167  1
  Cl  Cl79  1  0.532902  0.633644  0.671885  1
