# generated using pymatgen
data_Dy3HoCo2(Sn2Ru)2
_symmetry_space_group_name_H-M   'P 1'
_cell_length_a   4.68153500
_cell_length_b   7.31596579
_cell_length_c   7.33536601
_cell_angle_alpha   90.46128394
_cell_angle_beta   90.00000000
_cell_angle_gamma   90.00000000
_symmetry_Int_Tables_number   1
_chemical_formula_structural   Dy3HoCo2(Sn2Ru)2
_chemical_formula_sum   'Dy3 Ho1 Co2 Sn4 Ru2'
_cell_volume   251.22777616
_cell_formula_units_Z   1
loop_
 _symmetry_equiv_pos_site_id
 _symmetry_equiv_pos_as_xyz
  1  'x, y, z'
loop_
 _atom_site_type_symbol
 _atom_site_label
 _atom_site_symmetry_multiplicity
 _atom_site_fract_x
 _atom_site_fract_y
 _atom_site_fract_z
 _atom_site_occupancy
  Dy  Dy0  1  0.250000  0.480844  0.696837  1
  Dy  Dy1  1  0.250000  0.970980  0.801025  1
  Dy  Dy2  1  0.750000  0.029180  0.199257  1
  Ho  Ho3  1  0.750000  0.519590  0.302311  1
  Co  Co4  1  0.750000  0.345204  0.947301  1
  Co  Co5  1  0.250000  0.654883  0.053195  1
  Sn  Sn6  1  0.750000  0.697617  0.896669  1
  Sn  Sn7  1  0.250000  0.790991  0.382366  1
  Sn  Sn8  1  0.250000  0.302882  0.103714  1
  Sn  Sn9  1  0.750000  0.208695  0.617563  1
  Ru  Ru10  1  0.750000  0.842620  0.558232  1
  Ru  Ru11  1  0.250000  0.156514  0.441531  1
