# generated using pymatgen
data_Nd3Ho(Sn5Ir3)2
_symmetry_space_group_name_H-M   'P 1'
_cell_length_a   13.58273993
_cell_length_b   13.58274003
_cell_length_c   7.27563008
_cell_angle_alpha   90.12847428
_cell_angle_beta   89.87152616
_cell_angle_gamma   160.89798845
_symmetry_Int_Tables_number   1
_chemical_formula_structural   Nd3Ho(Sn5Ir3)2
_chemical_formula_sum   'Nd3 Ho1 Sn10 Ir6'
_cell_volume   439.26372663
_cell_formula_units_Z   1
loop_
 _symmetry_equiv_pos_site_id
 _symmetry_equiv_pos_as_xyz
  1  'x, y, z'
loop_
 _atom_site_type_symbol
 _atom_site_label
 _atom_site_symmetry_multiplicity
 _atom_site_fract_x
 _atom_site_fract_y
 _atom_site_fract_z
 _atom_site_occupancy
  Nd  Nd0  1  0.172046  0.827954  0.745078  1
  Nd  Nd1  1  0.827887  0.172113  0.244688  1
  Nd  Nd2  1  0.477081  0.522919  0.761300  1
  Ho  Ho3  1  0.524023  0.475977  0.261302  1
  Sn  Sn4  1  0.879036  0.120964  0.768533  1
  Sn  Sn5  1  0.120344  0.879656  0.267937  1
  Sn  Sn6  1  0.704167  0.295833  0.451857  1
  Sn  Sn7  1  0.295215  0.704785  0.951765  1
  Sn  Sn8  1  0.596903  0.403097  0.890673  1
  Sn  Sn9  1  0.403617  0.596383  0.389413  1
  Sn  Sn10  1  0.953058  0.046942  0.101308  1
  Sn  Sn11  1  0.047923  0.952077  0.598395  1
  Sn  Sn12  1  0.290442  0.709558  0.522428  1
  Sn  Sn13  1  0.709308  0.290692  0.023032  1
  Ir  Ir14  1  0.050661  0.949339  0.985415  1
  Ir  Ir15  1  0.949822  0.050178  0.478629  1
  Ir  Ir16  1  0.776757  0.223243  0.735030  1
  Ir  Ir17  1  0.222834  0.777166  0.235186  1
  Ir  Ir18  1  0.394624  0.605376  0.017688  1
  Ir  Ir19  1  0.604252  0.395748  0.514343  1
