# generated using pymatgen
data_La3Cd2Pb3
_symmetry_space_group_name_H-M   'P 1'
_cell_length_a   6.83062787
_cell_length_b   6.83062894
_cell_length_c   10.73588600
_cell_angle_alpha   90.00000000
_cell_angle_beta   90.00000000
_cell_angle_gamma   103.35830265
_symmetry_Int_Tables_number   1
_chemical_formula_structural   La3Cd2Pb3
_chemical_formula_sum   'La6 Cd4 Pb6'
_cell_volume   487.35696649
_cell_formula_units_Z   2
loop_
 _symmetry_equiv_pos_site_id
 _symmetry_equiv_pos_as_xyz
  1  'x, y, z'
loop_
 _atom_site_type_symbol
 _atom_site_label
 _atom_site_symmetry_multiplicity
 _atom_site_fract_x
 _atom_site_fract_y
 _atom_site_fract_z
 _atom_site_occupancy
  La  La0  1  0.624764  0.624764  0.250000  1
  La  La1  1  0.375236  0.375236  0.750000  1
  La  La2  1  0.203790  0.796210  0.500000  1
  La  La3  1  0.203790  0.796210  0.000000  1
  La  La4  1  0.796210  0.203790  0.500000  1
  La  La5  1  0.796210  0.203790  0.000000  1
  Cd  Cd6  1  0.316168  0.316168  0.045596  1
  Cd  Cd7  1  0.683832  0.683832  0.954404  1
  Cd  Cd8  1  0.316168  0.316168  0.454404  1
  Cd  Cd9  1  0.683832  0.683832  0.545596  1
  Pb  Pb10  1  0.015818  0.015818  0.250000  1
  Pb  Pb11  1  0.984182  0.984182  0.750000  1
  Pb  Pb12  1  0.498033  0.069556  0.250000  1
  Pb  Pb13  1  0.930444  0.501967  0.750000  1
  Pb  Pb14  1  0.501967  0.930444  0.750000  1
  Pb  Pb15  1  0.069556  0.498033  0.250000  1
