# generated using pymatgen
data_Dy16In5HgRh2
_symmetry_space_group_name_H-M   'P 1'
_cell_length_a   10.39554500
_cell_length_b   10.41632291
_cell_length_c   7.04005005
_cell_angle_alpha   90.01164612
_cell_angle_beta   90.00000000
_cell_angle_gamma   119.93403944
_symmetry_Int_Tables_number   1
_chemical_formula_structural   Dy16In5HgRh2
_chemical_formula_sum   'Dy16 In5 Hg1 Rh2'
_cell_volume   660.62703045
_cell_formula_units_Z   1
loop_
 _symmetry_equiv_pos_site_id
 _symmetry_equiv_pos_as_xyz
  1  'x, y, z'
loop_
 _atom_site_type_symbol
 _atom_site_label
 _atom_site_symmetry_multiplicity
 _atom_site_fract_x
 _atom_site_fract_y
 _atom_site_fract_z
 _atom_site_occupancy
  Dy  Dy0  1  0.531889  0.063775  0.515462  1
  Dy  Dy1  1  0.932946  0.470112  0.515861  1
  Dy  Dy2  1  0.537168  0.470112  0.515861  1
  Dy  Dy3  1  0.467333  0.934668  0.012160  1
  Dy  Dy4  1  0.066776  0.532008  0.016084  1
  Dy  Dy5  1  0.465230  0.532008  0.016084  1
  Dy  Dy6  1  0.175831  0.351662  0.719949  1
  Dy  Dy7  1  0.652338  0.822310  0.723576  1
  Dy  Dy8  1  0.169972  0.822310  0.723576  1
  Dy  Dy9  1  0.823989  0.647977  0.208387  1
  Dy  Dy10  1  0.352241  0.175890  0.221765  1
  Dy  Dy11  1  0.823649  0.175890  0.221765  1
  Dy  Dy12  1  0.668527  0.337054  0.891176  1
  Dy  Dy13  1  0.333598  0.667196  0.393789  1
  Dy  Dy14  1  0.999643  0.999286  0.499542  1
  Dy  Dy15  1  0.001028  0.002056  0.001085  1
  In  In16  1  0.326241  0.162454  0.761036  1
  In  In17  1  0.836212  0.162454  0.761036  1
  In  In18  1  0.162783  0.325565  0.262314  1
  In  In19  1  0.673976  0.836978  0.261547  1
  In  In20  1  0.163002  0.836978  0.261547  1
  Hg  Hg21  1  0.835249  0.670498  0.766276  1
  Rh  Rh22  1  0.666845  0.333689  0.287072  1
  Rh  Rh23  1  0.333534  0.667069  0.787251  1
