# generated using pymatgen
data_CdPd4Pb3O14
_symmetry_space_group_name_H-M   'P 1'
_cell_length_a   7.27883833
_cell_length_b   7.27883837
_cell_length_c   7.27883915
_cell_angle_alpha   60.82441054
_cell_angle_beta   60.82441224
_cell_angle_gamma   60.82442214
_symmetry_Int_Tables_number   1
_chemical_formula_structural   CdPd4Pb3O14
_chemical_formula_sum   'Cd1 Pd4 Pb3 O14'
_cell_volume   277.76111354
_cell_formula_units_Z   1
loop_
 _symmetry_equiv_pos_site_id
 _symmetry_equiv_pos_as_xyz
  1  'x, y, z'
loop_
 _atom_site_type_symbol
 _atom_site_label
 _atom_site_symmetry_multiplicity
 _atom_site_fract_x
 _atom_site_fract_y
 _atom_site_fract_z
 _atom_site_occupancy
  Cd  Cd0  1  0.625000  0.625000  0.625000  1
  Pd  Pd1  1  0.625000  0.125000  0.125000  1
  Pd  Pd2  1  0.125000  0.625000  0.125000  1
  Pd  Pd3  1  0.125000  0.125000  0.625000  1
  Pd  Pd4  1  0.125000  0.125000  0.125000  1
  Pb  Pb5  1  0.125000  0.625000  0.625000  1
  Pb  Pb6  1  0.625000  0.125000  0.625000  1
  Pb  Pb7  1  0.625000  0.625000  0.125000  1
  O  O8  1  0.791047  0.791047  0.208841  1
  O  O9  1  0.209297  0.209297  0.791725  1
  O  O10  1  0.791047  0.208841  0.791047  1
  O  O11  1  0.209297  0.791725  0.209297  1
  O  O12  1  0.208841  0.791047  0.791047  1
  O  O13  1  0.791725  0.209297  0.209297  1
  O  O14  1  0.458953  0.458953  0.041159  1
  O  O15  1  0.040703  0.040703  0.458275  1
  O  O16  1  0.458953  0.041159  0.458953  1
  O  O17  1  0.040703  0.458275  0.040703  1
  O  O18  1  0.041159  0.458953  0.458953  1
  O  O19  1  0.458275  0.040703  0.040703  1
  O  O20  1  0.497429  0.497429  0.497429  1
  O  O21  1  0.752571  0.752571  0.752571  1
