# generated using pymatgen
data_La2Pr3Nd(WO7)2
_symmetry_space_group_name_H-M   'P 1'
_cell_length_a   6.72427085
_cell_length_b   6.73012160
_cell_length_c   7.80234200
_cell_angle_alpha   90.00000000
_cell_angle_beta   90.00000000
_cell_angle_gamma   109.10349183
_symmetry_Int_Tables_number   1
_chemical_formula_structural   La2Pr3Nd(WO7)2
_chemical_formula_sum   'La2 Pr3 Nd1 W2 O14'
_cell_volume   333.65086521
_cell_formula_units_Z   1
loop_
 _symmetry_equiv_pos_site_id
 _symmetry_equiv_pos_as_xyz
  1  'x, y, z'
loop_
 _atom_site_type_symbol
 _atom_site_label
 _atom_site_symmetry_multiplicity
 _atom_site_fract_x
 _atom_site_fract_y
 _atom_site_fract_z
 _atom_site_occupancy
  La  La0  1  0.498957  0.498733  0.499634  1
  La  La1  1  0.498957  0.498733  0.000366  1
  Pr  Pr2  1  0.999631  0.534595  0.250000  1
  Pr  Pr3  1  0.000066  0.465654  0.750000  1
  Pr  Pr4  1  0.534506  0.999495  0.750000  1
  Nd  Nd5  1  0.465371  0.999857  0.250000  1
  W  W6  1  0.000162  0.000162  0.499586  1
  W  W7  1  0.000162  0.000162  0.000414  1
  O  O8  1  0.936255  0.063559  0.750000  1
  O  O9  1  0.064839  0.936184  0.250000  1
  O  O10  1  0.365822  0.636558  0.250000  1
  O  O11  1  0.633663  0.365160  0.750000  1
  O  O12  1  0.369625  0.630314  0.750000  1
  O  O13  1  0.628865  0.367092  0.250000  1
  O  O14  1  0.312441  0.068499  0.973772  1
  O  O15  1  0.688535  0.932900  0.470921  1
  O  O16  1  0.312441  0.068499  0.526228  1
  O  O17  1  0.688535  0.932900  0.029079  1
  O  O18  1  0.070765  0.312594  0.472636  1
  O  O19  1  0.929817  0.687878  0.972721  1
  O  O20  1  0.929817  0.687878  0.527279  1
  O  O21  1  0.070765  0.312594  0.027364  1
