# generated using pymatgen
data_La16Tb3ErIr12
_symmetry_space_group_name_H-M   'P 1'
_cell_length_a   11.38883600
_cell_length_b   11.38883600
_cell_length_c   6.54948600
_cell_angle_alpha   90.00000000
_cell_angle_beta   90.00000000
_cell_angle_gamma   90.00000000
_symmetry_Int_Tables_number   1
_chemical_formula_structural   La16Tb3ErIr12
_chemical_formula_sum   'La16 Tb3 Er1 Ir12'
_cell_volume   849.50491593
_cell_formula_units_Z   1
loop_
 _symmetry_equiv_pos_site_id
 _symmetry_equiv_pos_as_xyz
  1  'x, y, z'
loop_
 _atom_site_type_symbol
 _atom_site_label
 _atom_site_symmetry_multiplicity
 _atom_site_fract_x
 _atom_site_fract_y
 _atom_site_fract_z
 _atom_site_occupancy
  La  La0  1  0.288005  0.088670  0.386831  1
  La  La1  1  0.288242  0.911342  0.886605  1
  La  La2  1  0.711758  0.088658  0.886605  1
  La  La3  1  0.711995  0.911330  0.386831  1
  La  La4  1  0.588586  0.788331  0.886699  1
  La  La5  1  0.588697  0.211664  0.386619  1
  La  La6  1  0.411303  0.788336  0.386619  1
  La  La7  1  0.411414  0.211669  0.886699  1
  La  La8  1  0.211664  0.411303  0.613381  1
  La  La9  1  0.211669  0.588586  0.113301  1
  La  La10  1  0.788331  0.411414  0.113301  1
  La  La11  1  0.788336  0.588697  0.613381  1
  La  La12  1  0.911342  0.711758  0.113395  1
  La  La13  1  0.911330  0.288005  0.613169  1
  La  La14  1  0.088670  0.711995  0.613169  1
  La  La15  1  0.088658  0.288242  0.113395  1
  Tb  Tb16  1  0.000000  0.000000  0.000000  1
  Tb  Tb17  1  0.500000  0.500000  0.000000  1
  Tb  Tb18  1  0.500000  0.500000  0.500000  1
  Er  Er19  1  0.000000  0.000000  0.500000  1
  Ir  Ir20  1  0.851201  0.148836  0.250948  1
  Ir  Ir21  1  0.851164  0.851201  0.749052  1
  Ir  Ir22  1  0.148836  0.148799  0.749052  1
  Ir  Ir23  1  0.148799  0.851164  0.250948  1
  Ir  Ir24  1  0.649397  0.350596  0.749999  1
  Ir  Ir25  1  0.649404  0.649397  0.250001  1
  Ir  Ir26  1  0.350596  0.350603  0.250001  1
  Ir  Ir27  1  0.350603  0.649404  0.749999  1
  Ir  Ir28  1  0.500000  0.000000  0.117883  1
  Ir  Ir29  1  0.500000  0.000000  0.617965  1
  Ir  Ir30  1  0.000000  0.500000  0.882117  1
  Ir  Ir31  1  0.000000  0.500000  0.382035  1
