# generated using pymatgen
data_Ti2MnAl2Ir3
_symmetry_space_group_name_H-M   'P 1'
_cell_length_a   4.30436900
_cell_length_b   6.07277000
_cell_length_c   12.84638014
_cell_angle_alpha   89.93400036
_cell_angle_beta   89.99989320
_cell_angle_gamma   89.99990899
_symmetry_Int_Tables_number   1
_chemical_formula_structural   Ti2MnAl2Ir3
_chemical_formula_sum   'Ti6 Mn3 Al6 Ir9'
_cell_volume   335.79699793
_cell_formula_units_Z   3
loop_
 _symmetry_equiv_pos_site_id
 _symmetry_equiv_pos_as_xyz
  1  'x, y, z'
loop_
 _atom_site_type_symbol
 _atom_site_label
 _atom_site_symmetry_multiplicity
 _atom_site_fract_x
 _atom_site_fract_y
 _atom_site_fract_z
 _atom_site_occupancy
  Ti  Ti0  1  0.000011  0.498278  0.983554  1
  Ti  Ti1  1  0.499933  0.000085  0.163621  1
  Ti  Ti2  1  0.999939  0.499010  0.334855  1
  Ti  Ti3  1  0.500001  0.990706  0.511083  1
  Ti  Ti4  1  0.000061  0.514036  0.678964  1
  Ti  Ti5  1  0.500041  0.992682  0.827701  1
  Mn  Mn6  1  0.500052  0.753963  0.664247  1
  Mn  Mn7  1  0.000052  0.253343  0.834081  1
  Mn  Mn8  1  0.000050  0.748983  0.834441  1
  Al  Al9  1  0.000002  0.999823  0.990110  1
  Al  Al10  1  0.499932  0.499061  0.164612  1
  Al  Al11  1  0.999940  0.999952  0.334559  1
  Al  Al12  1  0.500002  0.501957  0.506062  1
  Al  Al13  1  0.000050  0.994271  0.675968  1
  Al  Al14  1  0.500070  0.506807  0.828680  1
  Ir  Ir15  1  0.500000  0.249084  0.999057  1
  Ir  Ir16  1  0.500010  0.749455  0.000317  1
  Ir  Ir17  1  0.999949  0.248931  0.166672  1
  Ir  Ir18  1  0.999946  0.750203  0.166688  1
  Ir  Ir19  1  0.499945  0.249090  0.333811  1
  Ir  Ir20  1  0.499950  0.748749  0.332814  1
  Ir  Ir21  1  0.000002  0.249537  0.500353  1
  Ir  Ir22  1  0.999999  0.749902  0.500308  1
  Ir  Ir23  1  0.500059  0.252095  0.667439  1
