# generated using pymatgen
data_Tb3Sm3(RuI3)2
_symmetry_space_group_name_H-M   'P 1'
_cell_length_a   4.26572300
_cell_length_b   8.98446359
_cell_length_c   12.43678686
_cell_angle_alpha   86.33263250
_cell_angle_beta   90.00000000
_cell_angle_gamma   90.00000000
_symmetry_Int_Tables_number   1
_chemical_formula_structural   Tb3Sm3(RuI3)2
_chemical_formula_sum   'Tb3 Sm3 Ru2 I6'
_cell_volume   475.66668998
_cell_formula_units_Z   1
loop_
 _symmetry_equiv_pos_site_id
 _symmetry_equiv_pos_as_xyz
  1  'x, y, z'
loop_
 _atom_site_type_symbol
 _atom_site_label
 _atom_site_symmetry_multiplicity
 _atom_site_fract_x
 _atom_site_fract_y
 _atom_site_fract_z
 _atom_site_occupancy
  Tb  Tb0  1  0.750000  0.126285  0.123042  1
  Tb  Tb1  1  0.250000  0.873934  0.875745  1
  Tb  Tb2  1  0.750000  0.097074  0.684012  1
  Sm  Sm3  1  0.250000  0.903445  0.318403  1
  Sm  Sm4  1  0.250000  0.268695  0.896922  1
  Sm  Sm5  1  0.750000  0.730726  0.101894  1
  Ru  Ru6  1  0.750000  0.057522  0.905005  1
  Ru  Ru7  1  0.250000  0.942932  0.093877  1
  I  I8  1  0.250000  0.348905  0.637584  1
  I  I9  1  0.750000  0.646718  0.362227  1
  I  I10  1  0.750000  0.146616  0.392720  1
  I  I11  1  0.250000  0.857485  0.608818  1
  I  I12  1  0.250000  0.424508  0.134319  1
  I  I13  1  0.750000  0.575153  0.865432  1
