# generated using pymatgen
data_Ho3Tm5(TcB6)4
_symmetry_space_group_name_H-M   'P 1'
_cell_length_a   3.65427100
_cell_length_b   9.10934500
_cell_length_c   11.48149700
_cell_angle_alpha   89.99958784
_cell_angle_beta   90.00000000
_cell_angle_gamma   90.00000000
_symmetry_Int_Tables_number   1
_chemical_formula_structural   Ho3Tm5(TcB6)4
_chemical_formula_sum   'Ho3 Tm5 Tc4 B24'
_cell_volume   382.19624737
_cell_formula_units_Z   1
loop_
 _symmetry_equiv_pos_site_id
 _symmetry_equiv_pos_as_xyz
  1  'x, y, z'
loop_
 _atom_site_type_symbol
 _atom_site_label
 _atom_site_symmetry_multiplicity
 _atom_site_fract_x
 _atom_site_fract_y
 _atom_site_fract_z
 _atom_site_occupancy
  Ho  Ho0  1  0.000000  0.323519  0.414145  1
  Ho  Ho1  1  0.000000  0.676360  0.585956  1
  Ho  Ho2  1  0.000000  0.823669  0.085770  1
  Tm  Tm3  1  0.000000  0.176243  0.914191  1
  Tm  Tm4  1  0.000000  0.943099  0.369367  1
  Tm  Tm5  1  0.000000  0.057082  0.630733  1
  Tm  Tm6  1  0.000000  0.442846  0.130309  1
  Tm  Tm7  1  0.000000  0.556885  0.869509  1
  Tc  Tc8  1  0.000000  0.639269  0.320039  1
  Tc  Tc9  1  0.000000  0.360450  0.680324  1
  Tc  Tc10  1  0.000000  0.139292  0.179550  1
  Tc  Tc11  1  0.000000  0.861106  0.820224  1
  B  B12  1  0.500000  0.553461  0.432958  1
  B  B13  1  0.500000  0.446374  0.567200  1
  B  B14  1  0.500000  0.053684  0.066623  1
  B  B15  1  0.500000  0.946985  0.932988  1
  B  B16  1  0.500000  0.750071  0.418745  1
  B  B17  1  0.500000  0.249961  0.581455  1
  B  B18  1  0.500000  0.249901  0.080673  1
  B  B19  1  0.500000  0.750144  0.918691  1
  B  B20  1  0.500000  0.792714  0.264996  1
  B  B21  1  0.500000  0.207119  0.735403  1
  B  B22  1  0.500000  0.292629  0.234714  1
  B  B23  1  0.500000  0.707391  0.765120  1
  B  B24  1  0.500000  0.630426  0.184886  1
  B  B25  1  0.500000  0.369157  0.815417  1
  B  B26  1  0.500000  0.130509  0.314909  1
  B  B27  1  0.500000  0.869700  0.685079  1
  B  B28  1  0.500000  0.981950  0.211820  1
  B  B29  1  0.500000  0.018708  0.788318  1
  B  B30  1  0.500000  0.481740  0.287905  1
  B  B31  1  0.500000  0.518027  0.712128  1
  B  B32  1  0.500000  0.599176  0.027549  1
  B  B33  1  0.500000  0.400230  0.972207  1
  B  B34  1  0.500000  0.099131  0.472475  1
  B  B35  1  0.500000  0.900992  0.527626  1
