# generated using pymatgen
data_Er2Si3Ge(AsRh4)3
_symmetry_space_group_name_H-M   'P 1'
_cell_length_a   9.88201300
_cell_length_b   9.88201249
_cell_length_c   3.88610100
_cell_angle_alpha   90.00000000
_cell_angle_beta   90.00000000
_cell_angle_gamma   119.99999835
_symmetry_Int_Tables_number   1
_chemical_formula_structural   Er2Si3Ge(AsRh4)3
_chemical_formula_sum   'Er2 Si3 Ge1 As3 Rh12'
_cell_volume   328.65144193
_cell_formula_units_Z   1
loop_
 _symmetry_equiv_pos_site_id
 _symmetry_equiv_pos_as_xyz
  1  'x, y, z'
loop_
 _atom_site_type_symbol
 _atom_site_label
 _atom_site_symmetry_multiplicity
 _atom_site_fract_x
 _atom_site_fract_y
 _atom_site_fract_z
 _atom_site_occupancy
  Er  Er0  1  0.666667  0.333333  0.751443  1
  Er  Er1  1  0.333333  0.666667  0.249223  1
  Si  Si2  1  0.288549  0.884916  0.750756  1
  Si  Si3  1  0.115084  0.403633  0.750756  1
  Si  Si4  1  0.596367  0.711451  0.750756  1
  Ge  Ge5  1  0.000000  0.000000  0.580478  1
  As  As6  1  0.710764  0.115390  0.250000  1
  As  As7  1  0.884610  0.595374  0.250000  1
  As  As8  1  0.404626  0.289236  0.250000  1
  Rh  Rh9  1  0.072680  0.621490  0.752136  1
  Rh  Rh10  1  0.378510  0.451190  0.752136  1
  Rh  Rh11  1  0.548810  0.927320  0.752136  1
  Rh  Rh12  1  0.944666  0.385675  0.250023  1
  Rh  Rh13  1  0.614325  0.558991  0.250023  1
  Rh  Rh14  1  0.441009  0.055334  0.250023  1
  Rh  Rh15  1  0.272761  0.118664  0.751611  1
  Rh  Rh16  1  0.881336  0.154097  0.751611  1
  Rh  Rh17  1  0.845903  0.727239  0.751611  1
  Rh  Rh18  1  0.734749  0.878874  0.252967  1
  Rh  Rh19  1  0.121126  0.855876  0.252967  1
  Rh  Rh20  1  0.144124  0.265251  0.252967  1
