# generated using pymatgen
data_Ag2AsRuF12
_symmetry_space_group_name_H-M   'P 1'
_cell_length_a   5.56142380
_cell_length_b   5.83809204
_cell_length_c   8.04994392
_cell_angle_alpha   96.30642900
_cell_angle_beta   89.51962671
_cell_angle_gamma   90.51505723
_symmetry_Int_Tables_number   1
_chemical_formula_structural   Ag2AsRuF12
_chemical_formula_sum   'Ag2 As1 Ru1 F12'
_cell_volume   259.76710337
_cell_formula_units_Z   1
loop_
 _symmetry_equiv_pos_site_id
 _symmetry_equiv_pos_as_xyz
  1  'x, y, z'
loop_
 _atom_site_type_symbol
 _atom_site_label
 _atom_site_symmetry_multiplicity
 _atom_site_fract_x
 _atom_site_fract_y
 _atom_site_fract_z
 _atom_site_occupancy
  Ag  Ag0  1  0.000000  0.000000  0.000000  1
  Ag  Ag1  1  0.500000  0.500000  0.500000  1
  As  As2  1  0.500000  0.500000  0.000000  1
  Ru  Ru3  1  0.000000  0.000000  0.500000  1
  F  F4  1  0.883939  0.999585  0.724532  1
  F  F5  1  0.157183  0.288948  0.561069  1
  F  F6  1  0.245322  0.626853  0.914481  1
  F  F7  1  0.339436  0.483017  0.190498  1
  F  F8  1  0.390757  0.220992  0.923408  1
  F  F9  1  0.282671  0.842362  0.556381  1
  F  F10  1  0.717329  0.157638  0.443619  1
  F  F11  1  0.609243  0.779008  0.076592  1
  F  F12  1  0.660564  0.516983  0.809502  1
  F  F13  1  0.754678  0.373147  0.085519  1
  F  F14  1  0.842817  0.711052  0.438931  1
  F  F15  1  0.116061  0.000415  0.275468  1
