# generated using pymatgen
data_Hf(MnZn10)2
_symmetry_space_group_name_H-M   'P 1'
_cell_length_a   9.84333820
_cell_length_b   9.84333817
_cell_length_c   9.84333800
_cell_angle_alpha   60.00000056
_cell_angle_beta   60.00000068
_cell_angle_gamma   60.00000034
_symmetry_Int_Tables_number   1
_chemical_formula_structural   Hf(MnZn10)2
_chemical_formula_sum   'Hf2 Mn4 Zn40'
_cell_volume   674.39170236
_cell_formula_units_Z   2
loop_
 _symmetry_equiv_pos_site_id
 _symmetry_equiv_pos_as_xyz
  1  'x, y, z'
loop_
 _atom_site_type_symbol
 _atom_site_label
 _atom_site_symmetry_multiplicity
 _atom_site_fract_x
 _atom_site_fract_y
 _atom_site_fract_z
 _atom_site_occupancy
  Hf  Hf0  1  0.500000  0.500000  0.500000  1
  Hf  Hf1  1  0.750000  0.750000  0.750000  1
  Mn  Mn2  1  0.625000  0.125000  0.125000  1
  Mn  Mn3  1  0.125000  0.625000  0.125000  1
  Mn  Mn4  1  0.125000  0.125000  0.625000  1
  Mn  Mn5  1  0.125000  0.125000  0.125000  1
  Zn  Zn6  1  0.568425  0.300301  0.300301  1
  Zn  Zn7  1  0.300301  0.568425  0.830974  1
  Zn  Zn8  1  0.300301  0.830974  0.568425  1
  Zn  Zn9  1  0.830974  0.300301  0.300301  1
  Zn  Zn10  1  0.300301  0.300301  0.568425  1
  Zn  Zn11  1  0.568425  0.830974  0.300301  1
  Zn  Zn12  1  0.830974  0.568425  0.300301  1
  Zn  Zn13  1  0.300301  0.300301  0.830974  1
  Zn  Zn14  1  0.300301  0.568425  0.300301  1
  Zn  Zn15  1  0.830974  0.300301  0.568425  1
  Zn  Zn16  1  0.568425  0.300301  0.830974  1
  Zn  Zn17  1  0.300301  0.830974  0.300301  1
  Zn  Zn18  1  0.681575  0.949699  0.949699  1
  Zn  Zn19  1  0.949699  0.681575  0.419026  1
  Zn  Zn20  1  0.949699  0.419026  0.681575  1
  Zn  Zn21  1  0.419026  0.949699  0.949699  1
  Zn  Zn22  1  0.949699  0.949699  0.681575  1
  Zn  Zn23  1  0.681575  0.419026  0.949699  1
  Zn  Zn24  1  0.419026  0.681575  0.949699  1
  Zn  Zn25  1  0.949699  0.949699  0.419026  1
  Zn  Zn26  1  0.949699  0.681575  0.949699  1
  Zn  Zn27  1  0.419026  0.949699  0.681575  1
  Zn  Zn28  1  0.681575  0.949699  0.419026  1
  Zn  Zn29  1  0.949699  0.419026  0.949699  1
  Zn  Zn30  1  0.864094  0.864094  0.135906  1
  Zn  Zn31  1  0.135906  0.135906  0.864094  1
  Zn  Zn32  1  0.864094  0.135906  0.864094  1
  Zn  Zn33  1  0.135906  0.864094  0.135906  1
  Zn  Zn34  1  0.135906  0.864094  0.864094  1
  Zn  Zn35  1  0.864094  0.135906  0.135906  1
  Zn  Zn36  1  0.385906  0.385906  0.114094  1
  Zn  Zn37  1  0.114094  0.114094  0.385906  1
  Zn  Zn38  1  0.385906  0.114094  0.385906  1
  Zn  Zn39  1  0.114094  0.385906  0.114094  1
  Zn  Zn40  1  0.114094  0.385906  0.385906  1
  Zn  Zn41  1  0.385906  0.114094  0.114094  1
  Zn  Zn42  1  0.125000  0.625000  0.625000  1
  Zn  Zn43  1  0.625000  0.125000  0.625000  1
  Zn  Zn44  1  0.625000  0.625000  0.125000  1
  Zn  Zn45  1  0.625000  0.625000  0.625000  1
