# generated using pymatgen
data_Mn8NbReTc2
_symmetry_space_group_name_H-M   'P 1'
_cell_length_a   4.68280500
_cell_length_b   4.68280294
_cell_length_c   7.76077800
_cell_angle_alpha   90.00000000
_cell_angle_beta   90.00000000
_cell_angle_gamma   120.00000749
_symmetry_Int_Tables_number   1
_chemical_formula_structural   Mn8NbReTc2
_chemical_formula_sum   'Mn8 Nb1 Re1 Tc2'
_cell_volume   147.38314342
_cell_formula_units_Z   1
loop_
 _symmetry_equiv_pos_site_id
 _symmetry_equiv_pos_as_xyz
  1  'x, y, z'
loop_
 _atom_site_type_symbol
 _atom_site_label
 _atom_site_symmetry_multiplicity
 _atom_site_fract_x
 _atom_site_fract_y
 _atom_site_fract_z
 _atom_site_occupancy
  Mn  Mn0  1  0.172471  0.344940  0.747030  1
  Mn  Mn1  1  0.827270  0.172730  0.253296  1
  Mn  Mn2  1  0.345459  0.172730  0.253296  1
  Mn  Mn3  1  0.655060  0.827529  0.747030  1
  Mn  Mn4  1  0.000000  0.000000  0.001162  1
  Mn  Mn5  1  0.000000  0.000000  0.502703  1
  Mn  Mn6  1  0.827270  0.654541  0.253296  1
  Mn  Mn7  1  0.172471  0.827529  0.747030  1
  Nb  Nb8  1  0.333333  0.666667  0.063028  1
  Re  Re9  1  0.333333  0.666667  0.437691  1
  Tc  Tc10  1  0.666667  0.333333  0.926382  1
  Tc  Tc11  1  0.666667  0.333333  0.568057  1
