# generated using pymatgen
data_Nd7PaZn8IrRh7
_symmetry_space_group_name_H-M   'P 1'
_cell_length_a   3.95353400
_cell_length_b   7.43206632
_cell_length_c   16.60277890
_cell_angle_alpha   90.03557856
_cell_angle_beta   90.00000000
_cell_angle_gamma   90.00000000
_symmetry_Int_Tables_number   1
_chemical_formula_structural   Nd7PaZn8IrRh7
_chemical_formula_sum   'Nd7 Pa1 Zn8 Ir1 Rh7'
_cell_volume   487.83814423
_cell_formula_units_Z   1
loop_
 _symmetry_equiv_pos_site_id
 _symmetry_equiv_pos_as_xyz
  1  'x, y, z'
loop_
 _atom_site_type_symbol
 _atom_site_label
 _atom_site_symmetry_multiplicity
 _atom_site_fract_x
 _atom_site_fract_y
 _atom_site_fract_z
 _atom_site_occupancy
  Nd  Nd0  1  0.250000  0.053559  0.714688  1
  Nd  Nd1  1  0.250000  0.550205  0.783787  1
  Nd  Nd2  1  0.250000  0.671319  0.561853  1
  Nd  Nd3  1  0.750000  0.830418  0.060402  1
  Nd  Nd4  1  0.250000  0.170616  0.939633  1
  Nd  Nd5  1  0.750000  0.451917  0.216453  1
  Nd  Nd6  1  0.750000  0.947415  0.285726  1
  Pa  Pa7  1  0.750000  0.327163  0.439955  1
  Zn  Zn8  1  0.250000  0.118236  0.151496  1
  Zn  Zn9  1  0.250000  0.986302  0.438991  1
  Zn  Zn10  1  0.750000  0.879465  0.848241  1
  Zn  Zn11  1  0.750000  0.999220  0.558236  1
  Zn  Zn12  1  0.250000  0.499404  0.059673  1
  Zn  Zn13  1  0.750000  0.380258  0.650204  1
  Zn  Zn14  1  0.750000  0.501156  0.940194  1
  Zn  Zn15  1  0.250000  0.617024  0.347342  1
  Ir  Ir16  1  0.250000  0.254413  0.329857  1
  Rh  Rh17  1  0.750000  0.256262  0.811590  1
  Rh  Rh18  1  0.250000  0.745313  0.934295  1
  Rh  Rh19  1  0.250000  0.258327  0.552213  1
  Rh  Rh20  1  0.250000  0.749200  0.186119  1
  Rh  Rh21  1  0.750000  0.736286  0.435675  1
  Rh  Rh22  1  0.750000  0.256020  0.067001  1
  Rh  Rh23  1  0.750000  0.760503  0.686377  1
