# generated using pymatgen
data_TbDyHf2(Al3Ir)6
_symmetry_space_group_name_H-M   'P 1'
_cell_length_a   7.52164906
_cell_length_b   7.50509435
_cell_length_c   9.34663600
_cell_angle_alpha   90.00000000
_cell_angle_beta   90.00000000
_cell_angle_gamma   119.73434100
_symmetry_Int_Tables_number   1
_chemical_formula_structural   TbDyHf2(Al3Ir)6
_chemical_formula_sum   'Tb1 Dy1 Hf2 Al18 Ir6'
_cell_volume   458.15408002
_cell_formula_units_Z   1
loop_
 _symmetry_equiv_pos_site_id
 _symmetry_equiv_pos_as_xyz
  1  'x, y, z'
loop_
 _atom_site_type_symbol
 _atom_site_label
 _atom_site_symmetry_multiplicity
 _atom_site_fract_x
 _atom_site_fract_y
 _atom_site_fract_z
 _atom_site_occupancy
  Tb  Tb0  1  0.670660  0.994369  0.750000  1
  Dy  Dy1  1  0.329280  0.005608  0.250000  1
  Hf  Hf2  1  0.995282  0.671186  0.750000  1
  Hf  Hf3  1  0.004740  0.328816  0.250000  1
  Al  Al4  1  0.126566  0.124365  0.750000  1
  Al  Al5  1  0.873567  0.875684  0.250000  1
  Al  Al6  1  0.000147  0.337316  0.575339  1
  Al  Al7  1  0.999968  0.662794  0.424581  1
  Al  Al8  1  0.999968  0.662794  0.075419  1
  Al  Al9  1  0.331970  0.998207  0.921768  1
  Al  Al10  1  0.000147  0.337316  0.924661  1
  Al  Al11  1  0.667931  0.001805  0.078395  1
  Al  Al12  1  0.667931  0.001805  0.421605  1
  Al  Al13  1  0.331970  0.998207  0.578232  1
  Al  Al14  1  0.331245  0.333694  0.056767  1
  Al  Al15  1  0.668756  0.666207  0.943315  1
  Al  Al16  1  0.668756  0.666207  0.556685  1
  Al  Al17  1  0.331245  0.333694  0.443233  1
  Al  Al18  1  0.334283  0.547555  0.750000  1
  Al  Al19  1  0.665614  0.452304  0.250000  1
  Al  Al20  1  0.553829  0.344048  0.750000  1
  Al  Al21  1  0.446127  0.656016  0.250000  1
  Ir  Ir22  1  0.672863  0.328106  0.499563  1
  Ir  Ir23  1  0.327059  0.671884  0.500340  1
  Ir  Ir24  1  0.327059  0.671884  0.999660  1
  Ir  Ir25  1  0.672863  0.328106  0.000437  1
  Ir  Ir26  1  0.000087  0.000012  0.499945  1
  Ir  Ir27  1  0.000087  0.000012  0.000055  1
