# generated using pymatgen
data_P2I9Br
_symmetry_space_group_name_H-M   'P 1'
_cell_length_a   6.51011100
_cell_length_b   9.61763200
_cell_length_c   19.05087800
_cell_angle_alpha   90.00000000
_cell_angle_beta   90.00000000
_cell_angle_gamma   90.00000000
_symmetry_Int_Tables_number   1
_chemical_formula_structural   P2I9Br
_chemical_formula_sum   'P4 I18 Br2'
_cell_volume   1192.81075147
_cell_formula_units_Z   2
loop_
 _symmetry_equiv_pos_site_id
 _symmetry_equiv_pos_as_xyz
  1  'x, y, z'
loop_
 _atom_site_type_symbol
 _atom_site_label
 _atom_site_symmetry_multiplicity
 _atom_site_fract_x
 _atom_site_fract_y
 _atom_site_fract_z
 _atom_site_occupancy
  P  P0  1  0.039185  0.750000  0.637506  1
  P  P1  1  0.039185  0.250000  0.862494  1
  P  P2  1  0.965091  0.250000  0.364788  1
  P  P3  1  0.965091  0.750000  0.135212  1
  I  I4  1  0.184190  0.750000  0.241887  1
  I  I5  1  0.184190  0.250000  0.258113  1
  I  I6  1  0.821453  0.250000  0.755417  1
  I  I7  1  0.821453  0.750000  0.744583  1
  I  I8  1  0.754688  0.964787  0.129088  1
  I  I9  1  0.754688  0.035213  0.370912  1
  I  I10  1  0.249763  0.466314  0.869299  1
  I  I11  1  0.249763  0.533686  0.630701  1
  I  I12  1  0.249763  0.033686  0.869299  1
  I  I13  1  0.249763  0.966314  0.630701  1
  I  I14  1  0.754688  0.535213  0.129088  1
  I  I15  1  0.754688  0.464787  0.370912  1
  I  I16  1  0.481553  0.750000  0.384703  1
  I  I17  1  0.481553  0.250000  0.115297  1
  I  I18  1  0.517727  0.250000  0.613328  1
  I  I19  1  0.517727  0.750000  0.886672  1
  I  I20  1  0.808986  0.750000  0.535464  1
  I  I21  1  0.808986  0.250000  0.964536  1
  Br  Br22  1  0.172913  0.250000  0.457259  1
  Br  Br23  1  0.172913  0.750000  0.042741  1
