# generated using pymatgen
data_K4PtO4
_symmetry_space_group_name_H-M   'P 1'
_cell_length_a   5.62214256
_cell_length_b   5.62214196
_cell_length_c   6.24470390
_cell_angle_alpha   77.05245122
_cell_angle_beta   77.05244794
_cell_angle_gamma   69.52350159
_symmetry_Int_Tables_number   1
_chemical_formula_structural   K4PtO4
_chemical_formula_sum   'K4 Pt1 O4'
_cell_volume   177.90378577
_cell_formula_units_Z   1
loop_
 _symmetry_equiv_pos_site_id
 _symmetry_equiv_pos_as_xyz
  1  'x, y, z'
loop_
 _atom_site_type_symbol
 _atom_site_label
 _atom_site_symmetry_multiplicity
 _atom_site_fract_x
 _atom_site_fract_y
 _atom_site_fract_z
 _atom_site_occupancy
  K  K0  1  0.377332  0.377332  0.864339  1
  K  K1  1  0.807568  0.807568  0.582542  1
  K  K2  1  0.622668  0.622668  0.135661  1
  K  K3  1  0.192432  0.192432  0.417458  1
  Pt  Pt4  1  0.000000  0.000000  0.000000  1
  O  O5  1  0.895220  0.327976  0.797843  1
  O  O6  1  0.327976  0.895220  0.797843  1
  O  O7  1  0.672024  0.104780  0.202157  1
  O  O8  1  0.104780  0.672024  0.202157  1
