# generated using pymatgen
data_Tm5Lu11Cd4Ni3Ru
_symmetry_space_group_name_H-M   'P 1'
_cell_length_a   9.42650167
_cell_length_b   9.42524667
_cell_length_c   9.42524637
_cell_angle_alpha   59.78036646
_cell_angle_beta   59.77173882
_cell_angle_gamma   59.77173758
_symmetry_Int_Tables_number   1
_chemical_formula_structural   Tm5Lu11Cd4Ni3Ru
_chemical_formula_sum   'Tm5 Lu11 Cd4 Ni3 Ru1'
_cell_volume   589.10523216
_cell_formula_units_Z   1
loop_
 _symmetry_equiv_pos_site_id
 _symmetry_equiv_pos_as_xyz
  1  'x, y, z'
loop_
 _atom_site_type_symbol
 _atom_site_label
 _atom_site_symmetry_multiplicity
 _atom_site_fract_x
 _atom_site_fract_y
 _atom_site_fract_z
 _atom_site_occupancy
  Tm  Tm0  1  0.347905  0.348379  0.348379  1
  Tm  Tm1  1  0.350271  0.350166  0.955154  1
  Tm  Tm2  1  0.350271  0.955154  0.350166  1
  Tm  Tm3  1  0.955379  0.350309  0.350309  1
  Tm  Tm4  1  0.810979  0.187752  0.187752  1
  Lu  Lu5  1  0.187282  0.811180  0.811180  1
  Lu  Lu6  1  0.188005  0.810916  0.187624  1
  Lu  Lu7  1  0.811173  0.187279  0.810858  1
  Lu  Lu8  1  0.188005  0.187624  0.810916  1
  Lu  Lu9  1  0.811173  0.810858  0.187279  1
  Lu  Lu10  1  0.935461  0.564586  0.564586  1
  Lu  Lu11  1  0.559233  0.937810  0.937810  1
  Lu  Lu12  1  0.564430  0.935343  0.564805  1
  Lu  Lu13  1  0.937808  0.559525  0.937579  1
  Lu  Lu14  1  0.564430  0.564805  0.935343  1
  Lu  Lu15  1  0.937808  0.937579  0.559525  1
  Cd  Cd16  1  0.580982  0.580957  0.580957  1
  Cd  Cd17  1  0.581017  0.581172  0.255154  1
  Cd  Cd18  1  0.581017  0.255154  0.581172  1
  Cd  Cd19  1  0.255185  0.581056  0.581056  1
  Ni  Ni20  1  0.141775  0.141813  0.576355  1
  Ni  Ni21  1  0.141775  0.576355  0.141813  1
  Ni  Ni22  1  0.575955  0.141790  0.141790  1
  Ru  Ru23  1  0.142676  0.142438  0.142438  1
