# generated using pymatgen
data_Dy3Ga3GeIr2
_symmetry_space_group_name_H-M   'P 1'
_cell_length_a   7.17369200
_cell_length_b   7.17369192
_cell_length_c   3.98439900
_cell_angle_alpha   90.00000000
_cell_angle_beta   90.00000000
_cell_angle_gamma   119.99999912
_symmetry_Int_Tables_number   1
_chemical_formula_structural   Dy3Ga3GeIr2
_chemical_formula_sum   'Dy3 Ga3 Ge1 Ir2'
_cell_volume   177.57380727
_cell_formula_units_Z   1
loop_
 _symmetry_equiv_pos_site_id
 _symmetry_equiv_pos_as_xyz
  1  'x, y, z'
loop_
 _atom_site_type_symbol
 _atom_site_label
 _atom_site_symmetry_multiplicity
 _atom_site_fract_x
 _atom_site_fract_y
 _atom_site_fract_z
 _atom_site_occupancy
  Dy  Dy0  1  0.585169  0.994265  0.500001  1
  Dy  Dy1  1  0.409095  0.414830  0.500001  1
  Dy  Dy2  1  0.005735  0.590905  0.500001  1
  Ga  Ga3  1  0.235206  0.980865  0.000000  1
  Ga  Ga4  1  0.019135  0.254342  0.000000  1
  Ga  Ga5  1  0.745658  0.764793  0.000000  1
  Ge  Ge6  1  0.666666  0.333333  0.000000  1
  Ir  Ir7  1  0.333333  0.666667  0.000000  1
  Ir  Ir8  1  0.000000  0.000000  0.500001  1
