# generated using pymatgen
data_CeSi(AsRh2)3
_symmetry_space_group_name_H-M   'P 1'
_cell_length_a   7.22003500
_cell_length_b   7.22003549
_cell_length_c   3.84961300
_cell_angle_alpha   90.00000000
_cell_angle_beta   90.00000000
_cell_angle_gamma   120.00000235
_symmetry_Int_Tables_number   1
_chemical_formula_structural   CeSi(AsRh2)3
_chemical_formula_sum   'Ce1 Si1 As3 Rh6'
_cell_volume   173.79061846
_cell_formula_units_Z   1
loop_
 _symmetry_equiv_pos_site_id
 _symmetry_equiv_pos_as_xyz
  1  'x, y, z'
loop_
 _atom_site_type_symbol
 _atom_site_label
 _atom_site_symmetry_multiplicity
 _atom_site_fract_x
 _atom_site_fract_y
 _atom_site_fract_z
 _atom_site_occupancy
  Ce  Ce0  1  0.000000  0.000000  0.000000  1
  Si  Si1  1  0.333333  0.666667  0.000000  1
  As  As2  1  0.808177  0.191823  0.500000  1
  As  As3  1  0.383647  0.191823  0.500000  1
  As  As4  1  0.808177  0.616353  0.500000  1
  Rh  Rh5  1  0.201578  0.798422  0.500000  1
  Rh  Rh6  1  0.201578  0.403157  0.500000  1
  Rh  Rh7  1  0.531021  0.062044  0.000000  1
  Rh  Rh8  1  0.937956  0.468979  0.000000  1
  Rh  Rh9  1  0.531021  0.468979  0.000000  1
  Rh  Rh10  1  0.596843  0.798422  0.500000  1
