# generated using pymatgen
data_TbEr3Cr2(SbO7)2
_symmetry_space_group_name_H-M   'P 1'
_cell_length_a   7.25457319
_cell_length_b   7.22992277
_cell_length_c   7.31547335
_cell_angle_alpha   90.00009180
_cell_angle_beta   59.69342269
_cell_angle_gamma   119.88784682
_symmetry_Int_Tables_number   1
_chemical_formula_structural   TbEr3Cr2(SbO7)2
_chemical_formula_sum   'Tb1 Er3 Cr2 Sb2 O14'
_cell_volume   270.51180510
_cell_formula_units_Z   1
loop_
 _symmetry_equiv_pos_site_id
 _symmetry_equiv_pos_as_xyz
  1  'x, y, z'
loop_
 _atom_site_type_symbol
 _atom_site_label
 _atom_site_symmetry_multiplicity
 _atom_site_fract_x
 _atom_site_fract_y
 _atom_site_fract_z
 _atom_site_occupancy
  Tb  Tb0  1  0.999795  0.999862  0.000227  1
  Er  Er1  1  0.499988  0.500000  0.999927  1
  Er  Er2  1  0.500044  0.000039  0.999957  1
  Er  Er3  1  0.000177  0.000040  0.500022  1
  Cr  Cr4  1  0.499976  0.999999  0.500036  1
  Cr  Cr5  1  0.499973  0.499971  0.500002  1
  Sb  Sb6  1  0.000021  0.500026  0.999973  1
  Sb  Sb7  1  0.000023  0.499989  0.499951  1
  O  O8  1  0.258623  0.129313  0.123933  1
  O  O9  1  0.741376  0.870691  0.876098  1
  O  O10  1  0.682340  0.841162  0.410530  1
  O  O11  1  0.835979  0.418013  0.832090  1
  O  O12  1  0.253790  0.832306  0.837464  1
  O  O13  1  0.252671  0.420178  0.409487  1
  O  O14  1  0.253805  0.421536  0.837428  1
  O  O15  1  0.252653  0.832455  0.409543  1
  O  O16  1  0.317550  0.158768  0.589484  1
  O  O17  1  0.164120  0.582079  0.167829  1
  O  O18  1  0.746174  0.167762  0.162589  1
  O  O19  1  0.747386  0.579825  0.590403  1
  O  O20  1  0.746188  0.578458  0.162559  1
  O  O21  1  0.747350  0.167528  0.590468  1
