# generated using pymatgen
data_Ti13Al9(Co3Os)2
_symmetry_space_group_name_H-M   'P 1'
_cell_length_a   8.53846420
_cell_length_b   8.56397138
_cell_length_c   8.53846443
_cell_angle_alpha   59.81239186
_cell_angle_beta   60.17868144
_cell_angle_gamma   59.81240375
_symmetry_Int_Tables_number   1
_chemical_formula_structural   Ti13Al9(Co3Os)2
_chemical_formula_sum   'Ti13 Al9 Co6 Os2'
_cell_volume   440.82081153
_cell_formula_units_Z   1
loop_
 _symmetry_equiv_pos_site_id
 _symmetry_equiv_pos_as_xyz
  1  'x, y, z'
loop_
 _atom_site_type_symbol
 _atom_site_label
 _atom_site_symmetry_multiplicity
 _atom_site_fract_x
 _atom_site_fract_y
 _atom_site_fract_z
 _atom_site_occupancy
  Ti  Ti0  1  0.210398  0.202728  0.799697  1
  Ti  Ti1  1  0.799697  0.202728  0.210398  1
  Ti  Ti2  1  0.206493  0.805166  0.206493  1
  Ti  Ti3  1  0.799221  0.804834  0.173640  1
  Ti  Ti4  1  0.173640  0.804834  0.799221  1
  Ti  Ti5  1  0.801083  0.172010  0.801083  1
  Ti  Ti6  1  0.380171  0.383156  0.380171  1
  Ti  Ti7  1  0.385631  0.859609  0.385631  1
  Ti  Ti8  1  0.859399  0.387974  0.380504  1
  Ti  Ti9  1  0.380504  0.387974  0.859399  1
  Ti  Ti10  1  0.846664  0.462112  0.846664  1
  Ti  Ti11  1  0.469734  0.837465  0.839131  1
  Ti  Ti12  1  0.839131  0.837465  0.469734  1
  Al  Al13  1  0.157566  0.172159  0.157566  1
  Al  Al14  1  0.160621  0.528552  0.160621  1
  Al  Al15  1  0.522321  0.166649  0.164391  1
  Al  Al16  1  0.164391  0.166649  0.522321  1
  Al  Al17  1  0.621209  0.612665  0.621209  1
  Al  Al18  1  0.616535  0.145324  0.616535  1
  Al  Al19  1  0.146421  0.615213  0.617037  1
  Al  Al20  1  0.617037  0.615213  0.146421  1
  Al  Al21  1  0.827897  0.814315  0.827897  1
  Co  Co22  1  0.003474  0.501855  0.003474  1
  Co  Co23  1  0.500724  0.499895  0.002252  1
  Co  Co24  1  0.002252  0.499895  0.500724  1
  Co  Co25  1  0.500111  0.001794  0.500111  1
  Co  Co26  1  0.500617  0.501206  0.500617  1
  Co  Co27  1  0.002906  0.003181  0.002906  1
  Os  Os28  1  0.002589  0.003691  0.501562  1
  Os  Os29  1  0.501562  0.003691  0.002589  1
