# generated using pymatgen
data_Hf5TaAl7
_symmetry_space_group_name_H-M   'P 1'
_cell_length_a   5.28471057
_cell_length_b   5.28471160
_cell_length_c   10.15329686
_cell_angle_alpha   74.91535097
_cell_angle_beta   74.91534814
_cell_angle_gamma   59.99999629
_symmetry_Int_Tables_number   1
_chemical_formula_structural   Hf5TaAl7
_chemical_formula_sum   'Hf5 Ta1 Al7'
_cell_volume   234.22237092
_cell_formula_units_Z   1
loop_
 _symmetry_equiv_pos_site_id
 _symmetry_equiv_pos_as_xyz
  1  'x, y, z'
loop_
 _atom_site_type_symbol
 _atom_site_label
 _atom_site_symmetry_multiplicity
 _atom_site_fract_x
 _atom_site_fract_y
 _atom_site_fract_z
 _atom_site_occupancy
  Hf  Hf0  1  0.833836  0.833836  0.498494  1
  Hf  Hf1  1  0.164435  0.164435  0.506696  1
  Hf  Hf2  1  0.649477  0.649477  0.051570  1
  Hf  Hf3  1  0.351747  0.351747  0.944757  1
  Hf  Hf4  1  0.544335  0.544335  0.366994  1
  Ta  Ta5  1  0.453729  0.453729  0.638813  1
  Al  Al6  1  0.000227  0.000227  0.999322  1
  Al  Al7  1  0.907953  0.907953  0.769755  1
  Al  Al8  1  0.414338  0.907953  0.769755  1
  Al  Al9  1  0.907953  0.414338  0.769755  1
  Al  Al10  1  0.092771  0.092771  0.228029  1
  Al  Al11  1  0.586428  0.092771  0.228029  1
  Al  Al12  1  0.092771  0.586428  0.228029  1
