# generated using pymatgen
data_Li6MgU4FeO16
_symmetry_space_group_name_H-M   'P 1'
_cell_length_a   5.14369283
_cell_length_b   6.15074730
_cell_length_c   10.69150414
_cell_angle_alpha   88.43160799
_cell_angle_beta   90.30566572
_cell_angle_gamma   89.92339503
_symmetry_Int_Tables_number   1
_chemical_formula_structural   Li6MgU4FeO16
_chemical_formula_sum   'Li6 Mg1 U4 Fe1 O16'
_cell_volume   338.12114304
_cell_formula_units_Z   1
loop_
 _symmetry_equiv_pos_site_id
 _symmetry_equiv_pos_as_xyz
  1  'x, y, z'
loop_
 _atom_site_type_symbol
 _atom_site_label
 _atom_site_symmetry_multiplicity
 _atom_site_fract_x
 _atom_site_fract_y
 _atom_site_fract_z
 _atom_site_occupancy
  Li  Li0  1  0.540890  0.743888  0.923725  1
  Li  Li1  1  0.042637  0.256432  0.576356  1
  Li  Li2  1  0.459110  0.256112  0.076275  1
  Li  Li3  1  0.957363  0.743568  0.423644  1
  Li  Li4  1  0.500000  0.500000  0.500000  1
  Li  Li5  1  0.000000  0.500000  0.000000  1
  Mg  Mg6  1  0.000000  0.000000  0.000000  1
  U  U7  1  0.984097  0.748293  0.736460  1
  U  U8  1  0.485486  0.251755  0.764955  1
  U  U9  1  0.015903  0.251707  0.263540  1
  U  U10  1  0.514514  0.748245  0.235045  1
  Fe  Fe11  1  0.500000  0.000000  0.500000  1
  O  O12  1  0.175022  0.748521  0.902353  1
  O  O13  1  0.236634  0.232751  0.420197  1
  O  O14  1  0.268429  0.235617  0.918478  1
  O  O15  1  0.731571  0.764383  0.081522  1
  O  O16  1  0.255081  0.010518  0.160846  1
  O  O17  1  0.761411  0.988298  0.334589  1
  O  O18  1  0.726663  0.515693  0.833729  1
  O  O19  1  0.226805  0.485706  0.667395  1
  O  O20  1  0.744919  0.989482  0.839154  1
  O  O21  1  0.238589  0.011702  0.665411  1
  O  O22  1  0.273337  0.484307  0.166271  1
  O  O23  1  0.773195  0.514294  0.332605  1
  O  O24  1  0.824978  0.251479  0.097647  1
  O  O25  1  0.319763  0.740716  0.397697  1
  O  O26  1  0.763366  0.767249  0.579803  1
  O  O27  1  0.680237  0.259284  0.602303  1
