# generated using pymatgen
data_Na3NiF8
_symmetry_space_group_name_H-M   'P 1'
_cell_length_a   7.79795444
_cell_length_b   7.79795574
_cell_length_c   6.38101300
_cell_angle_alpha   90.00000000
_cell_angle_beta   90.00000000
_cell_angle_gamma   124.63064500
_symmetry_Int_Tables_number   1
_chemical_formula_structural   Na3NiF8
_chemical_formula_sum   'Na6 Ni2 F16'
_cell_volume   319.27325856
_cell_formula_units_Z   2
loop_
 _symmetry_equiv_pos_site_id
 _symmetry_equiv_pos_as_xyz
  1  'x, y, z'
loop_
 _atom_site_type_symbol
 _atom_site_label
 _atom_site_symmetry_multiplicity
 _atom_site_fract_x
 _atom_site_fract_y
 _atom_site_fract_z
 _atom_site_occupancy
  Na  Na0  1  0.321494  0.678506  0.750000  1
  Na  Na1  1  0.678506  0.321494  0.250000  1
  Na  Na2  1  0.342092  0.158091  0.750000  1
  Na  Na3  1  0.158091  0.342092  0.250000  1
  Na  Na4  1  0.657908  0.841909  0.250000  1
  Na  Na5  1  0.841909  0.657908  0.750000  1
  Ni  Ni6  1  0.844233  0.155767  0.750000  1
  Ni  Ni7  1  0.155767  0.844233  0.250000  1
  F  F8  1  0.757408  0.888740  0.750000  1
  F  F9  1  0.888740  0.757408  0.250000  1
  F  F10  1  0.242592  0.111260  0.250000  1
  F  F11  1  0.111260  0.242592  0.750000  1
  F  F12  1  0.574041  0.065606  0.750000  1
  F  F13  1  0.065606  0.574041  0.250000  1
  F  F14  1  0.425959  0.934394  0.250000  1
  F  F15  1  0.934394  0.425959  0.750000  1
  F  F16  1  0.844025  0.155975  0.034236  1
  F  F17  1  0.155975  0.844025  0.965764  1
  F  F18  1  0.844025  0.155975  0.465764  1
  F  F19  1  0.155975  0.844025  0.534236  1
  F  F20  1  0.571312  0.428688  0.972206  1
  F  F21  1  0.428688  0.571312  0.027794  1
  F  F22  1  0.571312  0.428688  0.527794  1
  F  F23  1  0.428688  0.571312  0.472206  1
