# generated using pymatgen
data_CsHfRhSe4
_symmetry_space_group_name_H-M   'P 1'
_cell_length_a   8.98434662
_cell_length_b   8.98434617
_cell_length_c   6.14087153
_cell_angle_alpha   78.10026293
_cell_angle_beta   78.10026242
_cell_angle_gamma   24.87150413
_symmetry_Int_Tables_number   1
_chemical_formula_structural   CsHfRhSe4
_chemical_formula_sum   'Cs1 Hf1 Rh1 Se4'
_cell_volume   203.77561934
_cell_formula_units_Z   1
loop_
 _symmetry_equiv_pos_site_id
 _symmetry_equiv_pos_as_xyz
  1  'x, y, z'
loop_
 _atom_site_type_symbol
 _atom_site_label
 _atom_site_symmetry_multiplicity
 _atom_site_fract_x
 _atom_site_fract_y
 _atom_site_fract_z
 _atom_site_occupancy
  Cs  Cs0  1  0.498139  0.498139  0.497987  1
  Hf  Hf1  1  0.754940  0.754940  0.198377  1
  Rh  Rh2  1  0.246898  0.246898  0.782277  1
  Se  Se3  1  0.352404  0.352404  0.027561  1
  Se  Se4  1  0.653955  0.653955  0.954257  1
  Se  Se5  1  0.821081  0.821081  0.569687  1
  Se  Se6  1  0.172581  0.172581  0.469854  1
