# generated using pymatgen
data_CeAlCdPt3
_symmetry_space_group_name_H-M   'P 1'
_cell_length_a   5.23999829
_cell_length_b   5.23999655
_cell_length_c   5.23999569
_cell_angle_alpha   63.95964661
_cell_angle_beta   63.95965017
_cell_angle_gamma   63.95965209
_symmetry_Int_Tables_number   1
_chemical_formula_structural   CeAlCdPt3
_chemical_formula_sum   'Ce1 Al1 Cd1 Pt3'
_cell_volume   110.61182383
_cell_formula_units_Z   1
loop_
 _symmetry_equiv_pos_site_id
 _symmetry_equiv_pos_as_xyz
  1  'x, y, z'
loop_
 _atom_site_type_symbol
 _atom_site_label
 _atom_site_symmetry_multiplicity
 _atom_site_fract_x
 _atom_site_fract_y
 _atom_site_fract_z
 _atom_site_occupancy
  Ce  Ce0  1  0.748932  0.748932  0.748932  1
  Al  Al1  1  0.125868  0.125868  0.125868  1
  Cd  Cd2  1  0.496013  0.496013  0.496013  1
  Pt  Pt3  1  0.623483  0.127852  0.127852  1
  Pt  Pt4  1  0.127852  0.623483  0.127852  1
  Pt  Pt5  1  0.127852  0.127852  0.623483  1
