# generated using pymatgen
data_Er5Si3Ir
_symmetry_space_group_name_H-M   'P 1'
_cell_length_a   7.09685000
_cell_length_b   7.86862200
_cell_length_c   14.48339800
_cell_angle_alpha   90.00000000
_cell_angle_beta   90.00000000
_cell_angle_gamma   90.00000000
_symmetry_Int_Tables_number   1
_chemical_formula_structural   Er5Si3Ir
_chemical_formula_sum   'Er20 Si12 Ir4'
_cell_volume   808.78813957
_cell_formula_units_Z   4
loop_
 _symmetry_equiv_pos_site_id
 _symmetry_equiv_pos_as_xyz
  1  'x, y, z'
loop_
 _atom_site_type_symbol
 _atom_site_label
 _atom_site_symmetry_multiplicity
 _atom_site_fract_x
 _atom_site_fract_y
 _atom_site_fract_z
 _atom_site_occupancy
  Er  Er0  1  0.689764  0.173974  0.627660  1
  Er  Er1  1  0.189764  0.326026  0.872340  1
  Er  Er2  1  0.310236  0.826026  0.127660  1
  Er  Er3  1  0.810236  0.673974  0.372340  1
  Er  Er4  1  0.310236  0.826026  0.372340  1
  Er  Er5  1  0.810236  0.673974  0.127660  1
  Er  Er6  1  0.689764  0.173974  0.872340  1
  Er  Er7  1  0.189764  0.326026  0.627660  1
  Er  Er8  1  0.512509  0.682896  0.593840  1
  Er  Er9  1  0.012509  0.817104  0.906160  1
  Er  Er10  1  0.487491  0.317104  0.093840  1
  Er  Er11  1  0.987491  0.182896  0.406160  1
  Er  Er12  1  0.487491  0.317104  0.406160  1
  Er  Er13  1  0.987491  0.182896  0.093840  1
  Er  Er14  1  0.512509  0.682896  0.906160  1
  Er  Er15  1  0.012509  0.817104  0.593840  1
  Er  Er16  1  0.834939  0.512376  0.750000  1
  Er  Er17  1  0.334939  0.987624  0.750000  1
  Er  Er18  1  0.165061  0.487624  0.250000  1
  Er  Er19  1  0.665061  0.012376  0.250000  1
  Si  Si20  1  0.653401  0.971652  0.461511  1
  Si  Si21  1  0.153401  0.528348  0.038489  1
  Si  Si22  1  0.346599  0.028348  0.961511  1
  Si  Si23  1  0.846599  0.471652  0.538489  1
  Si  Si24  1  0.346599  0.028348  0.538489  1
  Si  Si25  1  0.846599  0.471652  0.961511  1
  Si  Si26  1  0.653401  0.971652  0.038489  1
  Si  Si27  1  0.153401  0.528348  0.461511  1
  Si  Si28  1  0.735611  0.864087  0.750000  1
  Si  Si29  1  0.235611  0.635913  0.750000  1
  Si  Si30  1  0.264389  0.135913  0.250000  1
  Si  Si31  1  0.764389  0.364087  0.250000  1
  Ir  Ir32  1  0.482310  0.405587  0.750000  1
  Ir  Ir33  1  0.982310  0.094413  0.750000  1
  Ir  Ir34  1  0.517690  0.594413  0.250000  1
  Ir  Ir35  1  0.017690  0.905587  0.250000  1
