# generated using pymatgen
data_Lu6Mg(P3Rh5)4
_symmetry_space_group_name_H-M   'P 1'
_cell_length_a   13.37855300
_cell_length_b   13.37855159
_cell_length_c   3.89659800
_cell_angle_alpha   90.00000000
_cell_angle_beta   90.00000000
_cell_angle_gamma   119.99999607
_symmetry_Int_Tables_number   1
_chemical_formula_structural   Lu6Mg(P3Rh5)4
_chemical_formula_sum   'Lu6 Mg1 P12 Rh20'
_cell_volume   603.99659913
_cell_formula_units_Z   1
loop_
 _symmetry_equiv_pos_site_id
 _symmetry_equiv_pos_as_xyz
  1  'x, y, z'
loop_
 _atom_site_type_symbol
 _atom_site_label
 _atom_site_symmetry_multiplicity
 _atom_site_fract_x
 _atom_site_fract_y
 _atom_site_fract_z
 _atom_site_occupancy
  Lu  Lu0  1  0.528410  0.717441  0.250646  1
  Lu  Lu1  1  0.282559  0.810969  0.250646  1
  Lu  Lu2  1  0.189031  0.471590  0.250646  1
  Lu  Lu3  1  0.471590  0.282559  0.749354  1
  Lu  Lu4  1  0.717441  0.189031  0.749354  1
  Lu  Lu5  1  0.810969  0.528410  0.749354  1
  Mg  Mg6  1  0.000000  0.000000  0.000000  1
  P  P7  1  0.529478  0.139968  0.250319  1
  P  P8  1  0.860032  0.389510  0.250319  1
  P  P9  1  0.610490  0.470522  0.250319  1
  P  P10  1  0.946866  0.717172  0.245432  1
  P  P11  1  0.282828  0.229693  0.245432  1
  P  P12  1  0.770307  0.053134  0.245432  1
  P  P13  1  0.389510  0.529478  0.749681  1
  P  P14  1  0.470522  0.860032  0.749681  1
  P  P15  1  0.139968  0.610490  0.749681  1
  P  P16  1  0.717172  0.770307  0.754568  1
  P  P17  1  0.229693  0.946866  0.754568  1
  P  P18  1  0.053134  0.282828  0.754568  1
  Rh  Rh19  1  0.333333  0.666667  0.751260  1
  Rh  Rh20  1  0.917948  0.253922  0.244918  1
  Rh  Rh21  1  0.746078  0.664026  0.244918  1
  Rh  Rh22  1  0.335974  0.082052  0.244918  1
  Rh  Rh23  1  0.438518  0.021386  0.748409  1
  Rh  Rh24  1  0.978614  0.417131  0.748409  1
  Rh  Rh25  1  0.582869  0.561482  0.748409  1
  Rh  Rh26  1  0.666667  0.333333  0.248740  1
  Rh  Rh27  1  0.098662  0.208549  0.257865  1
  Rh  Rh28  1  0.791451  0.890113  0.257865  1
  Rh  Rh29  1  0.109887  0.901338  0.257865  1
  Rh  Rh30  1  0.021386  0.582869  0.251591  1
  Rh  Rh31  1  0.417131  0.438518  0.251591  1
  Rh  Rh32  1  0.561482  0.978614  0.251591  1
  Rh  Rh33  1  0.664026  0.917948  0.755082  1
  Rh  Rh34  1  0.082052  0.746078  0.755082  1
  Rh  Rh35  1  0.253922  0.335974  0.755082  1
  Rh  Rh36  1  0.901338  0.791451  0.742135  1
  Rh  Rh37  1  0.208549  0.109887  0.742135  1
  Rh  Rh38  1  0.890113  0.098662  0.742135  1
