# generated using pymatgen
data_Ac3La3OsI10
_symmetry_space_group_name_H-M   'P 1'
_cell_length_a   8.37461924
_cell_length_b   10.53907651
_cell_length_c   10.14843136
_cell_angle_alpha   108.00724357
_cell_angle_beta   97.26464057
_cell_angle_gamma   104.83048275
_symmetry_Int_Tables_number   1
_chemical_formula_structural   Ac3La3OsI10
_chemical_formula_sum   'Ac3 La3 Os1 I10'
_cell_volume   802.60493723
_cell_formula_units_Z   1
loop_
 _symmetry_equiv_pos_site_id
 _symmetry_equiv_pos_as_xyz
  1  'x, y, z'
loop_
 _atom_site_type_symbol
 _atom_site_label
 _atom_site_symmetry_multiplicity
 _atom_site_fract_x
 _atom_site_fract_y
 _atom_site_fract_z
 _atom_site_occupancy
  Ac  Ac0  1  0.462198  0.296987  0.592444  1
  Ac  Ac1  1  0.534225  0.701200  0.403794  1
  Ac  Ac2  1  0.861227  0.134350  0.685407  1
  La  La3  1  0.145306  0.869019  0.319143  1
  La  La4  1  0.387958  0.958477  0.722438  1
  La  La5  1  0.607227  0.038169  0.274636  1
  Os  Os6  1  0.495127  0.997893  0.497699  1
  I  I7  1  0.413800  0.637891  0.682246  1
  I  I8  1  0.588341  0.361521  0.316890  1
  I  I9  1  0.291287  0.252091  0.858505  1
  I  I10  1  0.720612  0.751348  0.147379  1
  I  I11  1  0.856826  0.459768  0.773904  1
  I  I12  1  0.139202  0.549023  0.226549  1
  I  I13  1  0.037826  0.171390  0.406816  1
  I  I14  1  0.248356  0.914832  0.040304  1
  I  I15  1  0.744077  0.081713  0.965355  1
  I  I16  1  0.966405  0.824326  0.586491  1
