# generated using pymatgen
data_Al6(PdPt)5
_symmetry_space_group_name_H-M   'P 1'
_cell_length_a   5.40787613
_cell_length_b   10.64171929
_cell_length_c   4.10644200
_cell_angle_alpha   90.00000000
_cell_angle_beta   90.00000000
_cell_angle_gamma   89.45628468
_symmetry_Int_Tables_number   1
_chemical_formula_structural   Al6(PdPt)5
_chemical_formula_sum   'Al6 Pd5 Pt5'
_cell_volume   236.31139947
_cell_formula_units_Z   1
loop_
 _symmetry_equiv_pos_site_id
 _symmetry_equiv_pos_as_xyz
  1  'x, y, z'
loop_
 _atom_site_type_symbol
 _atom_site_label
 _atom_site_symmetry_multiplicity
 _atom_site_fract_x
 _atom_site_fract_y
 _atom_site_fract_z
 _atom_site_occupancy
  Al  Al0  1  0.000000  0.000000  0.000000  1
  Al  Al1  1  0.500000  0.500000  0.000000  1
  Al  Al2  1  0.665097  0.142246  0.499999  1
  Al  Al3  1  0.164133  0.357744  0.499999  1
  Al  Al4  1  0.835866  0.642257  0.499999  1
  Al  Al5  1  0.334904  0.857753  0.499999  1
  Pd  Pd6  1  0.910001  0.233616  0.000000  1
  Pd  Pd7  1  0.408263  0.267714  0.000000  1
  Pd  Pd8  1  0.000000  0.500000  0.000000  1
  Pd  Pd9  1  0.591736  0.732285  0.000000  1
  Pd  Pd10  1  0.089998  0.766383  0.000000  1
  Pt  Pt11  1  0.500000  0.000000  0.000000  1
  Pt  Pt12  1  0.189072  0.106907  0.499999  1
  Pt  Pt13  1  0.690382  0.393561  0.499999  1
  Pt  Pt14  1  0.309619  0.606440  0.499999  1
  Pt  Pt15  1  0.810929  0.893093  0.499999  1
