# generated using pymatgen
data_Tb15Tm(ZnRh)4
_symmetry_space_group_name_H-M   'P 1'
_cell_length_a   9.51230607
_cell_length_b   9.51230623
_cell_length_c   9.51141900
_cell_angle_alpha   60.00308883
_cell_angle_beta   60.00308827
_cell_angle_gamma   59.89031398
_symmetry_Int_Tables_number   1
_chemical_formula_structural   Tb15Tm(ZnRh)4
_chemical_formula_sum   'Tb15 Tm1 Zn4 Rh4'
_cell_volume   608.08024020
_cell_formula_units_Z   1
loop_
 _symmetry_equiv_pos_site_id
 _symmetry_equiv_pos_as_xyz
  1  'x, y, z'
loop_
 _atom_site_type_symbol
 _atom_site_label
 _atom_site_symmetry_multiplicity
 _atom_site_fract_x
 _atom_site_fract_y
 _atom_site_fract_z
 _atom_site_occupancy
  Tb  Tb0  1  0.809128  0.190551  0.809852  1
  Tb  Tb1  1  0.191057  0.191057  0.808943  1
  Tb  Tb2  1  0.645967  0.061639  0.646197  1
  Tb  Tb3  1  0.064033  0.064033  0.435967  1
  Tb  Tb4  1  0.435715  0.435715  0.064285  1
  Tb  Tb5  1  0.646338  0.646338  0.646044  1
  Tb  Tb6  1  0.809128  0.190551  0.190468  1
  Tb  Tb7  1  0.190551  0.809128  0.809852  1
  Tb  Tb8  1  0.061639  0.645967  0.646197  1
  Tb  Tb9  1  0.436906  0.062934  0.064868  1
  Tb  Tb10  1  0.436906  0.062934  0.435292  1
  Tb  Tb11  1  0.062934  0.436906  0.064868  1
  Tb  Tb12  1  0.646338  0.646338  0.061280  1
  Tb  Tb13  1  0.190551  0.809128  0.190468  1
  Tb  Tb14  1  0.062934  0.436906  0.435292  1
  Tm  Tm15  1  0.809249  0.809249  0.190751  1
  Zn  Zn16  1  0.420385  0.420385  0.419455  1
  Zn  Zn17  1  0.420385  0.420385  0.739774  1
  Zn  Zn18  1  0.420810  0.740122  0.419533  1
  Zn  Zn19  1  0.740122  0.420810  0.419533  1
  Rh  Rh20  1  0.856359  0.430689  0.856476  1
  Rh  Rh21  1  0.855935  0.855935  0.859262  1
  Rh  Rh22  1  0.855935  0.855935  0.428868  1
  Rh  Rh23  1  0.430689  0.856359  0.856476  1
