# generated using pymatgen
data_Th6Ir2PdAu5
_symmetry_space_group_name_H-M   'P 1'
_cell_length_a   8.25616697
_cell_length_b   8.29546079
_cell_length_c   8.32834305
_cell_angle_alpha   114.89948812
_cell_angle_beta   113.94651721
_cell_angle_gamma   114.24475946
_symmetry_Int_Tables_number   1
_chemical_formula_structural   Th6Ir2PdAu5
_chemical_formula_sum   'Th6 Ir2 Pd1 Au5'
_cell_volume   336.98231495
_cell_formula_units_Z   1
loop_
 _symmetry_equiv_pos_site_id
 _symmetry_equiv_pos_as_xyz
  1  'x, y, z'
loop_
 _atom_site_type_symbol
 _atom_site_label
 _atom_site_symmetry_multiplicity
 _atom_site_fract_x
 _atom_site_fract_y
 _atom_site_fract_z
 _atom_site_occupancy
  Th  Th0  1  0.048635  0.405476  0.293635  1
  Th  Th1  1  0.397327  0.279295  0.037224  1
  Th  Th2  1  0.713597  0.959815  0.610713  1
  Th  Th3  1  0.282445  0.040524  0.393193  1
  Th  Th4  1  0.603677  0.716792  0.954596  1
  Th  Th5  1  0.960331  0.606493  0.716517  1
  Ir  Ir6  1  0.002687  0.003102  0.002450  1
  Ir  Ir7  1  0.499363  0.499328  0.497993  1
  Pd  Pd8  1  0.429022  0.937422  0.773520  1
  Au  Au9  1  0.942761  0.774647  0.435699  1
  Au  Au10  1  0.226061  0.566702  0.060309  1
  Au  Au11  1  0.770405  0.426634  0.936644  1
  Au  Au12  1  0.058290  0.223414  0.566539  1
  Au  Au13  1  0.565399  0.060357  0.220967  1
