# generated using pymatgen
data_K2Zr(PdS2)3
_symmetry_space_group_name_H-M   'P 1'
_cell_length_a   11.07506618
_cell_length_b   9.63943266
_cell_length_c   8.74527300
_cell_angle_alpha   73.90479405
_cell_angle_beta   56.74684378
_cell_angle_gamma   49.34834957
_symmetry_Int_Tables_number   1
_chemical_formula_structural   K2Zr(PdS2)3
_chemical_formula_sum   'K4 Zr2 Pd6 S12'
_cell_volume   587.61450597
_cell_formula_units_Z   2
loop_
 _symmetry_equiv_pos_site_id
 _symmetry_equiv_pos_as_xyz
  1  'x, y, z'
loop_
 _atom_site_type_symbol
 _atom_site_label
 _atom_site_symmetry_multiplicity
 _atom_site_fract_x
 _atom_site_fract_y
 _atom_site_fract_z
 _atom_site_occupancy
  K  K0  1  0.249968  0.250046  0.250029  1
  K  K1  1  0.750031  0.749952  0.749971  1
  K  K2  1  0.318062  0.682062  0.317904  1
  K  K3  1  0.681942  0.317940  0.682093  1
  Zr  Zr4  1  0.167900  0.167880  0.832097  1
  Zr  Zr5  1  0.832101  0.832120  0.167903  1
  Pd  Pd6  1  0.829954  0.170049  0.170058  1
  Pd  Pd7  1  0.170045  0.829951  0.829941  1
  Pd  Pd8  1  0.825932  0.496996  0.174030  1
  Pd  Pd9  1  0.496998  0.825923  0.503010  1
  Pd  Pd10  1  0.503002  0.174077  0.496990  1
  Pd  Pd11  1  0.174068  0.503003  0.825971  1
  S  S12  1  0.030484  0.178437  0.186356  1
  S  S13  1  0.178450  0.030482  0.604675  1
  S  S14  1  0.604734  0.186409  0.178431  1
  S  S15  1  0.186393  0.604710  0.030489  1
  S  S16  1  0.969515  0.821563  0.813643  1
  S  S17  1  0.821550  0.969519  0.395326  1
  S  S18  1  0.395268  0.813590  0.821568  1
  S  S19  1  0.813607  0.395289  0.969511  1
  S  S20  1  0.401096  0.184964  0.814975  1
  S  S21  1  0.184999  0.401100  0.598955  1
  S  S22  1  0.598903  0.815036  0.185027  1
  S  S23  1  0.814999  0.598901  0.401047  1
