# generated using pymatgen
data_Rb8Ba4Zr2Bi7Sb
_symmetry_space_group_name_H-M   'P 1'
_cell_length_a   11.67033436
_cell_length_b   11.64739596
_cell_length_c   8.80842453
_cell_angle_alpha   88.61541978
_cell_angle_beta   88.57868222
_cell_angle_gamma   60.51116802
_symmetry_Int_Tables_number   1
_chemical_formula_structural   Rb8Ba4Zr2Bi7Sb
_chemical_formula_sum   'Rb8 Ba4 Zr2 Bi7 Sb1'
_cell_volume   1041.79056038
_cell_formula_units_Z   1
loop_
 _symmetry_equiv_pos_site_id
 _symmetry_equiv_pos_as_xyz
  1  'x, y, z'
loop_
 _atom_site_type_symbol
 _atom_site_label
 _atom_site_symmetry_multiplicity
 _atom_site_fract_x
 _atom_site_fract_y
 _atom_site_fract_z
 _atom_site_occupancy
  Rb  Rb0  1  0.944140  0.528197  0.372953  1
  Rb  Rb1  1  0.526780  0.942475  0.370857  1
  Rb  Rb2  1  0.720859  0.133897  0.190154  1
  Rb  Rb3  1  0.136086  0.723604  0.187280  1
  Rb  Rb4  1  0.144865  0.136742  0.207250  1
  Rb  Rb5  1  0.276111  0.865019  0.697329  1
  Rb  Rb6  1  0.864683  0.275676  0.689914  1
  Rb  Rb7  1  0.854061  0.855322  0.653564  1
  Ba  Ba8  1  0.525986  0.531888  0.369140  1
  Ba  Ba9  1  0.051018  0.477792  0.878316  1
  Ba  Ba10  1  0.476898  0.050882  0.878175  1
  Ba  Ba11  1  0.477234  0.479299  0.869631  1
  Zr  Zr12  1  0.334523  0.334894  0.486406  1
  Zr  Zr13  1  0.664392  0.666117  0.983723  1
  Bi  Bi14  1  0.799631  0.393268  0.093009  1
  Bi  Bi15  1  0.804374  0.804522  0.061332  1
  Bi  Bi16  1  0.599889  0.208164  0.600201  1
  Bi  Bi17  1  0.207053  0.601932  0.599447  1
  Bi  Bi18  1  0.202636  0.202605  0.618940  1
  Bi  Bi19  1  0.336446  0.337167  0.149024  1
  Bi  Bi20  1  0.653761  0.655925  0.656201  1
  Sb  Sb21  1  0.399188  0.795228  0.089972  1
