# generated using pymatgen
data_LaPr3Ho4(HgIr)2
_symmetry_space_group_name_H-M   'P 1'
_cell_length_a   9.76374719
_cell_length_b   9.76374647
_cell_length_c   9.75750815
_cell_angle_alpha   60.38460544
_cell_angle_beta   60.38460952
_cell_angle_gamma   60.44573124
_symmetry_Int_Tables_number   1
_chemical_formula_structural   LaPr3Ho4(HgIr)2
_chemical_formula_sum   'La2 Pr6 Ho8 Hg4 Ir4'
_cell_volume   663.76733768
_cell_formula_units_Z   2
loop_
 _symmetry_equiv_pos_site_id
 _symmetry_equiv_pos_as_xyz
  1  'x, y, z'
loop_
 _atom_site_type_symbol
 _atom_site_label
 _atom_site_symmetry_multiplicity
 _atom_site_fract_x
 _atom_site_fract_y
 _atom_site_fract_z
 _atom_site_occupancy
  La  La0  1  0.349156  0.349156  0.351341  1
  La  La1  1  0.349545  0.349545  0.950108  1
  Pr  Pr2  1  0.941506  0.559990  0.558570  1
  Pr  Pr3  1  0.557889  0.941438  0.941592  1
  Pr  Pr4  1  0.559990  0.941506  0.558570  1
  Pr  Pr5  1  0.941438  0.557889  0.941592  1
  Pr  Pr6  1  0.561595  0.561595  0.938476  1
  Pr  Pr7  1  0.943379  0.943379  0.556413  1
  Ho  Ho8  1  0.349794  0.947763  0.350742  1
  Ho  Ho9  1  0.947763  0.349794  0.350742  1
  Ho  Ho10  1  0.814367  0.186350  0.186641  1
  Ho  Ho11  1  0.185697  0.814239  0.812329  1
  Ho  Ho12  1  0.186350  0.814367  0.186641  1
  Ho  Ho13  1  0.814239  0.185697  0.812329  1
  Ho  Ho14  1  0.184632  0.184632  0.814914  1
  Ho  Ho15  1  0.812024  0.812024  0.186873  1
  Hg  Hg16  1  0.584579  0.584579  0.578326  1
  Hg  Hg17  1  0.585285  0.585285  0.251762  1
  Hg  Hg18  1  0.587853  0.250855  0.581346  1
  Hg  Hg19  1  0.250855  0.587853  0.581346  1
  Ir  Ir20  1  0.138317  0.138317  0.146371  1
  Ir  Ir21  1  0.138373  0.138373  0.577429  1
  Ir  Ir22  1  0.135430  0.579943  0.142773  1
  Ir  Ir23  1  0.579943  0.135430  0.142773  1
