# generated using pymatgen
data_La5Os2
_symmetry_space_group_name_H-M   'P 1'
_cell_length_a   9.05398160
_cell_length_b   9.05398154
_cell_length_c   7.46576312
_cell_angle_alpha   84.64866775
_cell_angle_beta   84.64866845
_cell_angle_gamma   43.91992877
_symmetry_Int_Tables_number   1
_chemical_formula_structural   La5Os2
_chemical_formula_sum   'La10 Os4'
_cell_volume   422.36540594
_cell_formula_units_Z   2
loop_
 _symmetry_equiv_pos_site_id
 _symmetry_equiv_pos_as_xyz
  1  'x, y, z'
loop_
 _atom_site_type_symbol
 _atom_site_label
 _atom_site_symmetry_multiplicity
 _atom_site_fract_x
 _atom_site_fract_y
 _atom_site_fract_z
 _atom_site_occupancy
  La  La0  1  0.018402  0.797937  0.907710  1
  La  La1  1  0.202063  0.981598  0.592290  1
  La  La2  1  0.981598  0.202063  0.092290  1
  La  La3  1  0.797937  0.018402  0.407710  1
  La  La4  1  0.360831  0.208163  0.817799  1
  La  La5  1  0.791837  0.639169  0.682201  1
  La  La6  1  0.639169  0.791837  0.182201  1
  La  La7  1  0.208163  0.360831  0.317799  1
  La  La8  1  0.575813  0.424187  0.750000  1
  La  La9  1  0.424187  0.575813  0.250000  1
  Os  Os10  1  0.176302  0.602253  0.577077  1
  Os  Os11  1  0.397747  0.823698  0.922923  1
  Os  Os12  1  0.823698  0.397747  0.422923  1
  Os  Os13  1  0.602253  0.176302  0.077077  1
