# generated using pymatgen
data_Ho4MnTcC4
_symmetry_space_group_name_H-M   'P 1'
_cell_length_a   5.05627900
_cell_length_b   6.44295628
_cell_length_c   9.73490913
_cell_angle_alpha   89.21923057
_cell_angle_beta   90.00000000
_cell_angle_gamma   90.00000000
_symmetry_Int_Tables_number   1
_chemical_formula_structural   Ho4MnTcC4
_chemical_formula_sum   'Ho8 Mn2 Tc2 C8'
_cell_volume   317.10843280
_cell_formula_units_Z   2
loop_
 _symmetry_equiv_pos_site_id
 _symmetry_equiv_pos_as_xyz
  1  'x, y, z'
loop_
 _atom_site_type_symbol
 _atom_site_label
 _atom_site_symmetry_multiplicity
 _atom_site_fract_x
 _atom_site_fract_y
 _atom_site_fract_z
 _atom_site_occupancy
  Ho  Ho0  1  0.250000  0.678387  0.554193  1
  Ho  Ho1  1  0.750000  0.321613  0.445807  1
  Ho  Ho2  1  0.750000  0.818919  0.058694  1
  Ho  Ho3  1  0.250000  0.181081  0.941306  1
  Ho  Ho4  1  0.250000  0.529305  0.215677  1
  Ho  Ho5  1  0.750000  0.470695  0.784323  1
  Ho  Ho6  1  0.750000  0.972737  0.714798  1
  Ho  Ho7  1  0.250000  0.027263  0.285202  1
  Mn  Mn8  1  0.750000  0.774639  0.362234  1
  Mn  Mn9  1  0.250000  0.225361  0.637766  1
  Tc  Tc10  1  0.250000  0.722573  0.861973  1
  Tc  Tc11  1  0.750000  0.277427  0.138027  1
  C  C12  1  0.250000  0.450031  0.753806  1
  C  C13  1  0.750000  0.549969  0.246194  1
  C  C14  1  0.750000  0.034386  0.265032  1
  C  C15  1  0.250000  0.965614  0.734968  1
  C  C16  1  0.250000  0.820464  0.048758  1
  C  C17  1  0.750000  0.179536  0.951242  1
  C  C18  1  0.750000  0.687571  0.537625  1
  C  C19  1  0.250000  0.312429  0.462375  1
