# generated using pymatgen
data_Zr3Ti2Pt3
_symmetry_space_group_name_H-M   'P 1'
_cell_length_a   5.17157000
_cell_length_b   8.15362571
_cell_length_c   8.15254456
_cell_angle_alpha   120.00438344
_cell_angle_beta   90.00000000
_cell_angle_gamma   90.00000000
_symmetry_Int_Tables_number   1
_chemical_formula_structural   Zr3Ti2Pt3
_chemical_formula_sum   'Zr6 Ti4 Pt6'
_cell_volume   297.69929579
_cell_formula_units_Z   2
loop_
 _symmetry_equiv_pos_site_id
 _symmetry_equiv_pos_as_xyz
  1  'x, y, z'
loop_
 _atom_site_type_symbol
 _atom_site_label
 _atom_site_symmetry_multiplicity
 _atom_site_fract_x
 _atom_site_fract_y
 _atom_site_fract_z
 _atom_site_occupancy
  Zr  Zr0  1  0.750004  0.249381  0.000000  1
  Zr  Zr1  1  0.750000  0.750602  0.750601  1
  Zr  Zr2  1  0.750000  0.000000  0.249399  1
  Zr  Zr3  1  0.250004  0.750619  0.000000  1
  Zr  Zr4  1  0.250000  0.249398  0.249399  1
  Zr  Zr5  1  0.250000  0.000000  0.750601  1
  Ti  Ti6  1  0.499999  0.333342  0.666691  1
  Ti  Ti7  1  0.499999  0.666651  0.333309  1
  Ti  Ti8  1  0.999999  0.666658  0.333309  1
  Ti  Ti9  1  0.999999  0.333349  0.666691  1
  Pt  Pt10  1  0.750001  0.594721  0.000000  1
  Pt  Pt11  1  0.749998  0.405292  0.405304  1
  Pt  Pt12  1  0.749998  0.999989  0.594696  1
  Pt  Pt13  1  0.250001  0.405279  0.000000  1
  Pt  Pt14  1  0.249998  0.594708  0.594696  1
  Pt  Pt15  1  0.249998  0.000011  0.405304  1
