# generated using pymatgen
data_Yb3GeAs(PN2)6
_symmetry_space_group_name_H-M   'P 1'
_cell_length_a   7.52369370
_cell_length_b   7.51040810
_cell_length_c   7.52369471
_cell_angle_alpha   109.43544142
_cell_angle_beta   109.50696397
_cell_angle_gamma   109.43546509
_symmetry_Int_Tables_number   1
_chemical_formula_structural   Yb3GeAs(PN2)6
_chemical_formula_sum   'Yb3 Ge1 As1 P6 N12'
_cell_volume   327.41263348
_cell_formula_units_Z   1
loop_
 _symmetry_equiv_pos_site_id
 _symmetry_equiv_pos_as_xyz
  1  'x, y, z'
loop_
 _atom_site_type_symbol
 _atom_site_label
 _atom_site_symmetry_multiplicity
 _atom_site_fract_x
 _atom_site_fract_y
 _atom_site_fract_z
 _atom_site_occupancy
  Yb  Yb0  1  0.629931  0.630478  0.629931  1
  Yb  Yb1  1  0.370069  0.000547  0.000000  1
  Yb  Yb2  1  0.000000  0.000547  0.370069  1
  Ge  Ge3  1  0.000000  0.355955  0.000000  1
  As  As4  1  0.000000  0.033910  0.000000  1
  P  P5  1  0.752106  0.249197  0.500857  1
  P  P6  1  0.251248  0.748341  0.499143  1
  P  P7  1  0.499143  0.748341  0.251248  1
  P  P8  1  0.500857  0.249197  0.752106  1
  P  P9  1  0.748752  0.497091  0.247894  1
  P  P10  1  0.247894  0.497091  0.748752  1
  N  N11  1  0.595361  0.296821  0.000000  1
  N  N12  1  0.401742  0.400359  0.701990  1
  N  N13  1  0.000000  0.296821  0.595361  1
  N  N14  1  0.300247  0.998617  0.598258  1
  N  N15  1  0.701990  0.400359  0.401742  1
  N  N16  1  0.000000  0.596604  0.290301  1
  N  N17  1  0.598258  0.998617  0.300247  1
  N  N18  1  0.404639  0.701459  0.404639  1
  N  N19  1  0.290301  0.596604  0.000000  1
  N  N20  1  0.709699  0.306303  0.709699  1
  N  N21  1  0.699753  0.698369  0.298010  1
  N  N22  1  0.298010  0.698369  0.699753  1
