# generated using pymatgen
data_Zr8Mn7Si14Tc
_symmetry_space_group_name_H-M   'P 1'
_cell_length_a   5.18935475
_cell_length_b   9.67409669
_cell_length_c   9.65206074
_cell_angle_alpha   85.84454702
_cell_angle_beta   74.46666756
_cell_angle_gamma   74.29694225
_symmetry_Int_Tables_number   1
_chemical_formula_structural   Zr8Mn7Si14Tc
_chemical_formula_sum   'Zr8 Mn7 Si14 Tc1'
_cell_volume   449.43297405
_cell_formula_units_Z   1
loop_
 _symmetry_equiv_pos_site_id
 _symmetry_equiv_pos_as_xyz
  1  'x, y, z'
loop_
 _atom_site_type_symbol
 _atom_site_label
 _atom_site_symmetry_multiplicity
 _atom_site_fract_x
 _atom_site_fract_y
 _atom_site_fract_z
 _atom_site_occupancy
  Zr  Zr0  1  0.191685  0.804161  0.803453  1
  Zr  Zr1  1  0.798506  0.195255  0.196164  1
  Zr  Zr2  1  0.004568  0.195504  0.803464  1
  Zr  Zr3  1  0.006034  0.804475  0.196138  1
  Zr  Zr4  1  0.363017  0.999956  0.276114  1
  Zr  Zr5  1  0.638489  0.000159  0.720682  1
  Zr  Zr6  1  0.640256  0.723482  0.999639  1
  Zr  Zr7  1  0.359612  0.277273  0.999413  1
  Mn  Mn8  1  0.598837  0.500258  0.800568  1
  Mn  Mn9  1  0.105059  0.500100  0.787684  1
  Mn  Mn10  1  0.600518  0.803160  0.500637  1
  Mn  Mn11  1  0.903556  0.500074  0.193902  1
  Mn  Mn12  1  0.392250  0.213587  0.499979  1
  Mn  Mn13  1  0.898501  0.197897  0.500721  1
  Mn  Mn14  1  0.108809  0.784576  0.500286  1
  Si  Si15  1  0.450371  0.594031  0.592361  1
  Si  Si16  1  0.636928  0.408315  0.410745  1
  Si  Si17  1  0.955728  0.406042  0.593114  1
  Si  Si18  1  0.954029  0.591696  0.411359  1
  Si  Si19  1  0.250748  0.999534  0.998906  1
  Si  Si20  1  0.750329  0.000602  0.998796  1
  Si  Si21  1  0.182801  0.292412  0.296393  1
  Si  Si22  1  0.778695  0.703906  0.703886  1
  Si  Si23  1  0.521513  0.707649  0.296482  1
  Si  Si24  1  0.516385  0.296497  0.703701  1
  Si  Si25  1  0.206710  0.999501  0.580353  1
  Si  Si26  1  0.794737  0.999599  0.417867  1
  Si  Si27  1  0.782908  0.417154  0.998332  1
  Si  Si28  1  0.218176  0.583098  0.998359  1
  Tc  Tc29  1  0.390248  0.500050  0.220501  1
