# generated using pymatgen
data_NaP4RhO12
_symmetry_space_group_name_H-M   'P 1'
_cell_length_a   10.53613233
_cell_length_b   10.53613227
_cell_length_c   5.18547299
_cell_angle_alpha   80.91973493
_cell_angle_beta   80.91972638
_cell_angle_gamma   71.03078274
_symmetry_Int_Tables_number   1
_chemical_formula_structural   NaP4RhO12
_chemical_formula_sum   'Na2 P8 Rh2 O24'
_cell_volume   534.04827677
_cell_formula_units_Z   2
loop_
 _symmetry_equiv_pos_site_id
 _symmetry_equiv_pos_as_xyz
  1  'x, y, z'
loop_
 _atom_site_type_symbol
 _atom_site_label
 _atom_site_symmetry_multiplicity
 _atom_site_fract_x
 _atom_site_fract_y
 _atom_site_fract_z
 _atom_site_occupancy
  Na  Na0  1  0.420625  0.420625  0.689948  1
  Na  Na1  1  0.579375  0.579375  0.310052  1
  P  P2  1  0.790154  0.363508  0.833532  1
  P  P3  1  0.066444  0.307838  0.532669  1
  P  P4  1  0.307838  0.066444  0.532669  1
  P  P5  1  0.636492  0.209846  0.166468  1
  P  P6  1  0.363508  0.790154  0.833532  1
  P  P7  1  0.692162  0.933556  0.467331  1
  P  P8  1  0.933556  0.692162  0.467331  1
  P  P9  1  0.209846  0.636492  0.166468  1
  Rh  Rh10  1  0.500000  0.000000  0.000000  1
  Rh  Rh11  1  0.000000  0.500000  0.000000  1
  O  O12  1  0.440708  0.830552  0.016007  1
  O  O13  1  0.404832  0.101265  0.676550  1
  O  O14  1  0.435151  0.669288  0.695561  1
  O  O15  1  0.169448  0.559292  0.983993  1
  O  O16  1  0.559292  0.169448  0.983993  1
  O  O17  1  0.911419  0.671059  0.764114  1
  O  O18  1  0.223893  0.776107  0.000000  1
  O  O19  1  0.564849  0.330712  0.304439  1
  O  O20  1  0.595168  0.898735  0.323450  1
  O  O21  1  0.703580  0.080284  0.369824  1
  O  O22  1  0.330712  0.564849  0.304439  1
  O  O23  1  0.898735  0.595168  0.323450  1
  O  O24  1  0.830552  0.440708  0.016007  1
  O  O25  1  0.080284  0.703580  0.369824  1
  O  O26  1  0.155194  0.155194  0.617800  1
  O  O27  1  0.101265  0.404832  0.676550  1
  O  O28  1  0.669288  0.435151  0.695561  1
  O  O29  1  0.296420  0.919716  0.630176  1
  O  O30  1  0.776107  0.223893  0.000000  1
  O  O31  1  0.328941  0.088581  0.235886  1
  O  O32  1  0.671059  0.911419  0.764114  1
  O  O33  1  0.844806  0.844806  0.382200  1
  O  O34  1  0.919716  0.296420  0.630176  1
  O  O35  1  0.088581  0.328941  0.235886  1
