# generated using pymatgen
data_KSrMnN3
_symmetry_space_group_name_H-M   'P 1'
_cell_length_a   6.30986418
_cell_length_b   6.30986429
_cell_length_c   12.35382200
_cell_angle_alpha   90.00000000
_cell_angle_beta   90.00000000
_cell_angle_gamma   127.33543156
_symmetry_Int_Tables_number   1
_chemical_formula_structural   KSrMnN3
_chemical_formula_sum   'K4 Sr4 Mn4 N12'
_cell_volume   391.07706883
_cell_formula_units_Z   4
loop_
 _symmetry_equiv_pos_site_id
 _symmetry_equiv_pos_as_xyz
  1  'x, y, z'
loop_
 _atom_site_type_symbol
 _atom_site_label
 _atom_site_symmetry_multiplicity
 _atom_site_fract_x
 _atom_site_fract_y
 _atom_site_fract_z
 _atom_site_occupancy
  K  K0  1  0.547156  0.452844  0.641337  1
  K  K1  1  0.452844  0.547156  0.358663  1
  K  K2  1  0.952844  0.047156  0.141337  1
  K  K3  1  0.047156  0.952844  0.858663  1
  Sr  Sr4  1  0.849653  0.150347  0.583994  1
  Sr  Sr5  1  0.150347  0.849653  0.416006  1
  Sr  Sr6  1  0.650347  0.349653  0.083994  1
  Sr  Sr7  1  0.349653  0.650347  0.916006  1
  Mn  Mn8  1  0.728122  0.271878  0.834099  1
  Mn  Mn9  1  0.271878  0.728122  0.165901  1
  Mn  Mn10  1  0.771878  0.228122  0.334099  1
  Mn  Mn11  1  0.228122  0.771878  0.665901  1
  N  N12  1  0.819275  0.180725  0.943581  1
  N  N13  1  0.180725  0.819275  0.056419  1
  N  N14  1  0.680725  0.319275  0.443581  1
  N  N15  1  0.319275  0.680725  0.556419  1
  N  N16  1  0.587088  0.412912  0.874759  1
  N  N17  1  0.412912  0.587088  0.125241  1
  N  N18  1  0.912912  0.087088  0.374759  1
  N  N19  1  0.087088  0.912912  0.625241  1
  N  N20  1  0.512479  0.987521  0.750000  1
  N  N21  1  0.987521  0.512479  0.250000  1
  N  N22  1  0.487521  0.012479  0.250000  1
  N  N23  1  0.012479  0.487521  0.750000  1
