# generated using pymatgen
data_Y5In2SbSe
_symmetry_space_group_name_H-M   'P 1'
_cell_length_a   9.15656700
_cell_length_b   9.15656736
_cell_length_c   6.82679700
_cell_angle_alpha   90.00000000
_cell_angle_beta   90.00000000
_cell_angle_gamma   120.19173211
_symmetry_Int_Tables_number   1
_chemical_formula_structural   Y5In2SbSe
_chemical_formula_sum   'Y10 In4 Sb2 Se2'
_cell_volume   494.73277299
_cell_formula_units_Z   2
loop_
 _symmetry_equiv_pos_site_id
 _symmetry_equiv_pos_as_xyz
  1  'x, y, z'
loop_
 _atom_site_type_symbol
 _atom_site_label
 _atom_site_symmetry_multiplicity
 _atom_site_fract_x
 _atom_site_fract_y
 _atom_site_fract_z
 _atom_site_occupancy
  Y  Y0  1  0.667436  0.333005  0.997077  1
  Y  Y1  1  0.333005  0.667436  0.997077  1
  Y  Y2  1  0.333005  0.667436  0.502923  1
  Y  Y3  1  0.667436  0.333005  0.502923  1
  Y  Y4  1  0.749119  0.749119  0.750000  1
  Y  Y5  1  0.250317  0.998431  0.750000  1
  Y  Y6  1  0.998431  0.250317  0.750000  1
  Y  Y7  1  0.249728  0.249728  0.250000  1
  Y  Y8  1  0.748156  0.999345  0.250000  1
  Y  Y9  1  0.999345  0.748156  0.250000  1
  In  In10  1  0.400494  0.400494  0.750000  1
  In  In11  1  0.603061  0.000535  0.750000  1
  In  In12  1  0.000535  0.603061  0.750000  1
  In  In13  1  0.599643  0.599643  0.250000  1
  Sb  Sb14  1  0.398001  0.000919  0.250000  1
  Sb  Sb15  1  0.000919  0.398001  0.250000  1
  Se  Se16  1  0.000685  0.000685  0.001044  1
  Se  Se17  1  0.000685  0.000685  0.498956  1
