# generated using pymatgen
data_SmThCoB10
_symmetry_space_group_name_H-M   'P 1'
_cell_length_a   4.17735500
_cell_length_b   5.61261679
_cell_length_c   11.19819259
_cell_angle_alpha   90.21420575
_cell_angle_beta   90.00000000
_cell_angle_gamma   90.00000000
_symmetry_Int_Tables_number   1
_chemical_formula_structural   SmThCoB10
_chemical_formula_sum   'Sm2 Th2 Co2 B20'
_cell_volume   262.54978844
_cell_formula_units_Z   2
loop_
 _symmetry_equiv_pos_site_id
 _symmetry_equiv_pos_as_xyz
  1  'x, y, z'
loop_
 _atom_site_type_symbol
 _atom_site_label
 _atom_site_symmetry_multiplicity
 _atom_site_fract_x
 _atom_site_fract_y
 _atom_site_fract_z
 _atom_site_occupancy
  Sm  Sm0  1  0.500000  0.302479  0.866965  1
  Sm  Sm1  1  0.500000  0.697521  0.133035  1
  Th  Th2  1  0.500000  0.802498  0.636217  1
  Th  Th3  1  0.500000  0.197502  0.363783  1
  Co  Co4  1  0.000000  0.500000  0.500000  1
  Co  Co5  1  0.000000  0.000000  0.000000  1
  B  B6  1  0.000000  0.126830  0.540411  1
  B  B7  1  0.000000  0.873170  0.459589  1
  B  B8  1  0.000000  0.627200  0.960044  1
  B  B9  1  0.000000  0.372800  0.039956  1
  B  B10  1  0.000000  0.153219  0.697800  1
  B  B11  1  0.000000  0.846781  0.302200  1
  B  B12  1  0.299877  0.201486  0.112497  1
  B  B13  1  0.299877  0.798514  0.887503  1
  B  B14  1  0.699717  0.701107  0.385979  1
  B  B15  1  0.699717  0.298893  0.614021  1
  B  B16  1  0.700123  0.798514  0.887503  1
  B  B17  1  0.700123  0.201486  0.112497  1
  B  B18  1  0.300283  0.298893  0.614021  1
  B  B19  1  0.300283  0.701107  0.385979  1
  B  B20  1  0.000000  0.033874  0.186487  1
  B  B21  1  0.000000  0.966126  0.813513  1
  B  B22  1  0.000000  0.534265  0.312774  1
  B  B23  1  0.000000  0.465735  0.687226  1
  B  B24  1  0.000000  0.345195  0.196885  1
  B  B25  1  0.000000  0.654805  0.803115  1
