# generated using pymatgen
data_Pr7Nd2ThRh8
_symmetry_space_group_name_H-M   'P 1'
_cell_length_a   7.65752200
_cell_length_b   7.75255293
_cell_length_c   15.03402371
_cell_angle_alpha   90.15400217
_cell_angle_beta   90.00000000
_cell_angle_gamma   90.00000000
_symmetry_Int_Tables_number   1
_chemical_formula_structural   Pr7Nd2ThRh8
_chemical_formula_sum   'Pr14 Nd4 Th2 Rh16'
_cell_volume   892.49677490
_cell_formula_units_Z   2
loop_
 _symmetry_equiv_pos_site_id
 _symmetry_equiv_pos_as_xyz
  1  'x, y, z'
loop_
 _atom_site_type_symbol
 _atom_site_label
 _atom_site_symmetry_multiplicity
 _atom_site_fract_x
 _atom_site_fract_y
 _atom_site_fract_z
 _atom_site_occupancy
  Pr  Pr0  1  0.336341  0.832678  0.121648  1
  Pr  Pr1  1  0.836341  0.667322  0.378352  1
  Pr  Pr2  1  0.335204  0.832574  0.378707  1
  Pr  Pr3  1  0.835204  0.667426  0.121293  1
  Pr  Pr4  1  0.663518  0.166215  0.878633  1
  Pr  Pr5  1  0.163518  0.333785  0.621367  1
  Pr  Pr6  1  0.515694  0.682081  0.593050  1
  Pr  Pr7  1  0.015694  0.817919  0.906950  1
  Pr  Pr8  1  0.485962  0.316756  0.094577  1
  Pr  Pr9  1  0.985962  0.183244  0.405423  1
  Pr  Pr10  1  0.485056  0.320903  0.405186  1
  Pr  Pr11  1  0.985056  0.179097  0.094814  1
  Pr  Pr12  1  0.516130  0.683119  0.907589  1
  Pr  Pr13  1  0.016130  0.816881  0.592411  1
  Nd  Nd14  1  0.823005  0.513695  0.750065  1
  Nd  Nd15  1  0.323005  0.986305  0.749935  1
  Nd  Nd16  1  0.173739  0.490100  0.249637  1
  Nd  Nd17  1  0.673739  0.009900  0.250363  1
  Th  Th18  1  0.664013  0.163402  0.621677  1
  Th  Th19  1  0.164013  0.336598  0.878323  1
  Rh  Rh20  1  0.683160  0.973699  0.465405  1
  Rh  Rh21  1  0.183160  0.526301  0.034595  1
  Rh  Rh22  1  0.314485  0.046044  0.957460  1
  Rh  Rh23  1  0.814485  0.453956  0.542540  1
  Rh  Rh24  1  0.337189  0.033145  0.545532  1
  Rh  Rh25  1  0.837189  0.466855  0.954468  1
  Rh  Rh26  1  0.670131  0.970276  0.043133  1
  Rh  Rh27  1  0.170131  0.529724  0.456867  1
  Rh  Rh28  1  0.458019  0.384370  0.750727  1
  Rh  Rh29  1  0.958019  0.115630  0.749273  1
  Rh  Rh30  1  0.540269  0.601044  0.250596  1
  Rh  Rh31  1  0.040269  0.898956  0.249404  1
  Rh  Rh32  1  0.697703  0.865851  0.744685  1
  Rh  Rh33  1  0.197703  0.634149  0.755315  1
  Rh  Rh34  1  0.300381  0.144651  0.250090  1
  Rh  Rh35  1  0.800381  0.355349  0.249910  1
