# generated using pymatgen
data_Yb4Mg(Si2Pt)5
_symmetry_space_group_name_H-M   'P 1'
_cell_length_a   8.34003442
_cell_length_b   8.34003458
_cell_length_c   8.34003436
_cell_angle_alpha   139.02045095
_cell_angle_beta   103.96387267
_cell_angle_gamma   90.21465115
_symmetry_Int_Tables_number   1
_chemical_formula_structural   Yb4Mg(Si2Pt)5
_chemical_formula_sum   'Yb4 Mg1 Si10 Pt5'
_cell_volume   353.07632269
_cell_formula_units_Z   1
loop_
 _symmetry_equiv_pos_site_id
 _symmetry_equiv_pos_as_xyz
  1  'x, y, z'
loop_
 _atom_site_type_symbol
 _atom_site_label
 _atom_site_symmetry_multiplicity
 _atom_site_fract_x
 _atom_site_fract_y
 _atom_site_fract_z
 _atom_site_occupancy
  Yb  Yb0  1  0.107874  0.869885  0.229420  1
  Yb  Yb1  1  0.892126  0.121546  0.762011  1
  Yb  Yb2  1  0.640465  0.378454  0.270580  1
  Yb  Yb3  1  0.359535  0.630115  0.737989  1
  Mg  Mg4  1  0.500000  0.750000  0.250000  1
  Si  Si5  1  0.000000  0.750000  0.750000  1
  Si  Si6  1  0.000000  0.250000  0.250000  1
  Si  Si7  1  0.269613  0.019613  0.750000  1
  Si  Si8  1  0.730387  0.480387  0.750000  1
  Si  Si9  1  0.733810  0.983810  0.250000  1
  Si  Si10  1  0.266190  0.516190  0.250000  1
  Si  Si11  1  0.772684  0.609164  0.140873  1
  Si  Si12  1  0.227316  0.368189  0.836480  1
  Si  Si13  1  0.468291  0.131811  0.359127  1
  Si  Si14  1  0.531709  0.890836  0.663520  1
  Pt  Pt15  1  0.500000  0.250000  0.750000  1
  Pt  Pt16  1  0.019361  0.634335  0.382676  1
  Pt  Pt17  1  0.980639  0.363315  0.614975  1
  Pt  Pt18  1  0.251660  0.136685  0.117324  1
  Pt  Pt19  1  0.748340  0.865665  0.885025  1
