# generated using pymatgen
data_Li3DyEr2Si2Ge
_symmetry_space_group_name_H-M   'P 1'
_cell_length_a   6.97778799
_cell_length_b   6.95445228
_cell_length_c   4.23505600
_cell_angle_alpha   90.00000000
_cell_angle_beta   90.00000000
_cell_angle_gamma   119.88942574
_symmetry_Int_Tables_number   1
_chemical_formula_structural   Li3DyEr2Si2Ge
_chemical_formula_sum   'Li3 Dy1 Er2 Si2 Ge1'
_cell_volume   178.17768511
_cell_formula_units_Z   1
loop_
 _symmetry_equiv_pos_site_id
 _symmetry_equiv_pos_as_xyz
  1  'x, y, z'
loop_
 _atom_site_type_symbol
 _atom_site_label
 _atom_site_symmetry_multiplicity
 _atom_site_fract_x
 _atom_site_fract_y
 _atom_site_fract_z
 _atom_site_occupancy
  Li  Li0  1  0.234474  0.000216  0.500000  1
  Li  Li1  1  0.765526  0.765742  0.500000  1
  Li  Li2  1  0.000000  0.234169  0.500000  1
  Dy  Dy3  1  0.000000  0.572587  0.000000  1
  Er  Er4  1  0.573048  0.000011  0.000000  1
  Er  Er5  1  0.426952  0.426964  0.000000  1
  Si  Si6  1  0.334644  0.667002  0.500000  1
  Si  Si7  1  0.665356  0.332356  0.500000  1
  Ge  Ge8  1  0.000000  0.000954  0.000000  1
