# generated using pymatgen
data_Tl5TcF9
_symmetry_space_group_name_H-M   'P 1'
_cell_length_a   6.75677700
_cell_length_b   7.92919500
_cell_length_c   11.05451100
_cell_angle_alpha   90.00010116
_cell_angle_beta   89.99852452
_cell_angle_gamma   89.99992774
_symmetry_Int_Tables_number   1
_chemical_formula_structural   Tl5TcF9
_chemical_formula_sum   'Tl10 Tc2 F18'
_cell_volume   592.25429701
_cell_formula_units_Z   2
loop_
 _symmetry_equiv_pos_site_id
 _symmetry_equiv_pos_as_xyz
  1  'x, y, z'
loop_
 _atom_site_type_symbol
 _atom_site_label
 _atom_site_symmetry_multiplicity
 _atom_site_fract_x
 _atom_site_fract_y
 _atom_site_fract_z
 _atom_site_occupancy
  Tl  Tl0  1  0.041685  0.266434  0.825007  1
  Tl  Tl1  1  0.041681  0.733564  0.825007  1
  Tl  Tl2  1  0.440917  0.499999  0.017677  1
  Tl  Tl3  1  0.448258  0.732751  0.334906  1
  Tl  Tl4  1  0.448262  0.267251  0.334907  1
  Tl  Tl5  1  0.541659  0.733583  0.674983  1
  Tl  Tl6  1  0.541659  0.266419  0.674985  1
  Tl  Tl7  1  0.940915  0.500005  0.482365  1
  Tl  Tl8  1  0.948262  0.267272  0.165090  1
  Tl  Tl9  1  0.948259  0.732726  0.165089  1
  Tc  Tc10  1  0.498381  0.000000  0.000295  1
  Tc  Tc11  1  0.998371  0.000002  0.499737  1
  F  F12  1  0.116730  0.000003  0.337361  1
  F  F13  1  0.182215  0.179954  0.549834  1
  F  F14  1  0.182210  0.820040  0.549830  1
  F  F15  1  0.191507  0.500000  0.264372  1
  F  F16  1  0.328795  0.500004  0.780954  1
  F  F17  1  0.308309  0.175084  0.051006  1
  F  F18  1  0.308308  0.824916  0.051009  1
  F  F19  1  0.377500  0.999993  0.838248  1
  F  F20  1  0.538671  0.500000  0.500798  1
  F  F21  1  0.616786  0.000000  0.162648  1
  F  F22  1  0.682222  0.179952  0.950175  1
  F  F23  1  0.682220  0.820042  0.950179  1
  F  F24  1  0.691335  0.500002  0.235517  1
  F  F25  1  0.828801  0.499998  0.718968  1
  F  F26  1  0.808286  0.175093  0.449049  1
  F  F27  1  0.808281  0.824917  0.449045  1
  F  F28  1  0.877527  0.000000  0.661798  1
  F  F29  1  0.038587  0.499997  0.999163  1
