# generated using pymatgen
data_Hf4CrSi4IrPt2
_symmetry_space_group_name_H-M   'P 1'
_cell_length_a   3.93849500
_cell_length_b   6.49333729
_cell_length_c   7.52522159
_cell_angle_alpha   89.41613194
_cell_angle_beta   90.00000000
_cell_angle_gamma   90.00000000
_symmetry_Int_Tables_number   1
_chemical_formula_structural   Hf4CrSi4IrPt2
_chemical_formula_sum   'Hf4 Cr1 Si4 Ir1 Pt2'
_cell_volume   192.43984749
_cell_formula_units_Z   1
loop_
 _symmetry_equiv_pos_site_id
 _symmetry_equiv_pos_as_xyz
  1  'x, y, z'
loop_
 _atom_site_type_symbol
 _atom_site_label
 _atom_site_symmetry_multiplicity
 _atom_site_fract_x
 _atom_site_fract_y
 _atom_site_fract_z
 _atom_site_occupancy
  Hf  Hf0  1  0.750000  0.471726  0.178720  1
  Hf  Hf1  1  0.750000  0.981905  0.318088  1
  Hf  Hf2  1  0.250000  0.514567  0.823805  1
  Hf  Hf3  1  0.250000  0.023943  0.679909  1
  Cr  Cr4  1  0.250000  0.157624  0.061152  1
  Si  Si5  1  0.750000  0.219364  0.883660  1
  Si  Si6  1  0.750000  0.734189  0.626769  1
  Si  Si7  1  0.250000  0.779918  0.116905  1
  Si  Si8  1  0.250000  0.267706  0.369194  1
  Ir  Ir9  1  0.750000  0.845685  0.939015  1
  Pt  Pt10  1  0.750000  0.348276  0.568655  1
  Pt  Pt11  1  0.250000  0.655096  0.434128  1
