# generated using pymatgen
data_Tb16MgCo4Hg3
_symmetry_space_group_name_H-M   'P 1'
_cell_length_a   9.49937877
_cell_length_b   9.50027067
_cell_length_c   9.50027100
_cell_angle_alpha   60.00000232
_cell_angle_beta   59.99689640
_cell_angle_gamma   59.99688654
_symmetry_Int_Tables_number   1
_chemical_formula_structural   Tb16MgCo4Hg3
_chemical_formula_sum   'Tb16 Mg1 Co4 Hg3'
_cell_volume   606.22212112
_cell_formula_units_Z   1
loop_
 _symmetry_equiv_pos_site_id
 _symmetry_equiv_pos_as_xyz
  1  'x, y, z'
loop_
 _atom_site_type_symbol
 _atom_site_label
 _atom_site_symmetry_multiplicity
 _atom_site_fract_x
 _atom_site_fract_y
 _atom_site_fract_z
 _atom_site_occupancy
  Tb  Tb0  1  0.810467  0.189229  0.189229  1
  Tb  Tb1  1  0.185369  0.813754  0.813754  1
  Tb  Tb2  1  0.185369  0.813754  0.187124  1
  Tb  Tb3  1  0.810467  0.189229  0.811075  1
  Tb  Tb4  1  0.185369  0.187124  0.813754  1
  Tb  Tb5  1  0.810467  0.811075  0.189229  1
  Tb  Tb6  1  0.937474  0.562298  0.562298  1
  Tb  Tb7  1  0.561650  0.937516  0.937516  1
  Tb  Tb8  1  0.561650  0.937516  0.563318  1
  Tb  Tb9  1  0.937474  0.562298  0.937929  1
  Tb  Tb10  1  0.561650  0.563318  0.937516  1
  Tb  Tb11  1  0.937474  0.937929  0.562298  1
  Tb  Tb12  1  0.346481  0.345697  0.345697  1
  Tb  Tb13  1  0.346481  0.345697  0.962125  1
  Tb  Tb14  1  0.346481  0.962125  0.345697  1
  Tb  Tb15  1  0.953455  0.348848  0.348848  1
  Mg  Mg16  1  0.286025  0.571325  0.571325  1
  Co  Co17  1  0.138369  0.142045  0.142045  1
  Co  Co18  1  0.138369  0.142045  0.577541  1
  Co  Co19  1  0.138369  0.577541  0.142045  1
  Co  Co20  1  0.575805  0.141398  0.141398  1
  Hg  Hg21  1  0.581761  0.585436  0.585436  1
  Hg  Hg22  1  0.581761  0.585436  0.247367  1
  Hg  Hg23  1  0.581761  0.247367  0.585436  1
