# generated using pymatgen
data_Dy12Y4Cd4Ir3Os
_symmetry_space_group_name_H-M   'P 1'
_cell_length_a   9.67681446
_cell_length_b   9.68443840
_cell_length_c   9.68430713
_cell_angle_alpha   59.60979225
_cell_angle_beta   59.51419241
_cell_angle_gamma   59.51367027
_symmetry_Int_Tables_number   1
_chemical_formula_structural   Dy12Y4Cd4Ir3Os
_chemical_formula_sum   'Dy12 Y4 Cd4 Ir3 Os1'
_cell_volume   635.11479062
_cell_formula_units_Z   1
loop_
 _symmetry_equiv_pos_site_id
 _symmetry_equiv_pos_as_xyz
  1  'x, y, z'
loop_
 _atom_site_type_symbol
 _atom_site_label
 _atom_site_symmetry_multiplicity
 _atom_site_fract_x
 _atom_site_fract_y
 _atom_site_fract_z
 _atom_site_occupancy
  Dy  Dy0  1  0.349300  0.349299  0.349305  1
  Dy  Dy1  1  0.348380  0.348537  0.956923  1
  Dy  Dy2  1  0.348383  0.956928  0.348535  1
  Dy  Dy3  1  0.957341  0.348322  0.348320  1
  Dy  Dy4  1  0.811732  0.189178  0.189179  1
  Dy  Dy5  1  0.187827  0.809335  0.809334  1
  Dy  Dy6  1  0.189163  0.811501  0.189360  1
  Dy  Dy7  1  0.809312  0.187823  0.809412  1
  Dy  Dy8  1  0.189156  0.189362  0.811503  1
  Dy  Dy9  1  0.809308  0.809413  0.187814  1
  Dy  Dy10  1  0.939026  0.561084  0.561081  1
  Dy  Dy11  1  0.557122  0.939470  0.939471  1
  Y  Y12  1  0.561428  0.938786  0.561221  1
  Y  Y13  1  0.939247  0.557399  0.938992  1
  Y  Y14  1  0.561425  0.561226  0.938793  1
  Y  Y15  1  0.939247  0.938986  0.557397  1
  Cd  Cd16  1  0.579651  0.579851  0.579854  1
  Cd  Cd17  1  0.580425  0.580502  0.257050  1
  Cd  Cd18  1  0.580429  0.257048  0.580503  1
  Cd  Cd19  1  0.257239  0.580394  0.580392  1
  Ir  Ir20  1  0.143085  0.143418  0.577341  1
  Ir  Ir21  1  0.143090  0.577342  0.143420  1
  Ir  Ir22  1  0.577416  0.143173  0.143175  1
  Os  Os23  1  0.141268  0.141625  0.141626  1
