# generated using pymatgen
data_Tb2Ce2HoRu2
_symmetry_space_group_name_H-M   'P 1'
_cell_length_a   6.38501398
_cell_length_b   7.04088064
_cell_length_c   8.85830414
_cell_angle_alpha   95.36054077
_cell_angle_beta   111.12458498
_cell_angle_gamma   89.99999850
_symmetry_Int_Tables_number   1
_chemical_formula_structural   Tb2Ce2HoRu2
_chemical_formula_sum   'Tb4 Ce4 Ho2 Ru4'
_cell_volume   369.60544639
_cell_formula_units_Z   2
loop_
 _symmetry_equiv_pos_site_id
 _symmetry_equiv_pos_as_xyz
  1  'x, y, z'
loop_
 _atom_site_type_symbol
 _atom_site_label
 _atom_site_symmetry_multiplicity
 _atom_site_fract_x
 _atom_site_fract_y
 _atom_site_fract_z
 _atom_site_occupancy
  Tb  Tb0  1  0.640906  0.815513  0.432745  1
  Tb  Tb1  1  0.208161  0.684487  0.567255  1
  Tb  Tb2  1  0.359094  0.184487  0.567255  1
  Tb  Tb3  1  0.791839  0.315513  0.432745  1
  Ce  Ce4  1  0.982007  0.904116  0.188264  1
  Ce  Ce5  1  0.793743  0.595884  0.811736  1
  Ce  Ce6  1  0.017993  0.095884  0.811736  1
  Ce  Ce7  1  0.206257  0.404116  0.188264  1
  Ho  Ho8  1  0.419963  0.750000  0.000000  1
  Ho  Ho9  1  0.580037  0.250000  0.000000  1
  Ru  Ru10  1  0.847727  0.592952  0.219681  1
  Ru  Ru11  1  0.628045  0.907048  0.780319  1
  Ru  Ru12  1  0.152273  0.407048  0.780319  1
  Ru  Ru13  1  0.371955  0.092952  0.219681  1
