# generated using pymatgen
data_Ti8Al15Os4Au3
_symmetry_space_group_name_H-M   'P 1'
_cell_length_a   8.77683034
_cell_length_b   8.76298990
_cell_length_c   8.74688617
_cell_angle_alpha   120.11363363
_cell_angle_beta   120.06138627
_cell_angle_gamma   89.88412595
_symmetry_Int_Tables_number   1
_chemical_formula_structural   Ti8Al15Os4Au3
_chemical_formula_sum   'Ti8 Al15 Os4 Au3'
_cell_volume   474.91625754
_cell_formula_units_Z   1
loop_
 _symmetry_equiv_pos_site_id
 _symmetry_equiv_pos_as_xyz
  1  'x, y, z'
loop_
 _atom_site_type_symbol
 _atom_site_label
 _atom_site_symmetry_multiplicity
 _atom_site_fract_x
 _atom_site_fract_y
 _atom_site_fract_z
 _atom_site_occupancy
  Ti  Ti0  1  0.784865  0.289358  0.078511  1
  Ti  Ti1  1  0.214107  0.297991  0.505708  1
  Ti  Ti2  1  0.210782  0.709123  0.509302  1
  Ti  Ti3  1  0.221205  0.714383  0.922754  1
  Ti  Ti4  1  0.788634  0.710208  0.493294  1
  Ti  Ti5  1  0.783012  0.282431  0.487893  1
  Ti  Ti6  1  0.374930  0.125343  0.751958  1
  Ti  Ti7  1  0.390208  0.627388  0.257860  1
  Al  Al8  1  0.996859  0.499574  0.501086  1
  Al  Al9  1  0.157536  0.351444  0.201056  1
  Al  Al10  1  0.155888  0.959958  0.805459  1
  Al  Al11  1  0.153387  0.346354  0.800230  1
  Al  Al12  1  0.539973  0.345495  0.193136  1
  Al  Al13  1  0.841208  0.646556  0.793719  1
  Al  Al14  1  0.842039  0.036194  0.194633  1
  Al  Al15  1  0.840964  0.656333  0.193659  1
  Al  Al16  1  0.470286  0.656401  0.815142  1
  Al  Al17  1  0.388591  0.131741  0.257316  1
  Al  Al18  1  0.869115  0.117416  0.731867  1
  Al  Al19  1  0.623374  0.870902  0.247243  1
  Al  Al20  1  0.610869  0.372867  0.743723  1
  Al  Al21  1  0.606783  0.867974  0.739248  1
  Al  Al22  1  0.135108  0.883235  0.271823  1
  Os  Os23  1  0.002313  0.000840  0.503381  1
  Os  Os24  1  0.498463  0.000796  0.998773  1
  Os  Os25  1  0.497426  0.496674  0.999840  1
  Os  Os26  1  0.498255  0.499459  0.497495  1
  Au  Au27  1  0.002224  0.502435  0.002380  1
  Au  Au28  1  0.998745  0.999785  0.999697  1
  Au  Au29  1  0.502847  0.001334  0.501813  1
