# generated using pymatgen
data_PaCu6ClO8
_symmetry_space_group_name_H-M   'P 1'
_cell_length_a   6.62312158
_cell_length_b   6.62312041
_cell_length_c   6.62312100
_cell_angle_alpha   60.00000203
_cell_angle_beta   60.00000791
_cell_angle_gamma   59.99999651
_symmetry_Int_Tables_number   1
_chemical_formula_structural   PaCu6ClO8
_chemical_formula_sum   'Pa1 Cu6 Cl1 O8'
_cell_volume   205.43436350
_cell_formula_units_Z   1
loop_
 _symmetry_equiv_pos_site_id
 _symmetry_equiv_pos_as_xyz
  1  'x, y, z'
loop_
 _atom_site_type_symbol
 _atom_site_label
 _atom_site_symmetry_multiplicity
 _atom_site_fract_x
 _atom_site_fract_y
 _atom_site_fract_z
 _atom_site_occupancy
  Pa  Pa0  1  0.000000  0.000000  0.000000  1
  Cu  Cu1  1  0.000000  0.000000  0.500000  1
  Cu  Cu2  1  0.500000  0.000000  0.500000  1
  Cu  Cu3  1  0.000000  0.500000  0.500000  1
  Cu  Cu4  1  0.500000  0.500000  0.000000  1
  Cu  Cu5  1  0.000000  0.500000  0.000000  1
  Cu  Cu6  1  0.500000  0.000000  0.000000  1
  Cl  Cl7  1  0.500000  0.500000  0.500000  1
  O  O8  1  0.858054  0.858054  0.425839  1
  O  O9  1  0.858054  0.425839  0.858054  1
  O  O10  1  0.425839  0.858054  0.858054  1
  O  O11  1  0.858054  0.858054  0.858054  1
  O  O12  1  0.141946  0.141946  0.574161  1
  O  O13  1  0.141946  0.574161  0.141946  1
  O  O14  1  0.574161  0.141946  0.141946  1
  O  O15  1  0.141946  0.141946  0.141946  1
