# generated using pymatgen
data_LiPr13Th3Cd3Ir4
_symmetry_space_group_name_H-M   'P 1'
_cell_length_a   10.03798314
_cell_length_b   10.06692114
_cell_length_c   10.06651090
_cell_angle_alpha   60.03667992
_cell_angle_beta   59.97962878
_cell_angle_gamma   59.98884434
_symmetry_Int_Tables_number   1
_chemical_formula_structural   LiPr13Th3Cd3Ir4
_chemical_formula_sum   'Li1 Pr13 Th3 Cd3 Ir4'
_cell_volume   719.32269630
_cell_formula_units_Z   1
loop_
 _symmetry_equiv_pos_site_id
 _symmetry_equiv_pos_as_xyz
  1  'x, y, z'
loop_
 _atom_site_type_symbol
 _atom_site_label
 _atom_site_symmetry_multiplicity
 _atom_site_fract_x
 _atom_site_fract_y
 _atom_site_fract_z
 _atom_site_occupancy
  Li  Li0  1  0.569834  0.573918  0.573887  1
  Pr  Pr1  1  0.953027  0.349258  0.349253  1
  Pr  Pr2  1  0.809963  0.190762  0.190760  1
  Pr  Pr3  1  0.187551  0.811092  0.811105  1
  Pr  Pr4  1  0.191133  0.809994  0.190085  1
  Pr  Pr5  1  0.810940  0.187432  0.810322  1
  Pr  Pr6  1  0.191140  0.190091  0.810000  1
  Pr  Pr7  1  0.810944  0.810328  0.187432  1
  Pr  Pr8  1  0.942566  0.562482  0.562446  1
  Pr  Pr9  1  0.559028  0.939124  0.939128  1
  Pr  Pr10  1  0.561436  0.939688  0.562989  1
  Pr  Pr11  1  0.940398  0.559619  0.937231  1
  Pr  Pr12  1  0.561420  0.563019  0.939677  1
  Pr  Pr13  1  0.940371  0.937211  0.559639  1
  Th  Th14  1  0.344816  0.346440  0.346468  1
  Th  Th15  1  0.345084  0.345888  0.964050  1
  Th  Th16  1  0.345093  0.964034  0.345894  1
  Cd  Cd17  1  0.579002  0.582550  0.258857  1
  Cd  Cd18  1  0.579011  0.258839  0.582547  1
  Cd  Cd19  1  0.258446  0.581577  0.581566  1
  Ir  Ir20  1  0.152090  0.142088  0.142069  1
  Ir  Ir21  1  0.152051  0.141888  0.565988  1
  Ir  Ir22  1  0.152019  0.565995  0.141893  1
  Ir  Ir23  1  0.562630  0.146683  0.146714  1
