# generated using pymatgen
data_HoPa(Al4Fe)2
_symmetry_space_group_name_H-M   'P 1'
_cell_length_a   7.53967400
_cell_length_b   4.07440100
_cell_length_c   6.64180500
_cell_angle_alpha   90.00000000
_cell_angle_beta   90.00000000
_cell_angle_gamma   90.00000000
_symmetry_Int_Tables_number   1
_chemical_formula_structural   HoPa(Al4Fe)2
_chemical_formula_sum   'Ho1 Pa1 Al8 Fe2'
_cell_volume   204.03396007
_cell_formula_units_Z   1
loop_
 _symmetry_equiv_pos_site_id
 _symmetry_equiv_pos_as_xyz
  1  'x, y, z'
loop_
 _atom_site_type_symbol
 _atom_site_label
 _atom_site_symmetry_multiplicity
 _atom_site_fract_x
 _atom_site_fract_y
 _atom_site_fract_z
 _atom_site_occupancy
  Ho  Ho0  1  0.750000  0.000000  0.619547  1
  Pa  Pa1  1  0.250000  0.000000  0.396353  1
  Al  Al2  1  0.005847  0.000000  0.001119  1
  Al  Al3  1  0.494153  0.000000  0.001119  1
  Al  Al4  1  0.250000  0.499999  0.046568  1
  Al  Al5  1  0.567483  0.499999  0.305948  1
  Al  Al6  1  0.932517  0.499999  0.305948  1
  Al  Al7  1  0.064774  0.499999  0.696411  1
  Al  Al8  1  0.435225  0.499999  0.696411  1
  Al  Al9  1  0.750000  0.499999  0.957677  1
  Fe  Fe10  1  0.750000  0.000000  0.196566  1
  Fe  Fe11  1  0.250000  0.000000  0.776338  1
