# generated using pymatgen
data_Tb4Zn8InHg3
_symmetry_space_group_name_H-M   'P 1'
_cell_length_a   4.47849000
_cell_length_b   7.15176804
_cell_length_c   10.19164024
_cell_angle_alpha   90.12907337
_cell_angle_beta   90.00000000
_cell_angle_gamma   90.00000000
_symmetry_Int_Tables_number   1
_chemical_formula_structural   Tb4Zn8InHg3
_chemical_formula_sum   'Tb4 Zn8 In1 Hg3'
_cell_volume   326.42845670
_cell_formula_units_Z   1
loop_
 _symmetry_equiv_pos_site_id
 _symmetry_equiv_pos_as_xyz
  1  'x, y, z'
loop_
 _atom_site_type_symbol
 _atom_site_label
 _atom_site_symmetry_multiplicity
 _atom_site_fract_x
 _atom_site_fract_y
 _atom_site_fract_z
 _atom_site_occupancy
  Tb  Tb0  1  0.250000  0.301138  0.672690  1
  Tb  Tb1  1  0.250000  0.796097  0.833407  1
  Tb  Tb2  1  0.750000  0.700431  0.325130  1
  Tb  Tb3  1  0.750000  0.202213  0.169077  1
  Zn  Zn4  1  0.250000  0.911830  0.144324  1
  Zn  Zn5  1  0.250000  0.415547  0.359544  1
  Zn  Zn6  1  0.750000  0.086010  0.855733  1
  Zn  Zn7  1  0.750000  0.584583  0.641769  1
  Zn  Zn8  1  0.250000  0.183798  0.962168  1
  Zn  Zn9  1  0.250000  0.689361  0.539524  1
  Zn  Zn10  1  0.750000  0.816636  0.037411  1
  Zn  Zn11  1  0.750000  0.314709  0.461341  1
  In  In12  1  0.750000  0.969211  0.600099  1
  Hg  Hg13  1  0.250000  0.526294  0.104501  1
  Hg  Hg14  1  0.250000  0.031546  0.396897  1
  Hg  Hg15  1  0.750000  0.470596  0.896386  1
