# generated using pymatgen
data_Er10Ir3Ru2Au
_symmetry_space_group_name_H-M   'P 1'
_cell_length_a   10.85539088
_cell_length_b   10.80205300
_cell_length_c   6.40781670
_cell_angle_alpha   90.00000000
_cell_angle_beta   89.82292855
_cell_angle_gamma   90.00000000
_symmetry_Int_Tables_number   1
_chemical_formula_structural   Er10Ir3Ru2Au
_chemical_formula_sum   'Er20 Ir6 Ru4 Au2'
_cell_volume   751.38025045
_cell_formula_units_Z   2
loop_
 _symmetry_equiv_pos_site_id
 _symmetry_equiv_pos_as_xyz
  1  'x, y, z'
loop_
 _atom_site_type_symbol
 _atom_site_label
 _atom_site_symmetry_multiplicity
 _atom_site_fract_x
 _atom_site_fract_y
 _atom_site_fract_z
 _atom_site_occupancy
  Er  Er0  1  0.292867  0.086783  0.375222  1
  Er  Er1  1  0.292867  0.913217  0.875222  1
  Er  Er2  1  0.696471  0.091001  0.867874  1
  Er  Er3  1  0.696471  0.908999  0.367874  1
  Er  Er4  1  0.576998  0.792124  0.878156  1
  Er  Er5  1  0.576998  0.207876  0.378156  1
  Er  Er6  1  0.409838  0.792680  0.378480  1
  Er  Er7  1  0.409838  0.207320  0.878480  1
  Er  Er8  1  0.208414  0.412595  0.620178  1
  Er  Er9  1  0.208414  0.587405  0.120178  1
  Er  Er10  1  0.793175  0.420888  0.121816  1
  Er  Er11  1  0.793175  0.579112  0.621816  1
  Er  Er12  1  0.919140  0.703634  0.135980  1
  Er  Er13  1  0.919140  0.296366  0.635980  1
  Er  Er14  1  0.094568  0.701905  0.620575  1
  Er  Er15  1  0.094568  0.298095  0.120575  1
  Er  Er16  1  0.008360  0.998096  0.500791  1
  Er  Er17  1  0.008360  0.001904  0.000791  1
  Er  Er18  1  0.500383  0.498960  0.000798  1
  Er  Er19  1  0.500383  0.501040  0.500798  1
  Ir  Ir20  1  0.152429  0.152909  0.749079  1
  Ir  Ir21  1  0.152429  0.847091  0.249079  1
  Ir  Ir22  1  0.654372  0.347085  0.748518  1
  Ir  Ir23  1  0.654372  0.652915  0.248518  1
  Ir  Ir24  1  0.348396  0.347186  0.251013  1
  Ir  Ir25  1  0.348396  0.652814  0.751013  1
  Ru  Ru26  1  0.498818  0.999903  0.124262  1
  Ru  Ru27  1  0.498818  0.000097  0.624262  1
  Ru  Ru28  1  0.001162  0.500201  0.875668  1
  Ru  Ru29  1  0.001162  0.499799  0.375668  1
  Au  Au30  1  0.844609  0.154472  0.251590  1
  Au  Au31  1  0.844609  0.845528  0.751590  1
