# generated using pymatgen
data_NdHo2Be2(PPd5)4
_symmetry_space_group_name_H-M   'P 1'
_cell_length_a   8.67816891
_cell_length_b   8.59906403
_cell_length_c   8.59907307
_cell_angle_alpha   60.60825489
_cell_angle_beta   59.69555962
_cell_angle_gamma   59.69531146
_symmetry_Int_Tables_number   1
_chemical_formula_structural   NdHo2Be2(PPd5)4
_chemical_formula_sum   'Nd1 Ho2 Be2 P4 Pd20'
_cell_volume   453.66899994
_cell_formula_units_Z   1
loop_
 _symmetry_equiv_pos_site_id
 _symmetry_equiv_pos_as_xyz
  1  'x, y, z'
loop_
 _atom_site_type_symbol
 _atom_site_label
 _atom_site_symmetry_multiplicity
 _atom_site_fract_x
 _atom_site_fract_y
 _atom_site_fract_z
 _atom_site_occupancy
  Nd  Nd0  1  0.249994  0.250004  0.250004  1
  Ho  Ho1  1  0.750001  0.749999  0.750000  1
  Ho  Ho2  1  0.000001  0.000001  0.000001  1
  Be  Be3  1  0.733237  0.266739  0.266739  1
  Be  Be4  1  0.266767  0.733258  0.733259  1
  P  P5  1  0.266119  0.733893  0.266099  1
  P  P6  1  0.733882  0.266108  0.733899  1
  P  P7  1  0.266119  0.266100  0.733892  1
  P  P8  1  0.733882  0.733899  0.266107  1
  Pd  Pd9  1  0.389574  0.383952  0.383955  1
  Pd  Pd10  1  0.612981  0.617955  0.617955  1
  Pd  Pd11  1  0.383948  0.389583  0.842521  1
  Pd  Pd12  1  0.383951  0.842522  0.389581  1
  Pd  Pd13  1  0.617954  0.612985  0.151111  1
  Pd  Pd14  1  0.617953  0.151111  0.612986  1
  Pd  Pd15  1  0.842525  0.383954  0.383952  1
  Pd  Pd16  1  0.151098  0.617954  0.617957  1
  Pd  Pd17  1  0.344941  0.999149  0.999151  1
  Pd  Pd18  1  0.656749  0.999150  0.999151  1
  Pd  Pd19  1  0.999159  0.344938  0.656757  1
  Pd  Pd20  1  0.999158  0.656759  0.344937  1
  Pd  Pd21  1  0.996470  0.343819  0.002297  1
  Pd  Pd22  1  0.657417  0.002293  0.343819  1
  Pd  Pd23  1  0.002303  0.657407  0.996471  1
  Pd  Pd24  1  0.343814  0.996477  0.657404  1
  Pd  Pd25  1  0.996470  0.002295  0.343819  1
  Pd  Pd26  1  0.002300  0.996473  0.657407  1
  Pd  Pd27  1  0.657418  0.343818  0.002292  1
  Pd  Pd28  1  0.343815  0.657404  0.996479  1
