# generated using pymatgen
data_Tb3Ho9Co4BiRu
_symmetry_space_group_name_H-M   'P 1'
_cell_length_a   8.31094554
_cell_length_b   8.31015636
_cell_length_c   8.30692947
_cell_angle_alpha   110.94380604
_cell_angle_beta   110.58301827
_cell_angle_gamma   106.93720464
_symmetry_Int_Tables_number   1
_chemical_formula_structural   Tb3Ho9Co4BiRu
_chemical_formula_sum   'Tb3 Ho9 Co4 Bi1 Ru1'
_cell_volume   440.88505436
_cell_formula_units_Z   1
loop_
 _symmetry_equiv_pos_site_id
 _symmetry_equiv_pos_as_xyz
  1  'x, y, z'
loop_
 _atom_site_type_symbol
 _atom_site_label
 _atom_site_symmetry_multiplicity
 _atom_site_fract_x
 _atom_site_fract_y
 _atom_site_fract_z
 _atom_site_occupancy
  Tb  Tb0  1  0.816604  0.714078  0.530676  1
  Tb  Tb1  1  0.182791  0.285760  0.468552  1
  Tb  Tb2  1  0.183856  0.714378  0.898206  1
  Ho  Ho3  1  0.816927  0.285195  0.102144  1
  Ho  Ho4  1  0.688140  0.378307  0.691004  1
  Ho  Ho5  1  0.311470  0.621264  0.309200  1
  Ho  Ho6  1  0.687971  0.997713  0.309155  1
  Ho  Ho7  1  0.312656  0.002874  0.691043  1
  Ho  Ho8  1  0.593519  0.789747  0.804780  1
  Ho  Ho9  1  0.407092  0.211018  0.195565  1
  Ho  Ho10  1  0.984554  0.788535  0.195611  1
  Ho  Ho11  1  0.015029  0.211197  0.804734  1
  Co  Co12  1  0.623861  0.000216  0.624062  1
  Co  Co13  1  0.376337  0.000170  0.376519  1
  Co  Co14  1  0.110837  0.610685  0.499159  1
  Co  Co15  1  0.888518  0.388280  0.499168  1
  Bi  Bi16  1  0.500072  0.499975  0.000047  1
  Ru  Ru17  1  0.999765  0.000609  0.000374  1
