# generated using pymatgen
data_Ac(LaCo)2
_symmetry_space_group_name_H-M   'P 1'
_cell_length_a   4.02329100
_cell_length_b   4.02329330
_cell_length_c   20.93686500
_cell_angle_alpha   90.00000000
_cell_angle_beta   90.00000000
_cell_angle_gamma   120.00000577
_symmetry_Int_Tables_number   1
_chemical_formula_structural   Ac(LaCo)2
_chemical_formula_sum   'Ac2 La4 Co4'
_cell_volume   293.49817064
_cell_formula_units_Z   2
loop_
 _symmetry_equiv_pos_site_id
 _symmetry_equiv_pos_as_xyz
  1  'x, y, z'
loop_
 _atom_site_type_symbol
 _atom_site_label
 _atom_site_symmetry_multiplicity
 _atom_site_fract_x
 _atom_site_fract_y
 _atom_site_fract_z
 _atom_site_occupancy
  Ac  Ac0  1  0.333333  0.666667  0.250000  1
  Ac  Ac1  1  0.666667  0.333333  0.750000  1
  La  La2  1  0.000000  0.000000  0.089520  1
  La  La3  1  0.000000  0.000000  0.910480  1
  La  La4  1  0.000000  0.000000  0.589520  1
  La  La5  1  0.000000  0.000000  0.410480  1
  Co  Co6  1  0.333333  0.666667  0.499992  1
  Co  Co7  1  0.666667  0.333333  0.500008  1
  Co  Co8  1  0.666667  0.333333  0.999992  1
  Co  Co9  1  0.333333  0.666667  0.000008  1
