# generated using pymatgen
data_TbEu9(AlSb3)4
_symmetry_space_group_name_H-M   'P 1'
_cell_length_a   4.56332000
_cell_length_b   12.33145537
_cell_length_c   14.31912300
_cell_angle_alpha   89.78065176
_cell_angle_beta   90.00000000
_cell_angle_gamma   90.00000000
_symmetry_Int_Tables_number   1
_chemical_formula_structural   TbEu9(AlSb3)4
_chemical_formula_sum   'Tb1 Eu9 Al4 Sb12'
_cell_volume   805.76518158
_cell_formula_units_Z   1
loop_
 _symmetry_equiv_pos_site_id
 _symmetry_equiv_pos_as_xyz
  1  'x, y, z'
loop_
 _atom_site_type_symbol
 _atom_site_label
 _atom_site_symmetry_multiplicity
 _atom_site_fract_x
 _atom_site_fract_y
 _atom_site_fract_z
 _atom_site_occupancy
  Tb  Tb0  1  0.500000  0.000000  0.500000  1
  Eu  Eu1  1  0.500000  0.085736  0.744539  1
  Eu  Eu2  1  0.500000  0.407598  0.249043  1
  Eu  Eu3  1  0.500000  0.332431  0.520520  1
  Eu  Eu4  1  0.500000  0.914264  0.255461  1
  Eu  Eu5  1  0.500000  0.500000  0.000000  1
  Eu  Eu6  1  0.500000  0.159152  0.018635  1
  Eu  Eu7  1  0.500000  0.840848  0.981365  1
  Eu  Eu8  1  0.500000  0.667569  0.479480  1
  Eu  Eu9  1  0.500000  0.592402  0.750957  1
  Al  Al10  1  0.000000  0.164672  0.219975  1
  Al  Al11  1  0.000000  0.835328  0.780025  1
  Al  Al12  1  0.000000  0.677027  0.290042  1
  Al  Al13  1  0.000000  0.322973  0.709958  1
  Sb  Sb14  1  0.000000  0.850761  0.415421  1
  Sb  Sb15  1  0.000000  0.149239  0.584579  1
  Sb  Sb16  1  0.000000  0.661910  0.904688  1
  Sb  Sb17  1  0.000000  0.338090  0.095312  1
  Sb  Sb18  1  0.500000  0.333214  0.817175  1
  Sb  Sb19  1  0.500000  0.666786  0.182825  1
  Sb  Sb20  1  0.500000  0.834566  0.668798  1
  Sb  Sb21  1  0.500000  0.165434  0.331202  1
  Sb  Sb22  1  0.000000  0.518011  0.602380  1
  Sb  Sb23  1  0.000000  0.481989  0.397620  1
  Sb  Sb24  1  0.000000  0.018600  0.887916  1
  Sb  Sb25  1  0.000000  0.981400  0.112084  1
