# generated using pymatgen
data_La(Dy3Ni8)2
_symmetry_space_group_name_H-M   'P 1'
_cell_length_a   7.13082746
_cell_length_b   7.13082629
_cell_length_c   8.70913637
_cell_angle_alpha   114.20820113
_cell_angle_beta   114.25307297
_cell_angle_gamma   89.85683351
_symmetry_Int_Tables_number   1
_chemical_formula_structural   La(Dy3Ni8)2
_chemical_formula_sum   'La1 Dy6 Ni16'
_cell_volume   360.84965824
_cell_formula_units_Z   1
loop_
 _symmetry_equiv_pos_site_id
 _symmetry_equiv_pos_as_xyz
  1  'x, y, z'
loop_
 _atom_site_type_symbol
 _atom_site_label
 _atom_site_symmetry_multiplicity
 _atom_site_fract_x
 _atom_site_fract_y
 _atom_site_fract_z
 _atom_site_occupancy
  La  La0  1  0.211215  0.591972  0.803187  1
  Dy  Dy1  1  0.999900  0.999075  0.998975  1
  Dy  Dy2  1  0.401631  0.401913  0.209036  1
  Dy  Dy3  1  0.807122  0.807405  0.209036  1
  Dy  Dy4  1  0.750169  0.252336  0.499632  1
  Dy  Dy5  1  0.247297  0.749465  0.499632  1
  Dy  Dy6  1  0.599450  0.191903  0.791352  1
  Ni  Ni7  1  0.698567  0.182995  0.132086  1
  Ni  Ni8  1  0.949091  0.433519  0.132086  1
  Ni  Ni9  1  0.178827  0.700881  0.137499  1
  Ni  Ni10  1  0.436619  0.958673  0.137499  1
  Ni  Ni11  1  0.308199  0.066394  0.374595  1
  Ni  Ni12  1  0.065729  0.302716  0.368446  1
  Ni  Ni13  1  0.830829  0.559385  0.390215  1
  Ni  Ni14  1  0.559800  0.833116  0.392916  1
  Ni  Ni15  1  0.162890  0.158157  0.600419  1
  Ni  Ni16  1  0.442261  0.437528  0.600419  1
  Ni  Ni17  1  0.691061  0.693851  0.624697  1
  Ni  Ni18  1  0.930846  0.933635  0.624697  1
  Ni  Ni19  1  0.302620  0.056357  0.868660  1
  Ni  Ni20  1  0.042969  0.297524  0.868126  1
  Ni  Ni21  1  0.812303  0.566042  0.868660  1
  Ni  Ni22  1  0.570603  0.825158  0.868126  1
