# generated using pymatgen
data_Er12Co3Ni
_symmetry_space_group_name_H-M   'P 1'
_cell_length_a   6.15514455
_cell_length_b   6.86042462
_cell_length_c   9.37084600
_cell_angle_alpha   90.00000000
_cell_angle_beta   90.00000000
_cell_angle_gamma   90.04856600
_symmetry_Int_Tables_number   1
_chemical_formula_structural   Er12Co3Ni
_chemical_formula_sum   'Er12 Co3 Ni1'
_cell_volume   395.70168359
_cell_formula_units_Z   1
loop_
 _symmetry_equiv_pos_site_id
 _symmetry_equiv_pos_as_xyz
  1  'x, y, z'
loop_
 _atom_site_type_symbol
 _atom_site_label
 _atom_site_symmetry_multiplicity
 _atom_site_fract_x
 _atom_site_fract_y
 _atom_site_fract_z
 _atom_site_occupancy
  Er  Er0  1  0.326231  0.675675  0.065319  1
  Er  Er1  1  0.176218  0.179770  0.435378  1
  Er  Er2  1  0.677250  0.322890  0.567052  1
  Er  Er3  1  0.822363  0.822943  0.931035  1
  Er  Er4  1  0.677250  0.322890  0.932948  1
  Er  Er5  1  0.822363  0.822943  0.568965  1
  Er  Er6  1  0.326231  0.675675  0.434681  1
  Er  Er7  1  0.176218  0.179770  0.064622  1
  Er  Er8  1  0.858912  0.536580  0.250000  1
  Er  Er9  1  0.634170  0.040698  0.250000  1
  Er  Er10  1  0.137863  0.458639  0.750000  1
  Er  Er11  1  0.361912  0.958812  0.750000  1
  Co  Co12  1  0.448417  0.387908  0.250000  1
  Co  Co13  1  0.952930  0.112508  0.750000  1
  Co  Co14  1  0.546573  0.611859  0.750000  1
  Ni  Ni15  1  0.055100  0.890441  0.250000  1
