# generated using pymatgen
data_Tm16InNi(AgRh)3
_symmetry_space_group_name_H-M   'P 1'
_cell_length_a   9.44248669
_cell_length_b   9.44248648
_cell_length_c   9.38357153
_cell_angle_alpha   59.79208546
_cell_angle_beta   59.79208807
_cell_angle_gamma   60.00000231
_symmetry_Int_Tables_number   1
_chemical_formula_structural   Tm16InNi(AgRh)3
_chemical_formula_sum   'Tm16 In1 Ni1 Ag3 Rh3'
_cell_volume   589.73097895
_cell_formula_units_Z   1
loop_
 _symmetry_equiv_pos_site_id
 _symmetry_equiv_pos_as_xyz
  1  'x, y, z'
loop_
 _atom_site_type_symbol
 _atom_site_label
 _atom_site_symmetry_multiplicity
 _atom_site_fract_x
 _atom_site_fract_y
 _atom_site_fract_z
 _atom_site_occupancy
  Tm  Tm0  1  0.065131  0.065131  0.436925  1
  Tm  Tm1  1  0.432813  0.065131  0.436925  1
  Tm  Tm2  1  0.061574  0.435286  0.067854  1
  Tm  Tm3  1  0.051769  0.652364  0.643504  1
  Tm  Tm4  1  0.435286  0.435286  0.067854  1
  Tm  Tm5  1  0.652364  0.051769  0.643504  1
  Tm  Tm6  1  0.184983  0.812322  0.190375  1
  Tm  Tm7  1  0.188493  0.188493  0.812228  1
  Tm  Tm8  1  0.812322  0.812322  0.190375  1
  Tm  Tm9  1  0.435286  0.061574  0.067854  1
  Tm  Tm10  1  0.812322  0.184983  0.190375  1
  Tm  Tm11  1  0.065131  0.432813  0.436925  1
  Tm  Tm12  1  0.810786  0.188493  0.812228  1
  Tm  Tm13  1  0.188493  0.810786  0.812228  1
  Tm  Tm14  1  0.645868  0.645868  0.062398  1
  Tm  Tm15  1  0.652364  0.652364  0.643504  1
  In  In16  1  0.421263  0.421263  0.736212  1
  Ni  Ni17  1  0.857938  0.857938  0.426185  1
  Ag  Ag18  1  0.416832  0.416832  0.417470  1
  Ag  Ag19  1  0.748865  0.416832  0.417470  1
  Ag  Ag20  1  0.416832  0.748865  0.417470  1
  Rh  Rh21  1  0.856198  0.856198  0.856713  1
  Rh  Rh22  1  0.430890  0.856198  0.856713  1
  Rh  Rh23  1  0.856198  0.430890  0.856713  1
