# generated using pymatgen
data_Nd5P12Ru15Rh4
_symmetry_space_group_name_H-M   'P 1'
_cell_length_a   12.68181950
_cell_length_b   12.65767076
_cell_length_c   4.01281500
_cell_angle_alpha   90.00000000
_cell_angle_beta   90.00000000
_cell_angle_gamma   119.93850711
_symmetry_Int_Tables_number   1
_chemical_formula_structural   Nd5P12Ru15Rh4
_chemical_formula_sum   'Nd5 P12 Ru15 Rh4'
_cell_volume   558.19238390
_cell_formula_units_Z   1
loop_
 _symmetry_equiv_pos_site_id
 _symmetry_equiv_pos_as_xyz
  1  'x, y, z'
loop_
 _atom_site_type_symbol
 _atom_site_label
 _atom_site_symmetry_multiplicity
 _atom_site_fract_x
 _atom_site_fract_y
 _atom_site_fract_z
 _atom_site_occupancy
  Nd  Nd0  1  0.000936  0.183183  0.500000  1
  Nd  Nd1  1  0.817112  0.815565  0.500000  1
  Nd  Nd2  1  0.182969  0.999592  0.500000  1
  Nd  Nd3  1  0.666613  0.333272  0.000000  1
  Nd  Nd4  1  0.333418  0.666891  0.000000  1
  P  P5  1  0.999645  0.811502  0.000000  1
  P  P6  1  0.188015  0.188025  0.000000  1
  P  P7  1  0.812617  0.996666  0.000000  1
  P  P8  1  0.692782  0.172258  0.500000  1
  P  P9  1  0.824838  0.522116  0.500000  1
  P  P10  1  0.476698  0.302899  0.500000  1
  P  P11  1  0.175753  0.698564  0.500000  1
  P  P12  1  0.523203  0.825472  0.500000  1
  P  P13  1  0.302447  0.477692  0.500000  1
  P  P14  1  0.003570  0.375242  0.000000  1
  P  P15  1  0.627314  0.627561  0.000000  1
  P  P16  1  0.372391  0.000225  0.000000  1
  Ru  Ru17  1  0.999866  0.712463  0.500000  1
  Ru  Ru18  1  0.287032  0.287489  0.500000  1
  Ru  Ru19  1  0.714582  0.001440  0.500000  1
  Ru  Ru20  1  0.814770  0.620814  0.000000  1
  Ru  Ru21  1  0.378173  0.193934  0.000000  1
  Ru  Ru22  1  0.184905  0.805756  0.000000  1
  Ru  Ru23  1  0.621291  0.816484  0.000000  1
  Ru  Ru24  1  0.194417  0.379054  0.000000  1
  Ru  Ru25  1  0.874066  0.364998  0.500000  1
  Ru  Ru26  1  0.631768  0.508000  0.500000  1
  Ru  Ru27  1  0.490221  0.124115  0.500000  1
  Ru  Ru28  1  0.369150  0.876983  0.500000  1
  Ru  Ru29  1  0.508653  0.632452  0.500000  1
  Ru  Ru30  1  0.123022  0.491833  0.500000  1
  Ru  Ru31  1  0.000408  0.000192  0.000000  1
  Rh  Rh32  1  0.997251  0.551723  0.000000  1
  Rh  Rh33  1  0.446719  0.446991  0.000000  1
  Rh  Rh34  1  0.554643  0.003324  0.000000  1
  Rh  Rh35  1  0.808739  0.185229  0.000000  1
