# generated using pymatgen
data_Tb2DyCdAg3Ge2
_symmetry_space_group_name_H-M   'P 1'
_cell_length_a   7.34517701
_cell_length_b   7.34517669
_cell_length_c   4.21960100
_cell_angle_alpha   90.00000000
_cell_angle_beta   90.00000000
_cell_angle_gamma   119.97290520
_symmetry_Int_Tables_number   1
_chemical_formula_structural   Tb2DyCdAg3Ge2
_chemical_formula_sum   'Tb2 Dy1 Cd1 Ag3 Ge2'
_cell_volume   197.20823222
_cell_formula_units_Z   1
loop_
 _symmetry_equiv_pos_site_id
 _symmetry_equiv_pos_as_xyz
  1  'x, y, z'
loop_
 _atom_site_type_symbol
 _atom_site_label
 _atom_site_symmetry_multiplicity
 _atom_site_fract_x
 _atom_site_fract_y
 _atom_site_fract_z
 _atom_site_occupancy
  Tb  Tb0  1  0.999912  0.574869  0.000000  1
  Tb  Tb1  1  0.574869  0.999912  0.000000  1
  Dy  Dy2  1  0.425195  0.425195  0.000000  1
  Cd  Cd3  1  0.000327  0.000327  0.000000  1
  Ag  Ag4  1  0.742164  0.742164  0.500000  1
  Ag  Ag5  1  0.257605  0.000257  0.500000  1
  Ag  Ag6  1  0.000257  0.257605  0.500000  1
  Ge  Ge7  1  0.666127  0.333543  0.500000  1
  Ge  Ge8  1  0.333543  0.666127  0.500000  1
