# generated using pymatgen
data_Lu9Sc(In2Pd)4
_symmetry_space_group_name_H-M   'P 1'
_cell_length_a   3.55742400
_cell_length_b   7.99581962
_cell_length_c   17.98805863
_cell_angle_alpha   89.92712749
_cell_angle_beta   90.00000000
_cell_angle_gamma   90.00000000
_symmetry_Int_Tables_number   1
_chemical_formula_structural   Lu9Sc(In2Pd)4
_chemical_formula_sum   'Lu9 Sc1 In8 Pd4'
_cell_volume   511.66129070
_cell_formula_units_Z   1
loop_
 _symmetry_equiv_pos_site_id
 _symmetry_equiv_pos_as_xyz
  1  'x, y, z'
loop_
 _atom_site_type_symbol
 _atom_site_label
 _atom_site_symmetry_multiplicity
 _atom_site_fract_x
 _atom_site_fract_y
 _atom_site_fract_z
 _atom_site_occupancy
  Lu  Lu0  1  0.000000  0.000000  0.000000  1
  Lu  Lu1  1  0.000000  0.742206  0.280378  1
  Lu  Lu2  1  0.000000  0.257794  0.719622  1
  Lu  Lu3  1  0.000000  0.756427  0.777426  1
  Lu  Lu4  1  0.000000  0.243573  0.222574  1
  Lu  Lu5  1  0.000000  0.618345  0.084163  1
  Lu  Lu6  1  0.000000  0.381655  0.915837  1
  Lu  Lu7  1  0.000000  0.882589  0.582504  1
  Lu  Lu8  1  0.000000  0.117411  0.417496  1
  Sc  Sc9  1  0.000000  0.500000  0.500000  1
  In  In10  1  0.500000  0.709214  0.931974  1
  In  In11  1  0.500000  0.290786  0.068026  1
  In  In12  1  0.500000  0.784914  0.434316  1
  In  In13  1  0.500000  0.215086  0.565684  1
  In  In14  1  0.500000  0.576096  0.645178  1
  In  In15  1  0.500000  0.423904  0.354822  1
  In  In16  1  0.500000  0.923065  0.149591  1
  In  In17  1  0.500000  0.076935  0.850409  1
  Pd  Pd18  1  0.500000  0.525608  0.196195  1
  Pd  Pd19  1  0.500000  0.474392  0.803805  1
  Pd  Pd20  1  0.500000  0.975850  0.694410  1
  Pd  Pd21  1  0.500000  0.024150  0.305590  1
