# generated using pymatgen
data_Tm8Cr3OsC8
_symmetry_space_group_name_H-M   'P 1'
_cell_length_a   4.98086200
_cell_length_b   6.41297118
_cell_length_c   9.64919500
_cell_angle_alpha   90.03460310
_cell_angle_beta   90.00000000
_cell_angle_gamma   90.00000000
_symmetry_Int_Tables_number   1
_chemical_formula_structural   Tm8Cr3OsC8
_chemical_formula_sum   'Tm8 Cr3 Os1 C8'
_cell_volume   308.21573124
_cell_formula_units_Z   1
loop_
 _symmetry_equiv_pos_site_id
 _symmetry_equiv_pos_as_xyz
  1  'x, y, z'
loop_
 _atom_site_type_symbol
 _atom_site_label
 _atom_site_symmetry_multiplicity
 _atom_site_fract_x
 _atom_site_fract_y
 _atom_site_fract_z
 _atom_site_occupancy
  Tm  Tm0  1  0.250000  0.682422  0.557029  1
  Tm  Tm1  1  0.750000  0.322388  0.441929  1
  Tm  Tm2  1  0.750000  0.820511  0.057199  1
  Tm  Tm3  1  0.250000  0.175849  0.944543  1
  Tm  Tm4  1  0.250000  0.532553  0.217892  1
  Tm  Tm5  1  0.750000  0.464920  0.783509  1
  Tm  Tm6  1  0.750000  0.967661  0.714107  1
  Tm  Tm7  1  0.250000  0.032595  0.282010  1
  Cr  Cr8  1  0.250000  0.722083  0.863158  1
  Cr  Cr9  1  0.750000  0.274679  0.139768  1
  Cr  Cr10  1  0.750000  0.775253  0.362686  1
  Os  Os11  1  0.250000  0.221734  0.635173  1
  C  C12  1  0.250000  0.460118  0.763632  1
  C  C13  1  0.750000  0.544837  0.238936  1
  C  C14  1  0.750000  0.042971  0.261991  1
  C  C15  1  0.250000  0.948928  0.743292  1
  C  C16  1  0.250000  0.814306  0.042658  1
  C  C17  1  0.750000  0.187076  0.960376  1
  C  C18  1  0.750000  0.685021  0.542455  1
  C  C19  1  0.250000  0.324095  0.447657  1
