# generated using pymatgen
data_Pa3Ga3FeRh2
_symmetry_space_group_name_H-M   'P 1'
_cell_length_a   6.98888500
_cell_length_b   6.98888392
_cell_length_c   3.93858300
_cell_angle_alpha   90.00000000
_cell_angle_beta   90.00000000
_cell_angle_gamma   120.00000036
_symmetry_Int_Tables_number   1
_chemical_formula_structural   Pa3Ga3FeRh2
_chemical_formula_sum   'Pa3 Ga3 Fe1 Rh2'
_cell_volume   166.60435668
_cell_formula_units_Z   1
loop_
 _symmetry_equiv_pos_site_id
 _symmetry_equiv_pos_as_xyz
  1  'x, y, z'
loop_
 _atom_site_type_symbol
 _atom_site_label
 _atom_site_symmetry_multiplicity
 _atom_site_fract_x
 _atom_site_fract_y
 _atom_site_fract_z
 _atom_site_occupancy
  Pa  Pa0  1  0.427595  0.013151  0.500000  1
  Pa  Pa1  1  0.986849  0.414444  0.500000  1
  Pa  Pa2  1  0.585556  0.572405  0.500000  1
  Ga  Ga3  1  0.757363  0.003121  0.000000  1
  Ga  Ga4  1  0.996879  0.754243  0.000000  1
  Ga  Ga5  1  0.245757  0.242637  0.000000  1
  Fe  Fe6  1  0.666667  0.333333  0.000000  1
  Rh  Rh7  1  0.333333  0.666667  0.000000  1
  Rh  Rh8  1  0.000000  0.000000  0.500000  1
