# generated using pymatgen
data_Sc8V11ReSi15Ge
_symmetry_space_group_name_H-M   'P 1'
_cell_length_a   6.48102413
_cell_length_b   6.64914620
_cell_length_c   12.58525407
_cell_angle_alpha   90.05680712
_cell_angle_beta   90.05547063
_cell_angle_gamma   89.99951574
_symmetry_Int_Tables_number   1
_chemical_formula_structural   Sc8V11ReSi15Ge
_chemical_formula_sum   'Sc8 V11 Re1 Si15 Ge1'
_cell_volume   542.33931869
_cell_formula_units_Z   1
loop_
 _symmetry_equiv_pos_site_id
 _symmetry_equiv_pos_as_xyz
  1  'x, y, z'
loop_
 _atom_site_type_symbol
 _atom_site_label
 _atom_site_symmetry_multiplicity
 _atom_site_fract_x
 _atom_site_fract_y
 _atom_site_fract_z
 _atom_site_occupancy
  Sc  Sc0  1  0.004810  0.171576  0.093240  1
  Sc  Sc1  1  0.502563  0.327786  0.404823  1
  Sc  Sc2  1  0.496457  0.670491  0.905775  1
  Sc  Sc3  1  0.997321  0.829859  0.594849  1
  Sc  Sc4  1  0.997265  0.828873  0.905850  1
  Sc  Sc5  1  0.492755  0.673123  0.595679  1
  Sc  Sc6  1  0.503901  0.329579  0.093656  1
  Sc  Sc7  1  0.005851  0.170639  0.405549  1
  V  V8  1  0.164464  0.510041  0.249886  1
  V  V9  1  0.835879  0.488655  0.752557  1
  V  V10  1  0.336242  0.010367  0.749861  1
  V  V11  1  0.838086  0.668282  0.126048  1
  V  V12  1  0.336082  0.831483  0.373209  1
  V  V13  1  0.662388  0.170122  0.874435  1
  V  V14  1  0.164372  0.329833  0.626804  1
  V  V15  1  0.161577  0.330162  0.873942  1
  V  V16  1  0.658643  0.165336  0.627628  1
  V  V17  1  0.336856  0.830707  0.125850  1
  V  V18  1  0.840190  0.670732  0.371815  1
  Re  Re19  1  0.665270  0.994229  0.249840  1
  Si  Si20  1  0.805255  0.366583  0.249594  1
  Si  Si21  1  0.301054  0.136590  0.249129  1
  Si  Si22  1  0.698574  0.864260  0.750887  1
  Si  Si23  1  0.197270  0.634198  0.750422  1
  Si  Si24  1  0.039703  0.875642  0.248856  1
  Si  Si25  1  0.537251  0.622910  0.249791  1
  Si  Si26  1  0.461925  0.376900  0.750637  1
  Si  Si27  1  0.961805  0.123572  0.750140  1
  Si  Si28  1  0.832944  0.459985  0.958166  1
  Si  Si29  1  0.331576  0.040669  0.541428  1
  Si  Si30  1  0.667453  0.958779  0.041296  1
  Si  Si31  1  0.170694  0.540481  0.457728  1
  Si  Si32  1  0.167119  0.539565  0.041658  1
  Si  Si33  1  0.667471  0.957950  0.458744  1
  Si  Si34  1  0.332441  0.040168  0.957794  1
  Ge  Ge35  1  0.826487  0.459872  0.542437  1
