# generated using pymatgen
data_YbPrGa12Cu
_symmetry_space_group_name_H-M   'P 1'
_cell_length_a   6.17198800
_cell_length_b   6.17198800
_cell_length_c   15.32790700
_cell_angle_alpha   90.00000000
_cell_angle_beta   90.00000000
_cell_angle_gamma   90.00000000
_symmetry_Int_Tables_number   1
_chemical_formula_structural   YbPrGa12Cu
_chemical_formula_sum   'Yb2 Pr2 Ga24 Cu2'
_cell_volume   583.89264236
_cell_formula_units_Z   2
loop_
 _symmetry_equiv_pos_site_id
 _symmetry_equiv_pos_as_xyz
  1  'x, y, z'
loop_
 _atom_site_type_symbol
 _atom_site_label
 _atom_site_symmetry_multiplicity
 _atom_site_fract_x
 _atom_site_fract_y
 _atom_site_fract_z
 _atom_site_occupancy
  Yb  Yb0  1  0.000000  0.500000  0.242584  1
  Yb  Yb1  1  0.500000  0.000000  0.242584  1
  Pr  Pr2  1  0.000000  0.500000  0.756453  1
  Pr  Pr3  1  0.500000  0.000000  0.756453  1
  Ga  Ga4  1  0.670242  0.170242  0.429460  1
  Ga  Ga5  1  0.669815  0.830185  0.569583  1
  Ga  Ga6  1  0.169815  0.669815  0.569583  1
  Ga  Ga7  1  0.830185  0.330185  0.569583  1
  Ga  Ga8  1  0.500000  0.500000  0.181390  1
  Ga  Ga9  1  0.500000  0.500000  0.818929  1
  Ga  Ga10  1  0.000000  0.000000  0.818929  1
  Ga  Ga11  1  0.000000  0.000000  0.181390  1
  Ga  Ga12  1  0.500000  0.500000  0.342360  1
  Ga  Ga13  1  0.500000  0.500000  0.657267  1
  Ga  Ga14  1  0.000000  0.000000  0.657267  1
  Ga  Ga15  1  0.000000  0.000000  0.342360  1
  Ga  Ga16  1  0.250101  0.750101  0.915748  1
  Ga  Ga17  1  0.249899  0.250101  0.915748  1
  Ga  Ga18  1  0.750101  0.749899  0.915748  1
  Ga  Ga19  1  0.250021  0.249979  0.086220  1
  Ga  Ga20  1  0.749979  0.750021  0.086220  1
  Ga  Ga21  1  0.749899  0.249899  0.915748  1
  Ga  Ga22  1  0.750021  0.250021  0.086220  1
  Ga  Ga23  1  0.249979  0.749979  0.086220  1
  Ga  Ga24  1  0.329758  0.829758  0.429460  1
  Ga  Ga25  1  0.170242  0.329758  0.429460  1
  Ga  Ga26  1  0.829758  0.670242  0.429460  1
  Ga  Ga27  1  0.330185  0.169815  0.569583  1
  Cu  Cu28  1  0.500000  0.000000  0.998996  1
  Cu  Cu29  1  0.000000  0.500000  0.998996  1
