# generated using pymatgen
data_TaNb3Si4IrRh3
_symmetry_space_group_name_H-M   'P 1'
_cell_length_a   3.78553600
_cell_length_b   6.45143943
_cell_length_c   7.35093669
_cell_angle_alpha   90.20992312
_cell_angle_beta   90.00000000
_cell_angle_gamma   90.00000000
_symmetry_Int_Tables_number   1
_chemical_formula_structural   TaNb3Si4IrRh3
_chemical_formula_sum   'Ta1 Nb3 Si4 Ir1 Rh3'
_cell_volume   179.52451935
_cell_formula_units_Z   1
loop_
 _symmetry_equiv_pos_site_id
 _symmetry_equiv_pos_as_xyz
  1  'x, y, z'
loop_
 _atom_site_type_symbol
 _atom_site_label
 _atom_site_symmetry_multiplicity
 _atom_site_fract_x
 _atom_site_fract_y
 _atom_site_fract_z
 _atom_site_occupancy
  Ta  Ta0  1  0.250000  0.024571  0.825712  1
  Nb  Nb1  1  0.250000  0.526087  0.672169  1
  Nb  Nb2  1  0.750000  0.473920  0.327333  1
  Nb  Nb3  1  0.750000  0.975473  0.173538  1
  Si  Si4  1  0.250000  0.268558  0.124507  1
  Si  Si5  1  0.750000  0.731160  0.877210  1
  Si  Si6  1  0.250000  0.767789  0.374086  1
  Si  Si7  1  0.750000  0.232280  0.624332  1
  Ir  Ir8  1  0.750000  0.855882  0.564368  1
  Rh  Rh9  1  0.250000  0.144725  0.437665  1
  Rh  Rh10  1  0.750000  0.354177  0.936530  1
  Rh  Rh11  1  0.250000  0.645379  0.062552  1
