# generated using pymatgen
data_TbErPa3P12Ru19
_symmetry_space_group_name_H-M   'P 1'
_cell_length_a   12.58067071
_cell_length_b   12.58565700
_cell_length_c   3.96166500
_cell_angle_alpha   90.00000000
_cell_angle_beta   90.00000000
_cell_angle_gamma   120.12181222
_symmetry_Int_Tables_number   1
_chemical_formula_structural   TbErPa3P12Ru19
_chemical_formula_sum   'Tb1 Er1 Pa3 P12 Ru19'
_cell_volume   542.56737758
_cell_formula_units_Z   1
loop_
 _symmetry_equiv_pos_site_id
 _symmetry_equiv_pos_as_xyz
  1  'x, y, z'
loop_
 _atom_site_type_symbol
 _atom_site_label
 _atom_site_symmetry_multiplicity
 _atom_site_fract_x
 _atom_site_fract_y
 _atom_site_fract_z
 _atom_site_occupancy
  Tb  Tb0  1  0.809794  0.999554  0.500000  1
  Er  Er1  1  0.999525  0.809679  0.500000  1
  Pa  Pa2  1  0.182106  0.182102  0.500000  1
  Pa  Pa3  1  0.334270  0.667267  0.000000  1
  Pa  Pa4  1  0.666882  0.333906  0.000000  1
  P  P5  1  0.818038  0.817266  0.000000  1
  P  P6  1  0.181261  0.995400  0.000000  1
  P  P7  1  0.996091  0.181813  0.000000  1
  P  P8  1  0.169946  0.476552  0.500000  1
  P  P9  1  0.525084  0.695463  0.500000  1
  P  P10  1  0.306026  0.829532  0.500000  1
  P  P11  1  0.695456  0.524747  0.500000  1
  P  P12  1  0.829472  0.306222  0.500000  1
  P  P13  1  0.475865  0.169599  0.500000  1
  P  P14  1  0.372568  0.372512  0.000000  1
  P  P15  1  0.628665  0.000632  0.000000  1
  P  P16  1  0.000596  0.629228  0.000000  1
  Ru  Ru17  1  0.554510  0.554136  0.000000  1
  Ru  Ru18  1  0.447202  0.003372  0.000000  1
  Ru  Ru19  1  0.003802  0.447873  0.000000  1
  Ru  Ru20  1  0.719762  0.719211  0.500000  1
  Ru  Ru21  1  0.281648  0.000411  0.500000  1
  Ru  Ru22  1  0.000895  0.282553  0.500000  1
  Ru  Ru23  1  0.183935  0.372905  0.000000  1
  Ru  Ru24  1  0.620821  0.805428  0.000000  1
  Ru  Ru25  1  0.195014  0.815465  0.000000  1
  Ru  Ru26  1  0.806636  0.621461  0.000000  1
  Ru  Ru27  1  0.815755  0.196253  0.000000  1
  Ru  Ru28  1  0.372602  0.183573  0.000000  1
  Ru  Ru29  1  0.366048  0.494665  0.500000  1
  Ru  Ru30  1  0.505647  0.873237  0.500000  1
  Ru  Ru31  1  0.129068  0.634172  0.500000  1
  Ru  Ru32  1  0.873222  0.505788  0.500000  1
  Ru  Ru33  1  0.633732  0.129072  0.500000  1
  Ru  Ru34  1  0.494450  0.365817  0.500000  1
  Ru  Ru35  1  0.003605  0.003136  0.000000  1
