# generated using pymatgen
data_Sc20Ga3Bi8Sb
_symmetry_space_group_name_H-M   'P 1'
_cell_length_a   7.63131579
_cell_length_b   8.88162800
_cell_length_c   11.21917002
_cell_angle_alpha   90.00000000
_cell_angle_beta   89.84701036
_cell_angle_gamma   90.00000000
_symmetry_Int_Tables_number   1
_chemical_formula_structural   Sc20Ga3Bi8Sb
_chemical_formula_sum   'Sc20 Ga3 Bi8 Sb1'
_cell_volume   760.41589379
_cell_formula_units_Z   1
loop_
 _symmetry_equiv_pos_site_id
 _symmetry_equiv_pos_as_xyz
  1  'x, y, z'
loop_
 _atom_site_type_symbol
 _atom_site_label
 _atom_site_symmetry_multiplicity
 _atom_site_fract_x
 _atom_site_fract_y
 _atom_site_fract_z
 _atom_site_occupancy
  Sc  Sc0  1  0.034209  0.250000  0.509862  1
  Sc  Sc1  1  0.966110  0.750000  0.489252  1
  Sc  Sc2  1  0.464411  0.750000  0.010969  1
  Sc  Sc3  1  0.523455  0.250000  0.989728  1
  Sc  Sc4  1  0.348153  0.250000  0.293279  1
  Sc  Sc5  1  0.652961  0.750000  0.706315  1
  Sc  Sc6  1  0.148404  0.750000  0.792701  1
  Sc  Sc7  1  0.845667  0.250000  0.215051  1
  Sc  Sc8  1  0.190303  0.250000  0.778252  1
  Sc  Sc9  1  0.818715  0.750000  0.214442  1
  Sc  Sc10  1  0.319765  0.750000  0.284596  1
  Sc  Sc11  1  0.678880  0.250000  0.713037  1
  Sc  Sc12  1  0.191721  0.053389  0.058271  1
  Sc  Sc13  1  0.812801  0.930147  0.944280  1
  Sc  Sc14  1  0.315633  0.940478  0.554741  1
  Sc  Sc15  1  0.812801  0.569853  0.944280  1
  Sc  Sc16  1  0.684589  0.059289  0.446332  1
  Sc  Sc17  1  0.191721  0.446611  0.058271  1
  Sc  Sc18  1  0.684589  0.440711  0.446332  1
  Sc  Sc19  1  0.315633  0.559522  0.554741  1
  Ga  Ga20  1  0.406334  0.250000  0.539460  1
  Ga  Ga21  1  0.591702  0.750000  0.459354  1
  Ga  Ga22  1  0.092171  0.750000  0.040365  1
  Bi  Bi23  1  0.059157  0.001574  0.321761  1
  Bi  Bi24  1  0.940449  0.997574  0.676140  1
  Bi  Bi25  1  0.440245  0.996557  0.822102  1
  Bi  Bi26  1  0.940449  0.502426  0.676140  1
  Bi  Bi27  1  0.560358  0.002206  0.178660  1
  Bi  Bi28  1  0.059157  0.498426  0.321761  1
  Bi  Bi29  1  0.560358  0.497794  0.178660  1
  Bi  Bi30  1  0.440245  0.503443  0.822102  1
  Sb  Sb31  1  0.908854  0.250000  0.958765  1
