# generated using pymatgen
data_Tm4CrOs6W
_symmetry_space_group_name_H-M   'P 1'
_cell_length_a   5.45904222
_cell_length_b   5.18219913
_cell_length_c   8.87696900
_cell_angle_alpha   90.00000000
_cell_angle_beta   90.00000000
_cell_angle_gamma   121.74293471
_symmetry_Int_Tables_number   1
_chemical_formula_structural   Tm4CrOs6W
_chemical_formula_sum   'Tm4 Cr1 Os6 W1'
_cell_volume   213.56360415
_cell_formula_units_Z   1
loop_
 _symmetry_equiv_pos_site_id
 _symmetry_equiv_pos_as_xyz
  1  'x, y, z'
loop_
 _atom_site_type_symbol
 _atom_site_label
 _atom_site_symmetry_multiplicity
 _atom_site_fract_x
 _atom_site_fract_y
 _atom_site_fract_z
 _atom_site_occupancy
  Tm  Tm0  1  0.670869  0.341798  0.562568  1
  Tm  Tm1  1  0.331968  0.663839  0.432918  1
  Tm  Tm2  1  0.331968  0.663839  0.067082  1
  Tm  Tm3  1  0.670869  0.341798  0.937432  1
  Cr  Cr4  1  0.833921  0.668278  0.250000  1
  Os  Os5  1  0.999351  0.998443  0.494198  1
  Os  Os6  1  0.999351  0.998443  0.005802  1
  Os  Os7  1  0.172873  0.822105  0.750000  1
  Os  Os8  1  0.649238  0.822310  0.750000  1
  Os  Os9  1  0.827139  0.179516  0.250000  1
  Os  Os10  1  0.352153  0.179157  0.250000  1
  W  W11  1  0.160300  0.320475  0.750000  1
