# generated using pymatgen
data_Mn3Ni(BRh2)2
_symmetry_space_group_name_H-M   'P 1'
_cell_length_a   9.15363900
_cell_length_b   9.15363900
_cell_length_c   2.95392400
_cell_angle_alpha   90.00000000
_cell_angle_beta   90.00000000
_cell_angle_gamma   90.00000000
_symmetry_Int_Tables_number   1
_chemical_formula_structural   Mn3Ni(BRh2)2
_chemical_formula_sum   'Mn6 Ni2 B4 Rh8'
_cell_volume   247.50665394
_cell_formula_units_Z   2
loop_
 _symmetry_equiv_pos_site_id
 _symmetry_equiv_pos_as_xyz
  1  'x, y, z'
loop_
 _atom_site_type_symbol
 _atom_site_label
 _atom_site_symmetry_multiplicity
 _atom_site_fract_x
 _atom_site_fract_y
 _atom_site_fract_z
 _atom_site_occupancy
  Mn  Mn0  1  0.823356  0.323356  0.000000  1
  Mn  Mn1  1  0.323356  0.176644  0.000000  1
  Mn  Mn2  1  0.676644  0.823356  0.000000  1
  Mn  Mn3  1  0.176644  0.676644  0.000000  1
  Mn  Mn4  1  0.000000  0.000000  0.000000  1
  Mn  Mn5  1  0.500000  0.500000  0.000000  1
  Ni  Ni6  1  0.500000  0.000000  0.500000  1
  Ni  Ni7  1  0.000000  0.500000  0.500000  1
  B  B8  1  0.618928  0.118928  0.000000  1
  B  B9  1  0.118928  0.381072  0.000000  1
  B  B10  1  0.881072  0.618928  0.000000  1
  B  B11  1  0.381072  0.881072  0.000000  1
  Rh  Rh12  1  0.063342  0.223156  0.500000  1
  Rh  Rh13  1  0.223156  0.936658  0.500000  1
  Rh  Rh14  1  0.776844  0.063342  0.500000  1
  Rh  Rh15  1  0.936658  0.776844  0.500000  1
  Rh  Rh16  1  0.436658  0.723156  0.500000  1
  Rh  Rh17  1  0.563342  0.276844  0.500000  1
  Rh  Rh18  1  0.723156  0.563342  0.500000  1
  Rh  Rh19  1  0.276844  0.436658  0.500000  1
