# generated using pymatgen
data_ErTm(MgIr4)2
_symmetry_space_group_name_H-M   'P 1'
_cell_length_a   5.27962400
_cell_length_b   5.27962356
_cell_length_c   8.55800600
_cell_angle_alpha   90.00000000
_cell_angle_beta   90.00000000
_cell_angle_gamma   120.00000275
_symmetry_Int_Tables_number   1
_chemical_formula_structural   ErTm(MgIr4)2
_chemical_formula_sum   'Er1 Tm1 Mg2 Ir8'
_cell_volume   206.58993501
_cell_formula_units_Z   1
loop_
 _symmetry_equiv_pos_site_id
 _symmetry_equiv_pos_as_xyz
  1  'x, y, z'
loop_
 _atom_site_type_symbol
 _atom_site_label
 _atom_site_symmetry_multiplicity
 _atom_site_fract_x
 _atom_site_fract_y
 _atom_site_fract_z
 _atom_site_occupancy
  Er  Er0  1  0.333333  0.666667  0.069676  1
  Tm  Tm1  1  0.666667  0.333333  0.569575  1
  Mg  Mg2  1  0.666667  0.333333  0.935925  1
  Mg  Mg3  1  0.333333  0.666667  0.436729  1
  Ir  Ir4  1  0.000000  0.000000  0.996104  1
  Ir  Ir5  1  0.000000  0.000000  0.496234  1
  Ir  Ir6  1  0.828842  0.657684  0.249557  1
  Ir  Ir7  1  0.171133  0.828867  0.749029  1
  Ir  Ir8  1  0.657734  0.828867  0.749029  1
  Ir  Ir9  1  0.342316  0.171158  0.249557  1
  Ir  Ir10  1  0.828842  0.171158  0.249557  1
  Ir  Ir11  1  0.171133  0.342266  0.749029  1
