# generated using pymatgen
data_Dy3Sc4PaSb20
_symmetry_space_group_name_H-M   'P 1'
_cell_length_a   4.20498500
_cell_length_b   13.02789761
_cell_length_c   14.17120543
_cell_angle_alpha   78.72936900
_cell_angle_beta   90.00000000
_cell_angle_gamma   90.00000000
_symmetry_Int_Tables_number   1
_chemical_formula_structural   Dy3Sc4PaSb20
_chemical_formula_sum   'Dy3 Sc4 Pa1 Sb20'
_cell_volume   761.35707040
_cell_formula_units_Z   1
loop_
 _symmetry_equiv_pos_site_id
 _symmetry_equiv_pos_as_xyz
  1  'x, y, z'
loop_
 _atom_site_type_symbol
 _atom_site_label
 _atom_site_symmetry_multiplicity
 _atom_site_fract_x
 _atom_site_fract_y
 _atom_site_fract_z
 _atom_site_occupancy
  Dy  Dy0  1  0.750000  0.328760  0.425295  1
  Dy  Dy1  1  0.250000  0.954424  0.352049  1
  Dy  Dy2  1  0.750000  0.048009  0.645180  1
  Sc  Sc3  1  0.250000  0.391445  0.774466  1
  Sc  Sc4  1  0.750000  0.605003  0.226591  1
  Sc  Sc5  1  0.250000  0.658028  0.859786  1
  Sc  Sc6  1  0.750000  0.343195  0.141027  1
  Pa  Pa7  1  0.250000  0.669795  0.573390  1
  Sb  Sb8  1  0.250000  0.146503  0.778244  1
  Sb  Sb9  1  0.750000  0.853121  0.220122  1
  Sb  Sb10  1  0.250000  0.139580  0.482771  1
  Sb  Sb11  1  0.750000  0.853068  0.514907  1
  Sb  Sb12  1  0.250000  0.163536  0.158786  1
  Sb  Sb13  1  0.750000  0.838244  0.844916  1
  Sb  Sb14  1  0.250000  0.421994  0.976563  1
  Sb  Sb15  1  0.750000  0.578386  0.022575  1
  Sb  Sb16  1  0.750000  0.034244  0.914344  1
  Sb  Sb17  1  0.250000  0.970967  0.086368  1
  Sb  Sb18  1  0.750000  0.143626  0.312591  1
  Sb  Sb19  1  0.250000  0.856599  0.692070  1
  Sb  Sb20  1  0.750000  0.278136  0.937877  1
  Sb  Sb21  1  0.250000  0.721380  0.062737  1
  Sb  Sb22  1  0.750000  0.288991  0.661482  1
  Sb  Sb23  1  0.250000  0.710850  0.339658  1
  Sb  Sb24  1  0.750000  0.576161  0.735598  1
  Sb  Sb25  1  0.250000  0.426706  0.259792  1
  Sb  Sb26  1  0.750000  0.570107  0.445373  1
  Sb  Sb27  1  0.250000  0.429143  0.555440  1
