# generated using pymatgen
data_YbSi2NiO6
_symmetry_space_group_name_H-M   'P 1'
_cell_length_a   5.26725457
_cell_length_b   6.61706612
_cell_length_c   6.61707370
_cell_angle_alpha   95.66857872
_cell_angle_beta   101.56903080
_cell_angle_gamma   78.43043140
_symmetry_Int_Tables_number   1
_chemical_formula_structural   YbSi2NiO6
_chemical_formula_sum   'Yb2 Si4 Ni2 O12'
_cell_volume   220.94139284
_cell_formula_units_Z   2
loop_
 _symmetry_equiv_pos_site_id
 _symmetry_equiv_pos_as_xyz
  1  'x, y, z'
loop_
 _atom_site_type_symbol
 _atom_site_label
 _atom_site_symmetry_multiplicity
 _atom_site_fract_x
 _atom_site_fract_y
 _atom_site_fract_z
 _atom_site_occupancy
  Yb  Yb0  1  0.750002  0.298721  0.298722  1
  Yb  Yb1  1  0.249998  0.701281  0.701278  1
  Si  Si2  1  0.229544  0.618234  0.193612  1
  Si  Si3  1  0.729543  0.806392  0.381773  1
  Si  Si4  1  0.270457  0.193609  0.618228  1
  Si  Si5  1  0.770456  0.381767  0.806388  1
  Ni  Ni6  1  0.250001  0.090997  0.091003  1
  Ni  Ni7  1  0.749999  0.909003  0.908998  1
  O  O8  1  0.144242  0.793975  0.025842  1
  O  O9  1  0.326952  0.385498  0.110682  1
  O  O10  1  0.644241  0.974155  0.206025  1
  O  O11  1  0.992224  0.626389  0.331820  1
  O  O12  1  0.492223  0.668186  0.373617  1
  O  O13  1  0.173053  0.110664  0.385497  1
  O  O14  1  0.826947  0.889337  0.614503  1
  O  O15  1  0.507777  0.331815  0.626384  1
  O  O16  1  0.007776  0.373612  0.668181  1
  O  O17  1  0.355759  0.025847  0.793975  1
  O  O18  1  0.673048  0.614503  0.889319  1
  O  O19  1  0.855758  0.206027  0.974158  1
