# generated using pymatgen
data_Nd7Sm(SiBr6)2
_symmetry_space_group_name_H-M   'P 1'
_cell_length_a   4.19452700
_cell_length_b   13.69730452
_cell_length_c   14.51562907
_cell_angle_alpha   89.83174404
_cell_angle_beta   90.00000000
_cell_angle_gamma   90.00000000
_symmetry_Int_Tables_number   1
_chemical_formula_structural   Nd7Sm(SiBr6)2
_chemical_formula_sum   'Nd7 Sm1 Si2 Br12'
_cell_volume   833.97320020
_cell_formula_units_Z   1
loop_
 _symmetry_equiv_pos_site_id
 _symmetry_equiv_pos_as_xyz
  1  'x, y, z'
loop_
 _atom_site_type_symbol
 _atom_site_label
 _atom_site_symmetry_multiplicity
 _atom_site_fract_x
 _atom_site_fract_y
 _atom_site_fract_z
 _atom_site_occupancy
  Nd  Nd0  1  0.500000  0.119743  0.339523  1
  Nd  Nd1  1  0.500000  0.880734  0.659904  1
  Nd  Nd2  1  0.500000  0.618159  0.159567  1
  Nd  Nd3  1  0.500000  0.380767  0.841102  1
  Nd  Nd4  1  0.000000  0.120068  0.579364  1
  Nd  Nd5  1  0.000000  0.880038  0.420400  1
  Nd  Nd6  1  0.000000  0.618817  0.921198  1
  Sm  Sm7  1  0.000000  0.381538  0.078464  1
  Si  Si8  1  0.500000  0.000193  0.499684  1
  Si  Si9  1  0.500000  0.498753  0.000795  1
  Br  Br10  1  0.500000  0.248485  0.161127  1
  Br  Br11  1  0.500000  0.755190  0.837606  1
  Br  Br12  1  0.500000  0.743765  0.337120  1
  Br  Br13  1  0.500000  0.255780  0.663156  1
  Br  Br14  1  0.000000  0.255103  0.411015  1
  Br  Br15  1  0.000000  0.745059  0.588696  1
  Br  Br16  1  0.000000  0.754421  0.088514  1
  Br  Br17  1  0.000000  0.246018  0.914632  1
  Br  Br18  1  0.000000  0.002273  0.243492  1
  Br  Br19  1  0.000000  0.998216  0.756135  1
  Br  Br20  1  0.000000  0.498628  0.254169  1
  Br  Br21  1  0.000000  0.498249  0.744339  1
