# generated using pymatgen
data_Tb16TlIn(HgRh2)2
_symmetry_space_group_name_H-M   'P 1'
_cell_length_a   9.67778704
_cell_length_b   9.67717280
_cell_length_c   9.67048700
_cell_angle_alpha   60.02285503
_cell_angle_beta   60.02495262
_cell_angle_gamma   60.06735885
_symmetry_Int_Tables_number   1
_chemical_formula_structural   Tb16TlIn(HgRh2)2
_chemical_formula_sum   'Tb16 Tl1 In1 Hg2 Rh4'
_cell_volume   640.96671792
_cell_formula_units_Z   1
loop_
 _symmetry_equiv_pos_site_id
 _symmetry_equiv_pos_as_xyz
  1  'x, y, z'
loop_
 _atom_site_type_symbol
 _atom_site_label
 _atom_site_symmetry_multiplicity
 _atom_site_fract_x
 _atom_site_fract_y
 _atom_site_fract_z
 _atom_site_occupancy
  Tb  Tb0  1  0.810356  0.809280  0.190182  1
  Tb  Tb1  1  0.811771  0.189834  0.808698  1
  Tb  Tb2  1  0.189108  0.189199  0.810847  1
  Tb  Tb3  1  0.648686  0.051723  0.649795  1
  Tb  Tb4  1  0.062639  0.063359  0.437001  1
  Tb  Tb5  1  0.437347  0.437308  0.062672  1
  Tb  Tb6  1  0.650060  0.649567  0.650781  1
  Tb  Tb7  1  0.811771  0.189834  0.189697  1
  Tb  Tb8  1  0.189517  0.811472  0.809611  1
  Tb  Tb9  1  0.051954  0.648311  0.649867  1
  Tb  Tb10  1  0.437942  0.065489  0.060192  1
  Tb  Tb11  1  0.437942  0.065489  0.436377  1
  Tb  Tb12  1  0.065104  0.437574  0.061127  1
  Tb  Tb13  1  0.650060  0.649567  0.049593  1
  Tb  Tb14  1  0.189517  0.811472  0.189401  1
  Tb  Tb15  1  0.065104  0.437574  0.436195  1
  Tl  Tl16  1  0.416348  0.749649  0.417002  1
  In  In17  1  0.745655  0.416841  0.418752  1
  Hg  Hg18  1  0.415059  0.413579  0.414322  1
  Hg  Hg19  1  0.415059  0.413579  0.757038  1
  Rh  Rh20  1  0.857555  0.426977  0.857734  1
  Rh  Rh21  1  0.857314  0.857281  0.857266  1
  Rh  Rh22  1  0.857314  0.857281  0.428139  1
  Rh  Rh23  1  0.426818  0.857760  0.857711  1
