# generated using pymatgen
data_Gd2HoSi2
_symmetry_space_group_name_H-M   'P 1'
_cell_length_a   7.50643400
_cell_length_b   7.50643400
_cell_length_c   4.27673800
_cell_angle_alpha   90.00000000
_cell_angle_beta   90.00000000
_cell_angle_gamma   90.00000000
_symmetry_Int_Tables_number   1
_chemical_formula_structural   Gd2HoSi2
_chemical_formula_sum   'Gd4 Ho2 Si4'
_cell_volume   240.97943753
_cell_formula_units_Z   2
loop_
 _symmetry_equiv_pos_site_id
 _symmetry_equiv_pos_as_xyz
  1  'x, y, z'
loop_
 _atom_site_type_symbol
 _atom_site_label
 _atom_site_symmetry_multiplicity
 _atom_site_fract_x
 _atom_site_fract_y
 _atom_site_fract_z
 _atom_site_occupancy
  Gd  Gd0  1  0.174901  0.325099  0.500000  1
  Gd  Gd1  1  0.674901  0.174901  0.500000  1
  Gd  Gd2  1  0.825099  0.674901  0.500000  1
  Gd  Gd3  1  0.325099  0.825099  0.500000  1
  Ho  Ho4  1  0.500000  0.500000  0.000000  1
  Ho  Ho5  1  0.000000  0.000000  0.000000  1
  Si  Si6  1  0.115949  0.615949  0.000000  1
  Si  Si7  1  0.384051  0.115949  0.000000  1
  Si  Si8  1  0.615949  0.884051  0.000000  1
  Si  Si9  1  0.884051  0.384051  0.000000  1
