# generated using pymatgen
data_Nd10PdRu3
_symmetry_space_group_name_H-M   'P 1'
_cell_length_a   8.98821804
_cell_length_b   9.03507175
_cell_length_c   7.37967478
_cell_angle_alpha   83.51222485
_cell_angle_beta   83.42174262
_cell_angle_gamma   42.96749829
_symmetry_Int_Tables_number   1
_chemical_formula_structural   Nd10PdRu3
_chemical_formula_sum   'Nd10 Pd1 Ru3'
_cell_volume   405.40538116
_cell_formula_units_Z   1
loop_
 _symmetry_equiv_pos_site_id
 _symmetry_equiv_pos_as_xyz
  1  'x, y, z'
loop_
 _atom_site_type_symbol
 _atom_site_label
 _atom_site_symmetry_multiplicity
 _atom_site_fract_x
 _atom_site_fract_y
 _atom_site_fract_z
 _atom_site_occupancy
  Nd  Nd0  1  0.012498  0.803241  0.926052  1
  Nd  Nd1  1  0.201707  0.987496  0.585426  1
  Nd  Nd2  1  0.985805  0.199180  0.086325  1
  Nd  Nd3  1  0.787277  0.028038  0.410973  1
  Nd  Nd4  1  0.365198  0.197637  0.817154  1
  Nd  Nd5  1  0.784997  0.641228  0.686116  1
  Nd  Nd6  1  0.645752  0.787823  0.188258  1
  Nd  Nd7  1  0.209013  0.351009  0.309253  1
  Nd  Nd8  1  0.575846  0.424608  0.751271  1
  Nd  Nd9  1  0.428180  0.578650  0.242856  1
  Pd  Pd10  1  0.184997  0.595219  0.571568  1
  Ru  Ru11  1  0.402414  0.822742  0.923096  1
  Ru  Ru12  1  0.821568  0.400683  0.427814  1
  Ru  Ru13  1  0.594749  0.182448  0.073838  1
