# generated using pymatgen
data_SrPr4Si12Ir19
_symmetry_space_group_name_H-M   'P 1'
_cell_length_a   12.93753600
_cell_length_b   12.94399859
_cell_length_c   4.04351100
_cell_angle_alpha   90.00000000
_cell_angle_beta   90.00000000
_cell_angle_gamma   119.98349066
_symmetry_Int_Tables_number   1
_chemical_formula_structural   SrPr4Si12Ir19
_chemical_formula_sum   'Sr1 Pr4 Si12 Ir19'
_cell_volume   586.51822790
_cell_formula_units_Z   1
loop_
 _symmetry_equiv_pos_site_id
 _symmetry_equiv_pos_as_xyz
  1  'x, y, z'
loop_
 _atom_site_type_symbol
 _atom_site_label
 _atom_site_symmetry_multiplicity
 _atom_site_fract_x
 _atom_site_fract_y
 _atom_site_fract_z
 _atom_site_occupancy
  Sr  Sr0  1  0.815393  0.000000  0.500000  1
  Pr  Pr1  1  0.999779  0.815578  0.500000  1
  Pr  Pr2  1  0.184200  0.184422  0.500000  1
  Pr  Pr3  1  0.333040  0.666240  0.000000  1
  Pr  Pr4  1  0.666801  0.333760  0.000000  1
  Si  Si5  1  0.999686  0.185085  0.000000  1
  Si  Si6  1  0.814601  0.814915  0.000000  1
  Si  Si7  1  0.185361  0.000000  0.000000  1
  Si  Si8  1  0.521090  0.689068  0.500000  1
  Si  Si9  1  0.311316  0.831945  0.500000  1
  Si  Si10  1  0.167815  0.479522  0.500000  1
  Si  Si11  1  0.479371  0.168055  0.500000  1
  Si  Si12  1  0.688293  0.520478  0.500000  1
  Si  Si13  1  0.832022  0.310932  0.500000  1
  Si  Si14  1  0.999854  0.630097  0.000000  1
  Si  Si15  1  0.369757  0.369903  0.000000  1
  Si  Si16  1  0.629811  0.000000  0.000000  1
  Ir  Ir17  1  0.000888  0.286078  0.500000  1
  Ir  Ir18  1  0.714809  0.713922  0.500000  1
  Ir  Ir19  1  0.285673  0.000000  0.500000  1
  Ir  Ir20  1  0.619466  0.802828  0.000000  1
  Ir  Ir21  1  0.195754  0.817544  0.000000  1
  Ir  Ir22  1  0.182922  0.378513  0.000000  1
  Ir  Ir23  1  0.378210  0.182456  0.000000  1
  Ir  Ir24  1  0.804409  0.621487  0.000000  1
  Ir  Ir25  1  0.816638  0.197172  0.000000  1
  Ir  Ir26  1  0.512269  0.874943  0.500000  1
  Ir  Ir27  1  0.125408  0.638440  0.500000  1
  Ir  Ir28  1  0.362383  0.487684  0.500000  1
  Ir  Ir29  1  0.486967  0.361560  0.500000  1
  Ir  Ir30  1  0.874699  0.512316  0.500000  1
  Ir  Ir31  1  0.637327  0.125057  0.500000  1
  Ir  Ir32  1  0.002419  0.000000  0.000000  1
  Ir  Ir33  1  0.001570  0.448761  0.000000  1
  Ir  Ir34  1  0.552810  0.551239  0.000000  1
  Ir  Ir35  1  0.447188  0.000000  0.000000  1
