# generated using pymatgen
data_VNi4P4Pd3
_symmetry_space_group_name_H-M   'P 1'
_cell_length_a   3.63147000
_cell_length_b   6.04421897
_cell_length_c   6.81599395
_cell_angle_alpha   91.12901007
_cell_angle_beta   90.00000000
_cell_angle_gamma   90.00000000
_symmetry_Int_Tables_number   1
_chemical_formula_structural   VNi4P4Pd3
_chemical_formula_sum   'V1 Ni4 P4 Pd3'
_cell_volume   149.57793250
_cell_formula_units_Z   1
loop_
 _symmetry_equiv_pos_site_id
 _symmetry_equiv_pos_as_xyz
  1  'x, y, z'
loop_
 _atom_site_type_symbol
 _atom_site_label
 _atom_site_symmetry_multiplicity
 _atom_site_fract_x
 _atom_site_fract_y
 _atom_site_fract_z
 _atom_site_occupancy
  V  V0  1  0.250000  0.038531  0.167887  1
  Ni  Ni1  1  0.750000  0.371821  0.067574  1
  Ni  Ni2  1  0.750000  0.853341  0.436963  1
  Ni  Ni3  1  0.250000  0.641342  0.932492  1
  Ni  Ni4  1  0.250000  0.136572  0.566691  1
  P  P5  1  0.750000  0.747241  0.122549  1
  P  P6  1  0.750000  0.215575  0.365394  1
  P  P7  1  0.250000  0.263107  0.885279  1
  P  P8  1  0.250000  0.768829  0.624566  1
  Pd  Pd9  1  0.750000  0.462167  0.661357  1
  Pd  Pd10  1  0.750000  0.974669  0.834093  1
  Pd  Pd11  1  0.250000  0.526806  0.335154  1
