# generated using pymatgen
data_Dy2Ho2HgIr
_symmetry_space_group_name_H-M   'P 1'
_cell_length_a   9.58570718
_cell_length_b   9.58570749
_cell_length_c   9.58891500
_cell_angle_alpha   59.98892700
_cell_angle_beta   59.98892591
_cell_angle_gamma   60.02214543
_symmetry_Int_Tables_number   1
_chemical_formula_structural   Dy2Ho2HgIr
_chemical_formula_sum   'Dy8 Ho8 Hg4 Ir4'
_cell_volume   623.02101879
_cell_formula_units_Z   4
loop_
 _symmetry_equiv_pos_site_id
 _symmetry_equiv_pos_as_xyz
  1  'x, y, z'
loop_
 _atom_site_type_symbol
 _atom_site_label
 _atom_site_symmetry_multiplicity
 _atom_site_fract_x
 _atom_site_fract_y
 _atom_site_fract_z
 _atom_site_occupancy
  Dy  Dy0  1  0.439715  0.439715  0.060285  1
  Dy  Dy1  1  0.060285  0.060285  0.439715  1
  Dy  Dy2  1  0.188154  0.811846  0.811846  1
  Dy  Dy3  1  0.811846  0.188154  0.188154  1
  Dy  Dy4  1  0.811846  0.188154  0.811846  1
  Dy  Dy5  1  0.188154  0.811846  0.188154  1
  Dy  Dy6  1  0.811800  0.811800  0.188200  1
  Dy  Dy7  1  0.188200  0.188200  0.811800  1
  Ho  Ho8  1  0.600699  0.600699  0.600343  1
  Ho  Ho9  1  0.600699  0.600699  0.198258  1
  Ho  Ho10  1  0.600343  0.198258  0.600699  1
  Ho  Ho11  1  0.198258  0.600343  0.600699  1
  Ho  Ho12  1  0.060225  0.439775  0.439775  1
  Ho  Ho13  1  0.439775  0.060225  0.060225  1
  Ho  Ho14  1  0.439775  0.060225  0.439775  1
  Ho  Ho15  1  0.060225  0.439775  0.060225  1
  Hg  Hg16  1  0.834498  0.834498  0.834657  1
  Hg  Hg17  1  0.834498  0.834498  0.496349  1
  Hg  Hg18  1  0.834657  0.496349  0.834498  1
  Hg  Hg19  1  0.496349  0.834657  0.834498  1
  Ir  Ir20  1  0.391979  0.391979  0.392525  1
  Ir  Ir21  1  0.391979  0.391979  0.823519  1
  Ir  Ir22  1  0.392525  0.823519  0.391979  1
  Ir  Ir23  1  0.823519  0.392525  0.391979  1
