# generated using pymatgen
data_Zr4Al2Fe4Si5
_symmetry_space_group_name_H-M   'P 1'
_cell_length_a   9.73076702
_cell_length_b   9.73076688
_cell_length_c   9.73076697
_cell_angle_alpha   93.81863250
_cell_angle_beta   93.81862898
_cell_angle_gamma   150.08925680
_symmetry_Int_Tables_number   1
_chemical_formula_structural   Zr4Al2Fe4Si5
_chemical_formula_sum   'Zr8 Al4 Fe8 Si10'
_cell_volume   443.88612187
_cell_formula_units_Z   2
loop_
 _symmetry_equiv_pos_site_id
 _symmetry_equiv_pos_as_xyz
  1  'x, y, z'
loop_
 _atom_site_type_symbol
 _atom_site_label
 _atom_site_symmetry_multiplicity
 _atom_site_fract_x
 _atom_site_fract_y
 _atom_site_fract_z
 _atom_site_occupancy
  Zr  Zr0  1  0.500000  0.307477  0.807478  1
  Zr  Zr1  1  0.500000  0.692523  0.192523  1
  Zr  Zr2  1  0.692523  0.500000  0.192523  1
  Zr  Zr3  1  0.307477  0.500000  0.807478  1
  Zr  Zr4  1  0.138480  0.138480  0.276960  1
  Zr  Zr5  1  0.861520  0.861520  0.723040  1
  Zr  Zr6  1  0.861520  0.138480  0.000000  1
  Zr  Zr7  1  0.138480  0.861520  0.000000  1
  Al  Al8  1  0.500000  0.902408  0.402409  1
  Al  Al9  1  0.500000  0.097592  0.597592  1
  Al  Al10  1  0.097592  0.500000  0.597592  1
  Al  Al11  1  0.902408  0.500000  0.402409  1
  Fe  Fe12  1  0.902281  0.402281  0.804561  1
  Fe  Fe13  1  0.597718  0.097719  0.195439  1
  Fe  Fe14  1  0.097719  0.902281  0.500000  1
  Fe  Fe15  1  0.402281  0.597718  0.499999  1
  Fe  Fe16  1  0.097719  0.597718  0.195439  1
  Fe  Fe17  1  0.402281  0.902281  0.804561  1
  Fe  Fe18  1  0.902281  0.097719  0.500000  1
  Fe  Fe19  1  0.597718  0.402281  0.499999  1
  Si  Si20  1  0.000000  0.303366  0.303366  1
  Si  Si21  1  0.000000  0.696635  0.696635  1
  Si  Si22  1  0.696635  0.000000  0.696635  1
  Si  Si23  1  0.303366  0.000000  0.303366  1
  Si  Si24  1  0.291286  0.291286  0.582573  1
  Si  Si25  1  0.708714  0.708714  0.417427  1
  Si  Si26  1  0.708714  0.291286  0.000000  1
  Si  Si27  1  0.291286  0.708714  0.000000  1
  Si  Si28  1  0.248951  0.248951  0.000000  1
  Si  Si29  1  0.751050  0.751050  0.000000  1
