# generated using pymatgen
data_TiBe(AlIr2)2
_symmetry_space_group_name_H-M   'P 1'
_cell_length_a   4.24023300
_cell_length_b   4.24023300
_cell_length_c   5.98592500
_cell_angle_alpha   90.00000000
_cell_angle_beta   90.00000000
_cell_angle_gamma   90.00000000
_symmetry_Int_Tables_number   1
_chemical_formula_structural   TiBe(AlIr2)2
_chemical_formula_sum   'Ti1 Be1 Al2 Ir4'
_cell_volume   107.62439284
_cell_formula_units_Z   1
loop_
 _symmetry_equiv_pos_site_id
 _symmetry_equiv_pos_as_xyz
  1  'x, y, z'
loop_
 _atom_site_type_symbol
 _atom_site_label
 _atom_site_symmetry_multiplicity
 _atom_site_fract_x
 _atom_site_fract_y
 _atom_site_fract_z
 _atom_site_occupancy
  Ti  Ti0  1  0.500001  0.500001  0.000000  1
  Be  Be1  1  0.000000  0.000000  0.499999  1
  Al  Al2  1  0.000000  0.000000  0.000000  1
  Al  Al3  1  0.500001  0.500001  0.499999  1
  Ir  Ir4  1  0.499998  0.000000  0.258286  1
  Ir  Ir5  1  0.000000  0.499998  0.258286  1
  Ir  Ir6  1  0.499998  0.000000  0.741713  1
  Ir  Ir7  1  0.000000  0.499998  0.741713  1
