# generated using pymatgen
data_Ca(EuSb)3
_symmetry_space_group_name_H-M   'P 1'
_cell_length_a   8.38309585
_cell_length_b   8.38309643
_cell_length_c   8.39627394
_cell_angle_alpha   70.53752405
_cell_angle_beta   70.53752245
_cell_angle_gamma   109.40468864
_symmetry_Int_Tables_number   1
_chemical_formula_structural   Ca(EuSb)3
_chemical_formula_sum   'Ca2 Eu6 Sb6'
_cell_volume   454.69795734
_cell_formula_units_Z   2
loop_
 _symmetry_equiv_pos_site_id
 _symmetry_equiv_pos_as_xyz
  1  'x, y, z'
loop_
 _atom_site_type_symbol
 _atom_site_label
 _atom_site_symmetry_multiplicity
 _atom_site_fract_x
 _atom_site_fract_y
 _atom_site_fract_z
 _atom_site_occupancy
  Ca  Ca0  1  0.856641  0.000708  0.999332  1
  Ca  Ca1  1  0.000708  0.856641  0.499332  1
  Eu  Eu2  1  0.000326  0.356669  0.499111  1
  Eu  Eu3  1  0.499373  0.499243  0.144624  1
  Eu  Eu4  1  0.644138  0.144429  0.356630  1
  Eu  Eu5  1  0.356669  0.000326  0.999111  1
  Eu  Eu6  1  0.499243  0.499373  0.644624  1
  Eu  Eu7  1  0.144429  0.644138  0.856630  1
  Sb  Sb8  1  0.628099  0.874879  0.749297  1
  Sb  Sb9  1  0.874879  0.628099  0.249297  1
  Sb  Sb10  1  0.246049  0.122667  0.626695  1
  Sb  Sb11  1  0.751254  0.375521  0.874311  1
  Sb  Sb12  1  0.375521  0.751254  0.374311  1
  Sb  Sb13  1  0.122667  0.246049  0.126695  1
