# generated using pymatgen
data_KTbB12
_symmetry_space_group_name_H-M   'P 1'
_cell_length_a   5.88258471
_cell_length_b   5.88258512
_cell_length_c   5.88258500
_cell_angle_alpha   60.00000630
_cell_angle_beta   60.00000397
_cell_angle_gamma   60.00000498
_symmetry_Int_Tables_number   1
_chemical_formula_structural   KTbB12
_chemical_formula_sum   'K1 Tb1 B12'
_cell_volume   143.94270943
_cell_formula_units_Z   1
loop_
 _symmetry_equiv_pos_site_id
 _symmetry_equiv_pos_as_xyz
  1  'x, y, z'
loop_
 _atom_site_type_symbol
 _atom_site_label
 _atom_site_symmetry_multiplicity
 _atom_site_fract_x
 _atom_site_fract_y
 _atom_site_fract_z
 _atom_site_occupancy
  K  K0  1  0.000000  0.000000  0.000000  1
  Tb  Tb1  1  0.500000  0.500000  0.500000  1
  B  B2  1  0.398962  0.101038  0.101038  1
  B  B3  1  0.898962  0.601038  0.601038  1
  B  B4  1  0.398962  0.398962  0.101038  1
  B  B5  1  0.898962  0.898962  0.601038  1
  B  B6  1  0.101038  0.398962  0.101038  1
  B  B7  1  0.601038  0.898962  0.601038  1
  B  B8  1  0.101038  0.101038  0.398962  1
  B  B9  1  0.601038  0.601038  0.898962  1
  B  B10  1  0.398962  0.101038  0.398962  1
  B  B11  1  0.898962  0.601038  0.898962  1
  B  B12  1  0.101038  0.398962  0.398962  1
  B  B13  1  0.601038  0.898962  0.898962  1
