# generated using pymatgen
data_Cs4SmNbI12
_symmetry_space_group_name_H-M   'P 1'
_cell_length_a   14.65636020
_cell_length_b   14.65635899
_cell_length_c   14.65635900
_cell_angle_alpha   132.10562091
_cell_angle_beta   132.10562190
_cell_angle_gamma   70.06226325
_symmetry_Int_Tables_number   1
_chemical_formula_structural   Cs4SmNbI12
_chemical_formula_sum   'Cs8 Sm2 Nb2 I24'
_cell_volume   1698.88389968
_cell_formula_units_Z   2
loop_
 _symmetry_equiv_pos_site_id
 _symmetry_equiv_pos_as_xyz
  1  'x, y, z'
loop_
 _atom_site_type_symbol
 _atom_site_label
 _atom_site_symmetry_multiplicity
 _atom_site_fract_x
 _atom_site_fract_y
 _atom_site_fract_z
 _atom_site_occupancy
  Cs  Cs0  1  0.375062  0.348405  0.471125  1
  Cs  Cs1  1  0.096056  0.624923  0.973331  1
  Cs  Cs2  1  0.877264  0.903930  0.528847  1
  Cs  Cs3  1  0.098418  0.127285  0.473353  1
  Cs  Cs4  1  0.374938  0.901595  0.028875  1
  Cs  Cs5  1  0.653944  0.625077  0.526669  1
  Cs  Cs6  1  0.651582  0.122715  0.026647  1
  Cs  Cs7  1  0.872736  0.346070  0.971153  1
  Sm  Sm8  1  0.750003  0.249997  0.500001  1
  Sm  Sm9  1  0.999997  0.000003  0.999999  1
  Nb  Nb10  1  0.250002  0.749992  0.499997  1
  Nb  Nb11  1  0.499998  0.500008  0.000003  1
  I  I12  1  0.014514  0.770120  0.288673  1
  I  I13  1  0.020006  0.263161  0.272418  1
  I  I14  1  0.274161  0.985486  0.755606  1
  I  I15  1  0.013163  0.240742  0.743158  1
  I  I16  1  0.133942  0.633943  0.499960  1
  I  I17  1  0.268537  0.524136  0.788676  1
  I  I18  1  0.481463  0.725864  0.711324  1
  I  I19  1  0.497572  0.269992  0.256844  1
  I  I20  1  0.475839  0.264514  0.744394  1
  I  I21  1  0.616058  0.616057  0.000040  1
  I  I22  1  0.520146  0.731463  0.255605  1
  I  I23  1  0.128137  0.128144  0.000033  1
  I  I24  1  0.871862  0.871861  0.999971  1
  I  I25  1  0.990727  0.747573  0.727584  1
  I  I26  1  0.736837  0.009258  0.756842  1
  I  I27  1  0.252428  0.980008  0.243156  1
  I  I28  1  0.735486  0.479880  0.211327  1
  I  I29  1  0.229854  0.518537  0.244395  1
  I  I30  1  0.366060  0.866060  0.500041  1
  I  I31  1  0.878138  0.378139  0.500029  1
  I  I32  1  0.383940  0.383940  0.999959  1
  I  I33  1  0.621863  0.121856  0.499967  1
  I  I34  1  0.759273  0.502427  0.772416  1
  I  I35  1  0.729994  0.986839  0.227582  1
