# generated using pymatgen
data_NdYMn2F14
_symmetry_space_group_name_H-M   'P 1'
_cell_length_a   5.49340771
_cell_length_b   8.86988518
_cell_length_c   11.88929244
_cell_angle_alpha   62.13521584
_cell_angle_beta   89.79912319
_cell_angle_gamma   89.93566062
_symmetry_Int_Tables_number   1
_chemical_formula_structural   NdYMn2F14
_chemical_formula_sum   'Nd2 Y2 Mn4 F28'
_cell_volume   512.14322636
_cell_formula_units_Z   2
loop_
 _symmetry_equiv_pos_site_id
 _symmetry_equiv_pos_as_xyz
  1  'x, y, z'
loop_
 _atom_site_type_symbol
 _atom_site_label
 _atom_site_symmetry_multiplicity
 _atom_site_fract_x
 _atom_site_fract_y
 _atom_site_fract_z
 _atom_site_occupancy
  Nd  Nd0  1  0.260626  0.812136  0.264156  1
  Nd  Nd1  1  0.739374  0.187864  0.735844  1
  Y  Y2  1  0.762739  0.193144  0.235571  1
  Y  Y3  1  0.237261  0.806856  0.764429  1
  Mn  Mn4  1  0.757949  0.722338  0.041643  1
  Mn  Mn5  1  0.242051  0.277662  0.958357  1
  Mn  Mn6  1  0.259137  0.271530  0.455185  1
  Mn  Mn7  1  0.740863  0.728470  0.544815  1
  F  F8  1  0.926380  0.708498  0.423603  1
  F  F9  1  0.073620  0.291502  0.576397  1
  F  F10  1  0.428376  0.294364  0.079786  1
  F  F11  1  0.571624  0.705636  0.920214  1
  F  F12  1  0.480653  0.724748  0.128138  1
  F  F13  1  0.519347  0.275252  0.871862  1
  F  F14  1  0.981071  0.270538  0.368624  1
  F  F15  1  0.018929  0.729462  0.631376  1
  F  F16  1  0.939995  0.736190  0.167528  1
  F  F17  1  0.060005  0.263810  0.832472  1
  F  F18  1  0.446517  0.256771  0.330261  1
  F  F19  1  0.553483  0.743229  0.669739  1
  F  F20  1  0.771111  0.487252  0.135344  1
  F  F21  1  0.228889  0.512748  0.864656  1
  F  F22  1  0.270198  0.506203  0.362354  1
  F  F23  1  0.729802  0.493797  0.637646  1
  F  F24  1  0.957040  0.282703  0.040636  1
  F  F25  1  0.042960  0.717297  0.959364  1
  F  F26  1  0.458769  0.719142  0.463920  1
  F  F27  1  0.541231  0.280858  0.536080  1
  F  F28  1  0.739330  0.961532  0.453773  1
  F  F29  1  0.260670  0.038468  0.546227  1
  F  F30  1  0.240785  0.043842  0.045779  1
  F  F31  1  0.759215  0.956158  0.954221  1
  F  F32  1  0.605703  0.974846  0.226276  1
  F  F33  1  0.394297  0.025154  0.773724  1
  F  F34  1  0.093431  0.040603  0.272490  1
  F  F35  1  0.906569  0.959397  0.727510  1
