# generated using pymatgen
data_Y3Zn3Ge2Ir
_symmetry_space_group_name_H-M   'P 1'
_cell_length_a   6.97356900
_cell_length_b   6.97356746
_cell_length_c   4.26888300
_cell_angle_alpha   90.00000000
_cell_angle_beta   90.00000000
_cell_angle_gamma   119.99999306
_symmetry_Int_Tables_number   1
_chemical_formula_structural   Y3Zn3Ge2Ir
_chemical_formula_sum   'Y3 Zn3 Ge2 Ir1'
_cell_volume   179.78564938
_cell_formula_units_Z   1
loop_
 _symmetry_equiv_pos_site_id
 _symmetry_equiv_pos_as_xyz
  1  'x, y, z'
loop_
 _atom_site_type_symbol
 _atom_site_label
 _atom_site_symmetry_multiplicity
 _atom_site_fract_x
 _atom_site_fract_y
 _atom_site_fract_z
 _atom_site_occupancy
  Y  Y0  1  0.000000  0.591558  0.000000  1
  Y  Y1  1  0.408442  0.408442  0.000000  1
  Y  Y2  1  0.591558  0.000000  0.000000  1
  Zn  Zn3  1  0.233250  0.000000  0.500000  1
  Zn  Zn4  1  0.766750  0.766750  0.500000  1
  Zn  Zn5  1  0.000000  0.233250  0.500000  1
  Ge  Ge6  1  0.666667  0.333333  0.500000  1
  Ge  Ge7  1  0.333333  0.666667  0.500000  1
  Ir  Ir8  1  0.000000  0.000000  0.000000  1
