# generated using pymatgen
data_Rb3AgS13
_symmetry_space_group_name_H-M   'P 1'
_cell_length_a   5.13690900
_cell_length_b   13.53621735
_cell_length_c   15.33469114
_cell_angle_alpha   86.62821418
_cell_angle_beta   90.00000000
_cell_angle_gamma   90.00000000
_symmetry_Int_Tables_number   1
_chemical_formula_structural   Rb3AgS13
_chemical_formula_sum   'Rb6 Ag2 S26'
_cell_volume   1064.44143284
_cell_formula_units_Z   2
loop_
 _symmetry_equiv_pos_site_id
 _symmetry_equiv_pos_as_xyz
  1  'x, y, z'
loop_
 _atom_site_type_symbol
 _atom_site_label
 _atom_site_symmetry_multiplicity
 _atom_site_fract_x
 _atom_site_fract_y
 _atom_site_fract_z
 _atom_site_occupancy
  Rb  Rb0  1  0.238070  0.177434  0.710394  1
  Rb  Rb1  1  0.238070  0.322566  0.289606  1
  Rb  Rb2  1  0.186728  0.250000  0.000000  1
  Rb  Rb3  1  0.813272  0.750000  0.000000  1
  Rb  Rb4  1  0.761930  0.822566  0.289606  1
  Rb  Rb5  1  0.761930  0.677434  0.710394  1
  Ag  Ag6  1  0.000000  0.500000  0.500000  1
  Ag  Ag7  1  0.000000  0.000000  0.500000  1
  S  S8  1  0.271794  0.547533  0.622030  1
  S  S9  1  0.675243  0.557971  0.279376  1
  S  S10  1  0.324757  0.057971  0.279376  1
  S  S11  1  0.324757  0.442029  0.720624  1
  S  S12  1  0.905774  0.521992  0.170695  1
  S  S13  1  0.905774  0.978008  0.829305  1
  S  S14  1  0.094226  0.478008  0.829305  1
  S  S15  1  0.094226  0.021992  0.170695  1
  S  S16  1  0.686513  0.429473  0.097459  1
  S  S17  1  0.675243  0.942029  0.720624  1
  S  S18  1  0.313487  0.570527  0.902541  1
  S  S19  1  0.313487  0.929473  0.097459  1
  S  S20  1  0.714535  0.284962  0.145176  1
  S  S21  1  0.714535  0.215038  0.854824  1
  S  S22  1  0.285465  0.715038  0.854824  1
  S  S23  1  0.285465  0.784962  0.145176  1
  S  S24  1  0.086908  0.661504  0.425898  1
  S  S25  1  0.086908  0.838496  0.574102  1
  S  S26  1  0.913092  0.338496  0.574102  1
  S  S27  1  0.913092  0.161504  0.425898  1
  S  S28  1  0.687783  0.250000  0.500000  1
  S  S29  1  0.312217  0.750000  0.500000  1
  S  S30  1  0.728206  0.452467  0.377970  1
  S  S31  1  0.728206  0.047533  0.622030  1
  S  S32  1  0.686513  0.070527  0.902541  1
  S  S33  1  0.271794  0.952467  0.377970  1
