# generated using pymatgen
data_Nb12ZnGa8Cu3N4
_symmetry_space_group_name_H-M   'P 1'
_cell_length_a   8.26146262
_cell_length_b   8.26146297
_cell_length_c   8.26146412
_cell_angle_alpha   60.01594341
_cell_angle_beta   60.01593849
_cell_angle_gamma   60.01594523
_symmetry_Int_Tables_number   1
_chemical_formula_structural   Nb12ZnGa8Cu3N4
_chemical_formula_sum   'Nb12 Zn1 Ga8 Cu3 N4'
_cell_volume   398.85299620
_cell_formula_units_Z   1
loop_
 _symmetry_equiv_pos_site_id
 _symmetry_equiv_pos_as_xyz
  1  'x, y, z'
loop_
 _atom_site_type_symbol
 _atom_site_label
 _atom_site_symmetry_multiplicity
 _atom_site_fract_x
 _atom_site_fract_y
 _atom_site_fract_z
 _atom_site_occupancy
  Nb  Nb0  1  0.438924  0.438924  0.058256  1
  Nb  Nb1  1  0.064558  0.436511  0.064558  1
  Nb  Nb2  1  0.436511  0.064558  0.064558  1
  Nb  Nb3  1  0.064558  0.064558  0.436511  1
  Nb  Nb4  1  0.438924  0.058256  0.438924  1
  Nb  Nb5  1  0.058256  0.438924  0.438924  1
  Nb  Nb6  1  0.811076  0.811076  0.191744  1
  Nb  Nb7  1  0.185442  0.813489  0.185442  1
  Nb  Nb8  1  0.813489  0.185442  0.185442  1
  Nb  Nb9  1  0.185442  0.185442  0.813489  1
  Nb  Nb10  1  0.811076  0.191744  0.811076  1
  Nb  Nb11  1  0.191744  0.811076  0.811076  1
  Zn  Zn12  1  0.625000  0.625000  0.625000  1
  Ga  Ga13  1  0.839067  0.839067  0.493590  1
  Ga  Ga14  1  0.839067  0.493590  0.839067  1
  Ga  Ga15  1  0.493590  0.839067  0.839067  1
  Ga  Ga16  1  0.836597  0.836597  0.836597  1
  Ga  Ga17  1  0.410933  0.410933  0.756410  1
  Ga  Ga18  1  0.410933  0.756410  0.410933  1
  Ga  Ga19  1  0.756410  0.410933  0.410933  1
  Ga  Ga20  1  0.413403  0.413403  0.413403  1
  Cu  Cu21  1  0.625000  0.625000  0.125000  1
  Cu  Cu22  1  0.625000  0.125000  0.625000  1
  Cu  Cu23  1  0.125000  0.625000  0.625000  1
  N  N24  1  0.125000  0.125000  0.625000  1
  N  N25  1  0.125000  0.625000  0.125000  1
  N  N26  1  0.625000  0.125000  0.125000  1
  N  N27  1  0.125000  0.125000  0.125000  1
