# generated using pymatgen
data_Eu16In4PdRh3
_symmetry_space_group_name_H-M   'P 1'
_cell_length_a   10.26185465
_cell_length_b   10.27446018
_cell_length_c   10.26185300
_cell_angle_alpha   60.04057866
_cell_angle_beta   60.00000208
_cell_angle_gamma   60.04057425
_symmetry_Int_Tables_number   1
_chemical_formula_structural   Eu16In4PdRh3
_chemical_formula_sum   'Eu16 In4 Pd1 Rh3'
_cell_volume   765.52919220
_cell_formula_units_Z   1
loop_
 _symmetry_equiv_pos_site_id
 _symmetry_equiv_pos_as_xyz
  1  'x, y, z'
loop_
 _atom_site_type_symbol
 _atom_site_label
 _atom_site_symmetry_multiplicity
 _atom_site_fract_x
 _atom_site_fract_y
 _atom_site_fract_z
 _atom_site_occupancy
  Eu  Eu0  1  0.806772  0.808174  0.192527  1
  Eu  Eu1  1  0.805671  0.189088  0.805671  1
  Eu  Eu2  1  0.199569  0.189088  0.805671  1
  Eu  Eu3  1  0.654836  0.035491  0.654836  1
  Eu  Eu4  1  0.056271  0.057577  0.443075  1
  Eu  Eu5  1  0.441493  0.445648  0.056429  1
  Eu  Eu6  1  0.650283  0.656851  0.650283  1
  Eu  Eu7  1  0.805671  0.189088  0.199569  1
  Eu  Eu8  1  0.192527  0.808174  0.806772  1
  Eu  Eu9  1  0.042581  0.656851  0.650283  1
  Eu  Eu10  1  0.443075  0.057577  0.056271  1
  Eu  Eu11  1  0.443075  0.057577  0.443075  1
  Eu  Eu12  1  0.056429  0.445648  0.056429  1
  Eu  Eu13  1  0.650283  0.656851  0.042581  1
  Eu  Eu14  1  0.192527  0.808174  0.192527  1
  Eu  Eu15  1  0.056429  0.445648  0.441493  1
  In  In16  1  0.420852  0.420476  0.420852  1
  In  In17  1  0.420852  0.420476  0.737820  1
  In  In18  1  0.420126  0.739622  0.420126  1
  In  In19  1  0.737820  0.420476  0.420852  1
  Pd  Pd20  1  0.859864  0.420409  0.859864  1
  Rh  Rh21  1  0.862657  0.857011  0.862657  1
  Rh  Rh22  1  0.862657  0.857011  0.417676  1
  Rh  Rh23  1  0.417676  0.857011  0.862657  1
