# generated using pymatgen
data_Ce2MnNiRu2
_symmetry_space_group_name_H-M   'P 1'
_cell_length_a   5.22681163
_cell_length_b   5.22681089
_cell_length_c   4.83860521
_cell_angle_alpha   65.17229619
_cell_angle_beta   65.17229697
_cell_angle_gamma   64.54555977
_symmetry_Int_Tables_number   1
_chemical_formula_structural   Ce2MnNiRu2
_chemical_formula_sum   'Ce2 Mn1 Ni1 Ru2'
_cell_volume   103.59848872
_cell_formula_units_Z   1
loop_
 _symmetry_equiv_pos_site_id
 _symmetry_equiv_pos_as_xyz
  1  'x, y, z'
loop_
 _atom_site_type_symbol
 _atom_site_label
 _atom_site_symmetry_multiplicity
 _atom_site_fract_x
 _atom_site_fract_y
 _atom_site_fract_z
 _atom_site_occupancy
  Ce  Ce0  1  0.628048  0.628048  0.626601  1
  Ce  Ce1  1  0.371952  0.371952  0.373399  1
  Mn  Mn2  1  0.000000  0.000000  0.000000  1
  Ni  Ni3  1  0.000000  0.000000  0.500000  1
  Ru  Ru4  1  0.000000  0.500000  0.000000  1
  Ru  Ru5  1  0.500000  0.000000  0.000000  1
