# generated using pymatgen
data_NdPa2(AlIr)3
_symmetry_space_group_name_H-M   'P 1'
_cell_length_a   7.15430912
_cell_length_b   7.05120224
_cell_length_c   4.07933600
_cell_angle_alpha   90.00000000
_cell_angle_beta   90.00000000
_cell_angle_gamma   119.47712690
_symmetry_Int_Tables_number   1
_chemical_formula_structural   NdPa2(AlIr)3
_chemical_formula_sum   'Nd1 Pa2 Al3 Ir3'
_cell_volume   179.14932304
_cell_formula_units_Z   1
loop_
 _symmetry_equiv_pos_site_id
 _symmetry_equiv_pos_as_xyz
  1  'x, y, z'
loop_
 _atom_site_type_symbol
 _atom_site_label
 _atom_site_symmetry_multiplicity
 _atom_site_fract_x
 _atom_site_fract_y
 _atom_site_fract_z
 _atom_site_occupancy
  Nd  Nd0  1  0.999995  0.581521  0.500000  1
  Pa  Pa1  1  0.420188  0.418378  0.500000  1
  Pa  Pa2  1  0.579830  0.998218  0.500000  1
  Al  Al3  1  0.776636  0.770351  0.000000  1
  Al  Al4  1  0.223297  0.993827  0.000000  1
  Al  Al5  1  0.000130  0.243551  0.000000  1
  Ir  Ir6  1  0.627596  0.299449  0.000000  1
  Ir  Ir7  1  0.372143  0.671196  0.000000  1
  Ir  Ir8  1  0.000181  0.023508  0.500000  1
