# generated using pymatgen
data_Dy17Er3(Ir2Os)4
_symmetry_space_group_name_H-M   'P 1'
_cell_length_a   10.85269300
_cell_length_b   10.85269300
_cell_length_c   6.40513700
_cell_angle_alpha   90.00000000
_cell_angle_beta   90.00000000
_cell_angle_gamma   90.00000000
_symmetry_Int_Tables_number   1
_chemical_formula_structural   Dy17Er3(Ir2Os)4
_chemical_formula_sum   'Dy17 Er3 Ir8 Os4'
_cell_volume   754.40309097
_cell_formula_units_Z   1
loop_
 _symmetry_equiv_pos_site_id
 _symmetry_equiv_pos_as_xyz
  1  'x, y, z'
loop_
 _atom_site_type_symbol
 _atom_site_label
 _atom_site_symmetry_multiplicity
 _atom_site_fract_x
 _atom_site_fract_y
 _atom_site_fract_z
 _atom_site_occupancy
  Dy  Dy0  1  0.293449  0.086461  0.377731  1
  Dy  Dy1  1  0.293447  0.913565  0.877801  1
  Dy  Dy2  1  0.706553  0.086435  0.877801  1
  Dy  Dy3  1  0.706551  0.913539  0.377731  1
  Dy  Dy4  1  0.586412  0.793536  0.878006  1
  Dy  Dy5  1  0.586489  0.206248  0.377778  1
  Dy  Dy6  1  0.413511  0.793752  0.377778  1
  Dy  Dy7  1  0.413588  0.206464  0.878006  1
  Dy  Dy8  1  0.206248  0.413511  0.622222  1
  Dy  Dy9  1  0.206464  0.586412  0.121994  1
  Dy  Dy10  1  0.793536  0.413588  0.121994  1
  Dy  Dy11  1  0.793752  0.586489  0.622222  1
  Dy  Dy12  1  0.913565  0.706553  0.122199  1
  Dy  Dy13  1  0.913539  0.293449  0.622269  1
  Dy  Dy14  1  0.086461  0.706551  0.622269  1
  Dy  Dy15  1  0.086435  0.293447  0.122199  1
  Dy  Dy16  1  0.500000  0.500000  0.500000  1
  Er  Er17  1  0.000000  0.000000  0.500000  1
  Er  Er18  1  0.000000  0.000000  0.000000  1
  Er  Er19  1  0.500000  0.500000  0.000000  1
  Ir  Ir20  1  0.848770  0.151241  0.249910  1
  Ir  Ir21  1  0.848759  0.848770  0.750090  1
  Ir  Ir22  1  0.151241  0.151230  0.750090  1
  Ir  Ir23  1  0.151230  0.848759  0.249910  1
  Ir  Ir24  1  0.651613  0.348376  0.750797  1
  Ir  Ir25  1  0.651624  0.651613  0.249203  1
  Ir  Ir26  1  0.348376  0.348387  0.249203  1
  Ir  Ir27  1  0.348387  0.651624  0.750797  1
  Os  Os28  1  0.500000  0.000000  0.123855  1
  Os  Os29  1  0.500000  0.000000  0.623938  1
  Os  Os30  1  0.000000  0.500000  0.876145  1
  Os  Os31  1  0.000000  0.500000  0.376062  1
