# generated using pymatgen
data_Lu8Sc12Si15Sb
_symmetry_space_group_name_H-M   'P 1'
_cell_length_a   7.08652721
_cell_length_b   7.32888547
_cell_length_c   13.91520547
_cell_angle_alpha   90.07222138
_cell_angle_beta   88.71403249
_cell_angle_gamma   90.12571379
_symmetry_Int_Tables_number   1
_chemical_formula_structural   Lu8Sc12Si15Sb
_chemical_formula_sum   'Lu8 Sc12 Si15 Sb1'
_cell_volume   722.52063674
_cell_formula_units_Z   1
loop_
 _symmetry_equiv_pos_site_id
 _symmetry_equiv_pos_as_xyz
  1  'x, y, z'
loop_
 _atom_site_type_symbol
 _atom_site_label
 _atom_site_symmetry_multiplicity
 _atom_site_fract_x
 _atom_site_fract_y
 _atom_site_fract_z
 _atom_site_occupancy
  Lu  Lu0  1  0.012055  0.177693  0.096280  1
  Lu  Lu1  1  0.988015  0.823402  0.904279  1
  Lu  Lu2  1  0.488608  0.676620  0.904235  1
  Lu  Lu3  1  0.992455  0.828494  0.597333  1
  Lu  Lu4  1  0.511581  0.323552  0.096889  1
  Lu  Lu5  1  0.001176  0.172186  0.400694  1
  Lu  Lu6  1  0.509630  0.318281  0.399722  1
  Lu  Lu7  1  0.509144  0.684741  0.599878  1
  Sc  Sc8  1  0.165031  0.501860  0.753888  1
  Sc  Sc9  1  0.834271  0.497210  0.251631  1
  Sc  Sc10  1  0.334613  0.003382  0.250601  1
  Sc  Sc11  1  0.666821  0.997158  0.750768  1
  Sc  Sc12  1  0.346814  0.160326  0.630334  1
  Sc  Sc13  1  0.659578  0.826641  0.372997  1
  Sc  Sc14  1  0.155430  0.681938  0.370549  1
  Sc  Sc15  1  0.667157  0.822772  0.124022  1
  Sc  Sc16  1  0.830144  0.325637  0.625331  1
  Sc  Sc17  1  0.330948  0.176127  0.875479  1
  Sc  Sc18  1  0.832302  0.323006  0.875739  1
  Sc  Sc19  1  0.167899  0.677080  0.124619  1
  Si  Si20  1  0.036872  0.114585  0.750977  1
  Si  Si21  1  0.961207  0.888615  0.246653  1
  Si  Si22  1  0.460910  0.613321  0.248033  1
  Si  Si23  1  0.537036  0.387360  0.752365  1
  Si  Si24  1  0.289237  0.865238  0.752345  1
  Si  Si25  1  0.710846  0.130397  0.247204  1
  Si  Si26  1  0.209769  0.370126  0.249031  1
  Si  Si27  1  0.792461  0.631349  0.751556  1
  Si  Si28  1  0.812157  0.538904  0.457825  1
  Si  Si29  1  0.328138  0.964625  0.460235  1
  Si  Si30  1  0.841049  0.533745  0.039729  1
  Si  Si31  1  0.673197  0.036719  0.538648  1
  Si  Si32  1  0.158131  0.466197  0.961049  1
  Si  Si33  1  0.657771  0.033698  0.960183  1
  Si  Si34  1  0.341092  0.967101  0.040141  1
  Sb  Sb35  1  0.186453  0.459911  0.538760  1
