# generated using pymatgen
data_MoAs4W
_symmetry_space_group_name_H-M   'P 1'
_cell_length_a   4.87848116
_cell_length_b   4.87850562
_cell_length_c   7.78347328
_cell_angle_alpha   62.64432130
_cell_angle_beta   117.35585910
_cell_angle_gamma   140.03791237
_symmetry_Int_Tables_number   1
_chemical_formula_structural   MoAs4W
_chemical_formula_sum   'Mo1 As4 W1'
_cell_volume   103.78689862
_cell_formula_units_Z   1
loop_
 _symmetry_equiv_pos_site_id
 _symmetry_equiv_pos_as_xyz
  1  'x, y, z'
loop_
 _atom_site_type_symbol
 _atom_site_label
 _atom_site_symmetry_multiplicity
 _atom_site_fract_x
 _atom_site_fract_y
 _atom_site_fract_z
 _atom_site_occupancy
  Mo  Mo0  1  0.159319  0.852732  0.702184  1
  As  As1  1  0.151707  0.860511  0.031761  1
  As  As2  1  0.860307  0.151892  0.968162  1
  As  As3  1  0.602918  0.408991  0.392221  1
  As  As4  1  0.408874  0.603076  0.606879  1
  W  W5  1  0.853069  0.158992  0.298793  1
