# generated using pymatgen
data_Lu2ZrGa5
_symmetry_space_group_name_H-M   'P 1'
_cell_length_a   5.84873600
_cell_length_b   9.35137800
_cell_length_c   11.30654900
_cell_angle_alpha   90.00000000
_cell_angle_beta   90.00000000
_cell_angle_gamma   90.00000000
_symmetry_Int_Tables_number   1
_chemical_formula_structural   Lu2ZrGa5
_chemical_formula_sum   'Lu8 Zr4 Ga20'
_cell_volume   618.39746440
_cell_formula_units_Z   4
loop_
 _symmetry_equiv_pos_site_id
 _symmetry_equiv_pos_as_xyz
  1  'x, y, z'
loop_
 _atom_site_type_symbol
 _atom_site_label
 _atom_site_symmetry_multiplicity
 _atom_site_fract_x
 _atom_site_fract_y
 _atom_site_fract_z
 _atom_site_occupancy
  Lu  Lu0  1  0.886280  0.501068  0.352616  1
  Lu  Lu1  1  0.613720  0.998932  0.852616  1
  Lu  Lu2  1  0.113720  0.001068  0.647384  1
  Lu  Lu3  1  0.386280  0.498932  0.147384  1
  Lu  Lu4  1  0.113720  0.498932  0.647384  1
  Lu  Lu5  1  0.386280  0.001068  0.147384  1
  Lu  Lu6  1  0.886280  0.998932  0.352616  1
  Lu  Lu7  1  0.613720  0.501068  0.852616  1
  Zr  Zr8  1  0.857851  0.750000  0.072554  1
  Zr  Zr9  1  0.642149  0.750000  0.572554  1
  Zr  Zr10  1  0.142149  0.250000  0.927446  1
  Zr  Zr11  1  0.357851  0.250000  0.427446  1
  Ga  Ga12  1  0.874709  0.053322  0.090355  1
  Ga  Ga13  1  0.625291  0.446678  0.590355  1
  Ga  Ga14  1  0.125291  0.553322  0.909645  1
  Ga  Ga15  1  0.374709  0.946678  0.409645  1
  Ga  Ga16  1  0.125291  0.946678  0.909645  1
  Ga  Ga17  1  0.374709  0.553322  0.409645  1
  Ga  Ga18  1  0.874709  0.446678  0.090355  1
  Ga  Ga19  1  0.625291  0.053322  0.590355  1
  Ga  Ga20  1  0.153255  0.750000  0.258648  1
  Ga  Ga21  1  0.346745  0.750000  0.758648  1
  Ga  Ga22  1  0.846745  0.250000  0.741352  1
  Ga  Ga23  1  0.653255  0.250000  0.241352  1
  Ga  Ga24  1  0.395653  0.750000  0.999424  1
  Ga  Ga25  1  0.104347  0.750000  0.499424  1
  Ga  Ga26  1  0.604347  0.250000  0.000576  1
  Ga  Ga27  1  0.895653  0.250000  0.500576  1
  Ga  Ga28  1  0.614111  0.750000  0.294547  1
  Ga  Ga29  1  0.885889  0.750000  0.794547  1
  Ga  Ga30  1  0.385889  0.250000  0.705453  1
  Ga  Ga31  1  0.114111  0.250000  0.205453  1
