# generated using pymatgen
data_Tb5Sm(Si3Ru)8
_symmetry_space_group_name_H-M   'P 1'
_cell_length_a   10.14704961
_cell_length_b   10.14705031
_cell_length_c   8.15395852
_cell_angle_alpha   90.08210613
_cell_angle_beta   89.91789348
_cell_angle_gamma   132.60631195
_symmetry_Int_Tables_number   1
_chemical_formula_structural   Tb5Sm(Si3Ru)8
_chemical_formula_sum   'Tb5 Sm1 Si24 Ru8'
_cell_volume   617.92912142
_cell_formula_units_Z   1
loop_
 _symmetry_equiv_pos_site_id
 _symmetry_equiv_pos_as_xyz
  1  'x, y, z'
loop_
 _atom_site_type_symbol
 _atom_site_label
 _atom_site_symmetry_multiplicity
 _atom_site_fract_x
 _atom_site_fract_y
 _atom_site_fract_z
 _atom_site_occupancy
  Tb  Tb0  1  0.500040  0.500027  0.499955  1
  Tb  Tb1  1  0.000027  0.000040  0.000045  1
  Tb  Tb2  1  0.998112  0.498112  0.250000  1
  Tb  Tb3  1  0.497513  0.997513  0.250000  1
  Tb  Tb4  1  0.002503  0.502503  0.750000  1
  Sm  Sm5  1  0.502609  0.002609  0.750000  1
  Si  Si6  1  0.794776  0.206418  0.499277  1
  Si  Si7  1  0.293827  0.705245  0.001015  1
  Si  Si8  1  0.205245  0.793827  0.498985  1
  Si  Si9  1  0.706418  0.294776  0.000723  1
  Si  Si10  1  0.332259  0.331989  0.832901  1
  Si  Si11  1  0.667876  0.668086  0.166879  1
  Si  Si12  1  0.168086  0.167876  0.333121  1
  Si  Si13  1  0.831989  0.832259  0.667099  1
  Si  Si14  1  0.121184  0.886796  0.727774  1
  Si  Si15  1  0.113980  0.880271  0.272064  1
  Si  Si16  1  0.611285  0.377518  0.227395  1
  Si  Si17  1  0.621737  0.387050  0.771265  1
  Si  Si18  1  0.877518  0.111285  0.272605  1
  Si  Si19  1  0.887050  0.121737  0.728735  1
  Si  Si20  1  0.386796  0.621184  0.772226  1
  Si  Si21  1  0.380271  0.613980  0.227936  1
  Si  Si22  1  0.345177  0.111505  0.502657  1
  Si  Si23  1  0.889319  0.657117  0.496570  1
  Si  Si24  1  0.388300  0.154055  0.005263  1
  Si  Si25  1  0.843171  0.610919  0.995913  1
  Si  Si26  1  0.654055  0.888300  0.494737  1
  Si  Si27  1  0.110919  0.343171  0.504087  1
  Si  Si28  1  0.611505  0.845177  0.997343  1
  Si  Si29  1  0.157117  0.389319  0.003430  1
  Ru  Ru30  1  0.671153  0.333966  0.498166  1
  Ru  Ru31  1  0.165805  0.828815  0.000448  1
  Ru  Ru32  1  0.328815  0.665805  0.499552  1
  Ru  Ru33  1  0.833966  0.171153  0.001834  1
  Ru  Ru34  1  0.125462  0.125246  0.626954  1
  Ru  Ru35  1  0.874346  0.874547  0.373437  1
  Ru  Ru36  1  0.374547  0.374346  0.126563  1
  Ru  Ru37  1  0.625246  0.625462  0.873046  1
