# generated using pymatgen
data_Hf6Re6Ge5P
_symmetry_space_group_name_H-M   'P 1'
_cell_length_a   7.83406216
_cell_length_b   7.83061115
_cell_length_c   7.83406300
_cell_angle_alpha   126.28325134
_cell_angle_beta   129.26856192
_cell_angle_gamma   77.02228950
_symmetry_Int_Tables_number   1
_chemical_formula_structural   Hf6Re6Ge5P
_chemical_formula_sum   'Hf6 Re6 Ge5 P1'
_cell_volume   291.12819639
_cell_formula_units_Z   1
loop_
 _symmetry_equiv_pos_site_id
 _symmetry_equiv_pos_as_xyz
  1  'x, y, z'
loop_
 _atom_site_type_symbol
 _atom_site_label
 _atom_site_symmetry_multiplicity
 _atom_site_fract_x
 _atom_site_fract_y
 _atom_site_fract_z
 _atom_site_occupancy
  Hf  Hf0  1  0.548938  0.095619  0.046682  1
  Hf  Hf1  1  0.448784  0.495540  0.546757  1
  Hf  Hf2  1  0.950928  0.497011  0.046081  1
  Hf  Hf3  1  0.050915  0.098260  0.547345  1
  Hf  Hf4  1  0.750314  0.896807  0.646492  1
  Hf  Hf5  1  0.250217  0.897724  0.147508  1
  Re  Re6  1  0.509954  0.244228  0.754005  1
  Re  Re7  1  0.990224  0.244228  0.234273  1
  Re  Re8  1  0.116341  0.749389  0.613211  1
  Re  Re9  1  0.863756  0.496384  0.612832  1
  Re  Re10  1  0.636177  0.749389  0.133048  1
  Re  Re11  1  0.383552  0.496384  0.132627  1
  Ge  Ge12  1  0.249940  0.497289  0.747348  1
  Ge  Ge13  1  0.333790  0.830185  0.497255  1
  Ge  Ge14  1  0.667132  0.163446  0.497334  1
  Ge  Ge15  1  0.832930  0.830185  0.996396  1
  Ge  Ge16  1  0.166112  0.163446  0.996313  1
  P  P17  1  0.749994  0.496683  0.246689  1
