# generated using pymatgen
data_Nd2Er8In8IrPd3
_symmetry_space_group_name_H-M   'P 1'
_cell_length_a   3.61702200
_cell_length_b   8.16961653
_cell_length_c   18.34836055
_cell_angle_alpha   90.13022860
_cell_angle_beta   90.00000000
_cell_angle_gamma   90.00000000
_symmetry_Int_Tables_number   1
_chemical_formula_structural   Nd2Er8In8IrPd3
_chemical_formula_sum   'Nd2 Er8 In8 Ir1 Pd3'
_cell_volume   542.18683225
_cell_formula_units_Z   1
loop_
 _symmetry_equiv_pos_site_id
 _symmetry_equiv_pos_as_xyz
  1  'x, y, z'
loop_
 _atom_site_type_symbol
 _atom_site_label
 _atom_site_symmetry_multiplicity
 _atom_site_fract_x
 _atom_site_fract_y
 _atom_site_fract_z
 _atom_site_occupancy
  Nd  Nd0  1  0.000000  0.499611  0.500425  1
  Nd  Nd1  1  0.000000  0.000227  0.000394  1
  Er  Er2  1  0.000000  0.728520  0.278347  1
  Er  Er3  1  0.000000  0.260140  0.717924  1
  Er  Er4  1  0.000000  0.759810  0.781705  1
  Er  Er5  1  0.000000  0.256073  0.218542  1
  Er  Er6  1  0.000000  0.619193  0.088496  1
  Er  Er7  1  0.000000  0.378436  0.915244  1
  Er  Er8  1  0.000000  0.878422  0.584705  1
  Er  Er9  1  0.000000  0.121330  0.413643  1
  In  In10  1  0.500000  0.699043  0.932161  1
  In  In11  1  0.500000  0.300541  0.068360  1
  In  In12  1  0.500000  0.800359  0.431334  1
  In  In13  1  0.500000  0.197862  0.567460  1
  In  In14  1  0.500000  0.581170  0.653426  1
  In  In15  1  0.500000  0.421412  0.348264  1
  In  In16  1  0.500000  0.923949  0.153556  1
  In  In17  1  0.500000  0.081109  0.846552  1
  Ir  Ir18  1  0.500000  0.521726  0.195771  1
  Pd  Pd19  1  0.500000  0.474462  0.804107  1
  Pd  Pd20  1  0.500000  0.974725  0.695670  1
  Pd  Pd21  1  0.500000  0.021880  0.303913  1
