# generated using pymatgen
data_Cs5Fe2MoS7
_symmetry_space_group_name_H-M   'P 1'
_cell_length_a   10.77426280
_cell_length_b   10.77426234
_cell_length_c   9.16730755
_cell_angle_alpha   78.87078315
_cell_angle_beta   78.87078074
_cell_angle_gamma   73.69995322
_symmetry_Int_Tables_number   1
_chemical_formula_structural   Cs5Fe2MoS7
_chemical_formula_sum   'Cs10 Fe4 Mo2 S14'
_cell_volume   991.24912850
_cell_formula_units_Z   2
loop_
 _symmetry_equiv_pos_site_id
 _symmetry_equiv_pos_as_xyz
  1  'x, y, z'
loop_
 _atom_site_type_symbol
 _atom_site_label
 _atom_site_symmetry_multiplicity
 _atom_site_fract_x
 _atom_site_fract_y
 _atom_site_fract_z
 _atom_site_occupancy
  Cs  Cs0  1  0.041552  0.416445  0.723691  1
  Cs  Cs1  1  0.416445  0.041552  0.723691  1
  Cs  Cs2  1  0.958448  0.583555  0.276309  1
  Cs  Cs3  1  0.583555  0.958448  0.276309  1
  Cs  Cs4  1  0.289179  0.710821  0.000000  1
  Cs  Cs5  1  0.710821  0.289179  0.000000  1
  Cs  Cs6  1  0.846428  0.153572  0.500000  1
  Cs  Cs7  1  0.153572  0.846428  0.500000  1
  Cs  Cs8  1  0.431458  0.431458  0.687995  1
  Cs  Cs9  1  0.568542  0.568542  0.312005  1
  Fe  Fe10  1  0.069633  0.069633  0.058538  1
  Fe  Fe11  1  0.930367  0.930367  0.941462  1
  Fe  Fe12  1  0.336679  0.336679  0.324457  1
  Fe  Fe13  1  0.663321  0.663321  0.675543  1
  Mo  Mo14  1  0.205957  0.205957  0.181483  1
  Mo  Mo15  1  0.794043  0.794043  0.818517  1
  S  S16  1  0.000983  0.276127  0.118876  1
  S  S17  1  0.276127  0.000983  0.118876  1
  S  S18  1  0.999017  0.723873  0.881124  1
  S  S19  1  0.723873  0.999017  0.881124  1
  S  S20  1  0.201536  0.201536  0.429287  1
  S  S21  1  0.798464  0.798464  0.570713  1
  S  S22  1  0.061652  0.061652  0.813441  1
  S  S23  1  0.938348  0.938348  0.186559  1
  S  S24  1  0.339633  0.339633  0.071455  1
  S  S25  1  0.660367  0.660367  0.928545  1
  S  S26  1  0.250985  0.537054  0.389834  1
  S  S27  1  0.537054  0.250985  0.389834  1
  S  S28  1  0.749015  0.462946  0.610166  1
  S  S29  1  0.462946  0.749015  0.610166  1
