# generated using pymatgen
data_Lu8Ga5Ge11Mo12
_symmetry_space_group_name_H-M   'P 1'
_cell_length_a   6.85938561
_cell_length_b   7.00580302
_cell_length_c   13.12992087
_cell_angle_alpha   89.93971290
_cell_angle_beta   90.04658618
_cell_angle_gamma   90.01226045
_symmetry_Int_Tables_number   1
_chemical_formula_structural   Lu8Ga5Ge11Mo12
_chemical_formula_sum   'Lu8 Ga5 Ge11 Mo12'
_cell_volume   630.96439847
_cell_formula_units_Z   1
loop_
 _symmetry_equiv_pos_site_id
 _symmetry_equiv_pos_as_xyz
  1  'x, y, z'
loop_
 _atom_site_type_symbol
 _atom_site_label
 _atom_site_symmetry_multiplicity
 _atom_site_fract_x
 _atom_site_fract_y
 _atom_site_fract_z
 _atom_site_occupancy
  Lu  Lu0  1  0.491758  0.327380  0.091576  1
  Lu  Lu1  1  0.991653  0.172186  0.408719  1
  Lu  Lu2  1  0.508724  0.672504  0.591238  1
  Lu  Lu3  1  0.007792  0.827298  0.908411  1
  Lu  Lu4  1  0.508257  0.672689  0.908347  1
  Lu  Lu5  1  0.007976  0.827828  0.591249  1
  Lu  Lu6  1  0.491533  0.327724  0.408355  1
  Lu  Lu7  1  0.991642  0.172682  0.091505  1
  Ga  Ga8  1  0.671856  0.043479  0.545561  1
  Ga  Ga9  1  0.529571  0.373356  0.749559  1
  Ga  Ga10  1  0.028470  0.125875  0.750020  1
  Ga  Ga11  1  0.470389  0.625912  0.249718  1
  Ga  Ga12  1  0.970903  0.873609  0.249832  1
  Ge  Ge13  1  0.172415  0.455803  0.953924  1
  Ge  Ge14  1  0.327863  0.955909  0.046428  1
  Ge  Ge15  1  0.827472  0.544265  0.453933  1
  Ge  Ge16  1  0.331120  0.956730  0.454403  1
  Ge  Ge17  1  0.827658  0.544212  0.046324  1
  Ge  Ge18  1  0.672153  0.044336  0.953984  1
  Ge  Ge19  1  0.172014  0.455931  0.546176  1
  Ge  Ge20  1  0.805669  0.643940  0.749741  1
  Ge  Ge21  1  0.306254  0.856702  0.749740  1
  Ge  Ge22  1  0.194038  0.356332  0.250116  1
  Ge  Ge23  1  0.693963  0.143505  0.250301  1
  Mo  Mo24  1  0.833214  0.342594  0.626005  1
  Mo  Mo25  1  0.332256  0.158968  0.874853  1
  Mo  Mo26  1  0.167563  0.658256  0.125164  1
  Mo  Mo27  1  0.667667  0.838761  0.372919  1
  Mo  Mo28  1  0.168065  0.659182  0.374611  1
  Mo  Mo29  1  0.667747  0.841253  0.124956  1
  Mo  Mo30  1  0.832984  0.341571  0.875121  1
  Mo  Mo31  1  0.329780  0.159285  0.626171  1
  Mo  Mo32  1  0.660551  0.007725  0.751249  1
  Mo  Mo33  1  0.161098  0.492216  0.750232  1
  Mo  Mo34  1  0.338776  0.992719  0.249831  1
  Mo  Mo35  1  0.839156  0.507282  0.249729  1
