# generated using pymatgen
data_Tm2Ti(ReSi2)2
_symmetry_space_group_name_H-M   'P 1'
_cell_length_a   6.74448600
_cell_length_b   6.74448600
_cell_length_c   12.92854400
_cell_angle_alpha   90.00000000
_cell_angle_beta   90.00000000
_cell_angle_gamma   90.00000000
_symmetry_Int_Tables_number   1
_chemical_formula_structural   Tm2Ti(ReSi2)2
_chemical_formula_sum   'Tm8 Ti4 Re8 Si16'
_cell_volume   588.09479120
_cell_formula_units_Z   4
loop_
 _symmetry_equiv_pos_site_id
 _symmetry_equiv_pos_as_xyz
  1  'x, y, z'
loop_
 _atom_site_type_symbol
 _atom_site_label
 _atom_site_symmetry_multiplicity
 _atom_site_fract_x
 _atom_site_fract_y
 _atom_site_fract_z
 _atom_site_occupancy
  Tm  Tm0  1  0.009591  0.663630  0.031896  1
  Tm  Tm1  1  0.990409  0.336370  0.531896  1
  Tm  Tm2  1  0.336370  0.990409  0.468104  1
  Tm  Tm3  1  0.163630  0.490409  0.781896  1
  Tm  Tm4  1  0.836370  0.509591  0.281896  1
  Tm  Tm5  1  0.490409  0.163630  0.218104  1
  Tm  Tm6  1  0.509591  0.836370  0.718104  1
  Tm  Tm7  1  0.663630  0.009591  0.968104  1
  Ti  Ti8  1  0.654663  0.654663  0.500000  1
  Ti  Ti9  1  0.154663  0.845337  0.250000  1
  Ti  Ti10  1  0.345337  0.345337  0.000000  1
  Ti  Ti11  1  0.845337  0.154663  0.750000  1
  Re  Re12  1  0.000152  0.813990  0.636451  1
  Re  Re13  1  0.999848  0.186010  0.136451  1
  Re  Re14  1  0.813990  0.000152  0.363549  1
  Re  Re15  1  0.313990  0.499848  0.386451  1
  Re  Re16  1  0.686010  0.500152  0.886451  1
  Re  Re17  1  0.499848  0.313990  0.613549  1
  Re  Re18  1  0.500152  0.686010  0.113549  1
  Re  Re19  1  0.186010  0.999848  0.863549  1
  Si  Si20  1  0.016533  0.723765  0.445110  1
  Si  Si21  1  0.620285  0.295277  0.428080  1
  Si  Si22  1  0.379715  0.704723  0.928080  1
  Si  Si23  1  0.204723  0.120285  0.678080  1
  Si  Si24  1  0.295277  0.620285  0.571920  1
  Si  Si25  1  0.704723  0.379715  0.071920  1
  Si  Si26  1  0.795277  0.879715  0.178080  1
  Si  Si27  1  0.120285  0.204723  0.321920  1
  Si  Si28  1  0.983467  0.276235  0.945110  1
  Si  Si29  1  0.723765  0.016533  0.554890  1
  Si  Si30  1  0.223765  0.483467  0.195110  1
  Si  Si31  1  0.776235  0.516533  0.695110  1
  Si  Si32  1  0.483467  0.223765  0.804890  1
  Si  Si33  1  0.516533  0.776235  0.304890  1
  Si  Si34  1  0.276235  0.983467  0.054890  1
  Si  Si35  1  0.879715  0.795277  0.821920  1
