# generated using pymatgen
data_Tb8Y12FeCo3Sb8
_symmetry_space_group_name_H-M   'P 1'
_cell_length_a   7.96455982
_cell_length_b   8.75975800
_cell_length_c   12.27055891
_cell_angle_alpha   90.00000000
_cell_angle_beta   90.10229723
_cell_angle_gamma   90.00000000
_symmetry_Int_Tables_number   1
_chemical_formula_structural   Tb8Y12FeCo3Sb8
_chemical_formula_sum   'Tb8 Y12 Fe1 Co3 Sb8'
_cell_volume   856.08628468
_cell_formula_units_Z   1
loop_
 _symmetry_equiv_pos_site_id
 _symmetry_equiv_pos_as_xyz
  1  'x, y, z'
loop_
 _atom_site_type_symbol
 _atom_site_label
 _atom_site_symmetry_multiplicity
 _atom_site_fract_x
 _atom_site_fract_y
 _atom_site_fract_z
 _atom_site_occupancy
  Tb  Tb0  1  0.821169  0.965127  0.064836  1
  Tb  Tb1  1  0.323778  0.032080  0.437048  1
  Tb  Tb2  1  0.177993  0.465838  0.935487  1
  Tb  Tb3  1  0.679029  0.536690  0.564128  1
  Tb  Tb4  1  0.177993  0.034162  0.935487  1
  Tb  Tb5  1  0.679029  0.963310  0.564128  1
  Tb  Tb6  1  0.821169  0.534873  0.064836  1
  Tb  Tb7  1  0.323778  0.467920  0.437048  1
  Y  Y8  1  0.156457  0.750000  0.205156  1
  Y  Y9  1  0.654551  0.250000  0.295862  1
  Y  Y10  1  0.845489  0.250000  0.796712  1
  Y  Y11  1  0.345782  0.750000  0.703092  1
  Y  Y12  1  0.456350  0.750000  0.997638  1
  Y  Y13  1  0.953750  0.250000  0.502598  1
  Y  Y14  1  0.543157  0.250000  0.001956  1
  Y  Y15  1  0.045155  0.750000  0.497429  1
  Y  Y16  1  0.622524  0.750000  0.304307  1
  Y  Y17  1  0.123736  0.250000  0.194718  1
  Y  Y18  1  0.376387  0.250000  0.695226  1
  Y  Y19  1  0.876999  0.750000  0.805237  1
  Fe  Fe20  1  0.428933  0.750000  0.487189  1
  Co  Co21  1  0.936004  0.250000  0.010334  1
  Co  Co22  1  0.566936  0.250000  0.510502  1
  Co  Co23  1  0.064871  0.750000  0.990379  1
  Sb  Sb24  1  0.927658  0.992326  0.326900  1
  Sb  Sb25  1  0.427573  0.008215  0.172516  1
  Sb  Sb26  1  0.071762  0.491827  0.672945  1
  Sb  Sb27  1  0.572498  0.507805  0.826973  1
  Sb  Sb28  1  0.071762  0.008173  0.672945  1
  Sb  Sb29  1  0.572498  0.992195  0.826973  1
  Sb  Sb30  1  0.927658  0.507674  0.326900  1
  Sb  Sb31  1  0.427573  0.491785  0.172516  1
