# generated using pymatgen
data_EuTh(Ga3Ni)6
_symmetry_space_group_name_H-M   'P 1'
_cell_length_a   10.12685038
_cell_length_b   10.12685008
_cell_length_c   10.12684800
_cell_angle_alpha   42.50594613
_cell_angle_beta   42.50594796
_cell_angle_gamma   42.50594682
_symmetry_Int_Tables_number   1
_chemical_formula_structural   EuTh(Ga3Ni)6
_chemical_formula_sum   'Eu1 Th1 Ga18 Ni6'
_cell_volume   429.31170496
_cell_formula_units_Z   1
loop_
 _symmetry_equiv_pos_site_id
 _symmetry_equiv_pos_as_xyz
  1  'x, y, z'
loop_
 _atom_site_type_symbol
 _atom_site_label
 _atom_site_symmetry_multiplicity
 _atom_site_fract_x
 _atom_site_fract_y
 _atom_site_fract_z
 _atom_site_occupancy
  Eu  Eu0  1  0.833171  0.833171  0.833171  1
  Th  Th1  1  0.166766  0.166766  0.166766  1
  Ga  Ga2  1  0.049762  0.049762  0.049762  1
  Ga  Ga3  1  0.701903  0.505714  0.292393  1
  Ga  Ga4  1  0.666038  0.334402  0.999630  1
  Ga  Ga5  1  0.102381  0.435957  0.757639  1
  Ga  Ga6  1  0.435957  0.757639  0.102381  1
  Ga  Ga7  1  0.385427  0.385427  0.385427  1
  Ga  Ga8  1  0.334402  0.999630  0.666038  1
  Ga  Ga9  1  0.614740  0.614740  0.614740  1
  Ga  Ga10  1  0.238084  0.571918  0.893920  1
  Ga  Ga11  1  0.571918  0.893920  0.238084  1
  Ga  Ga12  1  0.505714  0.292393  0.701903  1
  Ga  Ga13  1  0.757639  0.102381  0.435957  1
  Ga  Ga14  1  0.949136  0.949136  0.949136  1
  Ga  Ga15  1  0.292393  0.701903  0.505714  1
  Ga  Ga16  1  0.999630  0.666038  0.334402  1
  Ga  Ga17  1  0.716949  0.716949  0.716949  1
  Ga  Ga18  1  0.284012  0.284012  0.284012  1
  Ga  Ga19  1  0.893920  0.238084  0.571918  1
  Ni  Ni20  1  0.244015  0.923303  0.578856  1
  Ni  Ni21  1  0.923303  0.578856  0.244015  1
  Ni  Ni22  1  0.759713  0.414609  0.079556  1
  Ni  Ni23  1  0.079556  0.759713  0.414609  1
  Ni  Ni24  1  0.414609  0.079556  0.759713  1
  Ni  Ni25  1  0.578856  0.244015  0.923303  1
