# generated using pymatgen
data_Ho5Tm7IrOs3
_symmetry_space_group_name_H-M   'P 1'
_cell_length_a   7.33623823
_cell_length_b   8.94334974
_cell_length_c   6.29295975
_cell_angle_alpha   89.87601802
_cell_angle_beta   89.94217558
_cell_angle_gamma   89.98562370
_symmetry_Int_Tables_number   1
_chemical_formula_structural   Ho5Tm7IrOs3
_chemical_formula_sum   'Ho5 Tm7 Ir1 Os3'
_cell_volume   412.88332473
_cell_formula_units_Z   1
loop_
 _symmetry_equiv_pos_site_id
 _symmetry_equiv_pos_as_xyz
  1  'x, y, z'
loop_
 _atom_site_type_symbol
 _atom_site_label
 _atom_site_symmetry_multiplicity
 _atom_site_fract_x
 _atom_site_fract_y
 _atom_site_fract_z
 _atom_site_occupancy
  Ho  Ho0  1  0.037566  0.250521  0.629407  1
  Ho  Ho1  1  0.961078  0.749423  0.371337  1
  Ho  Ho2  1  0.461620  0.749558  0.128961  1
  Ho  Ho3  1  0.539612  0.250177  0.870684  1
  Ho  Ho4  1  0.173979  0.061709  0.166342  1
  Tm  Tm5  1  0.824741  0.936256  0.831762  1
  Tm  Tm6  1  0.324631  0.934346  0.670154  1
  Tm  Tm7  1  0.825124  0.563233  0.832061  1
  Tm  Tm8  1  0.676897  0.061717  0.332154  1
  Tm  Tm9  1  0.173126  0.438634  0.166138  1
  Tm  Tm10  1  0.677071  0.438263  0.332250  1
  Tm  Tm11  1  0.324501  0.565265  0.669831  1
  Ir  Ir12  1  0.384009  0.250803  0.458793  1
  Os  Os13  1  0.616177  0.750346  0.539402  1
  Os  Os14  1  0.117078  0.749080  0.959352  1
  Os  Os15  1  0.882788  0.250671  0.041371  1
