# generated using pymatgen
data_TbCe2Y(CdNi2)2
_symmetry_space_group_name_H-M   'P 1'
_cell_length_a   7.46939252
_cell_length_b   7.46939201
_cell_length_c   3.61860900
_cell_angle_alpha   90.00000000
_cell_angle_beta   90.00000000
_cell_angle_gamma   92.98471915
_symmetry_Int_Tables_number   1
_chemical_formula_structural   TbCe2Y(CdNi2)2
_chemical_formula_sum   'Tb1 Ce2 Y1 Cd2 Ni4'
_cell_volume   201.61491413
_cell_formula_units_Z   1
loop_
 _symmetry_equiv_pos_site_id
 _symmetry_equiv_pos_as_xyz
  1  'x, y, z'
loop_
 _atom_site_type_symbol
 _atom_site_label
 _atom_site_symmetry_multiplicity
 _atom_site_fract_x
 _atom_site_fract_y
 _atom_site_fract_z
 _atom_site_occupancy
  Tb  Tb0  1  0.827413  0.672587  0.500000  1
  Ce  Ce1  1  0.674356  0.174415  0.500000  1
  Ce  Ce2  1  0.325585  0.825644  0.500000  1
  Y  Y3  1  0.172929  0.327071  0.500000  1
  Cd  Cd4  1  0.000168  0.000181  0.000000  1
  Cd  Cd5  1  0.499819  0.499832  0.000000  1
  Ni  Ni6  1  0.126059  0.626732  0.000000  1
  Ni  Ni7  1  0.873268  0.373941  0.000000  1
  Ni  Ni8  1  0.617748  0.882252  0.000000  1
  Ni  Ni9  1  0.382656  0.117344  0.000000  1
