# generated using pymatgen
data_Y4BI6
_symmetry_space_group_name_H-M   'P 1'
_cell_length_a   4.12917300
_cell_length_b   13.97230600
_cell_length_c   14.44620000
_cell_angle_alpha   90.00000000
_cell_angle_beta   90.00000000
_cell_angle_gamma   90.00000000
_symmetry_Int_Tables_number   1
_chemical_formula_structural   Y4BI6
_chemical_formula_sum   'Y8 B2 I12'
_cell_volume   833.46005501
_cell_formula_units_Z   2
loop_
 _symmetry_equiv_pos_site_id
 _symmetry_equiv_pos_as_xyz
  1  'x, y, z'
loop_
 _atom_site_type_symbol
 _atom_site_label
 _atom_site_symmetry_multiplicity
 _atom_site_fract_x
 _atom_site_fract_y
 _atom_site_fract_z
 _atom_site_occupancy
  Y  Y0  1  0.000000  0.095954  0.076454  1
  Y  Y1  1  0.000000  0.904046  0.923546  1
  Y  Y2  1  0.000000  0.595954  0.423546  1
  Y  Y3  1  0.000000  0.404046  0.576454  1
  Y  Y4  1  0.500000  0.117094  0.862465  1
  Y  Y5  1  0.500000  0.882906  0.137535  1
  Y  Y6  1  0.500000  0.617094  0.637535  1
  Y  Y7  1  0.500000  0.382906  0.362465  1
  B  B8  1  0.500000  0.000000  0.000000  1
  B  B9  1  0.500000  0.500000  0.500000  1
  I  I10  1  0.500000  0.268609  0.681327  1
  I  I11  1  0.500000  0.731391  0.318673  1
  I  I12  1  0.500000  0.768609  0.818673  1
  I  I13  1  0.500000  0.231391  0.181327  1
  I  I14  1  0.000000  0.263863  0.932226  1
  I  I15  1  0.000000  0.736137  0.067774  1
  I  I16  1  0.000000  0.482052  0.236388  1
  I  I17  1  0.000000  0.517948  0.763612  1
  I  I18  1  0.000000  0.982052  0.263612  1
  I  I19  1  0.000000  0.017948  0.736388  1
  I  I20  1  0.000000  0.236137  0.432226  1
  I  I21  1  0.000000  0.763863  0.567774  1
