# generated using pymatgen
data_MgB2F8
_symmetry_space_group_name_H-M   'P 1'
_cell_length_a   5.56085400
_cell_length_b   8.72106800
_cell_length_c   11.12058200
_cell_angle_alpha   90.00000000
_cell_angle_beta   90.00000000
_cell_angle_gamma   90.00000000
_symmetry_Int_Tables_number   1
_chemical_formula_structural   MgB2F8
_chemical_formula_sum   'Mg4 B8 F32'
_cell_volume   539.31025991
_cell_formula_units_Z   4
loop_
 _symmetry_equiv_pos_site_id
 _symmetry_equiv_pos_as_xyz
  1  'x, y, z'
loop_
 _atom_site_type_symbol
 _atom_site_label
 _atom_site_symmetry_multiplicity
 _atom_site_fract_x
 _atom_site_fract_y
 _atom_site_fract_z
 _atom_site_occupancy
  Mg  Mg0  1  0.250000  0.250889  0.576449  1
  Mg  Mg1  1  0.750000  0.749111  0.423551  1
  Mg  Mg2  1  0.250000  0.750889  0.923551  1
  Mg  Mg3  1  0.750000  0.249111  0.076449  1
  B  B4  1  0.250000  0.366948  0.899724  1
  B  B5  1  0.750000  0.633052  0.100276  1
  B  B6  1  0.250000  0.866948  0.600276  1
  B  B7  1  0.750000  0.133052  0.399724  1
  B  B8  1  0.250000  0.028484  0.148890  1
  B  B9  1  0.750000  0.971516  0.851110  1
  B  B10  1  0.250000  0.528484  0.351110  1
  B  B11  1  0.750000  0.471516  0.648890  1
  F  F12  1  0.250000  0.268917  0.801028  1
  F  F13  1  0.250000  0.925109  0.048495  1
  F  F14  1  0.750000  0.574891  0.548495  1
  F  F15  1  0.250000  0.425109  0.451505  1
  F  F16  1  0.750000  0.474304  0.136208  1
  F  F17  1  0.250000  0.525696  0.863792  1
  F  F18  1  0.750000  0.974304  0.363792  1
  F  F19  1  0.250000  0.025696  0.636208  1
  F  F20  1  0.041696  0.124993  0.137913  1
  F  F21  1  0.541696  0.875007  0.862087  1
  F  F22  1  0.458304  0.624993  0.362087  1
  F  F23  1  0.750000  0.074891  0.951505  1
  F  F24  1  0.958304  0.875007  0.862087  1
  F  F25  1  0.458304  0.124993  0.137913  1
  F  F26  1  0.541696  0.375007  0.637913  1
  F  F27  1  0.041696  0.624993  0.362087  1
  F  F28  1  0.039276  0.340812  0.970196  1
  F  F29  1  0.539276  0.659188  0.029804  1
  F  F30  1  0.460724  0.840812  0.529804  1
  F  F31  1  0.960724  0.159188  0.470196  1
  F  F32  1  0.960724  0.659188  0.029804  1
  F  F33  1  0.460724  0.340812  0.970196  1
  F  F34  1  0.539276  0.159188  0.470196  1
  F  F35  1  0.039276  0.840812  0.529804  1
  F  F36  1  0.750000  0.049017  0.744472  1
  F  F37  1  0.250000  0.950983  0.255528  1
  F  F38  1  0.750000  0.549017  0.755528  1
  F  F39  1  0.250000  0.450983  0.244472  1
  F  F40  1  0.250000  0.768917  0.698972  1
  F  F41  1  0.750000  0.231083  0.301028  1
  F  F42  1  0.958304  0.375007  0.637913  1
  F  F43  1  0.750000  0.731083  0.198972  1
