# generated using pymatgen
data_Nd3In3GeIrRh
_symmetry_space_group_name_H-M   'P 1'
_cell_length_a   7.63953800
_cell_length_b   7.63953852
_cell_length_c   4.16570000
_cell_angle_alpha   90.00000000
_cell_angle_beta   90.00000000
_cell_angle_gamma   120.00000642
_symmetry_Int_Tables_number   1
_chemical_formula_structural   Nd3In3GeIrRh
_chemical_formula_sum   'Nd3 In3 Ge1 Ir1 Rh1'
_cell_volume   210.54882114
_cell_formula_units_Z   1
loop_
 _symmetry_equiv_pos_site_id
 _symmetry_equiv_pos_as_xyz
  1  'x, y, z'
loop_
 _atom_site_type_symbol
 _atom_site_label
 _atom_site_symmetry_multiplicity
 _atom_site_fract_x
 _atom_site_fract_y
 _atom_site_fract_z
 _atom_site_occupancy
  Nd  Nd0  1  0.593340  0.010662  0.500000  1
  Nd  Nd1  1  0.417322  0.406660  0.500000  1
  Nd  Nd2  1  0.989338  0.582678  0.500000  1
  In  In3  1  0.253383  0.010764  0.000000  1
  In  In4  1  0.757381  0.746617  0.000000  1
  In  In5  1  0.989236  0.242619  0.000000  1
  Ge  Ge6  1  0.333333  0.666667  0.000000  1
  Ir  Ir7  1  0.666667  0.333333  0.000000  1
  Rh  Rh8  1  0.000000  0.000000  0.500000  1
