# generated using pymatgen
data_Np3AsSe3
_symmetry_space_group_name_H-M   'P 1'
_cell_length_a   7.52952946
_cell_length_b   7.54818349
_cell_length_c   7.54818235
_cell_angle_alpha   109.53226107
_cell_angle_beta   109.41425802
_cell_angle_gamma   109.56741380
_symmetry_Int_Tables_number   1
_chemical_formula_structural   Np3AsSe3
_chemical_formula_sum   'Np6 As2 Se6'
_cell_volume   329.83105515
_cell_formula_units_Z   2
loop_
 _symmetry_equiv_pos_site_id
 _symmetry_equiv_pos_as_xyz
  1  'x, y, z'
loop_
 _atom_site_type_symbol
 _atom_site_label
 _atom_site_symmetry_multiplicity
 _atom_site_fract_x
 _atom_site_fract_y
 _atom_site_fract_z
 _atom_site_occupancy
  Np  Np0  1  0.250000  0.116610  0.866610  1
  Np  Np1  1  0.124352  0.871200  0.256126  1
  Np  Np2  1  0.750000  0.374463  0.624463  1
  Np  Np3  1  0.871144  0.250877  0.122928  1
  Np  Np4  1  0.628856  0.751784  0.379733  1
  Np  Np5  1  0.375648  0.631775  0.746849  1
  As  As6  1  0.502124  0.000757  0.655786  1
  As  As7  1  0.997876  0.653662  0.498633  1
  Se  Se8  1  0.652148  0.500975  0.999030  1
  Se  Se9  1  0.000612  0.154372  0.499848  1
  Se  Se10  1  0.847852  0.846883  0.848827  1
  Se  Se11  1  0.346952  0.347506  0.346851  1
  Se  Se12  1  0.153048  0.499900  0.000555  1
  Se  Se13  1  0.499388  0.999236  0.153760  1
