# generated using pymatgen
data_Sm3Ho5Co3Si12Rh
_symmetry_space_group_name_H-M   'P 1'
_cell_length_a   8.05275884
_cell_length_b   8.05275876
_cell_length_c   8.02173700
_cell_angle_alpha   89.99888122
_cell_angle_beta   90.00111924
_cell_angle_gamma   119.94782441
_symmetry_Int_Tables_number   1
_chemical_formula_structural   Sm3Ho5Co3Si12Rh
_chemical_formula_sum   'Sm3 Ho5 Co3 Si12 Rh1'
_cell_volume   450.73006278
_cell_formula_units_Z   1
loop_
 _symmetry_equiv_pos_site_id
 _symmetry_equiv_pos_as_xyz
  1  'x, y, z'
loop_
 _atom_site_type_symbol
 _atom_site_label
 _atom_site_symmetry_multiplicity
 _atom_site_fract_x
 _atom_site_fract_y
 _atom_site_fract_z
 _atom_site_occupancy
  Sm  Sm0  1  0.999856  0.000144  0.251119  1
  Sm  Sm1  1  0.999960  0.000040  0.748486  1
  Sm  Sm2  1  0.507702  0.492298  0.251420  1
  Ho  Ho3  1  0.506215  0.012255  0.251560  1
  Ho  Ho4  1  0.987745  0.493785  0.251560  1
  Ho  Ho5  1  0.495429  0.504571  0.749900  1
  Ho  Ho6  1  0.495580  0.991157  0.750039  1
  Ho  Ho7  1  0.008843  0.504420  0.750039  1
  Co  Co8  1  0.332834  0.667166  0.470398  1
  Co  Co9  1  0.666770  0.333230  0.535142  1
  Co  Co10  1  0.666716  0.333284  0.963944  1
  Si  Si11  1  0.172721  0.827279  0.501491  1
  Si  Si12  1  0.171713  0.345120  0.502063  1
  Si  Si13  1  0.654880  0.828287  0.502063  1
  Si  Si14  1  0.827330  0.172670  0.500131  1
  Si  Si15  1  0.828954  0.655964  0.502331  1
  Si  Si16  1  0.344036  0.171046  0.502331  1
  Si  Si17  1  0.826801  0.173199  0.000301  1
  Si  Si18  1  0.828387  0.654919  0.997971  1
  Si  Si19  1  0.345081  0.171613  0.997971  1
  Si  Si20  1  0.167172  0.832828  0.997208  1
  Si  Si21  1  0.166216  0.333769  0.996544  1
  Si  Si22  1  0.666231  0.833784  0.996544  1
  Rh  Rh23  1  0.332829  0.667171  0.029441  1
