# generated using pymatgen
data_Tb2NpRu3
_symmetry_space_group_name_H-M   'P 1'
_cell_length_a   5.24273862
_cell_length_b   5.24273771
_cell_length_c   5.24273877
_cell_angle_alpha   67.43856674
_cell_angle_beta   67.43855508
_cell_angle_gamma   67.43856363
_symmetry_Int_Tables_number   1
_chemical_formula_structural   Tb2NpRu3
_chemical_formula_sum   'Tb2 Np1 Ru3'
_cell_volume   118.07178612
_cell_formula_units_Z   1
loop_
 _symmetry_equiv_pos_site_id
 _symmetry_equiv_pos_as_xyz
  1  'x, y, z'
loop_
 _atom_site_type_symbol
 _atom_site_label
 _atom_site_symmetry_multiplicity
 _atom_site_fract_x
 _atom_site_fract_y
 _atom_site_fract_z
 _atom_site_occupancy
  Tb  Tb0  1  0.126676  0.126676  0.126676  1
  Tb  Tb1  1  0.873324  0.873324  0.873324  1
  Np  Np2  1  0.500000  0.500000  0.500000  1
  Ru  Ru3  1  0.500000  0.000000  0.500000  1
  Ru  Ru4  1  0.000000  0.500000  0.500000  1
  Ru  Ru5  1  0.500000  0.500000  0.000000  1
