# generated using pymatgen
data_ScAl(SiTe3)2
_symmetry_space_group_name_H-M   'P 1'
_cell_length_a   7.00493700
_cell_length_b   7.00493604
_cell_length_c   7.70297300
_cell_angle_alpha   90.00000000
_cell_angle_beta   90.00000000
_cell_angle_gamma   120.00000924
_symmetry_Int_Tables_number   1
_chemical_formula_structural   ScAl(SiTe3)2
_chemical_formula_sum   'Sc1 Al1 Si2 Te6'
_cell_volume   327.33871634
_cell_formula_units_Z   1
loop_
 _symmetry_equiv_pos_site_id
 _symmetry_equiv_pos_as_xyz
  1  'x, y, z'
loop_
 _atom_site_type_symbol
 _atom_site_label
 _atom_site_symmetry_multiplicity
 _atom_site_fract_x
 _atom_site_fract_y
 _atom_site_fract_z
 _atom_site_occupancy
  Sc  Sc0  1  0.666667  0.333333  0.500000  1
  Al  Al1  1  0.333333  0.666667  0.500000  1
  Si  Si2  1  0.000000  0.000000  0.350803  1
  Si  Si3  1  0.000000  0.000000  0.649197  1
  Te  Te4  1  0.013373  0.658248  0.736718  1
  Te  Te5  1  0.341752  0.355125  0.736718  1
  Te  Te6  1  0.644875  0.986627  0.736718  1
  Te  Te7  1  0.644875  0.658248  0.263282  1
  Te  Te8  1  0.013373  0.355125  0.263282  1
  Te  Te9  1  0.341752  0.986627  0.263282  1
