# generated using pymatgen
data_Nb4Si4RuRh3
_symmetry_space_group_name_H-M   'P 1'
_cell_length_a   3.79471500
_cell_length_b   6.44781483
_cell_length_c   7.35657736
_cell_angle_alpha   89.78995909
_cell_angle_beta   90.00000000
_cell_angle_gamma   90.00000000
_symmetry_Int_Tables_number   1
_chemical_formula_structural   Nb4Si4RuRh3
_chemical_formula_sum   'Nb4 Si4 Ru1 Rh3'
_cell_volume   179.99672730
_cell_formula_units_Z   1
loop_
 _symmetry_equiv_pos_site_id
 _symmetry_equiv_pos_as_xyz
  1  'x, y, z'
loop_
 _atom_site_type_symbol
 _atom_site_label
 _atom_site_symmetry_multiplicity
 _atom_site_fract_x
 _atom_site_fract_y
 _atom_site_fract_z
 _atom_site_occupancy
  Nb  Nb0  1  0.750000  0.477366  0.323436  1
  Nb  Nb1  1  0.250000  0.024244  0.827483  1
  Nb  Nb2  1  0.750000  0.972441  0.171315  1
  Nb  Nb3  1  0.250000  0.526620  0.676506  1
  Si  Si4  1  0.250000  0.270586  0.124588  1
  Si  Si5  1  0.250000  0.771028  0.375850  1
  Si  Si6  1  0.750000  0.728716  0.876466  1
  Si  Si7  1  0.750000  0.230824  0.623473  1
  Ru  Ru8  1  0.250000  0.645824  0.062880  1
  Rh  Rh9  1  0.250000  0.146849  0.437916  1
  Rh  Rh10  1  0.750000  0.854024  0.563078  1
  Rh  Rh11  1  0.750000  0.351477  0.937009  1
