# generated using pymatgen
data_Tb3Dy5(C2Br3)2
_symmetry_space_group_name_H-M   'P 1'
_cell_length_a   3.70485300
_cell_length_b   10.77011508
_cell_length_c   20.51616015
_cell_angle_alpha   90.01380827
_cell_angle_beta   90.00000000
_cell_angle_gamma   90.00000000
_symmetry_Int_Tables_number   1
_chemical_formula_structural   Tb3Dy5(C2Br3)2
_chemical_formula_sum   'Tb6 Dy10 C8 Br12'
_cell_volume   818.62950327
_cell_formula_units_Z   2
loop_
 _symmetry_equiv_pos_site_id
 _symmetry_equiv_pos_as_xyz
  1  'x, y, z'
loop_
 _atom_site_type_symbol
 _atom_site_label
 _atom_site_symmetry_multiplicity
 _atom_site_fract_x
 _atom_site_fract_y
 _atom_site_fract_z
 _atom_site_occupancy
  Tb  Tb0  1  0.250000  0.864882  0.579748  1
  Tb  Tb1  1  0.750000  0.135118  0.420252  1
  Tb  Tb2  1  0.750000  0.635030  0.080029  1
  Tb  Tb3  1  0.250000  0.364970  0.919971  1
  Tb  Tb4  1  0.250000  0.864531  0.744801  1
  Tb  Tb5  1  0.750000  0.135469  0.255199  1
  Dy  Dy6  1  0.750000  0.635585  0.244457  1
  Dy  Dy7  1  0.250000  0.364415  0.755543  1
  Dy  Dy8  1  0.250000  0.869145  0.168910  1
  Dy  Dy9  1  0.750000  0.130855  0.831090  1
  Dy  Dy10  1  0.750000  0.630607  0.668796  1
  Dy  Dy11  1  0.250000  0.369393  0.331204  1
  Dy  Dy12  1  0.250000  0.901222  0.328351  1
  Dy  Dy13  1  0.750000  0.098778  0.671649  1
  Dy  Dy14  1  0.750000  0.598434  0.828252  1
  Dy  Dy15  1  0.250000  0.401566  0.171748  1
  C  C16  1  0.250000  0.612352  0.750323  1
  C  C17  1  0.750000  0.387648  0.249677  1
  C  C18  1  0.750000  0.885248  0.250306  1
  C  C19  1  0.250000  0.114752  0.749694  1
  C  C20  1  0.250000  0.634215  0.156528  1
  C  C21  1  0.750000  0.365785  0.843472  1
  C  C22  1  0.750000  0.865863  0.656150  1
  C  C23  1  0.250000  0.134137  0.343850  1
  Br  Br24  1  0.250000  0.610227  0.555382  1
  Br  Br25  1  0.750000  0.389773  0.444618  1
  Br  Br26  1  0.750000  0.889317  0.055381  1
  Br  Br27  1  0.250000  0.110683  0.944619  1
  Br  Br28  1  0.250000  0.627984  0.952367  1
  Br  Br29  1  0.750000  0.372016  0.047633  1
  Br  Br30  1  0.750000  0.871767  0.452271  1
  Br  Br31  1  0.250000  0.128233  0.547729  1
  Br  Br32  1  0.250000  0.637085  0.356832  1
  Br  Br33  1  0.750000  0.362915  0.643168  1
  Br  Br34  1  0.750000  0.862868  0.857905  1
  Br  Br35  1  0.250000  0.137132  0.142095  1
