# generated using pymatgen
data_La16Yb4(Ir3Os)3
_symmetry_space_group_name_H-M   'P 1'
_cell_length_a   11.33082600
_cell_length_b   11.33082600
_cell_length_c   6.58342000
_cell_angle_alpha   90.00000000
_cell_angle_beta   90.00000000
_cell_angle_gamma   90.00000000
_symmetry_Int_Tables_number   1
_chemical_formula_structural   La16Yb4(Ir3Os)3
_chemical_formula_sum   'La16 Yb4 Ir9 Os3'
_cell_volume   845.22961106
_cell_formula_units_Z   1
loop_
 _symmetry_equiv_pos_site_id
 _symmetry_equiv_pos_as_xyz
  1  'x, y, z'
loop_
 _atom_site_type_symbol
 _atom_site_label
 _atom_site_symmetry_multiplicity
 _atom_site_fract_x
 _atom_site_fract_y
 _atom_site_fract_z
 _atom_site_occupancy
  La  La0  1  0.291073  0.088108  0.386697  1
  La  La1  1  0.291030  0.912101  0.887101  1
  La  La2  1  0.708970  0.087899  0.887101  1
  La  La3  1  0.708927  0.911892  0.386697  1
  La  La4  1  0.587899  0.791030  0.887101  1
  La  La5  1  0.588108  0.208927  0.386697  1
  La  La6  1  0.411892  0.791073  0.386697  1
  La  La7  1  0.412101  0.208970  0.887101  1
  La  La8  1  0.211009  0.411094  0.614903  1
  La  La9  1  0.210897  0.588977  0.110916  1
  La  La10  1  0.789103  0.411023  0.110916  1
  La  La11  1  0.788991  0.588906  0.614903  1
  La  La12  1  0.911023  0.710897  0.110916  1
  La  La13  1  0.911094  0.288991  0.614903  1
  La  La14  1  0.088906  0.711009  0.614903  1
  La  La15  1  0.088977  0.289103  0.110916  1
  Yb  Yb16  1  0.000000  0.000000  0.499762  1
  Yb  Yb17  1  0.000000  0.000000  0.000259  1
  Yb  Yb18  1  0.500000  0.500000  0.000259  1
  Yb  Yb19  1  0.500000  0.500000  0.499762  1
  Ir  Ir20  1  0.845913  0.155485  0.250497  1
  Ir  Ir21  1  0.845844  0.844648  0.749476  1
  Ir  Ir22  1  0.154156  0.155352  0.749476  1
  Ir  Ir23  1  0.154087  0.844515  0.250497  1
  Ir  Ir24  1  0.655352  0.345844  0.749476  1
  Ir  Ir25  1  0.655485  0.654087  0.250497  1
  Ir  Ir26  1  0.344515  0.345913  0.250497  1
  Ir  Ir27  1  0.344648  0.654156  0.749476  1
  Ir  Ir28  1  0.000000  0.500000  0.381466  1
  Os  Os29  1  0.500000  0.000000  0.119306  1
  Os  Os30  1  0.500000  0.000000  0.619190  1
  Os  Os31  1  0.000000  0.500000  0.881640  1
