# generated using pymatgen
data_Lu2GaNiRu
_symmetry_space_group_name_H-M   'P 1'
_cell_length_a   4.09250914
_cell_length_b   5.34513745
_cell_length_c   5.34513811
_cell_angle_alpha   62.67714721
_cell_angle_beta   67.49119341
_cell_angle_gamma   67.49119762
_symmetry_Int_Tables_number   1
_chemical_formula_structural   Lu2GaNiRu
_chemical_formula_sum   'Lu2 Ga1 Ni1 Ru1'
_cell_volume   92.86112331
_cell_formula_units_Z   1
loop_
 _symmetry_equiv_pos_site_id
 _symmetry_equiv_pos_as_xyz
  1  'x, y, z'
loop_
 _atom_site_type_symbol
 _atom_site_label
 _atom_site_symmetry_multiplicity
 _atom_site_fract_x
 _atom_site_fract_y
 _atom_site_fract_z
 _atom_site_occupancy
  Lu  Lu0  1  0.203041  0.291679  0.302238  1
  Lu  Lu1  1  0.796959  0.697762  0.708321  1
  Ga  Ga2  1  0.000000  0.995162  0.004838  1
  Ni  Ni3  1  0.500000  0.737790  0.262210  1
  Ru  Ru4  1  0.500000  0.277607  0.722393  1
