# generated using pymatgen
data_La2NiOsRu2
_symmetry_space_group_name_H-M   'P 1'
_cell_length_a   5.23377608
_cell_length_b   5.23377576
_cell_length_c   5.54260225
_cell_angle_alpha   86.93300758
_cell_angle_beta   60.06302837
_cell_angle_gamma   114.50960670
_symmetry_Int_Tables_number   1
_chemical_formula_structural   La2NiOsRu2
_chemical_formula_sum   'La2 Ni1 Os1 Ru2'
_cell_volume   112.98888405
_cell_formula_units_Z   1
loop_
 _symmetry_equiv_pos_site_id
 _symmetry_equiv_pos_as_xyz
  1  'x, y, z'
loop_
 _atom_site_type_symbol
 _atom_site_label
 _atom_site_symmetry_multiplicity
 _atom_site_fract_x
 _atom_site_fract_y
 _atom_site_fract_z
 _atom_site_occupancy
  La  La0  1  0.504160  0.750417  0.745423  1
  La  La1  1  0.995840  0.999583  0.004577  1
  Ni  Ni2  1  0.750000  0.375000  0.875000  1
  Os  Os3  1  0.250000  0.375000  0.375000  1
  Ru  Ru4  1  0.250000  0.875000  0.375000  1
  Ru  Ru5  1  0.750000  0.375000  0.375000  1
