# generated using pymatgen
data_La2NdSm(TeO6)2
_symmetry_space_group_name_H-M   'P 1'
_cell_length_a   5.52602100
_cell_length_b   9.46237819
_cell_length_c   10.37079721
_cell_angle_alpha   89.97699780
_cell_angle_beta   90.00000000
_cell_angle_gamma   90.00000000
_symmetry_Int_Tables_number   1
_chemical_formula_structural   La2NdSm(TeO6)2
_chemical_formula_sum   'La4 Nd2 Sm2 Te4 O24'
_cell_volume   542.28168893
_cell_formula_units_Z   2
loop_
 _symmetry_equiv_pos_site_id
 _symmetry_equiv_pos_as_xyz
  1  'x, y, z'
loop_
 _atom_site_type_symbol
 _atom_site_label
 _atom_site_symmetry_multiplicity
 _atom_site_fract_x
 _atom_site_fract_y
 _atom_site_fract_z
 _atom_site_occupancy
  La  La0  1  0.530385  0.218785  0.358190  1
  La  La1  1  0.030385  0.281215  0.641810  1
  La  La2  1  0.469353  0.718746  0.142308  1
  La  La3  1  0.969353  0.781254  0.857692  1
  Nd  Nd4  1  0.523296  0.103158  0.956068  1
  Nd  Nd5  1  0.023296  0.396842  0.043932  1
  Sm  Sm6  1  0.476682  0.603378  0.543642  1
  Sm  Sm7  1  0.976682  0.896622  0.456358  1
  Te  Te8  1  0.462675  0.992067  0.640007  1
  Te  Te9  1  0.962675  0.507933  0.359993  1
  Te  Te10  1  0.537258  0.493892  0.857817  1
  Te  Te11  1  0.037258  0.006108  0.142183  1
  O  O12  1  0.303796  0.139587  0.172150  1
  O  O13  1  0.803796  0.360413  0.827850  1
  O  O14  1  0.694820  0.639990  0.329926  1
  O  O15  1  0.194820  0.860010  0.670074  1
  O  O16  1  0.723247  0.108144  0.562698  1
  O  O17  1  0.223247  0.391856  0.437302  1
  O  O18  1  0.276616  0.609217  0.936120  1
  O  O19  1  0.776616  0.890783  0.063880  1
  O  O20  1  0.674413  0.634688  0.743732  1
  O  O21  1  0.174413  0.865312  0.256268  1
  O  O22  1  0.324672  0.133991  0.753191  1
  O  O23  1  0.824672  0.366009  0.246809  1
  O  O24  1  0.665675  0.946858  0.786342  1
  O  O25  1  0.165675  0.553142  0.213658  1
  O  O26  1  0.334145  0.448505  0.711614  1
  O  O27  1  0.834145  0.051495  0.288386  1
  O  O28  1  0.255657  0.078598  0.504857  1
  O  O29  1  0.755657  0.421402  0.495143  1
  O  O30  1  0.742394  0.581547  0.993089  1
  O  O31  1  0.242394  0.918453  0.006911  1
  O  O32  1  0.088663  0.656128  0.472603  1
  O  O33  1  0.588663  0.843872  0.527397  1
  O  O34  1  0.916253  0.153611  0.027602  1
  O  O35  1  0.416253  0.346389  0.972398  1
