# generated using pymatgen
data_Rb2Ce3OF12
_symmetry_space_group_name_H-M   'P 1'
_cell_length_a   11.46150012
_cell_length_b   11.46150067
_cell_length_c   11.46150043
_cell_angle_alpha   42.65142334
_cell_angle_beta   42.65142137
_cell_angle_gamma   42.65141753
_symmetry_Int_Tables_number   1
_chemical_formula_structural   Rb2Ce3OF12
_chemical_formula_sum   'Rb4 Ce6 O2 F24'
_cell_volume   626.04006700
_cell_formula_units_Z   2
loop_
 _symmetry_equiv_pos_site_id
 _symmetry_equiv_pos_as_xyz
  1  'x, y, z'
loop_
 _atom_site_type_symbol
 _atom_site_label
 _atom_site_symmetry_multiplicity
 _atom_site_fract_x
 _atom_site_fract_y
 _atom_site_fract_z
 _atom_site_occupancy
  Rb  Rb0  1  0.000000  0.000000  0.000000  1
  Rb  Rb1  1  0.500000  0.500000  0.500000  1
  Rb  Rb2  1  0.137622  0.137622  0.137622  1
  Rb  Rb3  1  0.862378  0.862378  0.862378  1
  Ce  Ce4  1  0.577514  0.577514  0.033186  1
  Ce  Ce5  1  0.033186  0.577514  0.577514  1
  Ce  Ce6  1  0.577514  0.033186  0.577514  1
  Ce  Ce7  1  0.422486  0.966814  0.422486  1
  Ce  Ce8  1  0.966814  0.422486  0.422486  1
  Ce  Ce9  1  0.422486  0.422486  0.966814  1
  O  O10  1  0.284051  0.284051  0.284051  1
  O  O11  1  0.715949  0.715949  0.715949  1
  F  F12  1  0.371115  0.701177  0.701177  1
  F  F13  1  0.701177  0.371115  0.701177  1
  F  F14  1  0.701177  0.701177  0.371115  1
  F  F15  1  0.628885  0.298823  0.298823  1
  F  F16  1  0.298823  0.628885  0.298823  1
  F  F17  1  0.298823  0.298823  0.628885  1
  F  F18  1  0.086941  0.594430  0.086941  1
  F  F19  1  0.086941  0.086941  0.594430  1
  F  F20  1  0.000000  0.351335  0.648665  1
  F  F21  1  0.351335  0.648665  0.000000  1
  F  F22  1  0.648665  0.000000  0.351335  1
  F  F23  1  0.000000  0.648665  0.351335  1
  F  F24  1  0.648665  0.351335  0.000000  1
  F  F25  1  0.351335  0.000000  0.648665  1
  F  F26  1  0.086945  0.653513  0.653513  1
  F  F27  1  0.653513  0.653513  0.086945  1
  F  F28  1  0.653513  0.086945  0.653513  1
  F  F29  1  0.346487  0.913055  0.346487  1
  F  F30  1  0.913055  0.346487  0.346487  1
  F  F31  1  0.346487  0.346487  0.913055  1
  F  F32  1  0.913059  0.405570  0.913059  1
  F  F33  1  0.405570  0.913059  0.913059  1
  F  F34  1  0.913059  0.913059  0.405570  1
  F  F35  1  0.594430  0.086941  0.086941  1
