# generated using pymatgen
data_CuTePbO6
_symmetry_space_group_name_H-M   'P 1'
_cell_length_a   5.21435400
_cell_length_b   5.21435361
_cell_length_c   4.99660400
_cell_angle_alpha   90.00000000
_cell_angle_beta   90.00000000
_cell_angle_gamma   120.00001517
_symmetry_Int_Tables_number   1
_chemical_formula_structural   CuTePbO6
_chemical_formula_sum   'Cu1 Te1 Pb1 O6'
_cell_volume   117.65394337
_cell_formula_units_Z   1
loop_
 _symmetry_equiv_pos_site_id
 _symmetry_equiv_pos_as_xyz
  1  'x, y, z'
loop_
 _atom_site_type_symbol
 _atom_site_label
 _atom_site_symmetry_multiplicity
 _atom_site_fract_x
 _atom_site_fract_y
 _atom_site_fract_z
 _atom_site_occupancy
  Cu  Cu0  1  0.333333  0.666667  0.500000  1
  Te  Te1  1  0.666667  0.333333  0.500000  1
  Pb  Pb2  1  0.000000  0.000000  0.000000  1
  O  O3  1  0.371104  0.004792  0.717866  1
  O  O4  1  0.995208  0.366312  0.717866  1
  O  O5  1  0.633688  0.628896  0.717866  1
  O  O6  1  0.995208  0.628896  0.282134  1
  O  O7  1  0.633688  0.004792  0.282134  1
  O  O8  1  0.371104  0.366312  0.282134  1
