# generated using pymatgen
data_Zr10TlIn(GeBi2)2
_symmetry_space_group_name_H-M   'P 1'
_cell_length_a   8.83788405
_cell_length_b   8.82601568
_cell_length_c   5.95878500
_cell_angle_alpha   90.00000000
_cell_angle_beta   90.00000000
_cell_angle_gamma   119.80839479
_symmetry_Int_Tables_number   1
_chemical_formula_structural   Zr10TlIn(GeBi2)2
_chemical_formula_sum   'Zr10 Tl1 In1 Ge2 Bi4'
_cell_volume   403.30779715
_cell_formula_units_Z   1
loop_
 _symmetry_equiv_pos_site_id
 _symmetry_equiv_pos_as_xyz
  1  'x, y, z'
loop_
 _atom_site_type_symbol
 _atom_site_label
 _atom_site_symmetry_multiplicity
 _atom_site_fract_x
 _atom_site_fract_y
 _atom_site_fract_z
 _atom_site_occupancy
  Zr  Zr0  1  0.744084  0.743595  0.750000  1
  Zr  Zr1  1  0.255301  0.999424  0.750000  1
  Zr  Zr2  1  0.000925  0.257537  0.750000  1
  Zr  Zr3  1  0.265442  0.267881  0.250000  1
  Zr  Zr4  1  0.734300  0.001009  0.250000  1
  Zr  Zr5  1  0.999550  0.733122  0.250000  1
  Zr  Zr6  1  0.668389  0.333263  0.005290  1
  Zr  Zr7  1  0.331968  0.665668  0.005094  1
  Zr  Zr8  1  0.331968  0.665668  0.494906  1
  Zr  Zr9  1  0.668389  0.333263  0.494710  1
  Tl  Tl10  1  0.386180  0.000513  0.250000  1
  In  In11  1  0.000541  0.387586  0.250000  1
  Ge  Ge12  1  0.001322  0.001628  0.006728  1
  Ge  Ge13  1  0.001322  0.001628  0.493272  1
  Bi  Bi14  1  0.394879  0.394063  0.750000  1
  Bi  Bi15  1  0.602835  0.000823  0.750000  1
  Bi  Bi16  1  0.001014  0.601866  0.750000  1
  Bi  Bi17  1  0.611591  0.611464  0.250000  1
