# generated using pymatgen
data_Ce3Fe(P3Ru4)2
_symmetry_space_group_name_H-M   'P 1'
_cell_length_a   3.92015400
_cell_length_b   11.19176100
_cell_length_c   12.70851000
_cell_angle_alpha   90.00000000
_cell_angle_beta   90.00000000
_cell_angle_gamma   90.00000000
_symmetry_Int_Tables_number   1
_chemical_formula_structural   Ce3Fe(P3Ru4)2
_chemical_formula_sum   'Ce6 Fe2 P12 Ru16'
_cell_volume   557.56588133
_cell_formula_units_Z   2
loop_
 _symmetry_equiv_pos_site_id
 _symmetry_equiv_pos_as_xyz
  1  'x, y, z'
loop_
 _atom_site_type_symbol
 _atom_site_label
 _atom_site_symmetry_multiplicity
 _atom_site_fract_x
 _atom_site_fract_y
 _atom_site_fract_z
 _atom_site_occupancy
  Ce  Ce0  1  0.000000  0.500000  0.527755  1
  Ce  Ce1  1  0.500000  0.000000  0.472245  1
  Ce  Ce2  1  0.500000  0.819025  0.202245  1
  Ce  Ce3  1  0.500000  0.180975  0.202245  1
  Ce  Ce4  1  0.000000  0.680975  0.797755  1
  Ce  Ce5  1  0.000000  0.319025  0.797755  1
  Fe  Fe6  1  0.000000  0.500000  0.986009  1
  Fe  Fe7  1  0.500000  0.000000  0.013991  1
  P  P8  1  0.500000  0.500000  0.884318  1
  P  P9  1  0.000000  0.000000  0.115682  1
  P  P10  1  0.500000  0.500000  0.336002  1
  P  P11  1  0.000000  0.000000  0.663998  1
  P  P12  1  0.500000  0.299853  0.616055  1
  P  P13  1  0.500000  0.700147  0.616055  1
  P  P14  1  0.000000  0.200147  0.383945  1
  P  P15  1  0.000000  0.799853  0.383945  1
  P  P16  1  0.500000  0.851847  0.900855  1
  P  P17  1  0.500000  0.148153  0.900855  1
  P  P18  1  0.000000  0.648153  0.099145  1
  P  P19  1  0.000000  0.351847  0.099145  1
  Ru  Ru20  1  0.500000  0.500000  0.151889  1
  Ru  Ru21  1  0.000000  0.000000  0.848111  1
  Ru  Ru22  1  0.500000  0.500000  0.691925  1
  Ru  Ru23  1  0.000000  0.000000  0.308075  1
  Ru  Ru24  1  0.500000  0.333924  0.988715  1
  Ru  Ru25  1  0.500000  0.666076  0.988715  1
  Ru  Ru26  1  0.000000  0.166076  0.011285  1
  Ru  Ru27  1  0.000000  0.833924  0.011285  1
  Ru  Ru28  1  0.500000  0.303146  0.429670  1
  Ru  Ru29  1  0.500000  0.696854  0.429670  1
  Ru  Ru30  1  0.000000  0.196854  0.570330  1
  Ru  Ru31  1  0.000000  0.803146  0.570330  1
  Ru  Ru32  1  0.500000  0.878615  0.717243  1
  Ru  Ru33  1  0.500000  0.121385  0.717243  1
  Ru  Ru34  1  0.000000  0.621385  0.282757  1
  Ru  Ru35  1  0.000000  0.378615  0.282757  1
