# generated using pymatgen
data_Hf3Zr7BeSiSn6
_symmetry_space_group_name_H-M   'P 1'
_cell_length_a   8.64670900
_cell_length_b   8.64670818
_cell_length_c   5.83832900
_cell_angle_alpha   90.00000000
_cell_angle_beta   90.00000000
_cell_angle_gamma   119.99999929
_symmetry_Int_Tables_number   1
_chemical_formula_structural   Hf3Zr7BeSiSn6
_chemical_formula_sum   'Hf3 Zr7 Be1 Si1 Sn6'
_cell_volume   378.02528108
_cell_formula_units_Z   1
loop_
 _symmetry_equiv_pos_site_id
 _symmetry_equiv_pos_as_xyz
  1  'x, y, z'
loop_
 _atom_site_type_symbol
 _atom_site_label
 _atom_site_symmetry_multiplicity
 _atom_site_fract_x
 _atom_site_fract_y
 _atom_site_fract_z
 _atom_site_occupancy
  Hf  Hf0  1  0.666667  0.333333  0.000000  1
  Hf  Hf1  1  0.333333  0.666667  0.000000  1
  Hf  Hf2  1  0.333333  0.666667  0.500000  1
  Zr  Zr3  1  0.666667  0.333333  0.500000  1
  Zr  Zr4  1  0.743741  0.744103  0.756472  1
  Zr  Zr5  1  0.255897  0.999638  0.756472  1
  Zr  Zr6  1  0.000362  0.256259  0.756472  1
  Zr  Zr7  1  0.255897  0.256259  0.243528  1
  Zr  Zr8  1  0.743741  0.999638  0.243528  1
  Zr  Zr9  1  0.000362  0.744103  0.243528  1
  Be  Be10  1  0.000000  0.000000  0.000000  1
  Si  Si11  1  0.000000  0.000000  0.500000  1
  Sn  Sn12  1  0.391429  0.392023  0.750241  1
  Sn  Sn13  1  0.607977  0.999406  0.750241  1
  Sn  Sn14  1  0.000594  0.608571  0.750241  1
  Sn  Sn15  1  0.607977  0.608571  0.249759  1
  Sn  Sn16  1  0.391429  0.999406  0.249759  1
  Sn  Sn17  1  0.000594  0.392023  0.249759  1
