# generated using pymatgen
data_Nb6VCo4ReC2
_symmetry_space_group_name_H-M   'P 1'
_cell_length_a   8.15426772
_cell_length_b   8.15426790
_cell_length_c   8.21507700
_cell_angle_alpha   59.75300116
_cell_angle_beta   59.75300042
_cell_angle_gamma   59.46920233
_symmetry_Int_Tables_number   1
_chemical_formula_structural   Nb6VCo4ReC2
_chemical_formula_sum   'Nb12 V2 Co8 Re2 C4'
_cell_volume   383.24416557
_cell_formula_units_Z   2
loop_
 _symmetry_equiv_pos_site_id
 _symmetry_equiv_pos_as_xyz
  1  'x, y, z'
loop_
 _atom_site_type_symbol
 _atom_site_label
 _atom_site_symmetry_multiplicity
 _atom_site_fract_x
 _atom_site_fract_y
 _atom_site_fract_z
 _atom_site_occupancy
  Nb  Nb0  1  0.694255  0.306840  0.691404  1
  Nb  Nb1  1  0.943160  0.555745  0.558596  1
  Nb  Nb2  1  0.555745  0.943160  0.942498  1
  Nb  Nb3  1  0.943160  0.555745  0.942498  1
  Nb  Nb4  1  0.558358  0.558358  0.941642  1
  Nb  Nb5  1  0.944952  0.944952  0.555048  1
  Nb  Nb6  1  0.691642  0.691642  0.308358  1
  Nb  Nb7  1  0.306840  0.694255  0.691404  1
  Nb  Nb8  1  0.694255  0.306840  0.307502  1
  Nb  Nb9  1  0.305048  0.305048  0.694952  1
  Nb  Nb10  1  0.555745  0.943160  0.558596  1
  Nb  Nb11  1  0.306840  0.694255  0.307502  1
  V  V12  1  0.625000  0.125000  0.125000  1
  V  V13  1  0.125000  0.625000  0.125000  1
  Co  Co14  1  0.329992  0.329992  0.320186  1
  Co  Co15  1  0.227662  0.917061  0.927638  1
  Co  Co16  1  0.917061  0.227662  0.927638  1
  Co  Co17  1  0.920008  0.920008  0.230168  1
  Co  Co18  1  0.332939  0.022338  0.322362  1
  Co  Co19  1  0.329992  0.329992  0.019832  1
  Co  Co20  1  0.022338  0.332939  0.322362  1
  Co  Co21  1  0.920008  0.920008  0.929814  1
  Re  Re22  1  0.125000  0.125000  0.125000  1
  Re  Re23  1  0.125000  0.125000  0.625000  1
  C  C24  1  0.625000  0.625000  0.625000  1
  C  C25  1  0.125000  0.625000  0.625000  1
  C  C26  1  0.625000  0.125000  0.625000  1
  C  C27  1  0.625000  0.625000  0.125000  1
