# generated using pymatgen
data_CeTh7(Si3Rh)4
_symmetry_space_group_name_H-M   'P 1'
_cell_length_a   8.23244861
_cell_length_b   8.20954876
_cell_length_c   8.40630900
_cell_angle_alpha   90.00000000
_cell_angle_beta   90.00000000
_cell_angle_gamma   119.90802381
_symmetry_Int_Tables_number   1
_chemical_formula_structural   CeTh7(Si3Rh)4
_chemical_formula_sum   'Ce1 Th7 Si12 Rh4'
_cell_volume   492.47712245
_cell_formula_units_Z   1
loop_
 _symmetry_equiv_pos_site_id
 _symmetry_equiv_pos_as_xyz
  1  'x, y, z'
loop_
 _atom_site_type_symbol
 _atom_site_label
 _atom_site_symmetry_multiplicity
 _atom_site_fract_x
 _atom_site_fract_y
 _atom_site_fract_z
 _atom_site_occupancy
  Ce  Ce0  1  0.999539  0.499769  0.750000  1
  Th  Th1  1  0.000062  0.000031  0.250000  1
  Th  Th2  1  0.999984  0.999992  0.750000  1
  Th  Th3  1  0.499974  0.500060  0.250000  1
  Th  Th4  1  0.499974  0.999914  0.250000  1
  Th  Th5  1  0.000144  0.500072  0.250000  1
  Th  Th6  1  0.500052  0.500051  0.750000  1
  Th  Th7  1  0.500052  0.000001  0.750000  1
  Si  Si8  1  0.165815  0.831926  0.501824  1
  Si  Si9  1  0.165815  0.333889  0.501824  1
  Si  Si10  1  0.669018  0.834509  0.499442  1
  Si  Si11  1  0.834227  0.168041  0.501315  1
  Si  Si12  1  0.834227  0.666185  0.501315  1
  Si  Si13  1  0.331009  0.165504  0.499152  1
  Si  Si14  1  0.834227  0.168041  0.998685  1
  Si  Si15  1  0.834227  0.666185  0.998685  1
  Si  Si16  1  0.331009  0.165504  0.000848  1
  Si  Si17  1  0.165815  0.831926  0.998176  1
  Si  Si18  1  0.165815  0.333889  0.998176  1
  Si  Si19  1  0.669018  0.834509  0.000558  1
  Rh  Rh20  1  0.335820  0.667911  0.499742  1
  Rh  Rh21  1  0.664180  0.332089  0.499735  1
  Rh  Rh22  1  0.664180  0.332089  0.000265  1
  Rh  Rh23  1  0.335820  0.667911  0.000258  1
