# generated using pymatgen
data_V5BPC
_symmetry_space_group_name_H-M   'P 1'
_cell_length_a   5.70854062
_cell_length_b   5.70854013
_cell_length_c   6.64303166
_cell_angle_alpha   116.02577061
_cell_angle_beta   116.02576336
_cell_angle_gamma   88.78488750
_symmetry_Int_Tables_number   1
_chemical_formula_structural   V5BPC
_chemical_formula_sum   'V10 B2 P2 C2'
_cell_volume   170.82239005
_cell_formula_units_Z   2
loop_
 _symmetry_equiv_pos_site_id
 _symmetry_equiv_pos_as_xyz
  1  'x, y, z'
loop_
 _atom_site_type_symbol
 _atom_site_label
 _atom_site_symmetry_multiplicity
 _atom_site_fract_x
 _atom_site_fract_y
 _atom_site_fract_z
 _atom_site_occupancy
  V  V0  1  0.500000  0.500000  0.000000  1
  V  V1  1  0.000000  0.000000  0.000000  1
  V  V2  1  0.028167  0.528167  0.721125  1
  V  V3  1  0.692956  0.192956  0.721125  1
  V  V4  1  0.205530  0.024154  0.729687  1
  V  V5  1  0.524154  0.705530  0.729687  1
  V  V6  1  0.971833  0.471833  0.278875  1
  V  V7  1  0.307044  0.807044  0.278875  1
  V  V8  1  0.794470  0.975846  0.270313  1
  V  V9  1  0.475846  0.294470  0.270313  1
  B  B10  1  0.883661  0.616339  0.000000  1
  B  B11  1  0.116339  0.383661  0.000000  1
  P  P12  1  0.250000  0.250000  0.500000  1
  P  P13  1  0.750000  0.750000  0.500000  1
  C  C14  1  0.643345  0.143345  0.000000  1
  C  C15  1  0.356655  0.856655  0.000000  1
