# generated using pymatgen
data_HfBi8Os3O22
_symmetry_space_group_name_H-M   'P 1'
_cell_length_a   6.69710978
_cell_length_b   7.61864495
_cell_length_c   10.04105732
_cell_angle_alpha   101.26580064
_cell_angle_beta   91.56505881
_cell_angle_gamma   89.91183232
_symmetry_Int_Tables_number   1
_chemical_formula_structural   HfBi8Os3O22
_chemical_formula_sum   'Hf1 Bi8 Os3 O22'
_cell_volume   502.26093398
_cell_formula_units_Z   1
loop_
 _symmetry_equiv_pos_site_id
 _symmetry_equiv_pos_as_xyz
  1  'x, y, z'
loop_
 _atom_site_type_symbol
 _atom_site_label
 _atom_site_symmetry_multiplicity
 _atom_site_fract_x
 _atom_site_fract_y
 _atom_site_fract_z
 _atom_site_occupancy
  Hf  Hf0  1  0.932188  0.705077  0.809355  1
  Bi  Bi1  1  0.756208  0.373393  0.478942  1
  Bi  Bi2  1  0.243749  0.629228  0.520278  1
  Bi  Bi3  1  0.752029  0.871513  0.480037  1
  Bi  Bi4  1  0.248236  0.127526  0.526249  1
  Bi  Bi5  1  0.469250  0.950568  0.818567  1
  Bi  Bi6  1  0.549525  0.042108  0.179535  1
  Bi  Bi7  1  0.405867  0.462000  0.827640  1
  Bi  Bi8  1  0.580866  0.540024  0.173051  1
  Os  Os9  1  0.065506  0.294979  0.188947  1
  Os  Os10  1  0.930704  0.205707  0.814814  1
  Os  Os11  1  0.071030  0.796221  0.194344  1
  O  O12  1  0.233909  0.727762  0.756294  1
  O  O13  1  0.770537  0.287397  0.232075  1
  O  O14  1  0.631238  0.671593  0.830243  1
  O  O15  1  0.361344  0.309613  0.171040  1
  O  O16  1  0.644729  0.257087  0.844956  1
  O  O17  1  0.363281  0.770094  0.168172  1
  O  O18  1  0.893178  0.168356  0.613813  1
  O  O19  1  0.107144  0.842377  0.396602  1
  O  O20  1  0.218425  0.147838  0.764520  1
  O  O21  1  0.776109  0.825939  0.232751  1
  O  O22  1  0.907723  0.638080  0.588818  1
  O  O23  1  0.090947  0.353623  0.392071  1
  O  O24  1  0.044755  0.547022  0.189078  1
  O  O25  1  0.997564  0.445658  0.810482  1
  O  O26  1  0.013371  0.767200  0.006169  1
  O  O27  1  0.001101  0.235267  0.998536  1
  O  O28  1  0.575765  0.602493  0.390635  1
  O  O29  1  0.418678  0.395426  0.609383  1
  O  O30  1  0.099337  0.048287  0.202628  1
  O  O31  1  0.841905  0.959527  0.794674  1
  O  O32  1  0.541051  0.091439  0.393790  1
  O  O33  1  0.462749  0.909577  0.601512  1
