# generated using pymatgen
data_PaTl3S4
_symmetry_space_group_name_H-M   'P 1'
_cell_length_a   8.90074300
_cell_length_b   7.27765330
_cell_length_c   7.82804763
_cell_angle_alpha   71.00466883
_cell_angle_beta   90.00000000
_cell_angle_gamma   90.00000000
_symmetry_Int_Tables_number   1
_chemical_formula_structural   PaTl3S4
_chemical_formula_sum   'Pa2 Tl6 S8'
_cell_volume   479.46105019
_cell_formula_units_Z   2
loop_
 _symmetry_equiv_pos_site_id
 _symmetry_equiv_pos_as_xyz
  1  'x, y, z'
loop_
 _atom_site_type_symbol
 _atom_site_label
 _atom_site_symmetry_multiplicity
 _atom_site_fract_x
 _atom_site_fract_y
 _atom_site_fract_z
 _atom_site_occupancy
  Pa  Pa0  1  0.117188  0.250000  0.000000  1
  Pa  Pa1  1  0.882812  0.750000  0.000000  1
  Tl  Tl2  1  0.609999  0.250000  0.000000  1
  Tl  Tl3  1  0.390001  0.750000  0.000000  1
  Tl  Tl4  1  0.383047  0.250000  0.500000  1
  Tl  Tl5  1  0.875370  0.250000  0.500000  1
  Tl  Tl6  1  0.616953  0.750000  0.500000  1
  Tl  Tl7  1  0.124630  0.750000  0.500000  1
  S  S8  1  0.321378  0.050391  0.216486  1
  S  S9  1  0.098256  0.500148  0.191373  1
  S  S10  1  0.678622  0.550391  0.216486  1
  S  S11  1  0.901744  0.000148  0.191373  1
  S  S12  1  0.098256  0.999852  0.808627  1
  S  S13  1  0.321378  0.449609  0.783514  1
  S  S14  1  0.901744  0.499852  0.808627  1
  S  S15  1  0.678622  0.949609  0.783514  1
