# generated using pymatgen
data_TbDy8Y11(CoSb2)4
_symmetry_space_group_name_H-M   'P 1'
_cell_length_a   7.95145035
_cell_length_b   8.72145900
_cell_length_c   12.22719101
_cell_angle_alpha   90.00000000
_cell_angle_beta   90.05796930
_cell_angle_gamma   90.00000000
_symmetry_Int_Tables_number   1
_chemical_formula_structural   TbDy8Y11(CoSb2)4
_chemical_formula_sum   'Tb1 Dy8 Y11 Co4 Sb8'
_cell_volume   847.93384329
_cell_formula_units_Z   1
loop_
 _symmetry_equiv_pos_site_id
 _symmetry_equiv_pos_as_xyz
  1  'x, y, z'
loop_
 _atom_site_type_symbol
 _atom_site_label
 _atom_site_symmetry_multiplicity
 _atom_site_fract_x
 _atom_site_fract_y
 _atom_site_fract_z
 _atom_site_occupancy
  Tb  Tb0  1  0.877103  0.750000  0.805281  1
  Dy  Dy1  1  0.821592  0.966078  0.064821  1
  Dy  Dy2  1  0.321956  0.034189  0.435253  1
  Dy  Dy3  1  0.178223  0.465544  0.935179  1
  Dy  Dy4  1  0.678406  0.534121  0.565001  1
  Dy  Dy5  1  0.178223  0.034456  0.935179  1
  Dy  Dy6  1  0.678406  0.965879  0.565001  1
  Dy  Dy7  1  0.821592  0.533922  0.064821  1
  Dy  Dy8  1  0.321956  0.465811  0.435253  1
  Y  Y9  1  0.154870  0.750000  0.203409  1
  Y  Y10  1  0.655107  0.250000  0.296277  1
  Y  Y11  1  0.844576  0.250000  0.796004  1
  Y  Y12  1  0.344595  0.750000  0.703966  1
  Y  Y13  1  0.456426  0.750000  0.998348  1
  Y  Y14  1  0.956748  0.250000  0.501470  1
  Y  Y15  1  0.543038  0.250000  0.001550  1
  Y  Y16  1  0.043508  0.750000  0.498349  1
  Y  Y17  1  0.623428  0.750000  0.304633  1
  Y  Y18  1  0.123452  0.250000  0.195375  1
  Y  Y19  1  0.376744  0.250000  0.695270  1
  Co  Co20  1  0.436777  0.750000  0.490328  1
  Co  Co21  1  0.936542  0.250000  0.009877  1
  Co  Co22  1  0.563744  0.250000  0.509915  1
  Co  Co23  1  0.062886  0.750000  0.989638  1
  Sb  Sb24  1  0.928202  0.991647  0.326752  1
  Sb  Sb25  1  0.428052  0.008204  0.173159  1
  Sb  Sb26  1  0.072206  0.491434  0.673027  1
  Sb  Sb27  1  0.571592  0.508198  0.826964  1
  Sb  Sb28  1  0.072206  0.008566  0.673027  1
  Sb  Sb29  1  0.571592  0.991802  0.826964  1
  Sb  Sb30  1  0.928202  0.508353  0.326752  1
  Sb  Sb31  1  0.428052  0.491796  0.173159  1
