# generated using pymatgen
data_Y3MgPd8
_symmetry_space_group_name_H-M   'P 1'
_cell_length_a   4.20792100
_cell_length_b   5.83562207
_cell_length_c   17.45547800
_cell_angle_alpha   89.99837998
_cell_angle_beta   90.00098036
_cell_angle_gamma   90.00858121
_symmetry_Int_Tables_number   1
_chemical_formula_structural   Y3MgPd8
_chemical_formula_sum   'Y6 Mg2 Pd16'
_cell_volume   428.63386139
_cell_formula_units_Z   2
loop_
 _symmetry_equiv_pos_site_id
 _symmetry_equiv_pos_as_xyz
  1  'x, y, z'
loop_
 _atom_site_type_symbol
 _atom_site_label
 _atom_site_symmetry_multiplicity
 _atom_site_fract_x
 _atom_site_fract_y
 _atom_site_fract_z
 _atom_site_occupancy
  Y  Y0  1  0.524939  0.343231  0.046962  1
  Y  Y1  1  0.524794  0.839066  0.206138  1
  Y  Y2  1  0.525897  0.343512  0.365329  1
  Y  Y3  1  0.527070  0.736171  0.546971  1
  Y  Y4  1  0.527244  0.239563  0.706160  1
  Y  Y5  1  0.526119  0.734742  0.865333  1
  Mg  Mg6  1  0.026536  0.039902  0.456127  1
  Mg  Mg7  1  0.025390  0.038986  0.956143  1
  Pd  Pd8  1  0.524906  0.836460  0.033597  1
  Pd  Pd9  1  0.024710  0.087100  0.121005  1
  Pd  Pd10  1  0.024750  0.591276  0.122341  1
  Pd  Pd11  1  0.524799  0.337307  0.206151  1
  Pd  Pd12  1  0.025307  0.591229  0.289969  1
  Pd  Pd13  1  0.025252  0.087076  0.291309  1
  Pd  Pd14  1  0.525934  0.836688  0.378694  1
  Pd  Pd15  1  0.026558  0.539928  0.456165  1
  Pd  Pd16  1  0.527094  0.243025  0.533628  1
  Pd  Pd17  1  0.027352  0.992217  0.620964  1
  Pd  Pd18  1  0.027332  0.488062  0.622362  1
  Pd  Pd19  1  0.527294  0.741290  0.706141  1
  Pd  Pd20  1  0.026737  0.486805  0.789972  1
  Pd  Pd21  1  0.026810  0.990933  0.791247  1
  Pd  Pd22  1  0.526061  0.241405  0.878681  1
  Pd  Pd23  1  0.025450  0.538989  0.956150  1
