# generated using pymatgen
data_Tm(FeTc2)4
_symmetry_space_group_name_H-M   'P 1'
_cell_length_a   4.77401451
_cell_length_b   6.70106239
_cell_length_c   6.70106190
_cell_angle_alpha   82.70426051
_cell_angle_beta   69.15209947
_cell_angle_gamma   69.15209349
_symmetry_Int_Tables_number   1
_chemical_formula_structural   Tm(FeTc2)4
_chemical_formula_sum   'Tm1 Fe4 Tc8'
_cell_volume   187.22164283
_cell_formula_units_Z   1
loop_
 _symmetry_equiv_pos_site_id
 _symmetry_equiv_pos_as_xyz
  1  'x, y, z'
loop_
 _atom_site_type_symbol
 _atom_site_label
 _atom_site_symmetry_multiplicity
 _atom_site_fract_x
 _atom_site_fract_y
 _atom_site_fract_z
 _atom_site_occupancy
  Tm  Tm0  1  0.000000  0.000000  0.000000  1
  Fe  Fe1  1  0.500000  0.500000  0.000000  1
  Fe  Fe2  1  0.000000  0.500000  0.000000  1
  Fe  Fe3  1  0.000000  0.000000  0.500000  1
  Fe  Fe4  1  0.500000  0.000000  0.500000  1
  Tc  Tc5  1  0.000000  0.642314  0.357686  1
  Tc  Tc6  1  0.000000  0.357686  0.642314  1
  Tc  Tc7  1  0.643079  0.357793  0.357793  1
  Tc  Tc8  1  0.356921  0.642207  0.642207  1
  Tc  Tc9  1  0.500000  0.213270  0.786730  1
  Tc  Tc10  1  0.500000  0.786730  0.213270  1
  Tc  Tc11  1  0.713569  0.786772  0.786772  1
  Tc  Tc12  1  0.286431  0.213228  0.213228  1
