# generated using pymatgen
data_Ce2Y3Bi3Au
_symmetry_space_group_name_H-M   'P 1'
_cell_length_a   6.45412500
_cell_length_b   9.54933057
_cell_length_c   9.53903470
_cell_angle_alpha   120.03571311
_cell_angle_beta   90.00000000
_cell_angle_gamma   90.00000000
_symmetry_Int_Tables_number   1
_chemical_formula_structural   Ce2Y3Bi3Au
_chemical_formula_sum   'Ce4 Y6 Bi6 Au2'
_cell_volume   508.96621938
_cell_formula_units_Z   2
loop_
 _symmetry_equiv_pos_site_id
 _symmetry_equiv_pos_as_xyz
  1  'x, y, z'
loop_
 _atom_site_type_symbol
 _atom_site_label
 _atom_site_symmetry_multiplicity
 _atom_site_fract_x
 _atom_site_fract_y
 _atom_site_fract_z
 _atom_site_occupancy
  Ce  Ce0  1  0.500003  0.333443  0.666885  1
  Ce  Ce1  1  0.500003  0.666557  0.333115  1
  Ce  Ce2  1  0.000003  0.666557  0.333115  1
  Ce  Ce3  1  0.000003  0.333443  0.666885  1
  Y  Y4  1  0.749997  0.267178  0.000000  1
  Y  Y5  1  0.750001  0.732567  0.732483  1
  Y  Y6  1  0.750001  0.000084  0.267517  1
  Y  Y7  1  0.249997  0.732822  0.000000  1
  Y  Y8  1  0.250001  0.267433  0.267517  1
  Y  Y9  1  0.250001  0.999916  0.732483  1
  Bi  Bi10  1  0.749999  0.620430  0.000000  1
  Bi  Bi11  1  0.750004  0.379771  0.379756  1
  Bi  Bi12  1  0.750004  0.000016  0.620244  1
  Bi  Bi13  1  0.249999  0.379570  0.000000  1
  Bi  Bi14  1  0.250004  0.620229  0.620244  1
  Bi  Bi15  1  0.250004  0.999984  0.379756  1
  Au  Au16  1  0.499992  0.999998  0.000000  1
  Au  Au17  1  0.999992  0.000002  0.000000  1
