# generated using pymatgen
data_Tb7HoGePd24
_symmetry_space_group_name_H-M   'P 1'
_cell_length_a   8.36267600
_cell_length_b   8.36267600
_cell_length_c   8.36267600
_cell_angle_alpha   89.99797198
_cell_angle_beta   90.00202802
_cell_angle_gamma   90.00202802
_symmetry_Int_Tables_number   1
_chemical_formula_structural   Tb7HoGePd24
_chemical_formula_sum   'Tb7 Ho1 Ge1 Pd24'
_cell_volume   584.83830878
_cell_formula_units_Z   1
loop_
 _symmetry_equiv_pos_site_id
 _symmetry_equiv_pos_as_xyz
  1  'x, y, z'
loop_
 _atom_site_type_symbol
 _atom_site_label
 _atom_site_symmetry_multiplicity
 _atom_site_fract_x
 _atom_site_fract_y
 _atom_site_fract_z
 _atom_site_occupancy
  Tb  Tb0  1  0.253625  0.253609  0.253609  1
  Tb  Tb1  1  0.746404  0.746410  0.746410  1
  Tb  Tb2  1  0.746391  0.746375  0.253609  1
  Tb  Tb3  1  0.746391  0.253609  0.746375  1
  Tb  Tb4  1  0.253590  0.253596  0.746410  1
  Tb  Tb5  1  0.253590  0.746410  0.253596  1
  Tb  Tb6  1  0.253598  0.746402  0.746402  1
  Ho  Ho7  1  0.746340  0.253660  0.253660  1
  Ge  Ge8  1  0.000015  0.999985  0.999985  1
  Pd  Pd9  1  0.259460  0.499995  0.000014  1
  Pd  Pd10  1  0.740538  0.499776  0.000239  1
  Pd  Pd11  1  0.999761  0.259462  0.499776  1
  Pd  Pd12  1  0.500224  0.259462  0.000239  1
  Pd  Pd13  1  0.999986  0.740540  0.499995  1
  Pd  Pd14  1  0.500005  0.740540  0.000014  1
  Pd  Pd15  1  0.500224  0.000239  0.259462  1
  Pd  Pd16  1  0.259460  0.000014  0.499995  1
  Pd  Pd17  1  0.500005  0.000014  0.740540  1
  Pd  Pd18  1  0.740538  0.000239  0.499776  1
  Pd  Pd19  1  0.999761  0.499776  0.259462  1
  Pd  Pd20  1  0.999986  0.499995  0.740540  1
  Pd  Pd21  1  0.253183  0.499988  0.499988  1
  Pd  Pd22  1  0.746817  0.499740  0.499740  1
  Pd  Pd23  1  0.500260  0.253183  0.499740  1
  Pd  Pd24  1  0.500012  0.746817  0.499988  1
  Pd  Pd25  1  0.500260  0.499740  0.253183  1
  Pd  Pd26  1  0.500012  0.499988  0.746817  1
  Pd  Pd27  1  0.288660  0.000010  0.000010  1
  Pd  Pd28  1  0.711383  0.000228  0.000228  1
  Pd  Pd29  1  0.999772  0.288617  0.000228  1
  Pd  Pd30  1  0.999990  0.711340  0.000010  1
  Pd  Pd31  1  0.999772  0.000228  0.288617  1
  Pd  Pd32  1  0.999990  0.000010  0.711340  1
