# generated using pymatgen
data_Eu4InGePt4
_symmetry_space_group_name_H-M   'P 1'
_cell_length_a   5.79693675
_cell_length_b   5.79693609
_cell_length_c   8.27262600
_cell_angle_alpha   78.44971965
_cell_angle_beta   78.44972200
_cell_angle_gamma   60.31787452
_symmetry_Int_Tables_number   1
_chemical_formula_structural   Eu4InGePt4
_chemical_formula_sum   'Eu4 In1 Ge1 Pt4'
_cell_volume   234.95488835
_cell_formula_units_Z   1
loop_
 _symmetry_equiv_pos_site_id
 _symmetry_equiv_pos_as_xyz
  1  'x, y, z'
loop_
 _atom_site_type_symbol
 _atom_site_label
 _atom_site_symmetry_multiplicity
 _atom_site_fract_x
 _atom_site_fract_y
 _atom_site_fract_z
 _atom_site_occupancy
  Eu  Eu0  1  0.784506  0.511185  0.347613  1
  Eu  Eu1  1  0.488815  0.215494  0.152387  1
  Eu  Eu2  1  0.208268  0.491884  0.646083  1
  Eu  Eu3  1  0.508116  0.791732  0.853917  1
  In  In4  1  0.850615  0.149385  0.750000  1
  Ge  Ge5  1  0.139472  0.860528  0.250000  1
  Pt  Pt6  1  0.005344  0.731034  0.008346  1
  Pt  Pt7  1  0.268966  0.994656  0.491654  1
  Pt  Pt8  1  0.006316  0.260419  0.009918  1
  Pt  Pt9  1  0.739581  0.993684  0.490082  1
