# generated using pymatgen
data_LaHo7(P7Ir8)2
_symmetry_space_group_name_H-M   'P 1'
_cell_length_a   3.94272400
_cell_length_b   12.69276523
_cell_length_c   13.15708762
_cell_angle_alpha   80.69111982
_cell_angle_beta   90.00000000
_cell_angle_gamma   90.00000000
_symmetry_Int_Tables_number   1
_chemical_formula_structural   LaHo7(P7Ir8)2
_chemical_formula_sum   'La1 Ho7 P14 Ir16'
_cell_volume   649.76306970
_cell_formula_units_Z   1
loop_
 _symmetry_equiv_pos_site_id
 _symmetry_equiv_pos_as_xyz
  1  'x, y, z'
loop_
 _atom_site_type_symbol
 _atom_site_label
 _atom_site_symmetry_multiplicity
 _atom_site_fract_x
 _atom_site_fract_y
 _atom_site_fract_z
 _atom_site_occupancy
  La  La0  1  0.250000  0.280156  0.104405  1
  Ho  Ho1  1  0.750000  0.791376  0.561554  1
  Ho  Ho2  1  0.250000  0.208609  0.439117  1
  Ho  Ho3  1  0.750000  0.479583  0.705404  1
  Ho  Ho4  1  0.250000  0.521239  0.294872  1
  Ho  Ho5  1  0.750000  0.719300  0.897375  1
  Ho  Ho6  1  0.250000  0.102396  0.789532  1
  Ho  Ho7  1  0.750000  0.897817  0.210918  1
  P  P8  1  0.250000  0.906253  0.412472  1
  P  P9  1  0.750000  0.474165  0.129826  1
  P  P10  1  0.250000  0.527993  0.869803  1
  P  P11  1  0.750000  0.093135  0.588221  1
  P  P12  1  0.250000  0.741686  0.079174  1
  P  P13  1  0.750000  0.256328  0.916750  1
  P  P14  1  0.750000  0.157091  0.284788  1
  P  P15  1  0.250000  0.843047  0.717280  1
  P  P16  1  0.250000  0.048020  0.100653  1
  P  P17  1  0.750000  0.946644  0.898929  1
  P  P18  1  0.250000  0.311827  0.689082  1
  P  P19  1  0.750000  0.688374  0.310453  1
  P  P20  1  0.250000  0.608092  0.566540  1
  P  P21  1  0.750000  0.392705  0.435228  1
  Ir  Ir22  1  0.250000  0.990725  0.576404  1
  Ir  Ir23  1  0.750000  0.008934  0.424427  1
  Ir  Ir24  1  0.250000  0.662699  0.730035  1
  Ir  Ir25  1  0.750000  0.339643  0.273325  1
  Ir  Ir26  1  0.250000  0.555345  0.045534  1
  Ir  Ir27  1  0.750000  0.450533  0.950569  1
  Ir  Ir28  1  0.250000  0.058639  0.273366  1
  Ir  Ir29  1  0.750000  0.939285  0.727255  1
  Ir  Ir30  1  0.250000  0.422287  0.524624  1
  Ir  Ir31  1  0.750000  0.578664  0.476024  1
  Ir  Ir32  1  0.250000  0.913930  0.996600  1
  Ir  Ir33  1  0.750000  0.082818  0.000685  1
  Ir  Ir34  1  0.250000  0.729228  0.394835  1
  Ir  Ir35  1  0.750000  0.270437  0.605307  1
  Ir  Ir36  1  0.250000  0.341770  0.856547  1
  Ir  Ir37  1  0.750000  0.659228  0.142088  1
