# generated using pymatgen
data_Ta13Ti(Nb3Al5)2
_symmetry_space_group_name_H-M   'P 1'
_cell_length_a   9.98824973
_cell_length_b   9.98824973
_cell_length_c   5.17114852
_cell_angle_alpha   89.89321725
_cell_angle_beta   89.89322070
_cell_angle_gamma   89.99949273
_symmetry_Int_Tables_number   1
_chemical_formula_structural   Ta13Ti(Nb3Al5)2
_chemical_formula_sum   'Ta13 Ti1 Nb6 Al10'
_cell_volume   515.89852663
_cell_formula_units_Z   1
loop_
 _symmetry_equiv_pos_site_id
 _symmetry_equiv_pos_as_xyz
  1  'x, y, z'
loop_
 _atom_site_type_symbol
 _atom_site_label
 _atom_site_symmetry_multiplicity
 _atom_site_fract_x
 _atom_site_fract_y
 _atom_site_fract_z
 _atom_site_occupancy
  Ta  Ta0  1  0.397398  0.397398  0.000913  1
  Ta  Ta1  1  0.898176  0.101651  0.501569  1
  Ta  Ta2  1  0.101651  0.898176  0.501569  1
  Ta  Ta3  1  0.603020  0.603020  0.997196  1
  Ta  Ta4  1  0.127906  0.463967  0.000095  1
  Ta  Ta5  1  0.964798  0.371907  0.499331  1
  Ta  Ta6  1  0.034866  0.628553  0.500453  1
  Ta  Ta7  1  0.871679  0.535089  0.998172  1
  Ta  Ta8  1  0.371907  0.964798  0.499331  1
  Ta  Ta9  1  0.628553  0.034866  0.500453  1
  Ta  Ta10  1  0.463967  0.127906  0.000095  1
  Ta  Ta11  1  0.535089  0.871679  0.998172  1
  Ta  Ta12  1  0.182032  0.182032  0.251684  1
  Ti  Ti13  1  0.818666  0.818666  0.252767  1
  Nb  Nb14  1  0.681964  0.318780  0.752249  1
  Nb  Nb15  1  0.318780  0.681964  0.752249  1
  Nb  Nb16  1  0.317866  0.681770  0.248090  1
  Nb  Nb17  1  0.681770  0.317866  0.248090  1
  Nb  Nb18  1  0.181576  0.181576  0.748317  1
  Nb  Nb19  1  0.818447  0.818447  0.747907  1
  Al  Al20  1  0.999646  0.999646  0.000353  1
  Al  Al21  1  0.500159  0.500159  0.499346  1
  Al  Al22  1  0.261638  0.933354  0.000328  1
  Al  Al23  1  0.433511  0.238123  0.500373  1
  Al  Al24  1  0.567474  0.761726  0.498988  1
  Al  Al25  1  0.738432  0.065829  0.001110  1
  Al  Al26  1  0.238123  0.433511  0.500373  1
  Al  Al27  1  0.761726  0.567474  0.498988  1
  Al  Al28  1  0.933354  0.261638  0.000328  1
  Al  Al29  1  0.065829  0.738432  0.001110  1
