# generated using pymatgen
data_Tb3DyPBr6
_symmetry_space_group_name_H-M   'P 1'
_cell_length_a   4.01906200
_cell_length_b   13.17835652
_cell_length_c   13.89654754
_cell_angle_alpha   89.96794835
_cell_angle_beta   90.00000000
_cell_angle_gamma   90.00000000
_symmetry_Int_Tables_number   1
_chemical_formula_structural   Tb3DyPBr6
_chemical_formula_sum   'Tb6 Dy2 P2 Br12'
_cell_volume   736.02541008
_cell_formula_units_Z   2
loop_
 _symmetry_equiv_pos_site_id
 _symmetry_equiv_pos_as_xyz
  1  'x, y, z'
loop_
 _atom_site_type_symbol
 _atom_site_label
 _atom_site_symmetry_multiplicity
 _atom_site_fract_x
 _atom_site_fract_y
 _atom_site_fract_z
 _atom_site_occupancy
  Tb  Tb0  1  0.500000  0.617339  0.157217  1
  Tb  Tb1  1  0.500000  0.382661  0.842783  1
  Tb  Tb2  1  0.000000  0.115190  0.576503  1
  Tb  Tb3  1  0.000000  0.884810  0.423497  1
  Tb  Tb4  1  0.000000  0.615191  0.923474  1
  Tb  Tb5  1  0.000000  0.384809  0.076526  1
  Dy  Dy6  1  0.500000  0.117143  0.343028  1
  Dy  Dy7  1  0.500000  0.882857  0.656972  1
  P  P8  1  0.500000  0.000000  0.500000  1
  P  P9  1  0.500000  0.500000  0.000000  1
  Br  Br10  1  0.500000  0.242827  0.163059  1
  Br  Br11  1  0.500000  0.757173  0.836941  1
  Br  Br12  1  0.500000  0.743130  0.337359  1
  Br  Br13  1  0.500000  0.256870  0.662641  1
  Br  Br14  1  0.000000  0.256342  0.411988  1
  Br  Br15  1  0.000000  0.743658  0.588012  1
  Br  Br16  1  0.000000  0.756941  0.087500  1
  Br  Br17  1  0.000000  0.243059  0.912500  1
  Br  Br18  1  0.000000  0.000920  0.242471  1
  Br  Br19  1  0.000000  0.999080  0.757529  1
  Br  Br20  1  0.000000  0.500237  0.257909  1
  Br  Br21  1  0.000000  0.499763  0.742091  1
