# generated using pymatgen
data_Y3Th(CuAs2)4
_symmetry_space_group_name_H-M   'P 1'
_cell_length_a   3.95217200
_cell_length_b   3.95245398
_cell_length_c   19.72609400
_cell_angle_alpha   89.90921306
_cell_angle_beta   90.00000000
_cell_angle_gamma   90.00000000
_symmetry_Int_Tables_number   1
_chemical_formula_structural   Y3Th(CuAs2)4
_chemical_formula_sum   'Y3 Th1 Cu4 As8'
_cell_volume   308.13654711
_cell_formula_units_Z   1
loop_
 _symmetry_equiv_pos_site_id
 _symmetry_equiv_pos_as_xyz
  1  'x, y, z'
loop_
 _atom_site_type_symbol
 _atom_site_label
 _atom_site_symmetry_multiplicity
 _atom_site_fract_x
 _atom_site_fract_y
 _atom_site_fract_z
 _atom_site_occupancy
  Y  Y0  1  0.750000  0.738437  0.383771  1
  Y  Y1  1  0.250000  0.261812  0.619585  1
  Y  Y2  1  0.750000  0.759815  0.878962  1
  Th  Th3  1  0.250000  0.240972  0.115573  1
  Cu  Cu4  1  0.750000  0.236009  0.253102  1
  Cu  Cu5  1  0.250000  0.735557  0.253101  1
  Cu  Cu6  1  0.750000  0.264659  0.749641  1
  Cu  Cu7  1  0.250000  0.764741  0.749620  1
  As  As8  1  0.250000  0.746549  0.996304  1
  As  As9  1  0.750000  0.739290  0.171984  1
  As  As10  1  0.250000  0.236957  0.331661  1
  As  As11  1  0.750000  0.242652  0.500672  1
  As  As12  1  0.250000  0.756469  0.500782  1
  As  As13  1  0.750000  0.763017  0.669520  1
  As  As14  1  0.250000  0.261717  0.829421  1
  As  As15  1  0.750000  0.251347  0.996303  1
