# generated using pymatgen
data_TbTm7Sc11Si16Tc
_symmetry_space_group_name_H-M   'P 1'
_cell_length_a   6.98606215
_cell_length_b   7.32273896
_cell_length_c   13.83615010
_cell_angle_alpha   90.04525653
_cell_angle_beta   90.00650708
_cell_angle_gamma   90.17158291
_symmetry_Int_Tables_number   1
_chemical_formula_structural   TbTm7Sc11Si16Tc
_chemical_formula_sum   'Tb1 Tm7 Sc11 Si16 Tc1'
_cell_volume   707.81404591
_cell_formula_units_Z   1
loop_
 _symmetry_equiv_pos_site_id
 _symmetry_equiv_pos_as_xyz
  1  'x, y, z'
loop_
 _atom_site_type_symbol
 _atom_site_label
 _atom_site_symmetry_multiplicity
 _atom_site_fract_x
 _atom_site_fract_y
 _atom_site_fract_z
 _atom_site_occupancy
  Tb  Tb0  1  0.011886  0.177695  0.092579  1
  Tm  Tm1  1  0.992780  0.817346  0.900637  1
  Tm  Tm2  1  0.487979  0.673425  0.902530  1
  Tm  Tm3  1  0.992720  0.817332  0.599104  1
  Tm  Tm4  1  0.511351  0.323039  0.094874  1
  Tm  Tm5  1  0.012107  0.178735  0.406663  1
  Tm  Tm6  1  0.511547  0.322654  0.405279  1
  Tm  Tm7  1  0.487949  0.673207  0.597205  1
  Sc  Sc8  1  0.841369  0.496349  0.250287  1
  Sc  Sc9  1  0.342406  0.003921  0.250285  1
  Sc  Sc10  1  0.656801  0.994035  0.750008  1
  Sc  Sc11  1  0.326007  0.178546  0.627675  1
  Sc  Sc12  1  0.672045  0.824226  0.374666  1
  Sc  Sc13  1  0.172474  0.674261  0.376955  1
  Sc  Sc14  1  0.672104  0.823816  0.125614  1
  Sc  Sc15  1  0.827247  0.330915  0.628723  1
  Sc  Sc16  1  0.326329  0.178294  0.872141  1
  Sc  Sc17  1  0.826840  0.331342  0.871264  1
  Sc  Sc18  1  0.172513  0.673975  0.123239  1
  Si  Si19  1  0.028391  0.115988  0.749927  1
  Si  Si20  1  0.972809  0.886854  0.250400  1
  Si  Si21  1  0.469296  0.613307  0.250060  1
  Si  Si22  1  0.517948  0.397551  0.749935  1
  Si  Si23  1  0.284577  0.858807  0.749994  1
  Si  Si24  1  0.716711  0.131439  0.250727  1
  Si  Si25  1  0.215829  0.370059  0.250704  1
  Si  Si26  1  0.793729  0.631353  0.749921  1
  Si  Si27  1  0.157006  0.466668  0.547615  1
  Si  Si28  1  0.841377  0.535366  0.463389  1
  Si  Si29  1  0.344383  0.965471  0.463189  1
  Si  Si30  1  0.840965  0.536589  0.036270  1
  Si  Si31  1  0.659263  0.034113  0.539893  1
  Si  Si32  1  0.157135  0.467807  0.951961  1
  Si  Si33  1  0.658775  0.033951  0.959911  1
  Si  Si34  1  0.346181  0.964492  0.036471  1
  Tc  Tc35  1  0.151167  0.497071  0.749902  1
