# generated using pymatgen
data_Er4Tc3B16Ir
_symmetry_space_group_name_H-M   'P 1'
_cell_length_a   3.57482600
_cell_length_b   5.95327212
_cell_length_c   11.52047471
_cell_angle_alpha   90.16464805
_cell_angle_beta   90.00000000
_cell_angle_gamma   90.00000000
_symmetry_Int_Tables_number   1
_chemical_formula_structural   Er4Tc3B16Ir
_chemical_formula_sum   'Er4 Tc3 B16 Ir1'
_cell_volume   245.17671625
_cell_formula_units_Z   1
loop_
 _symmetry_equiv_pos_site_id
 _symmetry_equiv_pos_as_xyz
  1  'x, y, z'
loop_
 _atom_site_type_symbol
 _atom_site_label
 _atom_site_symmetry_multiplicity
 _atom_site_fract_x
 _atom_site_fract_y
 _atom_site_fract_z
 _atom_site_occupancy
  Er  Er0  1  0.500000  0.371436  0.147809  1
  Er  Er1  1  0.500000  0.628932  0.848678  1
  Er  Er2  1  0.500000  0.128450  0.651086  1
  Er  Er3  1  0.500000  0.872597  0.351730  1
  Tc  Tc4  1  0.500000  0.365921  0.410584  1
  Tc  Tc5  1  0.500000  0.632828  0.587111  1
  Tc  Tc6  1  0.500000  0.140705  0.909511  1
  B  B7  1  0.000000  0.114680  0.046990  1
  B  B8  1  0.000000  0.887474  0.951942  1
  B  B9  1  0.000000  0.386376  0.547033  1
  B  B10  1  0.000000  0.612672  0.452601  1
  B  B11  1  0.000000  0.134963  0.468992  1
  B  B12  1  0.000000  0.864467  0.531021  1
  B  B13  1  0.000000  0.366042  0.969650  1
  B  B14  1  0.000000  0.636089  0.030332  1
  B  B15  1  0.000000  0.026821  0.192510  1
  B  B16  1  0.000000  0.975072  0.807669  1
  B  B17  1  0.000000  0.477829  0.692433  1
  B  B18  1  0.000000  0.523173  0.307170  1
  B  B19  1  0.000000  0.210228  0.314639  1
  B  B20  1  0.000000  0.787862  0.685199  1
  B  B21  1  0.000000  0.289114  0.814194  1
  B  B22  1  0.000000  0.708239  0.186055  1
  Ir  Ir23  1  0.500000  0.858032  0.095059  1
