# generated using pymatgen
data_Hf8MnIr3N2
_symmetry_space_group_name_H-M   'P 1'
_cell_length_a   8.66739886
_cell_length_b   8.66715694
_cell_length_c   8.62991500
_cell_angle_alpha   60.14230324
_cell_angle_beta   60.14328401
_cell_angle_gamma   60.24507170
_symmetry_Int_Tables_number   1
_chemical_formula_structural   Hf8MnIr3N2
_chemical_formula_sum   'Hf16 Mn2 Ir6 N4'
_cell_volume   460.24845114
_cell_formula_units_Z   2
loop_
 _symmetry_equiv_pos_site_id
 _symmetry_equiv_pos_as_xyz
  1  'x, y, z'
loop_
 _atom_site_type_symbol
 _atom_site_label
 _atom_site_symmetry_multiplicity
 _atom_site_fract_x
 _atom_site_fract_y
 _atom_site_fract_z
 _atom_site_occupancy
  Hf  Hf0  1  0.129647  0.627478  0.621426  1
  Hf  Hf1  1  0.627408  0.129476  0.621547  1
  Hf  Hf2  1  0.623835  0.624017  0.134979  1
  Hf  Hf3  1  0.623827  0.624009  0.617161  1
  Hf  Hf4  1  0.815481  0.815519  0.184485  1
  Hf  Hf5  1  0.185754  0.185785  0.814242  1
  Hf  Hf6  1  0.815878  0.185827  0.813431  1
  Hf  Hf7  1  0.185818  0.815877  0.184900  1
  Hf  Hf8  1  0.185822  0.815870  0.813412  1
  Hf  Hf9  1  0.815886  0.185821  0.184866  1
  Hf  Hf10  1  0.434425  0.434443  0.065567  1
  Hf  Hf11  1  0.066246  0.066146  0.433806  1
  Hf  Hf12  1  0.433986  0.059957  0.434074  1
  Hf  Hf13  1  0.060028  0.434001  0.071894  1
  Hf  Hf14  1  0.060028  0.433998  0.434079  1
  Hf  Hf15  1  0.433987  0.059960  0.071984  1
  Mn  Mn16  1  0.761050  0.411634  0.413667  1
  Mn  Mn17  1  0.411720  0.760886  0.413694  1
  Ir  Ir18  1  0.412668  0.412704  0.761957  1
  Ir  Ir19  1  0.412677  0.412714  0.412669  1
  Ir  Ir20  1  0.491850  0.835971  0.836088  1
  Ir  Ir21  1  0.835953  0.491871  0.836085  1
  Ir  Ir22  1  0.837252  0.837261  0.487959  1
  Ir  Ir23  1  0.837253  0.837261  0.837533  1
  N  N24  1  0.623730  0.126705  0.124783  1
  N  N25  1  0.126702  0.623765  0.124768  1
  N  N26  1  0.125543  0.125519  0.625392  1
  N  N27  1  0.125547  0.125521  0.123551  1
