# generated using pymatgen
data_LiHo9Cd3Co
_symmetry_space_group_name_H-M   'P 1'
_cell_length_a   9.39970000
_cell_length_b   9.39969951
_cell_length_c   9.52848000
_cell_angle_alpha   90.00000000
_cell_angle_beta   90.00000000
_cell_angle_gamma   119.99999468
_symmetry_Int_Tables_number   1
_chemical_formula_structural   LiHo9Cd3Co
_chemical_formula_sum   'Li2 Ho18 Cd6 Co2'
_cell_volume   729.09185221
_cell_formula_units_Z   2
loop_
 _symmetry_equiv_pos_site_id
 _symmetry_equiv_pos_as_xyz
  1  'x, y, z'
loop_
 _atom_site_type_symbol
 _atom_site_label
 _atom_site_symmetry_multiplicity
 _atom_site_fract_x
 _atom_site_fract_y
 _atom_site_fract_z
 _atom_site_occupancy
  Li  Li0  1  0.000000  0.000000  0.500000  1
  Li  Li1  1  0.000000  0.000000  0.000000  1
  Ho  Ho2  1  0.542921  0.457079  0.250000  1
  Ho  Ho3  1  0.542921  0.085842  0.250000  1
  Ho  Ho4  1  0.914158  0.457079  0.250000  1
  Ho  Ho5  1  0.457079  0.542921  0.750000  1
  Ho  Ho6  1  0.457079  0.914158  0.750000  1
  Ho  Ho7  1  0.085842  0.542921  0.750000  1
  Ho  Ho8  1  0.209582  0.790418  0.437692  1
  Ho  Ho9  1  0.209582  0.419165  0.437692  1
  Ho  Ho10  1  0.580835  0.790418  0.437692  1
  Ho  Ho11  1  0.790418  0.209582  0.562308  1
  Ho  Ho12  1  0.790418  0.580835  0.562308  1
  Ho  Ho13  1  0.419165  0.209582  0.562308  1
  Ho  Ho14  1  0.790418  0.209582  0.937692  1
  Ho  Ho15  1  0.790418  0.580835  0.937692  1
  Ho  Ho16  1  0.419165  0.209582  0.937692  1
  Ho  Ho17  1  0.209582  0.790418  0.062308  1
  Ho  Ho18  1  0.209582  0.419165  0.062308  1
  Ho  Ho19  1  0.580835  0.790418  0.062308  1
  Cd  Cd20  1  0.892235  0.107765  0.250000  1
  Cd  Cd21  1  0.892235  0.784469  0.250000  1
  Cd  Cd22  1  0.215531  0.107765  0.250000  1
  Cd  Cd23  1  0.107765  0.892235  0.750000  1
  Cd  Cd24  1  0.107765  0.215531  0.750000  1
  Cd  Cd25  1  0.784469  0.892235  0.750000  1
  Co  Co26  1  0.333333  0.666667  0.250000  1
  Co  Co27  1  0.666667  0.333333  0.750000  1
