# generated using pymatgen
data_Eu3Be2Pt7
_symmetry_space_group_name_H-M   'P 1'
_cell_length_a   8.72606764
_cell_length_b   8.72606761
_cell_length_c   8.72606784
_cell_angle_alpha   37.07316647
_cell_angle_beta   37.07316898
_cell_angle_gamma   37.07316645
_symmetry_Int_Tables_number   1
_chemical_formula_structural   Eu3Be2Pt7
_chemical_formula_sum   'Eu3 Be2 Pt7'
_cell_volume   216.38361180
_cell_formula_units_Z   1
loop_
 _symmetry_equiv_pos_site_id
 _symmetry_equiv_pos_as_xyz
  1  'x, y, z'
loop_
 _atom_site_type_symbol
 _atom_site_label
 _atom_site_symmetry_multiplicity
 _atom_site_fract_x
 _atom_site_fract_y
 _atom_site_fract_z
 _atom_site_occupancy
  Eu  Eu0  1  0.858134  0.858134  0.858134  1
  Eu  Eu1  1  0.141866  0.141866  0.141866  1
  Eu  Eu2  1  0.000000  0.000000  0.000000  1
  Be  Be3  1  0.666875  0.666875  0.666875  1
  Be  Be4  1  0.333125  0.333125  0.333125  1
  Pt  Pt5  1  0.429061  0.928392  0.429061  1
  Pt  Pt6  1  0.429061  0.429061  0.928392  1
  Pt  Pt7  1  0.928392  0.429061  0.429061  1
  Pt  Pt8  1  0.570939  0.071608  0.570939  1
  Pt  Pt9  1  0.570939  0.570939  0.071608  1
  Pt  Pt10  1  0.071608  0.570939  0.570939  1
  Pt  Pt11  1  0.500000  0.500000  0.500000  1
