# generated using pymatgen
data_TmLu2Al9Si3Os4
_symmetry_space_group_name_H-M   'P 1'
_cell_length_a   8.67002503
_cell_length_b   8.64824228
_cell_length_c   9.49638000
_cell_angle_alpha   90.00000000
_cell_angle_beta   90.00000000
_cell_angle_gamma   120.09321148
_symmetry_Int_Tables_number   1
_chemical_formula_structural   TmLu2Al9Si3Os4
_chemical_formula_sum   'Tm2 Lu4 Al18 Si6 Os8'
_cell_volume   616.06740680
_cell_formula_units_Z   2
loop_
 _symmetry_equiv_pos_site_id
 _symmetry_equiv_pos_as_xyz
  1  'x, y, z'
loop_
 _atom_site_type_symbol
 _atom_site_label
 _atom_site_symmetry_multiplicity
 _atom_site_fract_x
 _atom_site_fract_y
 _atom_site_fract_z
 _atom_site_occupancy
  Tm  Tm0  1  0.198643  0.806700  0.250000  1
  Tm  Tm1  1  0.801357  0.193300  0.750000  1
  Lu  Lu2  1  0.194975  0.389814  0.250000  1
  Lu  Lu3  1  0.805025  0.610186  0.750000  1
  Lu  Lu4  1  0.607015  0.806095  0.250000  1
  Lu  Lu5  1  0.392985  0.193905  0.750000  1
  Al  Al6  1  0.164758  0.329458  0.579329  1
  Al  Al7  1  0.835242  0.670542  0.420671  1
  Al  Al8  1  0.670924  0.834790  0.577824  1
  Al  Al9  1  0.835242  0.670542  0.079329  1
  Al  Al10  1  0.329076  0.165210  0.422176  1
  Al  Al11  1  0.164758  0.329458  0.920671  1
  Al  Al12  1  0.163861  0.834883  0.577992  1
  Al  Al13  1  0.329076  0.165210  0.077824  1
  Al  Al14  1  0.836139  0.165117  0.422008  1
  Al  Al15  1  0.670924  0.834790  0.922176  1
  Al  Al16  1  0.836139  0.165117  0.077992  1
  Al  Al17  1  0.163861  0.834883  0.922008  1
  Al  Al18  1  0.873186  0.433470  0.250000  1
  Al  Al19  1  0.126814  0.566530  0.750000  1
  Al  Al20  1  0.560281  0.433748  0.250000  1
  Al  Al21  1  0.439719  0.566252  0.750000  1
  Al  Al22  1  0.999436  0.999402  0.250000  1
  Al  Al23  1  0.000564  0.000598  0.750000  1
  Si  Si24  1  0.332170  0.663956  0.040421  1
  Si  Si25  1  0.667830  0.336044  0.959579  1
  Si  Si26  1  0.667830  0.336044  0.540421  1
  Si  Si27  1  0.332170  0.663956  0.459579  1
  Si  Si28  1  0.563193  0.126016  0.250000  1
  Si  Si29  1  0.436807  0.873984  0.750000  1
  Os  Os30  1  0.500000  0.000000  0.000000  1
  Os  Os31  1  0.000000  0.500000  0.000000  1
  Os  Os32  1  0.500000  0.000000  0.500000  1
  Os  Os33  1  0.500000  0.500000  0.000000  1
  Os  Os34  1  0.000000  0.500000  0.500000  1
  Os  Os35  1  0.500000  0.500000  0.500000  1
  Os  Os36  1  0.000000  0.000000  0.000000  1
  Os  Os37  1  0.000000  0.000000  0.500000  1
