# generated using pymatgen
data_Tb2Ho10Co5Sn
_symmetry_space_group_name_H-M   'P 1'
_cell_length_a   8.24893599
_cell_length_b   8.24769193
_cell_length_c   8.24630882
_cell_angle_alpha   110.69381856
_cell_angle_beta   110.72639291
_cell_angle_gamma   107.03414070
_symmetry_Int_Tables_number   1
_chemical_formula_structural   Tb2Ho10Co5Sn
_chemical_formula_sum   'Tb2 Ho10 Co5 Sn1'
_cell_volume   431.22822305
_cell_formula_units_Z   1
loop_
 _symmetry_equiv_pos_site_id
 _symmetry_equiv_pos_as_xyz
  1  'x, y, z'
loop_
 _atom_site_type_symbol
 _atom_site_label
 _atom_site_symmetry_multiplicity
 _atom_site_fract_x
 _atom_site_fract_y
 _atom_site_fract_z
 _atom_site_occupancy
  Tb  Tb0  1  0.814776  0.708950  0.523748  1
  Tb  Tb1  1  0.185224  0.291050  0.476252  1
  Ho  Ho2  1  0.186762  0.709553  0.896283  1
  Ho  Ho3  1  0.813238  0.290447  0.103717  1
  Ho  Ho4  1  0.686762  0.379697  0.694691  1
  Ho  Ho5  1  0.313238  0.620303  0.305309  1
  Ho  Ho6  1  0.685080  0.992025  0.305256  1
  Ho  Ho7  1  0.314920  0.007975  0.694744  1
  Ho  Ho8  1  0.597622  0.791101  0.807467  1
  Ho  Ho9  1  0.402378  0.208899  0.192533  1
  Ho  Ho10  1  0.983636  0.790237  0.192569  1
  Ho  Ho11  1  0.016364  0.209763  0.807431  1
  Co  Co12  1  0.623736  0.000233  0.623946  1
  Co  Co13  1  0.376264  0.999767  0.376054  1
  Co  Co14  1  0.112476  0.612533  0.499980  1
  Co  Co15  1  0.887524  0.387467  0.500020  1
  Co  Co16  1  0.000000  0.000000  0.000000  1
  Sn  Sn17  1  0.500000  0.500000  0.000000  1
