# generated using pymatgen
data_Ga2Fe3SnO8
_symmetry_space_group_name_H-M   'P 1'
_cell_length_a   6.03502858
_cell_length_b   10.44619357
_cell_length_c   6.19453376
_cell_angle_alpha   106.28889795
_cell_angle_beta   60.84472541
_cell_angle_gamma   90.00021683
_symmetry_Int_Tables_number   1
_chemical_formula_structural   Ga2Fe3SnO8
_chemical_formula_sum   'Ga4 Fe6 Sn2 O16'
_cell_volume   322.97626840
_cell_formula_units_Z   2
loop_
 _symmetry_equiv_pos_site_id
 _symmetry_equiv_pos_as_xyz
  1  'x, y, z'
loop_
 _atom_site_type_symbol
 _atom_site_label
 _atom_site_symmetry_multiplicity
 _atom_site_fract_x
 _atom_site_fract_y
 _atom_site_fract_z
 _atom_site_occupancy
  Ga  Ga0  1  0.300560  0.566421  0.398870  1
  Ga  Ga1  1  0.800638  0.066436  0.398723  1
  Ga  Ga2  1  0.199393  0.933564  0.601215  1
  Ga  Ga3  1  0.699320  0.433587  0.601323  1
  Fe  Fe4  1  0.250073  0.749950  0.999934  1
  Fe  Fe5  1  0.749986  0.749983  0.999953  1
  Fe  Fe6  1  0.999976  0.499979  0.000030  1
  Fe  Fe7  1  0.749947  0.250026  0.000018  1
  Fe  Fe8  1  0.250078  0.250033  0.999944  1
  Fe  Fe9  1  0.500096  0.999997  0.999857  1
  Sn  Sn10  1  0.750013  0.750028  0.499990  1
  Sn  Sn11  1  0.249971  0.249980  0.500033  1
  O  O12  1  0.117527  0.627417  0.764902  1
  O  O13  1  0.617600  0.127462  0.764787  1
  O  O14  1  0.382432  0.872565  0.235157  1
  O  O15  1  0.882398  0.372571  0.235242  1
  O  O16  1  0.869619  0.873405  0.260819  1
  O  O17  1  0.369522  0.373457  0.260969  1
  O  O18  1  0.114653  0.628446  0.260773  1
  O  O19  1  0.614648  0.128465  0.260732  1
  O  O20  1  0.624571  0.628464  0.260793  1
  O  O21  1  0.124643  0.128474  0.260713  1
  O  O22  1  0.875453  0.871533  0.739200  1
  O  O23  1  0.375400  0.371551  0.739255  1
  O  O24  1  0.385339  0.871537  0.739227  1
  O  O25  1  0.885300  0.371550  0.739298  1
  O  O26  1  0.630454  0.626541  0.739076  1
  O  O27  1  0.130390  0.126582  0.739168  1
