# generated using pymatgen
data_La8Si12NiAu3
_symmetry_space_group_name_H-M   'P 1'
_cell_length_a   11.58881038
_cell_length_b   10.00746827
_cell_length_c   8.24557961
_cell_angle_alpha   78.16825287
_cell_angle_beta   57.72137121
_cell_angle_gamma   44.13850193
_symmetry_Int_Tables_number   1
_chemical_formula_structural   La8Si12NiAu3
_chemical_formula_sum   'La8 Si12 Ni1 Au3'
_cell_volume   536.61991657
_cell_formula_units_Z   1
loop_
 _symmetry_equiv_pos_site_id
 _symmetry_equiv_pos_as_xyz
  1  'x, y, z'
loop_
 _atom_site_type_symbol
 _atom_site_label
 _atom_site_symmetry_multiplicity
 _atom_site_fract_x
 _atom_site_fract_y
 _atom_site_fract_z
 _atom_site_occupancy
  La  La0  1  0.129153  0.125218  0.868877  1
  La  La1  1  0.868878  0.876752  0.129152  1
  La  La2  1  0.129727  0.124960  0.374419  1
  La  La3  1  0.374420  0.370895  0.129726  1
  La  La4  1  0.620244  0.626819  0.378012  1
  La  La5  1  0.378012  0.374927  0.620244  1
  La  La6  1  0.630108  0.629026  0.870013  1
  La  La7  1  0.870014  0.870855  0.630107  1
  Si  Si8  1  0.912529  0.589045  0.425923  1
  Si  Si9  1  0.096185  0.403350  0.577022  1
  Si  Si10  1  0.425923  0.072503  0.912529  1
  Si  Si11  1  0.577022  0.923443  0.096185  1
  Si  Si12  1  0.334581  0.662106  0.829272  1
  Si  Si13  1  0.663441  0.335395  0.173232  1
  Si  Si14  1  0.829272  0.174043  0.334581  1
  Si  Si15  1  0.173232  0.827933  0.663441  1
  Si  Si16  1  0.911748  0.588253  0.911747  1
  Si  Si17  1  0.576520  0.923481  0.576519  1
  Si  Si18  1  0.336202  0.663799  0.336202  1
  Si  Si19  1  0.663605  0.336395  0.663605  1
  Ni  Ni20  1  0.416258  0.083742  0.416258  1
  Au  Au21  1  0.083322  0.416678  0.083322  1
  Au  Au22  1  0.833051  0.166949  0.833051  1
  Au  Au23  1  0.166558  0.833442  0.166558  1
