# generated using pymatgen
data_Ho7TmIn2RuRh
_symmetry_space_group_name_H-M   'P 1'
_cell_length_a   9.61011451
_cell_length_b   9.61011422
_cell_length_c   9.63852200
_cell_angle_alpha   59.90216018
_cell_angle_beta   59.90216117
_cell_angle_gamma   59.78765521
_symmetry_Int_Tables_number   1
_chemical_formula_structural   Ho7TmIn2RuRh
_chemical_formula_sum   'Ho14 Tm2 In4 Ru2 Rh2'
_cell_volume   627.49313128
_cell_formula_units_Z   2
loop_
 _symmetry_equiv_pos_site_id
 _symmetry_equiv_pos_as_xyz
  1  'x, y, z'
loop_
 _atom_site_type_symbol
 _atom_site_label
 _atom_site_symmetry_multiplicity
 _atom_site_fract_x
 _atom_site_fract_y
 _atom_site_fract_z
 _atom_site_occupancy
  Ho  Ho0  1  0.058630  0.058630  0.441370  1
  Ho  Ho1  1  0.442253  0.060842  0.437294  1
  Ho  Ho2  1  0.060842  0.442253  0.059611  1
  Ho  Ho3  1  0.044001  0.652221  0.651890  1
  Ho  Ho4  1  0.438167  0.438167  0.061833  1
  Ho  Ho5  1  0.652221  0.044001  0.651890  1
  Ho  Ho6  1  0.190189  0.809909  0.192535  1
  Ho  Ho7  1  0.192015  0.192015  0.807985  1
  Ho  Ho8  1  0.808903  0.808903  0.191097  1
  Ho  Ho9  1  0.442253  0.060842  0.059611  1
  Ho  Ho10  1  0.809909  0.190189  0.192535  1
  Ho  Ho11  1  0.060842  0.442253  0.437294  1
  Ho  Ho12  1  0.809909  0.190189  0.807367  1
  Ho  Ho13  1  0.190189  0.809909  0.807367  1
  Tm  Tm14  1  0.651434  0.651434  0.046291  1
  Tm  Tm15  1  0.651434  0.651434  0.650842  1
  In  In16  1  0.417975  0.417975  0.417340  1
  In  In17  1  0.748486  0.417469  0.417022  1
  In  In18  1  0.417469  0.748486  0.417022  1
  In  In19  1  0.417975  0.417975  0.746708  1
  Ru  Ru20  1  0.857609  0.857609  0.422116  1
  Ru  Ru21  1  0.857609  0.857609  0.862665  1
  Rh  Rh22  1  0.423455  0.856233  0.860156  1
  Rh  Rh23  1  0.856233  0.423455  0.860156  1
