# generated using pymatgen
data_Ac7Pa(GaRh)8
_symmetry_space_group_name_H-M   'P 1'
_cell_length_a   4.29441700
_cell_length_b   7.55049854
_cell_length_c   16.69198200
_cell_angle_alpha   89.31061268
_cell_angle_beta   90.00000000
_cell_angle_gamma   90.00000000
_symmetry_Int_Tables_number   1
_chemical_formula_structural   Ac7Pa(GaRh)8
_chemical_formula_sum   'Ac7 Pa1 Ga8 Rh8'
_cell_volume   541.19816030
_cell_formula_units_Z   1
loop_
 _symmetry_equiv_pos_site_id
 _symmetry_equiv_pos_as_xyz
  1  'x, y, z'
loop_
 _atom_site_type_symbol
 _atom_site_label
 _atom_site_symmetry_multiplicity
 _atom_site_fract_x
 _atom_site_fract_y
 _atom_site_fract_z
 _atom_site_occupancy
  Ac  Ac0  1  0.750000  0.468415  0.220273  1
  Ac  Ac1  1  0.750000  0.966665  0.279391  1
  Ac  Ac2  1  0.250000  0.036290  0.722432  1
  Ac  Ac3  1  0.250000  0.660650  0.561629  1
  Ac  Ac4  1  0.750000  0.331412  0.442876  1
  Ac  Ac5  1  0.750000  0.840378  0.056101  1
  Ac  Ac6  1  0.250000  0.174818  0.937260  1
  Pa  Pa7  1  0.250000  0.540034  0.781930  1
  Ga  Ga8  1  0.250000  0.642021  0.354399  1
  Ga  Ga9  1  0.750000  0.361209  0.651219  1
  Ga  Ga10  1  0.750000  0.841645  0.850490  1
  Ga  Ga11  1  0.250000  0.141547  0.143692  1
  Ga  Ga12  1  0.250000  0.504748  0.060736  1
  Ga  Ga13  1  0.750000  0.501334  0.937627  1
  Ga  Ga14  1  0.750000  0.992965  0.564268  1
  Ga  Ga15  1  0.250000  0.997680  0.439014  1
  Rh  Rh16  1  0.250000  0.754633  0.178599  1
  Rh  Rh17  1  0.750000  0.300611  0.810028  1
  Rh  Rh18  1  0.750000  0.713261  0.698909  1
  Rh  Rh19  1  0.250000  0.254373  0.319552  1
  Rh  Rh20  1  0.250000  0.706679  0.917142  1
  Rh  Rh21  1  0.750000  0.276963  0.068976  1
  Rh  Rh22  1  0.750000  0.774238  0.431900  1
  Rh  Rh23  1  0.250000  0.217425  0.571555  1
