# generated using pymatgen
data_Hf7Zr3(Sn3As)2
_symmetry_space_group_name_H-M   'P 1'
_cell_length_a   8.63745300
_cell_length_b   8.63745436
_cell_length_c   5.91977600
_cell_angle_alpha   90.00000000
_cell_angle_beta   90.00000000
_cell_angle_gamma   119.99999863
_symmetry_Int_Tables_number   1
_chemical_formula_structural   Hf7Zr3(Sn3As)2
_chemical_formula_sum   'Hf7 Zr3 Sn6 As2'
_cell_volume   382.47880515
_cell_formula_units_Z   1
loop_
 _symmetry_equiv_pos_site_id
 _symmetry_equiv_pos_as_xyz
  1  'x, y, z'
loop_
 _atom_site_type_symbol
 _atom_site_label
 _atom_site_symmetry_multiplicity
 _atom_site_fract_x
 _atom_site_fract_y
 _atom_site_fract_z
 _atom_site_occupancy
  Hf  Hf0  1  0.666667  0.333333  0.999764  1
  Hf  Hf1  1  0.333333  0.666667  0.999764  1
  Hf  Hf2  1  0.333333  0.666667  0.500236  1
  Hf  Hf3  1  0.666667  0.333333  0.500236  1
  Hf  Hf4  1  0.736542  0.736542  0.750000  1
  Hf  Hf5  1  0.263458  0.000000  0.750000  1
  Hf  Hf6  1  0.000000  0.263458  0.750000  1
  Zr  Zr7  1  0.262244  0.262244  0.250000  1
  Zr  Zr8  1  0.737756  0.000000  0.250000  1
  Zr  Zr9  1  0.000000  0.737756  0.250000  1
  Sn  Sn10  1  0.395309  0.395309  0.750000  1
  Sn  Sn11  1  0.604691  0.000000  0.750000  1
  Sn  Sn12  1  0.000000  0.604691  0.750000  1
  Sn  Sn13  1  0.604653  0.604653  0.250000  1
  Sn  Sn14  1  0.395347  0.000000  0.250000  1
  Sn  Sn15  1  0.000000  0.395347  0.250000  1
  As  As16  1  0.000000  0.000000  0.996952  1
  As  As17  1  0.000000  0.000000  0.503048  1
