# generated using pymatgen
data_PrDy2Th(Al3Rh)6
_symmetry_space_group_name_H-M   'P 1'
_cell_length_a   7.60731585
_cell_length_b   7.61299525
_cell_length_c   9.52384000
_cell_angle_alpha   90.00000000
_cell_angle_beta   90.00000000
_cell_angle_gamma   119.34122092
_symmetry_Int_Tables_number   1
_chemical_formula_structural   PrDy2Th(Al3Rh)6
_chemical_formula_sum   'Pr1 Dy2 Th1 Al18 Rh6'
_cell_volume   480.81122271
_cell_formula_units_Z   1
loop_
 _symmetry_equiv_pos_site_id
 _symmetry_equiv_pos_as_xyz
  1  'x, y, z'
loop_
 _atom_site_type_symbol
 _atom_site_label
 _atom_site_symmetry_multiplicity
 _atom_site_fract_x
 _atom_site_fract_y
 _atom_site_fract_z
 _atom_site_occupancy
  Pr  Pr0  1  0.671215  0.994013  0.750000  1
  Dy  Dy1  1  0.004558  0.328081  0.250000  1
  Dy  Dy2  1  0.327779  0.004784  0.250000  1
  Th  Th3  1  0.994995  0.671163  0.750000  1
  Al  Al4  1  0.133479  0.132933  0.750000  1
  Al  Al5  1  0.872935  0.873932  0.250000  1
  Al  Al6  1  0.003599  0.333312  0.570256  1
  Al  Al7  1  0.999407  0.664082  0.418199  1
  Al  Al8  1  0.999407  0.664082  0.081801  1
  Al  Al9  1  0.337743  0.005329  0.929882  1
  Al  Al10  1  0.003599  0.333312  0.929744  1
  Al  Al11  1  0.664302  0.000389  0.079301  1
  Al  Al12  1  0.664302  0.000389  0.420699  1
  Al  Al13  1  0.337743  0.005329  0.570118  1
  Al  Al14  1  0.332148  0.332194  0.054821  1
  Al  Al15  1  0.663695  0.665198  0.959641  1
  Al  Al16  1  0.663695  0.665198  0.540359  1
  Al  Al17  1  0.332148  0.332194  0.445179  1
  Al  Al18  1  0.340713  0.546035  0.750000  1
  Al  Al19  1  0.658185  0.448072  0.250000  1
  Al  Al20  1  0.545601  0.339707  0.750000  1
  Al  Al21  1  0.447955  0.659942  0.250000  1
  Rh  Rh22  1  0.672894  0.329521  0.499219  1
  Rh  Rh23  1  0.326412  0.671094  0.499203  1
  Rh  Rh24  1  0.326412  0.671094  0.000797  1
  Rh  Rh25  1  0.672894  0.329521  0.000781  1
  Rh  Rh26  1  0.001092  0.999549  0.498966  1
  Rh  Rh27  1  0.001092  0.999549  0.001034  1
