# generated using pymatgen
data_Zr4TaSn3Ge
_symmetry_space_group_name_H-M   'P 1'
_cell_length_a   8.64361400
_cell_length_b   8.64361287
_cell_length_c   5.84025200
_cell_angle_alpha   90.00000000
_cell_angle_beta   90.00000000
_cell_angle_gamma   120.00000432
_symmetry_Int_Tables_number   1
_chemical_formula_structural   Zr4TaSn3Ge
_chemical_formula_sum   'Zr8 Ta2 Sn6 Ge2'
_cell_volume   377.87909913
_cell_formula_units_Z   2
loop_
 _symmetry_equiv_pos_site_id
 _symmetry_equiv_pos_as_xyz
  1  'x, y, z'
loop_
 _atom_site_type_symbol
 _atom_site_label
 _atom_site_symmetry_multiplicity
 _atom_site_fract_x
 _atom_site_fract_y
 _atom_site_fract_z
 _atom_site_occupancy
  Zr  Zr0  1  0.333333  0.666667  0.500000  1
  Zr  Zr1  1  0.666667  0.333333  0.500000  1
  Zr  Zr2  1  0.736220  0.736220  0.749503  1
  Zr  Zr3  1  0.263780  0.000000  0.749503  1
  Zr  Zr4  1  0.000000  0.263780  0.749503  1
  Zr  Zr5  1  0.263780  0.263780  0.250497  1
  Zr  Zr6  1  0.736220  0.000000  0.250497  1
  Zr  Zr7  1  0.000000  0.736220  0.250497  1
  Ta  Ta8  1  0.666667  0.333333  0.000000  1
  Ta  Ta9  1  0.333333  0.666667  0.000000  1
  Sn  Sn10  1  0.394715  0.394715  0.756650  1
  Sn  Sn11  1  0.605285  0.000000  0.756650  1
  Sn  Sn12  1  0.000000  0.605285  0.756650  1
  Sn  Sn13  1  0.605285  0.605285  0.243350  1
  Sn  Sn14  1  0.394715  0.000000  0.243350  1
  Sn  Sn15  1  0.000000  0.394715  0.243350  1
  Ge  Ge16  1  0.000000  0.000000  0.000000  1
  Ge  Ge17  1  0.000000  0.000000  0.500000  1
