# generated using pymatgen
data_Er5In2SnSe
_symmetry_space_group_name_H-M   'P 1'
_cell_length_a   9.06845232
_cell_length_b   9.06845135
_cell_length_c   6.73728700
_cell_angle_alpha   90.00000000
_cell_angle_beta   90.00000000
_cell_angle_gamma   120.19640848
_symmetry_Int_Tables_number   1
_chemical_formula_structural   Er5In2SnSe
_chemical_formula_sum   'Er10 In4 Sn2 Se2'
_cell_volume   478.87155849
_cell_formula_units_Z   2
loop_
 _symmetry_equiv_pos_site_id
 _symmetry_equiv_pos_as_xyz
  1  'x, y, z'
loop_
 _atom_site_type_symbol
 _atom_site_label
 _atom_site_symmetry_multiplicity
 _atom_site_fract_x
 _atom_site_fract_y
 _atom_site_fract_z
 _atom_site_occupancy
  Er  Er0  1  0.668275  0.331760  0.997388  1
  Er  Er1  1  0.331760  0.668275  0.997388  1
  Er  Er2  1  0.331760  0.668275  0.502612  1
  Er  Er3  1  0.668275  0.331760  0.502612  1
  Er  Er4  1  0.749856  0.749856  0.750000  1
  Er  Er5  1  0.252176  0.998316  0.750000  1
  Er  Er6  1  0.998316  0.252176  0.750000  1
  Er  Er7  1  0.248390  0.248390  0.250000  1
  Er  Er8  1  0.747566  0.999782  0.250000  1
  Er  Er9  1  0.999782  0.747566  0.250000  1
  In  In10  1  0.403089  0.403089  0.750000  1
  In  In11  1  0.601020  0.000767  0.750000  1
  In  In12  1  0.000767  0.601020  0.750000  1
  In  In13  1  0.598690  0.598690  0.250000  1
  Sn  Sn14  1  0.399041  0.001133  0.250000  1
  Sn  Sn15  1  0.001133  0.399041  0.250000  1
  Se  Se16  1  0.000053  0.000053  0.001372  1
  Se  Se17  1  0.000053  0.000053  0.498628  1
