# generated using pymatgen
data_Ho3Er3Ir2
_symmetry_space_group_name_H-M   'P 1'
_cell_length_a   6.36251425
_cell_length_b   7.21971700
_cell_length_c   9.12245132
_cell_angle_alpha   90.00000000
_cell_angle_beta   90.09709149
_cell_angle_gamma   90.00000000
_symmetry_Int_Tables_number   1
_chemical_formula_structural   Ho3Er3Ir2
_chemical_formula_sum   'Ho6 Er6 Ir4'
_cell_volume   419.04423815
_cell_formula_units_Z   2
loop_
 _symmetry_equiv_pos_site_id
 _symmetry_equiv_pos_as_xyz
  1  'x, y, z'
loop_
 _atom_site_type_symbol
 _atom_site_label
 _atom_site_symmetry_multiplicity
 _atom_site_fract_x
 _atom_site_fract_y
 _atom_site_fract_z
 _atom_site_occupancy
  Ho  Ho0  1  0.327961  0.677367  0.061933  1
  Ho  Ho1  1  0.172039  0.177367  0.438067  1
  Ho  Ho2  1  0.870253  0.533881  0.250096  1
  Ho  Ho3  1  0.629747  0.033881  0.249904  1
  Ho  Ho4  1  0.129348  0.466018  0.750002  1
  Ho  Ho5  1  0.370652  0.966018  0.749998  1
  Er  Er6  1  0.671817  0.322993  0.562336  1
  Er  Er7  1  0.828183  0.822993  0.937664  1
  Er  Er8  1  0.671946  0.322725  0.937665  1
  Er  Er9  1  0.828054  0.822725  0.562335  1
  Er  Er10  1  0.328348  0.676982  0.437794  1
  Er  Er11  1  0.171652  0.176982  0.062206  1
  Ir  Ir12  1  0.044996  0.882912  0.250096  1
  Ir  Ir13  1  0.455004  0.382912  0.249904  1
  Ir  Ir14  1  0.954321  0.117122  0.750354  1
  Ir  Ir15  1  0.545679  0.617122  0.749646  1
