# generated using pymatgen
data_Ho15Er5(IrRh)6
_symmetry_space_group_name_H-M   'P 1'
_cell_length_a   10.81909309
_cell_length_b   10.81755501
_cell_length_c   6.34507801
_cell_angle_alpha   90.00335855
_cell_angle_beta   89.97093410
_cell_angle_gamma   89.99893093
_symmetry_Int_Tables_number   1
_chemical_formula_structural   Ho15Er5(IrRh)6
_chemical_formula_sum   'Ho15 Er5 Ir6 Rh6'
_cell_volume   742.60330768
_cell_formula_units_Z   1
loop_
 _symmetry_equiv_pos_site_id
 _symmetry_equiv_pos_as_xyz
  1  'x, y, z'
loop_
 _atom_site_type_symbol
 _atom_site_label
 _atom_site_symmetry_multiplicity
 _atom_site_fract_x
 _atom_site_fract_y
 _atom_site_fract_z
 _atom_site_occupancy
  Ho  Ho0  1  0.289970  0.088566  0.378815  1
  Ho  Ho1  1  0.290012  0.911502  0.878885  1
  Ho  Ho2  1  0.708509  0.089946  0.878323  1
  Ho  Ho3  1  0.708479  0.910059  0.378338  1
  Ho  Ho4  1  0.587039  0.789879  0.879070  1
  Ho  Ho5  1  0.587021  0.210121  0.379079  1
  Ho  Ho6  1  0.410820  0.790403  0.378928  1
  Ho  Ho7  1  0.410810  0.209598  0.878951  1
  Ho  Ho8  1  0.209939  0.410991  0.620851  1
  Ho  Ho9  1  0.209943  0.588851  0.120819  1
  Ho  Ho10  1  0.790176  0.412746  0.121574  1
  Ho  Ho11  1  0.790112  0.587227  0.621552  1
  Ho  Ho12  1  0.912034  0.709357  0.121614  1
  Ho  Ho13  1  0.912088  0.290625  0.621611  1
  Ho  Ho14  1  0.090378  0.709043  0.620914  1
  Er  Er15  1  0.090350  0.291121  0.120790  1
  Er  Er16  1  0.000142  0.999720  0.499826  1
  Er  Er17  1  0.000200  0.000369  0.999859  1
  Er  Er18  1  0.500235  0.499510  0.000126  1
  Er  Er19  1  0.500245  0.500482  0.500099  1
  Ir  Ir20  1  0.152827  0.153939  0.750059  1
  Ir  Ir21  1  0.152889  0.846147  0.249793  1
  Ir  Ir22  1  0.654729  0.345861  0.749716  1
  Ir  Ir23  1  0.654742  0.654138  0.249703  1
  Ir  Ir24  1  0.346487  0.345993  0.250400  1
  Ir  Ir25  1  0.346643  0.653966  0.750485  1
  Rh  Rh26  1  0.845964  0.153256  0.249840  1
  Rh  Rh27  1  0.845868  0.846801  0.749912  1
  Rh  Rh28  1  0.501033  0.000031  0.123973  1
  Rh  Rh29  1  0.501041  0.999975  0.623986  1
  Rh  Rh30  1  0.999642  0.500015  0.876172  1
  Rh  Rh31  1  0.999633  0.499760  0.375937  1
