# generated using pymatgen
data_Na4Co5(P4Rh5)3
_symmetry_space_group_name_H-M   'P 1'
_cell_length_a   3.75652800
_cell_length_b   10.72528249
_cell_length_c   12.37763584
_cell_angle_alpha   90.13718557
_cell_angle_beta   90.00000000
_cell_angle_gamma   90.00000000
_symmetry_Int_Tables_number   1
_chemical_formula_structural   Na4Co5(P4Rh5)3
_chemical_formula_sum   'Na4 Co5 P12 Rh15'
_cell_volume   498.69133947
_cell_formula_units_Z   1
loop_
 _symmetry_equiv_pos_site_id
 _symmetry_equiv_pos_as_xyz
  1  'x, y, z'
loop_
 _atom_site_type_symbol
 _atom_site_label
 _atom_site_symmetry_multiplicity
 _atom_site_fract_x
 _atom_site_fract_y
 _atom_site_fract_z
 _atom_site_occupancy
  Na  Na0  1  0.250000  0.582729  0.708367  1
  Na  Na1  1  0.250000  0.915437  0.208279  1
  Na  Na2  1  0.750000  0.415915  0.291750  1
  Na  Na3  1  0.750000  0.085789  0.792244  1
  Co  Co4  1  0.750000  0.383324  0.802345  1
  Co  Co5  1  0.250000  0.463865  0.929413  1
  Co  Co6  1  0.250000  0.035909  0.435414  1
  Co  Co7  1  0.750000  0.535020  0.060850  1
  Co  Co8  1  0.750000  0.966140  0.566079  1
  P  P9  1  0.250000  0.425723  0.103036  1
  P  P10  1  0.250000  0.077650  0.607413  1
  P  P11  1  0.750000  0.567076  0.886400  1
  P  P12  1  0.750000  0.925580  0.394127  1
  P  P13  1  0.250000  0.273812  0.870891  1
  P  P14  1  0.250000  0.229063  0.373748  1
  P  P15  1  0.750000  0.726550  0.126307  1
  P  P16  1  0.750000  0.772800  0.627854  1
  P  P17  1  0.250000  0.600532  0.390801  1
  P  P18  1  0.250000  0.897513  0.890062  1
  P  P19  1  0.750000  0.399277  0.618087  1
  P  P20  1  0.750000  0.102743  0.109621  1
  Rh  Rh21  1  0.250000  0.712679  0.988351  1
  Rh  Rh22  1  0.250000  0.786656  0.488542  1
  Rh  Rh23  1  0.750000  0.286401  0.007374  1
  Rh  Rh24  1  0.750000  0.214972  0.515444  1
  Rh  Rh25  1  0.250000  0.408198  0.487020  1
  Rh  Rh26  1  0.250000  0.092059  0.984059  1
  Rh  Rh27  1  0.750000  0.591703  0.517129  1
  Rh  Rh28  1  0.750000  0.907892  0.014678  1
  Rh  Rh29  1  0.250000  0.231211  0.177900  1
  Rh  Rh30  1  0.250000  0.274962  0.683363  1
  Rh  Rh31  1  0.750000  0.766712  0.820637  1
  Rh  Rh32  1  0.750000  0.729408  0.321368  1
  Rh  Rh33  1  0.250000  0.888427  0.700921  1
  Rh  Rh34  1  0.250000  0.611703  0.199450  1
  Rh  Rh35  1  0.750000  0.114570  0.300680  1
