# generated using pymatgen
data_Yb4TaIr3
_symmetry_space_group_name_H-M   'P 1'
_cell_length_a   6.12711400
_cell_length_b   10.86986800
_cell_length_c   10.86986800
_cell_angle_alpha   90.00000000
_cell_angle_beta   90.00000000
_cell_angle_gamma   90.00000000
_symmetry_Int_Tables_number   1
_chemical_formula_structural   Yb4TaIr3
_chemical_formula_sum   'Yb16 Ta4 Ir12'
_cell_volume   723.94321344
_cell_formula_units_Z   4
loop_
 _symmetry_equiv_pos_site_id
 _symmetry_equiv_pos_as_xyz
  1  'x, y, z'
loop_
 _atom_site_type_symbol
 _atom_site_label
 _atom_site_symmetry_multiplicity
 _atom_site_fract_x
 _atom_site_fract_y
 _atom_site_fract_z
 _atom_site_occupancy
  Yb  Yb0  1  0.344350  0.830903  0.539516  1
  Yb  Yb1  1  0.844350  0.669097  0.539516  1
  Yb  Yb2  1  0.844350  0.830903  0.960484  1
  Yb  Yb3  1  0.344350  0.669097  0.960484  1
  Yb  Yb4  1  0.844350  0.539516  0.830903  1
  Yb  Yb5  1  0.344350  0.960484  0.830903  1
  Yb  Yb6  1  0.344350  0.539516  0.669097  1
  Yb  Yb7  1  0.844350  0.960484  0.669097  1
  Yb  Yb8  1  0.655650  0.169097  0.460485  1
  Yb  Yb9  1  0.155650  0.330903  0.460485  1
  Yb  Yb10  1  0.155650  0.169097  0.039516  1
  Yb  Yb11  1  0.655650  0.330903  0.039516  1
  Yb  Yb12  1  0.155650  0.460485  0.169097  1
  Yb  Yb13  1  0.655650  0.039516  0.169097  1
  Yb  Yb14  1  0.655650  0.460485  0.330903  1
  Yb  Yb15  1  0.155650  0.039516  0.330903  1
  Ta  Ta16  1  0.500000  0.750000  0.250000  1
  Ta  Ta17  1  0.000000  0.750000  0.250000  1
  Ta  Ta18  1  0.000000  0.250000  0.750000  1
  Ta  Ta19  1  0.500000  0.250000  0.750000  1
  Ir  Ir20  1  0.250000  0.881460  0.118540  1
  Ir  Ir21  1  0.750000  0.618540  0.118540  1
  Ir  Ir22  1  0.750000  0.881460  0.381460  1
  Ir  Ir23  1  0.250000  0.618540  0.381460  1
  Ir  Ir24  1  0.750000  0.118540  0.881460  1
  Ir  Ir25  1  0.250000  0.381460  0.881460  1
  Ir  Ir26  1  0.250000  0.118540  0.618540  1
  Ir  Ir27  1  0.750000  0.381460  0.618540  1
  Ir  Ir28  1  0.097466  0.750000  0.750000  1
  Ir  Ir29  1  0.597466  0.750000  0.750000  1
  Ir  Ir30  1  0.902534  0.250000  0.250000  1
  Ir  Ir31  1  0.402534  0.250000  0.250000  1
