# generated using pymatgen
data_ThCd4
_symmetry_space_group_name_H-M   'P 1'
_cell_length_a   6.22341741
_cell_length_b   6.22341828
_cell_length_c   10.02435527
_cell_angle_alpha   62.45352244
_cell_angle_beta   62.45351588
_cell_angle_gamma   47.32587193
_symmetry_Int_Tables_number   1
_chemical_formula_structural   ThCd4
_chemical_formula_sum   'Th2 Cd8'
_cell_volume   246.39186343
_cell_formula_units_Z   2
loop_
 _symmetry_equiv_pos_site_id
 _symmetry_equiv_pos_as_xyz
  1  'x, y, z'
loop_
 _atom_site_type_symbol
 _atom_site_label
 _atom_site_symmetry_multiplicity
 _atom_site_fract_x
 _atom_site_fract_y
 _atom_site_fract_z
 _atom_site_occupancy
  Th  Th0  1  0.174536  0.174536  0.300943  1
  Th  Th1  1  0.825464  0.825464  0.699057  1
  Cd  Cd2  1  0.459504  0.459504  0.885479  1
  Cd  Cd3  1  0.121565  0.121565  0.689716  1
  Cd  Cd4  1  0.590572  0.590572  0.555725  1
  Cd  Cd5  1  0.540496  0.540496  0.114521  1
  Cd  Cd6  1  0.878435  0.878435  0.310284  1
  Cd  Cd7  1  0.170568  0.170568  0.953394  1
  Cd  Cd8  1  0.829432  0.829432  0.046606  1
  Cd  Cd9  1  0.409428  0.409428  0.444275  1
