# generated using pymatgen
data_Er6Tm2Sc11Si16Tc
_symmetry_space_group_name_H-M   'P 1'
_cell_length_a   6.98539438
_cell_length_b   7.32272562
_cell_length_c   13.83348820
_cell_angle_alpha   89.98222006
_cell_angle_beta   90.00744442
_cell_angle_gamma   90.15732861
_symmetry_Int_Tables_number   1
_chemical_formula_structural   Er6Tm2Sc11Si16Tc
_chemical_formula_sum   'Er6 Tm2 Sc11 Si16 Tc1'
_cell_volume   707.60962887
_cell_formula_units_Z   1
loop_
 _symmetry_equiv_pos_site_id
 _symmetry_equiv_pos_as_xyz
  1  'x, y, z'
loop_
 _atom_site_type_symbol
 _atom_site_label
 _atom_site_symmetry_multiplicity
 _atom_site_fract_x
 _atom_site_fract_y
 _atom_site_fract_z
 _atom_site_occupancy
  Er  Er0  1  0.011875  0.178565  0.093148  1
  Er  Er1  1  0.992959  0.817558  0.900923  1
  Er  Er2  1  0.487890  0.673126  0.902754  1
  Er  Er3  1  0.992965  0.817531  0.599006  1
  Er  Er4  1  0.511229  0.322753  0.094936  1
  Er  Er5  1  0.011911  0.178562  0.406889  1
  Tm  Tm6  1  0.511264  0.322621  0.404979  1
  Tm  Tm7  1  0.487870  0.673210  0.597298  1
  Sc  Sc8  1  0.841363  0.496074  0.250032  1
  Sc  Sc9  1  0.342021  0.004183  0.250030  1
  Sc  Sc10  1  0.656871  0.994342  0.749973  1
  Sc  Sc11  1  0.326327  0.178503  0.627645  1
  Sc  Sc12  1  0.671965  0.824180  0.374432  1
  Sc  Sc13  1  0.172241  0.674220  0.376660  1
  Sc  Sc14  1  0.671991  0.824246  0.125623  1
  Sc  Sc15  1  0.827536  0.330942  0.628688  1
  Sc  Sc16  1  0.326283  0.178423  0.872331  1
  Sc  Sc17  1  0.827605  0.330924  0.871270  1
  Sc  Sc18  1  0.172188  0.674268  0.123386  1
  Si  Si19  1  0.028664  0.116121  0.749989  1
  Si  Si20  1  0.972999  0.887786  0.250010  1
  Si  Si21  1  0.469243  0.613795  0.250053  1
  Si  Si22  1  0.518362  0.397213  0.749938  1
  Si  Si23  1  0.284796  0.859100  0.749915  1
  Si  Si24  1  0.717177  0.131672  0.250078  1
  Si  Si25  1  0.214835  0.369119  0.250068  1
  Si  Si26  1  0.794031  0.630979  0.749947  1
  Si  Si27  1  0.157226  0.466677  0.547485  1
  Si  Si28  1  0.841247  0.535288  0.463343  1
  Si  Si29  1  0.344559  0.965288  0.463197  1
  Si  Si30  1  0.841533  0.535392  0.036645  1
  Si  Si31  1  0.659053  0.034267  0.539787  1
  Si  Si32  1  0.156951  0.466557  0.952554  1
  Si  Si33  1  0.659130  0.034293  0.960206  1
  Si  Si34  1  0.344448  0.965257  0.036817  1
  Tc  Tc35  1  0.151387  0.496961  0.749965  1
