# generated using pymatgen
data_HfCr(BRu)2
_symmetry_space_group_name_H-M   'P 1'
_cell_length_a   3.09083800
_cell_length_b   8.86009778
_cell_length_c   8.85943285
_cell_angle_alpha   120.00248717
_cell_angle_beta   90.00000000
_cell_angle_gamma   90.00000000
_symmetry_Int_Tables_number   1
_chemical_formula_structural   HfCr(BRu)2
_chemical_formula_sum   'Hf3 Cr3 B6 Ru6'
_cell_volume   210.10695339
_cell_formula_units_Z   3
loop_
 _symmetry_equiv_pos_site_id
 _symmetry_equiv_pos_as_xyz
  1  'x, y, z'
loop_
 _atom_site_type_symbol
 _atom_site_label
 _atom_site_symmetry_multiplicity
 _atom_site_fract_x
 _atom_site_fract_y
 _atom_site_fract_z
 _atom_site_occupancy
  Hf  Hf0  1  0.000000  0.582762  0.000000  1
  Hf  Hf1  1  0.000000  0.417158  0.417184  1
  Hf  Hf2  1  0.000000  0.999975  0.582816  1
  Cr  Cr3  1  0.000000  0.830547  0.830533  1
  Cr  Cr4  1  0.000000  0.000014  0.169467  1
  Cr  Cr5  1  0.000000  0.169480  0.000000  1
  B  B6  1  0.500000  0.999946  0.000000  1
  B  B7  1  0.500000  0.802551  0.000000  1
  B  B8  1  0.500000  0.197505  0.197402  1
  B  B9  1  0.500000  0.000104  0.802598  1
  B  B10  1  0.000000  0.333327  0.666691  1
  B  B11  1  0.000000  0.666637  0.333309  1
  Ru  Ru12  1  0.500000  0.539520  0.725101  1
  Ru  Ru13  1  0.500000  0.185530  0.460474  1
  Ru  Ru14  1  0.500000  0.274916  0.814464  1
  Ru  Ru15  1  0.500000  0.814420  0.274899  1
  Ru  Ru16  1  0.500000  0.725056  0.539526  1
  Ru  Ru17  1  0.500000  0.460451  0.185536  1
