# generated using pymatgen
data_Cs2Zr7CBr18
_symmetry_space_group_name_H-M   'P 1'
_cell_length_a   11.13243092
_cell_length_b   11.13243002
_cell_length_c   11.13243005
_cell_angle_alpha   55.64484716
_cell_angle_beta   55.64484872
_cell_angle_gamma   55.64485036
_symmetry_Int_Tables_number   1
_chemical_formula_structural   Cs2Zr7CBr18
_chemical_formula_sum   'Cs2 Zr7 C1 Br18'
_cell_volume   876.97643802
_cell_formula_units_Z   1
loop_
 _symmetry_equiv_pos_site_id
 _symmetry_equiv_pos_as_xyz
  1  'x, y, z'
loop_
 _atom_site_type_symbol
 _atom_site_label
 _atom_site_symmetry_multiplicity
 _atom_site_fract_x
 _atom_site_fract_y
 _atom_site_fract_z
 _atom_site_occupancy
  Cs  Cs0  1  0.775455  0.775455  0.775455  1
  Cs  Cs1  1  0.224545  0.224545  0.224545  1
  Zr  Zr2  1  0.151913  0.905156  0.804152  1
  Zr  Zr3  1  0.848087  0.094844  0.195848  1
  Zr  Zr4  1  0.094844  0.195848  0.848087  1
  Zr  Zr5  1  0.195848  0.848087  0.094844  1
  Zr  Zr6  1  0.905156  0.804152  0.151913  1
  Zr  Zr7  1  0.804152  0.151913  0.905156  1
  Zr  Zr8  1  0.500000  0.500000  0.500000  1
  C  C9  1  0.000000  0.000000  0.000000  1
  Br  Br10  1  0.222518  0.468077  0.644397  1
  Br  Br11  1  0.777482  0.531923  0.355603  1
  Br  Br12  1  0.344164  0.053375  0.933421  1
  Br  Br13  1  0.655836  0.946625  0.066579  1
  Br  Br14  1  0.933421  0.344164  0.053375  1
  Br  Br15  1  0.712271  0.877976  0.411743  1
  Br  Br16  1  0.355603  0.777482  0.531923  1
  Br  Br17  1  0.588257  0.287729  0.122024  1
  Br  Br18  1  0.287729  0.122024  0.588257  1
  Br  Br19  1  0.122024  0.588257  0.287729  1
  Br  Br20  1  0.946625  0.066579  0.655836  1
  Br  Br21  1  0.411743  0.712271  0.877976  1
  Br  Br22  1  0.877976  0.411743  0.712271  1
  Br  Br23  1  0.066579  0.655836  0.946625  1
  Br  Br24  1  0.468077  0.644397  0.222518  1
  Br  Br25  1  0.644397  0.222518  0.468077  1
  Br  Br26  1  0.531923  0.355603  0.777482  1
  Br  Br27  1  0.053375  0.933421  0.344164  1
