# generated using pymatgen
data_Er4Hf4Ir3Rh
_symmetry_space_group_name_H-M   'P 1'
_cell_length_a   4.53109300
_cell_length_b   7.03007973
_cell_length_c   8.27976313
_cell_angle_alpha   89.95955600
_cell_angle_beta   90.00000000
_cell_angle_gamma   90.00000000
_symmetry_Int_Tables_number   1
_chemical_formula_structural   Er4Hf4Ir3Rh
_chemical_formula_sum   'Er4 Hf4 Ir3 Rh1'
_cell_volume   263.74305383
_cell_formula_units_Z   1
loop_
 _symmetry_equiv_pos_site_id
 _symmetry_equiv_pos_as_xyz
  1  'x, y, z'
loop_
 _atom_site_type_symbol
 _atom_site_label
 _atom_site_symmetry_multiplicity
 _atom_site_fract_x
 _atom_site_fract_y
 _atom_site_fract_z
 _atom_site_occupancy
  Er  Er0  1  0.250000  0.983586  0.323611  1
  Er  Er1  1  0.250000  0.483967  0.176106  1
  Er  Er2  1  0.750000  0.014238  0.675749  1
  Er  Er3  1  0.750000  0.519500  0.822041  1
  Hf  Hf4  1  0.250000  0.357349  0.570521  1
  Hf  Hf5  1  0.250000  0.859763  0.928907  1
  Hf  Hf6  1  0.750000  0.640901  0.427506  1
  Hf  Hf7  1  0.750000  0.141811  0.073704  1
  Ir  Ir8  1  0.250000  0.732381  0.595504  1
  Ir  Ir9  1  0.750000  0.767170  0.093921  1
  Ir  Ir10  1  0.750000  0.265731  0.405411  1
  Rh  Rh11  1  0.250000  0.233601  0.907017  1
