# generated using pymatgen
data_Tm2Lu2B12OsW
_symmetry_space_group_name_H-M   'P 1'
_cell_length_a   3.58131700
_cell_length_b   9.12825395
_cell_length_c   11.51886000
_cell_angle_alpha   89.83106183
_cell_angle_beta   90.00000000
_cell_angle_gamma   90.00000000
_symmetry_Int_Tables_number   1
_chemical_formula_structural   Tm2Lu2B12OsW
_chemical_formula_sum   'Tm4 Lu4 B24 Os2 W2'
_cell_volume   376.56338566
_cell_formula_units_Z   2
loop_
 _symmetry_equiv_pos_site_id
 _symmetry_equiv_pos_as_xyz
  1  'x, y, z'
loop_
 _atom_site_type_symbol
 _atom_site_label
 _atom_site_symmetry_multiplicity
 _atom_site_fract_x
 _atom_site_fract_y
 _atom_site_fract_z
 _atom_site_occupancy
  Tm  Tm0  1  0.000000  0.321384  0.413934  1
  Tm  Tm1  1  0.000000  0.678616  0.586066  1
  Tm  Tm2  1  0.000000  0.820799  0.086337  1
  Tm  Tm3  1  0.000000  0.179201  0.913663  1
  Lu  Lu4  1  0.000000  0.945149  0.371646  1
  Lu  Lu5  1  0.000000  0.054851  0.628354  1
  Lu  Lu6  1  0.000000  0.442623  0.127170  1
  Lu  Lu7  1  0.000000  0.557377  0.872830  1
  B  B8  1  0.500000  0.551210  0.434677  1
  B  B9  1  0.500000  0.448790  0.565323  1
  B  B10  1  0.500000  0.053990  0.066196  1
  B  B11  1  0.500000  0.946010  0.933804  1
  B  B12  1  0.500000  0.752366  0.421938  1
  B  B13  1  0.500000  0.247634  0.578062  1
  B  B14  1  0.500000  0.249608  0.080372  1
  B  B15  1  0.500000  0.750392  0.919628  1
  B  B16  1  0.500000  0.796769  0.262791  1
  B  B17  1  0.500000  0.203231  0.737208  1
  B  B18  1  0.500000  0.290821  0.233610  1
  B  B19  1  0.500000  0.709179  0.766391  1
  B  B20  1  0.500000  0.631305  0.181086  1
  B  B21  1  0.500000  0.368695  0.818914  1
  B  B22  1  0.500000  0.130161  0.313936  1
  B  B23  1  0.500000  0.869839  0.686064  1
  B  B24  1  0.500000  0.982602  0.211734  1
  B  B25  1  0.500000  0.017398  0.788266  1
  B  B26  1  0.500000  0.476648  0.285979  1
  B  B27  1  0.500000  0.523352  0.714021  1
  B  B28  1  0.500000  0.602671  0.027368  1
  B  B29  1  0.500000  0.397329  0.972632  1
  B  B30  1  0.500000  0.101935  0.470856  1
  B  B31  1  0.500000  0.898065  0.529144  1
  Os  Os32  1  0.000000  0.137902  0.178185  1
  Os  Os33  1  0.000000  0.862098  0.821815  1
  W  W34  1  0.000000  0.638953  0.319158  1
  W  W35  1  0.000000  0.361047  0.680842  1
