# generated using pymatgen
data_Dy3Er5B24Ir3Ru
_symmetry_space_group_name_H-M   'P 1'
_cell_length_a   3.63505900
_cell_length_b   9.16114863
_cell_length_c   11.48890603
_cell_angle_alpha   90.01703649
_cell_angle_beta   90.00000000
_cell_angle_gamma   90.00000000
_symmetry_Int_Tables_number   1
_chemical_formula_structural   Dy3Er5B24Ir3Ru
_chemical_formula_sum   'Dy3 Er5 B24 Ir3 Ru1'
_cell_volume   382.59567076
_cell_formula_units_Z   1
loop_
 _symmetry_equiv_pos_site_id
 _symmetry_equiv_pos_as_xyz
  1  'x, y, z'
loop_
 _atom_site_type_symbol
 _atom_site_label
 _atom_site_symmetry_multiplicity
 _atom_site_fract_x
 _atom_site_fract_y
 _atom_site_fract_z
 _atom_site_occupancy
  Dy  Dy0  1  0.000000  0.320854  0.413280  1
  Dy  Dy1  1  0.000000  0.680205  0.588062  1
  Dy  Dy2  1  0.000000  0.821107  0.085040  1
  Er  Er3  1  0.000000  0.177351  0.913011  1
  Er  Er4  1  0.000000  0.944242  0.373891  1
  Er  Er5  1  0.000000  0.054217  0.627137  1
  Er  Er6  1  0.000000  0.444086  0.125612  1
  Er  Er7  1  0.000000  0.557348  0.874225  1
  B  B8  1  0.500000  0.554059  0.434437  1
  B  B9  1  0.500000  0.446101  0.565943  1
  B  B10  1  0.500000  0.053866  0.065494  1
  B  B11  1  0.500000  0.946122  0.933335  1
  B  B12  1  0.500000  0.750135  0.420820  1
  B  B13  1  0.500000  0.249954  0.579493  1
  B  B14  1  0.500000  0.249506  0.078766  1
  B  B15  1  0.500000  0.751569  0.919721  1
  B  B16  1  0.500000  0.793215  0.265202  1
  B  B17  1  0.500000  0.206722  0.734608  1
  B  B18  1  0.500000  0.293595  0.234638  1
  B  B19  1  0.500000  0.707851  0.766111  1
  B  B20  1  0.500000  0.631857  0.183876  1
  B  B21  1  0.500000  0.367751  0.816215  1
  B  B22  1  0.500000  0.132432  0.315882  1
  B  B23  1  0.500000  0.868288  0.685302  1
  B  B24  1  0.500000  0.982241  0.213429  1
  B  B25  1  0.500000  0.016829  0.786585  1
  B  B26  1  0.500000  0.482233  0.286030  1
  B  B27  1  0.500000  0.517584  0.714370  1
  B  B28  1  0.500000  0.609442  0.030247  1
  B  B29  1  0.500000  0.389326  0.969832  1
  B  B30  1  0.500000  0.109342  0.469990  1
  B  B31  1  0.500000  0.890824  0.529701  1
  Ir  Ir32  1  0.000000  0.638479  0.321231  1
  Ir  Ir33  1  0.000000  0.361430  0.679272  1
  Ir  Ir34  1  0.000000  0.137802  0.177974  1
  Ru  Ru35  1  0.000000  0.862035  0.821235  1
