# generated using pymatgen
data_CaHoMnFeO6
_symmetry_space_group_name_H-M   'P 1'
_cell_length_a   5.32395961
_cell_length_b   5.52663600
_cell_length_c   7.60794228
_cell_angle_alpha   90.00007442
_cell_angle_beta   90.06013806
_cell_angle_gamma   90.00012713
_symmetry_Int_Tables_number   1
_chemical_formula_structural   CaHoMnFeO6
_chemical_formula_sum   'Ca2 Ho2 Mn2 Fe2 O12'
_cell_volume   223.85282716
_cell_formula_units_Z   2
loop_
 _symmetry_equiv_pos_site_id
 _symmetry_equiv_pos_as_xyz
  1  'x, y, z'
loop_
 _atom_site_type_symbol
 _atom_site_label
 _atom_site_symmetry_multiplicity
 _atom_site_fract_x
 _atom_site_fract_y
 _atom_site_fract_z
 _atom_site_occupancy
  Ca  Ca0  1  0.510520  0.551151  0.249536  1
  Ca  Ca1  1  0.010517  0.948848  0.749535  1
  Ho  Ho2  1  0.982648  0.065176  0.249037  1
  Ho  Ho3  1  0.482644  0.434822  0.749034  1
  Mn  Mn4  1  0.999706  0.502752  0.500001  1
  Mn  Mn5  1  0.499711  0.997246  0.999997  1
  Fe  Fe6  1  0.999495  0.507073  0.999573  1
  Fe  Fe7  1  0.499498  0.992927  0.499568  1
  O  O8  1  0.800551  0.808447  0.051296  1
  O  O9  1  0.711909  0.294974  0.453734  1
  O  O10  1  0.202774  0.215521  0.548526  1
  O  O11  1  0.312399  0.700012  0.948111  1
  O  O12  1  0.211909  0.205026  0.953733  1
  O  O13  1  0.300546  0.691554  0.551295  1
  O  O14  1  0.812399  0.799987  0.448111  1
  O  O15  1  0.702775  0.284479  0.048527  1
  O  O16  1  0.395402  0.972798  0.245502  1
  O  O17  1  0.084597  0.467870  0.254692  1
  O  O18  1  0.584597  0.032133  0.754688  1
  O  O19  1  0.895402  0.527199  0.745505  1
