# generated using pymatgen
data_HfZr5Fe16Si6As
_symmetry_space_group_name_H-M   'P 1'
_cell_length_a   8.10593313
_cell_length_b   8.10593311
_cell_length_c   8.10115400
_cell_angle_alpha   60.01950129
_cell_angle_beta   60.01950136
_cell_angle_gamma   59.96098694
_symmetry_Int_Tables_number   1
_chemical_formula_structural   HfZr5Fe16Si6As
_chemical_formula_sum   'Hf1 Zr5 Fe16 Si6 As1'
_cell_volume   376.38957520
_cell_formula_units_Z   1
loop_
 _symmetry_equiv_pos_site_id
 _symmetry_equiv_pos_as_xyz
  1  'x, y, z'
loop_
 _atom_site_type_symbol
 _atom_site_label
 _atom_site_symmetry_multiplicity
 _atom_site_fract_x
 _atom_site_fract_y
 _atom_site_fract_z
 _atom_site_occupancy
  Hf  Hf0  1  0.706953  0.706953  0.293047  1
  Zr  Zr1  1  0.294300  0.706121  0.293879  1
  Zr  Zr2  1  0.706121  0.294300  0.293879  1
  Zr  Zr3  1  0.293674  0.293674  0.706326  1
  Zr  Zr4  1  0.706121  0.294300  0.705700  1
  Zr  Zr5  1  0.294300  0.706121  0.705700  1
  Fe  Fe6  1  0.877090  0.877090  0.367226  1
  Fe  Fe7  1  0.877503  0.367484  0.877507  1
  Fe  Fe8  1  0.367484  0.877503  0.877507  1
  Fe  Fe9  1  0.877090  0.877090  0.878596  1
  Fe  Fe10  1  0.122493  0.122493  0.632516  1
  Fe  Fe11  1  0.121404  0.632774  0.122910  1
  Fe  Fe12  1  0.632774  0.121404  0.122910  1
  Fe  Fe13  1  0.122493  0.122493  0.122497  1
  Fe  Fe14  1  0.676251  0.676251  0.971821  1
  Fe  Fe15  1  0.676100  0.971387  0.676256  1
  Fe  Fe16  1  0.971387  0.676100  0.676256  1
  Fe  Fe17  1  0.676251  0.676251  0.675676  1
  Fe  Fe18  1  0.323744  0.323744  0.028613  1
  Fe  Fe19  1  0.324324  0.028179  0.323749  1
  Fe  Fe20  1  0.028179  0.324324  0.323749  1
  Fe  Fe21  1  0.323744  0.323744  0.323900  1
  Si  Si22  1  0.999985  0.999985  0.500015  1
  Si  Si23  1  0.500425  0.999658  0.499575  1
  Si  Si24  1  0.999658  0.500425  0.499575  1
  Si  Si25  1  0.499985  0.499985  0.000015  1
  Si  Si26  1  0.999658  0.500425  0.000342  1
  Si  Si27  1  0.500425  0.999658  0.000342  1
  As  As28  1  0.000089  0.000089  0.999911  1
