# generated using pymatgen
data_Er3Zn3Pt2Au
_symmetry_space_group_name_H-M   'P 1'
_cell_length_a   7.42451500
_cell_length_b   7.42451560
_cell_length_c   3.72858100
_cell_angle_alpha   90.00000000
_cell_angle_beta   90.00000000
_cell_angle_gamma   120.00000180
_symmetry_Int_Tables_number   1
_chemical_formula_structural   Er3Zn3Pt2Au
_chemical_formula_sum   'Er3 Zn3 Pt2 Au1'
_cell_volume   177.99607217
_cell_formula_units_Z   1
loop_
 _symmetry_equiv_pos_site_id
 _symmetry_equiv_pos_as_xyz
  1  'x, y, z'
loop_
 _atom_site_type_symbol
 _atom_site_label
 _atom_site_symmetry_multiplicity
 _atom_site_fract_x
 _atom_site_fract_y
 _atom_site_fract_z
 _atom_site_occupancy
  Er  Er0  1  0.593001  0.000000  0.000000  1
  Er  Er1  1  0.000000  0.593001  0.000000  1
  Er  Er2  1  0.406999  0.406999  0.000000  1
  Zn  Zn3  1  0.264796  0.000000  0.500000  1
  Zn  Zn4  1  0.000000  0.264796  0.500000  1
  Zn  Zn5  1  0.735204  0.735204  0.500000  1
  Pt  Pt6  1  0.333333  0.666667  0.500000  1
  Pt  Pt7  1  0.666667  0.333333  0.500000  1
  Au  Au8  1  0.000000  0.000000  0.000000  1
