# generated using pymatgen
data_Sm8TlPdPt23
_symmetry_space_group_name_H-M   'P 1'
_cell_length_a   8.50284700
_cell_length_b   8.50284700
_cell_length_c   8.51211200
_cell_angle_alpha   90.00000000
_cell_angle_beta   90.00000000
_cell_angle_gamma   90.00000000
_symmetry_Int_Tables_number   1
_chemical_formula_structural   Sm8TlPdPt23
_chemical_formula_sum   'Sm8 Tl1 Pd1 Pt23'
_cell_volume   615.41213870
_cell_formula_units_Z   1
loop_
 _symmetry_equiv_pos_site_id
 _symmetry_equiv_pos_as_xyz
  1  'x, y, z'
loop_
 _atom_site_type_symbol
 _atom_site_label
 _atom_site_symmetry_multiplicity
 _atom_site_fract_x
 _atom_site_fract_y
 _atom_site_fract_z
 _atom_site_occupancy
  Sm  Sm0  1  0.249529  0.249529  0.249776  1
  Sm  Sm1  1  0.750174  0.750174  0.750285  1
  Sm  Sm2  1  0.750471  0.750471  0.249776  1
  Sm  Sm3  1  0.750174  0.249826  0.750285  1
  Sm  Sm4  1  0.249826  0.249826  0.750285  1
  Sm  Sm5  1  0.249529  0.750471  0.249776  1
  Sm  Sm6  1  0.249826  0.750174  0.750285  1
  Sm  Sm7  1  0.750471  0.249529  0.249776  1
  Tl  Tl8  1  0.000000  0.000000  0.000298  1
  Pd  Pd9  1  0.500000  0.500000  0.743278  1
  Pt  Pt10  1  0.270620  0.500000  0.000578  1
  Pt  Pt11  1  0.729380  0.500000  0.000578  1
  Pt  Pt12  1  0.000000  0.270499  0.500056  1
  Pt  Pt13  1  0.500000  0.270620  0.000578  1
  Pt  Pt14  1  0.000000  0.729501  0.500056  1
  Pt  Pt15  1  0.500000  0.729380  0.000578  1
  Pt  Pt16  1  0.500000  0.000000  0.270051  1
  Pt  Pt17  1  0.270499  0.000000  0.500056  1
  Pt  Pt18  1  0.500000  0.000000  0.729174  1
  Pt  Pt19  1  0.729501  0.000000  0.500056  1
  Pt  Pt20  1  0.000000  0.500000  0.270051  1
  Pt  Pt21  1  0.000000  0.500000  0.729174  1
  Pt  Pt22  1  0.256866  0.500000  0.499576  1
  Pt  Pt23  1  0.743134  0.500000  0.499576  1
  Pt  Pt24  1  0.500000  0.256866  0.499576  1
  Pt  Pt25  1  0.500000  0.743134  0.499576  1
  Pt  Pt26  1  0.500000  0.500000  0.256538  1
  Pt  Pt27  1  0.325627  0.000000  0.999832  1
  Pt  Pt28  1  0.674373  0.000000  0.999832  1
  Pt  Pt29  1  0.000000  0.325627  0.999832  1
  Pt  Pt30  1  0.000000  0.674373  0.999832  1
  Pt  Pt31  1  0.000000  0.000000  0.325696  1
  Pt  Pt32  1  0.000000  0.000000  0.675325  1
