# generated using pymatgen
data_TbCeTc6Ni6P7
_symmetry_space_group_name_H-M   'P 1'
_cell_length_a   9.39556108
_cell_length_b   9.39495368
_cell_length_c   3.74455000
_cell_angle_alpha   90.00000000
_cell_angle_beta   90.00000000
_cell_angle_gamma   119.99588439
_symmetry_Int_Tables_number   1
_chemical_formula_structural   TbCeTc6Ni6P7
_chemical_formula_sum   'Tb1 Ce1 Tc6 Ni6 P7'
_cell_volume   286.26327688
_cell_formula_units_Z   1
loop_
 _symmetry_equiv_pos_site_id
 _symmetry_equiv_pos_as_xyz
  1  'x, y, z'
loop_
 _atom_site_type_symbol
 _atom_site_label
 _atom_site_symmetry_multiplicity
 _atom_site_fract_x
 _atom_site_fract_y
 _atom_site_fract_z
 _atom_site_occupancy
  Tb  Tb0  1  0.666696  0.333351  0.500000  1
  Ce  Ce1  1  0.333346  0.666657  0.000000  1
  Tc  Tc2  1  0.390237  0.436306  0.500000  1
  Tc  Tc3  1  0.879966  0.790103  0.500000  1
  Tc  Tc4  1  0.910121  0.120076  0.500000  1
  Tc  Tc5  1  0.046101  0.609730  0.500000  1
  Tc  Tc6  1  0.209924  0.089851  0.500000  1
  Tc  Tc7  1  0.563659  0.953908  0.500000  1
  Ni  Ni8  1  0.158758  0.275048  0.000000  1
  Ni  Ni9  1  0.116297  0.841251  0.000000  1
  Ni  Ni10  1  0.724955  0.883724  0.000000  1
  Ni  Ni11  1  0.935302  0.363223  0.000000  1
  Ni  Ni12  1  0.636766  0.572059  0.000000  1
  Ni  Ni13  1  0.427909  0.064722  0.000000  1
  P  P14  1  0.600527  0.715678  0.500000  1
  P  P15  1  0.115167  0.399472  0.500000  1
  P  P16  1  0.883959  0.588979  0.000000  1
  P  P17  1  0.284309  0.884834  0.500000  1
  P  P18  1  0.999987  0.000001  0.000000  1
  P  P19  1  0.704995  0.116052  0.000000  1
  P  P20  1  0.411021  0.294975  0.000000  1
