# generated using pymatgen
data_Tm(Zn2Ni)4
_symmetry_space_group_name_H-M   'P 1'
_cell_length_a   6.53997771
_cell_length_b   6.53997781
_cell_length_c   6.53997779
_cell_angle_alpha   98.49190236
_cell_angle_beta   98.49189800
_cell_angle_gamma   134.80216185
_symmetry_Int_Tables_number   1
_chemical_formula_structural   Tm(Zn2Ni)4
_chemical_formula_sum   'Tm1 Zn8 Ni4'
_cell_volume   183.23659351
_cell_formula_units_Z   1
loop_
 _symmetry_equiv_pos_site_id
 _symmetry_equiv_pos_as_xyz
  1  'x, y, z'
loop_
 _atom_site_type_symbol
 _atom_site_label
 _atom_site_symmetry_multiplicity
 _atom_site_fract_x
 _atom_site_fract_y
 _atom_site_fract_z
 _atom_site_occupancy
  Tm  Tm0  1  0.000000  0.000000  0.000000  1
  Zn  Zn1  1  0.000000  0.342303  0.342303  1
  Zn  Zn2  1  0.000000  0.657697  0.657697  1
  Zn  Zn3  1  0.657697  0.000000  0.657697  1
  Zn  Zn4  1  0.342303  0.000000  0.342303  1
  Zn  Zn5  1  0.500000  0.278294  0.778294  1
  Zn  Zn6  1  0.500000  0.721706  0.221706  1
  Zn  Zn7  1  0.721706  0.500000  0.221706  1
  Zn  Zn8  1  0.278294  0.500000  0.778294  1
  Ni  Ni9  1  0.000000  0.000000  0.500000  1
  Ni  Ni10  1  0.500000  0.500000  0.500000  1
  Ni  Ni11  1  0.500000  0.000000  0.000000  1
  Ni  Ni12  1  0.000000  0.500000  0.000000  1
