# generated using pymatgen
data_LiZr4Os2Rh
_symmetry_space_group_name_H-M   'P 1'
_cell_length_a   4.62966100
_cell_length_b   6.69342700
_cell_length_c   13.93724400
_cell_angle_alpha   90.00093946
_cell_angle_beta   89.99822097
_cell_angle_gamma   90.00035303
_symmetry_Int_Tables_number   1
_chemical_formula_structural   LiZr4Os2Rh
_chemical_formula_sum   'Li3 Zr12 Os6 Rh3'
_cell_volume   431.89146937
_cell_formula_units_Z   3
loop_
 _symmetry_equiv_pos_site_id
 _symmetry_equiv_pos_as_xyz
  1  'x, y, z'
loop_
 _atom_site_type_symbol
 _atom_site_label
 _atom_site_symmetry_multiplicity
 _atom_site_fract_x
 _atom_site_fract_y
 _atom_site_fract_z
 _atom_site_occupancy
  Li  Li0  1  0.500025  0.499995  0.500924  1
  Li  Li1  1  0.000612  0.999995  0.666661  1
  Li  Li2  1  0.500499  0.500001  0.832422  1
  Zr  Zr3  1  0.499975  0.249483  0.000633  1
  Zr  Zr4  1  0.499977  0.750514  0.000632  1
  Zr  Zr5  1  0.999664  0.249511  0.166671  1
  Zr  Zr6  1  0.999665  0.750487  0.166670  1
  Zr  Zr7  1  0.499628  0.249482  0.332706  1
  Zr  Zr8  1  0.499632  0.750517  0.332702  1
  Zr  Zr9  1  0.999986  0.251477  0.499157  1
  Zr  Zr10  1  0.999985  0.748524  0.499156  1
  Zr  Zr11  1  0.500359  0.248843  0.666666  1
  Zr  Zr12  1  0.500360  0.751162  0.666667  1
  Zr  Zr13  1  0.000343  0.251480  0.834173  1
  Zr  Zr14  1  0.000350  0.748526  0.834171  1
  Os  Os15  1  0.999959  0.500000  0.997777  1
  Os  Os16  1  0.499657  0.999999  0.166667  1
  Os  Os17  1  0.999619  0.500001  0.335560  1
  Os  Os18  1  0.499940  0.999996  0.501620  1
  Os  Os19  1  0.000371  0.500001  0.666665  1
  Os  Os20  1  0.500334  0.000000  0.831715  1
  Rh  Rh21  1  0.000008  0.999998  0.002652  1
  Rh  Rh22  1  0.499534  0.500013  0.166672  1
  Rh  Rh23  1  0.999519  0.999996  0.330661  1
