# generated using pymatgen
data_Y6TmScO12
_symmetry_space_group_name_H-M   'P 1'
_cell_length_a   6.66451646
_cell_length_b   6.66451590
_cell_length_c   6.66451627
_cell_angle_alpha   92.41478841
_cell_angle_beta   92.41478334
_cell_angle_gamma   92.41478593
_symmetry_Int_Tables_number   1
_chemical_formula_structural   Y6TmScO12
_chemical_formula_sum   'Y6 Tm1 Sc1 O12'
_cell_volume   295.19818004
_cell_formula_units_Z   1
loop_
 _symmetry_equiv_pos_site_id
 _symmetry_equiv_pos_as_xyz
  1  'x, y, z'
loop_
 _atom_site_type_symbol
 _atom_site_label
 _atom_site_symmetry_multiplicity
 _atom_site_fract_x
 _atom_site_fract_y
 _atom_site_fract_z
 _atom_site_occupancy
  Y  Y0  1  0.743649  0.930129  0.439231  1
  Y  Y1  1  0.930129  0.439231  0.743649  1
  Y  Y2  1  0.439231  0.743649  0.930129  1
  Y  Y3  1  0.256351  0.069871  0.560769  1
  Y  Y4  1  0.069871  0.560769  0.256351  1
  Y  Y5  1  0.560769  0.256351  0.069871  1
  Tm  Tm6  1  0.000000  0.000000  0.000000  1
  Sc  Sc7  1  0.500000  0.500000  0.500000  1
  O  O8  1  0.592622  0.463893  0.804998  1
  O  O9  1  0.463893  0.804998  0.592622  1
  O  O10  1  0.804998  0.592622  0.463893  1
  O  O11  1  0.407378  0.536107  0.195002  1
  O  O12  1  0.536107  0.195002  0.407378  1
  O  O13  1  0.195002  0.407378  0.536107  1
  O  O14  1  0.068995  0.908471  0.314501  1
  O  O15  1  0.908471  0.314501  0.068995  1
  O  O16  1  0.685499  0.931005  0.091529  1
  O  O17  1  0.091529  0.685499  0.931005  1
  O  O18  1  0.931005  0.091529  0.685499  1
  O  O19  1  0.314501  0.068995  0.908471  1
