# generated using pymatgen
data_Sm2Dy3Nb3(Co4P3)4
_symmetry_space_group_name_H-M   'P 1'
_cell_length_a   12.21134700
_cell_length_b   12.21134700
_cell_length_c   3.70867500
_cell_angle_alpha   90.00000000
_cell_angle_beta   90.00000000
_cell_angle_gamma   119.99999730
_symmetry_Int_Tables_number   1
_chemical_formula_structural   Sm2Dy3Nb3(Co4P3)4
_chemical_formula_sum   'Sm2 Dy3 Nb3 Co16 P12'
_cell_volume   478.93498785
_cell_formula_units_Z   1
loop_
 _symmetry_equiv_pos_site_id
 _symmetry_equiv_pos_as_xyz
  1  'x, y, z'
loop_
 _atom_site_type_symbol
 _atom_site_label
 _atom_site_symmetry_multiplicity
 _atom_site_fract_x
 _atom_site_fract_y
 _atom_site_fract_z
 _atom_site_occupancy
  Sm  Sm0  1  0.333333  0.666667  0.000000  1
  Sm  Sm1  1  0.666667  0.333333  0.000000  1
  Dy  Dy2  1  0.816219  0.000000  0.500000  1
  Dy  Dy3  1  0.000000  0.816219  0.500000  1
  Dy  Dy4  1  0.183781  0.183781  0.500000  1
  Nb  Nb5  1  0.443795  0.000000  0.000000  1
  Nb  Nb6  1  0.000000  0.443795  0.000000  1
  Nb  Nb7  1  0.556205  0.556205  0.000000  1
  Co  Co8  1  0.277991  0.000000  0.500000  1
  Co  Co9  1  0.000000  0.277991  0.500000  1
  Co  Co10  1  0.722009  0.722009  0.500000  1
  Co  Co11  1  0.627529  0.803984  0.000000  1
  Co  Co12  1  0.196016  0.823544  0.000000  1
  Co  Co13  1  0.176456  0.372471  0.000000  1
  Co  Co14  1  0.372471  0.176456  0.000000  1
  Co  Co15  1  0.803984  0.627529  0.000000  1
  Co  Co16  1  0.823544  0.196016  0.000000  1
  Co  Co17  1  0.520966  0.874705  0.500000  1
  Co  Co18  1  0.125295  0.646261  0.500000  1
  Co  Co19  1  0.353739  0.479034  0.500000  1
  Co  Co20  1  0.479034  0.353739  0.500000  1
  Co  Co21  1  0.874705  0.520966  0.500000  1
  Co  Co22  1  0.646261  0.125295  0.500000  1
  Co  Co23  1  0.000000  0.000000  0.000000  1
  P  P24  1  0.177880  0.000000  0.000000  1
  P  P25  1  0.000000  0.177880  0.000000  1
  P  P26  1  0.822120  0.822120  0.000000  1
  P  P27  1  0.523261  0.689753  0.500000  1
  P  P28  1  0.310247  0.833508  0.500000  1
  P  P29  1  0.166492  0.476739  0.500000  1
  P  P30  1  0.476739  0.166492  0.500000  1
  P  P31  1  0.689753  0.523261  0.500000  1
  P  P32  1  0.833508  0.310247  0.500000  1
  P  P33  1  0.643422  0.000000  0.000000  1
  P  P34  1  0.000000  0.643422  0.000000  1
  P  P35  1  0.356578  0.356578  0.000000  1
