# generated using pymatgen
data_Sr2Dy(CuO2)4
_symmetry_space_group_name_H-M   'P 1'
_cell_length_a   13.30036901
_cell_length_b   13.30036956
_cell_length_c   3.71765100
_cell_angle_alpha   90.00000000
_cell_angle_beta   90.00000000
_cell_angle_gamma   162.94744558
_symmetry_Int_Tables_number   1
_chemical_formula_structural   Sr2Dy(CuO2)4
_chemical_formula_sum   'Sr2 Dy1 Cu4 O8'
_cell_volume   192.85556952
_cell_formula_units_Z   1
loop_
 _symmetry_equiv_pos_site_id
 _symmetry_equiv_pos_as_xyz
  1  'x, y, z'
loop_
 _atom_site_type_symbol
 _atom_site_label
 _atom_site_symmetry_multiplicity
 _atom_site_fract_x
 _atom_site_fract_y
 _atom_site_fract_z
 _atom_site_occupancy
  Sr  Sr0  1  0.362771  0.637229  0.500000  1
  Sr  Sr1  1  0.637229  0.362771  0.500000  1
  Dy  Dy2  1  0.500000  0.500000  0.500000  1
  Cu  Cu3  1  0.063301  0.936699  0.000000  1
  Cu  Cu4  1  0.936699  0.063301  0.000000  1
  Cu  Cu5  1  0.213256  0.786744  0.000000  1
  Cu  Cu6  1  0.786744  0.213256  0.000000  1
  O  O7  1  0.143581  0.856419  0.000000  1
  O  O8  1  0.856419  0.143581  0.000000  1
  O  O9  1  0.557108  0.442892  0.000000  1
  O  O10  1  0.442892  0.557108  0.000000  1
  O  O11  1  0.052309  0.947691  0.500000  1
  O  O12  1  0.947691  0.052309  0.500000  1
  O  O13  1  0.714963  0.285037  0.000000  1
  O  O14  1  0.285037  0.714963  0.000000  1
