# generated using pymatgen
data_CsMgScFeH8
_symmetry_space_group_name_H-M   'P 1'
_cell_length_a   4.47335700
_cell_length_b   4.47335829
_cell_length_c   8.66938900
_cell_angle_alpha   90.00000000
_cell_angle_beta   90.00000000
_cell_angle_gamma   119.99999788
_symmetry_Int_Tables_number   1
_chemical_formula_structural   CsMgScFeH8
_chemical_formula_sum   'Cs1 Mg1 Sc1 Fe1 H8'
_cell_volume   150.24027642
_cell_formula_units_Z   1
loop_
 _symmetry_equiv_pos_site_id
 _symmetry_equiv_pos_as_xyz
  1  'x, y, z'
loop_
 _atom_site_type_symbol
 _atom_site_label
 _atom_site_symmetry_multiplicity
 _atom_site_fract_x
 _atom_site_fract_y
 _atom_site_fract_z
 _atom_site_occupancy
  Cs  Cs0  1  0.000000  0.000000  0.504402  1
  Mg  Mg1  1  0.666667  0.333333  0.878623  1
  Sc  Sc2  1  0.333333  0.666667  0.098030  1
  Fe  Fe3  1  0.000000  0.000000  0.006059  1
  H  H4  1  0.329193  0.164597  0.112070  1
  H  H5  1  0.835403  0.670807  0.112070  1
  H  H6  1  0.835403  0.164597  0.112070  1
  H  H7  1  0.675296  0.837648  0.895405  1
  H  H8  1  0.162352  0.324704  0.895405  1
  H  H9  1  0.162352  0.837648  0.895405  1
  H  H10  1  0.666667  0.333333  0.670352  1
  H  H11  1  0.333333  0.666667  0.320111  1
