# generated using pymatgen
data_PrHo15Cd4TcPt3
_symmetry_space_group_name_H-M   'P 1'
_cell_length_a   9.71229729
_cell_length_b   9.71229743
_cell_length_c   9.71172877
_cell_angle_alpha   59.39309656
_cell_angle_beta   59.39309827
_cell_angle_gamma   59.14410646
_symmetry_Int_Tables_number   1
_chemical_formula_structural   PrHo15Cd4TcPt3
_chemical_formula_sum   'Pr1 Ho15 Cd4 Tc1 Pt3'
_cell_volume   637.59340222
_cell_formula_units_Z   1
loop_
 _symmetry_equiv_pos_site_id
 _symmetry_equiv_pos_as_xyz
  1  'x, y, z'
loop_
 _atom_site_type_symbol
 _atom_site_label
 _atom_site_symmetry_multiplicity
 _atom_site_fract_x
 _atom_site_fract_y
 _atom_site_fract_z
 _atom_site_occupancy
  Pr  Pr0  1  0.935188  0.935188  0.559849  1
  Ho  Ho1  1  0.352041  0.352041  0.350871  1
  Ho  Ho2  1  0.351801  0.351801  0.949095  1
  Ho  Ho3  1  0.352118  0.949058  0.349393  1
  Ho  Ho4  1  0.949058  0.352118  0.349393  1
  Ho  Ho5  1  0.815004  0.189743  0.185220  1
  Ho  Ho6  1  0.189523  0.809955  0.810330  1
  Ho  Ho7  1  0.189743  0.815004  0.185220  1
  Ho  Ho8  1  0.809955  0.189523  0.810330  1
  Ho  Ho9  1  0.188007  0.188007  0.816320  1
  Ho  Ho10  1  0.809953  0.809953  0.186482  1
  Ho  Ho11  1  0.934954  0.560928  0.566156  1
  Ho  Ho12  1  0.552436  0.938473  0.940915  1
  Ho  Ho13  1  0.560928  0.934954  0.566156  1
  Ho  Ho14  1  0.938473  0.552436  0.940915  1
  Ho  Ho15  1  0.565535  0.565535  0.936275  1
  Cd  Cd16  1  0.580867  0.580867  0.579676  1
  Cd  Cd17  1  0.581520  0.581520  0.251827  1
  Cd  Cd18  1  0.576819  0.257253  0.581308  1
  Cd  Cd19  1  0.257253  0.576819  0.581308  1
  Tc  Tc20  1  0.145961  0.145961  0.139977  1
  Pt  Pt21  1  0.145544  0.145544  0.573146  1
  Pt  Pt22  1  0.144318  0.572997  0.144917  1
  Pt  Pt23  1  0.572997  0.144318  0.144917  1
