# generated using pymatgen
data_Lu10Tl5SiHgPb
_symmetry_space_group_name_H-M   'P 1'
_cell_length_a   8.97224760
_cell_length_b   8.97224698
_cell_length_c   6.77073934
_cell_angle_alpha   89.66434945
_cell_angle_beta   89.66435359
_cell_angle_gamma   119.56398856
_symmetry_Int_Tables_number   1
_chemical_formula_structural   Lu10Tl5SiHgPb
_chemical_formula_sum   'Lu10 Tl5 Si1 Hg1 Pb1'
_cell_volume   474.05763721
_cell_formula_units_Z   1
loop_
 _symmetry_equiv_pos_site_id
 _symmetry_equiv_pos_as_xyz
  1  'x, y, z'
loop_
 _atom_site_type_symbol
 _atom_site_label
 _atom_site_symmetry_multiplicity
 _atom_site_fract_x
 _atom_site_fract_y
 _atom_site_fract_z
 _atom_site_occupancy
  Lu  Lu0  1  0.265500  0.000327  0.714810  1
  Lu  Lu1  1  0.742439  0.999958  0.274648  1
  Lu  Lu2  1  0.000327  0.265500  0.714810  1
  Lu  Lu3  1  0.999958  0.742439  0.274648  1
  Lu  Lu4  1  0.737236  0.737236  0.737174  1
  Lu  Lu5  1  0.256735  0.256735  0.283055  1
  Lu  Lu6  1  0.331722  0.664053  0.500868  1
  Lu  Lu7  1  0.664053  0.331722  0.500868  1
  Lu  Lu8  1  0.663336  0.329525  0.997845  1
  Lu  Lu9  1  0.329525  0.663336  0.997845  1
  Tl  Tl10  1  0.608305  0.999506  0.756333  1
  Tl  Tl11  1  0.395588  0.997660  0.247021  1
  Tl  Tl12  1  0.999506  0.608305  0.756333  1
  Tl  Tl13  1  0.997660  0.395588  0.247021  1
  Tl  Tl14  1  0.391410  0.391410  0.749503  1
  Si  Si15  1  0.995703  0.995703  0.506332  1
  Hg  Hg16  1  0.014299  0.014299  0.991878  1
  Pb  Pb17  1  0.606697  0.606697  0.249010  1
