# generated using pymatgen
data_Ho4Ga18(CoPd)3
_symmetry_space_group_name_H-M   'P 1'
_cell_length_a   7.50989768
_cell_length_b   7.50989639
_cell_length_c   9.44238532
_cell_angle_alpha   90.04011399
_cell_angle_beta   90.04011349
_cell_angle_gamma   119.58668746
_symmetry_Int_Tables_number   1
_chemical_formula_structural   Ho4Ga18(CoPd)3
_chemical_formula_sum   'Ho4 Ga18 Co3 Pd3'
_cell_volume   463.09876748
_cell_formula_units_Z   1
loop_
 _symmetry_equiv_pos_site_id
 _symmetry_equiv_pos_as_xyz
  1  'x, y, z'
loop_
 _atom_site_type_symbol
 _atom_site_label
 _atom_site_symmetry_multiplicity
 _atom_site_fract_x
 _atom_site_fract_y
 _atom_site_fract_z
 _atom_site_occupancy
  Ho  Ho0  1  0.320986  0.997576  0.749968  1
  Ho  Ho1  1  0.007734  0.328115  0.749318  1
  Ho  Ho2  1  0.671885  0.992266  0.250682  1
  Ho  Ho3  1  0.002424  0.679014  0.250032  1
  Ga  Ga4  1  0.663926  0.013546  0.921357  1
  Ga  Ga5  1  0.344731  0.998533  0.425665  1
  Ga  Ga6  1  0.994878  0.343372  0.425515  1
  Ga  Ga7  1  0.346687  0.013377  0.078096  1
  Ga  Ga8  1  0.986623  0.653313  0.921904  1
  Ga  Ga9  1  0.986454  0.336074  0.078643  1
  Ga  Ga10  1  0.341819  0.339692  0.561634  1
  Ga  Ga11  1  0.344529  0.336236  0.931651  1
  Ga  Ga12  1  0.663764  0.655471  0.068349  1
  Ga  Ga13  1  0.660308  0.658181  0.438366  1
  Ga  Ga14  1  0.860342  0.862591  0.749085  1
  Ga  Ga15  1  0.137409  0.139658  0.250915  1
  Ga  Ga16  1  0.334534  0.547434  0.258693  1
  Ga  Ga17  1  0.561980  0.336015  0.252330  1
  Ga  Ga18  1  0.663985  0.438020  0.747670  1
  Ga  Ga19  1  0.452566  0.665466  0.741307  1
  Ga  Ga20  1  0.656628  0.005122  0.574485  1
  Ga  Ga21  1  0.001467  0.655269  0.574335  1
  Co  Co22  1  0.670559  0.329441  0.500000  1
  Co  Co23  1  0.668812  0.331188  0.000000  1
  Co  Co24  1  0.328629  0.671371  0.500000  1
  Pd  Pd25  1  0.328196  0.671804  0.000000  1
  Pd  Pd26  1  0.998640  0.001360  0.000000  1
  Pd  Pd27  1  0.999504  0.000496  0.500000  1
