# generated using pymatgen
data_LaPr7(Sc3Pt4)4
_symmetry_space_group_name_H-M   'P 1'
_cell_length_a   7.61076304
_cell_length_b   7.56888009
_cell_length_c   13.72975308
_cell_angle_alpha   89.98730644
_cell_angle_beta   90.00088716
_cell_angle_gamma   90.01170109
_symmetry_Int_Tables_number   1
_chemical_formula_structural   LaPr7(Sc3Pt4)4
_chemical_formula_sum   'La1 Pr7 Sc12 Pt16'
_cell_volume   790.90174255
_cell_formula_units_Z   1
loop_
 _symmetry_equiv_pos_site_id
 _symmetry_equiv_pos_as_xyz
  1  'x, y, z'
loop_
 _atom_site_type_symbol
 _atom_site_label
 _atom_site_symmetry_multiplicity
 _atom_site_fract_x
 _atom_site_fract_y
 _atom_site_fract_z
 _atom_site_occupancy
  La  La0  1  0.011224  0.171217  0.402179  1
  Pr  Pr1  1  0.510662  0.329331  0.402141  1
  Pr  Pr2  1  0.489096  0.671015  0.902151  1
  Pr  Pr3  1  0.489274  0.670861  0.597831  1
  Pr  Pr4  1  0.989230  0.828923  0.598078  1
  Pr  Pr5  1  0.989133  0.829105  0.902168  1
  Pr  Pr6  1  0.510928  0.329054  0.097755  1
  Pr  Pr7  1  0.010792  0.170916  0.097626  1
  Sc  Sc8  1  0.330811  0.166067  0.624870  1
  Sc  Sc9  1  0.669070  0.833571  0.375227  1
  Sc  Sc10  1  0.661067  0.005398  0.750142  1
  Sc  Sc11  1  0.169508  0.665946  0.375224  1
  Sc  Sc12  1  0.830608  0.333779  0.875328  1
  Sc  Sc13  1  0.830303  0.334235  0.625020  1
  Sc  Sc14  1  0.838678  0.505709  0.249752  1
  Sc  Sc15  1  0.339420  0.994457  0.249707  1
  Sc  Sc16  1  0.330594  0.166127  0.875338  1
  Sc  Sc17  1  0.169526  0.666184  0.124570  1
  Sc  Sc18  1  0.669299  0.833841  0.124562  1
  Sc  Sc19  1  0.160911  0.494643  0.750080  1
  Pt  Pt20  1  0.296052  0.869249  0.749936  1
  Pt  Pt21  1  0.466419  0.637877  0.250001  1
  Pt  Pt22  1  0.033540  0.137781  0.749956  1
  Pt  Pt23  1  0.533476  0.362127  0.750001  1
  Pt  Pt24  1  0.163893  0.455079  0.546380  1
  Pt  Pt25  1  0.966621  0.862045  0.250006  1
  Pt  Pt26  1  0.704111  0.130928  0.250012  1
  Pt  Pt27  1  0.836234  0.544785  0.046355  1
  Pt  Pt28  1  0.336350  0.955243  0.046360  1
  Pt  Pt29  1  0.163791  0.455239  0.953743  1
  Pt  Pt30  1  0.663675  0.044592  0.546388  1
  Pt  Pt31  1  0.336249  0.955165  0.453720  1
  Pt  Pt32  1  0.836054  0.545006  0.453656  1
  Pt  Pt33  1  0.795966  0.630557  0.749937  1
  Pt  Pt34  1  0.203783  0.369201  0.250129  1
  Pt  Pt35  1  0.663651  0.044745  0.953671  1
