# generated using pymatgen
data_YHo(Al3Rh)3
_symmetry_space_group_name_H-M   'P 1'
_cell_length_a   7.55426818
_cell_length_b   7.55164521
_cell_length_c   9.47196500
_cell_angle_alpha   89.99975786
_cell_angle_beta   90.00035588
_cell_angle_gamma   119.35552685
_symmetry_Int_Tables_number   1
_chemical_formula_structural   YHo(Al3Rh)3
_chemical_formula_sum   'Y2 Ho2 Al18 Rh6'
_cell_volume   470.96494926
_cell_formula_units_Z   2
loop_
 _symmetry_equiv_pos_site_id
 _symmetry_equiv_pos_as_xyz
  1  'x, y, z'
loop_
 _atom_site_type_symbol
 _atom_site_label
 _atom_site_symmetry_multiplicity
 _atom_site_fract_x
 _atom_site_fract_y
 _atom_site_fract_z
 _atom_site_occupancy
  Y  Y0  1  0.670443  0.994642  0.250028  1
  Y  Y1  1  0.329557  0.005358  0.749972  1
  Ho  Ho2  1  0.994660  0.670375  0.250011  1
  Ho  Ho3  1  0.005340  0.329625  0.749989  1
  Al  Al4  1  0.127440  0.127156  0.250019  1
  Al  Al5  1  0.872560  0.872844  0.749981  1
  Al  Al6  1  0.001240  0.335397  0.073845  1
  Al  Al7  1  0.998760  0.664603  0.926155  1
  Al  Al8  1  0.998789  0.664578  0.573780  1
  Al  Al9  1  0.334828  0.000918  0.425912  1
  Al  Al10  1  0.001211  0.335422  0.426220  1
  Al  Al11  1  0.665172  0.999082  0.574088  1
  Al  Al12  1  0.665187  0.999048  0.925853  1
  Al  Al13  1  0.334813  0.000952  0.074147  1
  Al  Al14  1  0.333125  0.333379  0.551180  1
  Al  Al15  1  0.666875  0.666621  0.448820  1
  Al  Al16  1  0.666802  0.666551  0.051194  1
  Al  Al17  1  0.333198  0.333449  0.948806  1
  Al  Al18  1  0.338122  0.548527  0.250024  1
  Al  Al19  1  0.661878  0.451473  0.749976  1
  Al  Al20  1  0.548938  0.338925  0.250024  1
  Al  Al21  1  0.451062  0.661075  0.749976  1
  Rh  Rh22  1  0.672160  0.328104  0.999995  1
  Rh  Rh23  1  0.327840  0.671896  0.000005  1
  Rh  Rh24  1  0.327863  0.671884  0.499998  1
  Rh  Rh25  1  0.672137  0.328116  0.500002  1
  Rh  Rh26  1  0.000000  0.000000  0.000000  1
  Rh  Rh27  1  0.000000  0.000000  0.500000  1
