# generated using pymatgen
data_La6ThRh3
_symmetry_space_group_name_H-M   'P 1'
_cell_length_a   10.25119700
_cell_length_b   10.25119860
_cell_length_c   6.52931200
_cell_angle_alpha   90.00000000
_cell_angle_beta   90.00000000
_cell_angle_gamma   120.00000453
_symmetry_Int_Tables_number   1
_chemical_formula_structural   La6ThRh3
_chemical_formula_sum   'La12 Th2 Rh6'
_cell_volume   594.21999360
_cell_formula_units_Z   2
loop_
 _symmetry_equiv_pos_site_id
 _symmetry_equiv_pos_as_xyz
  1  'x, y, z'
loop_
 _atom_site_type_symbol
 _atom_site_label
 _atom_site_symmetry_multiplicity
 _atom_site_fract_x
 _atom_site_fract_y
 _atom_site_fract_z
 _atom_site_occupancy
  La  La0  1  0.873360  0.746719  0.768521  1
  La  La1  1  0.253281  0.126640  0.768521  1
  La  La2  1  0.873360  0.126640  0.768521  1
  La  La3  1  0.126640  0.253281  0.268521  1
  La  La4  1  0.746719  0.873360  0.268521  1
  La  La5  1  0.126640  0.873360  0.268521  1
  La  La6  1  0.459538  0.919077  0.591554  1
  La  La7  1  0.080923  0.540462  0.591554  1
  La  La8  1  0.459538  0.540462  0.591554  1
  La  La9  1  0.540462  0.080923  0.091554  1
  La  La10  1  0.919077  0.459538  0.091554  1
  La  La11  1  0.540462  0.459538  0.091554  1
  Th  Th12  1  0.666667  0.333333  0.559674  1
  Th  Th13  1  0.333333  0.666667  0.059674  1
  Rh  Rh14  1  0.193092  0.386183  0.855875  1
  Rh  Rh15  1  0.613817  0.806908  0.855875  1
  Rh  Rh16  1  0.193092  0.806908  0.855875  1
  Rh  Rh17  1  0.806908  0.613817  0.355875  1
  Rh  Rh18  1  0.386183  0.193092  0.355875  1
  Rh  Rh19  1  0.806908  0.193092  0.355875  1
