# generated using pymatgen
data_ErTm(In2Cl5)2
_symmetry_space_group_name_H-M   'P 1'
_cell_length_a   8.33389900
_cell_length_b   8.52152200
_cell_length_c   13.02212300
_cell_angle_alpha   90.00000000
_cell_angle_beta   90.00000000
_cell_angle_gamma   90.00000000
_symmetry_Int_Tables_number   1
_chemical_formula_structural   ErTm(In2Cl5)2
_chemical_formula_sum   'Er2 Tm2 In8 Cl20'
_cell_volume   924.79866800
_cell_formula_units_Z   2
loop_
 _symmetry_equiv_pos_site_id
 _symmetry_equiv_pos_as_xyz
  1  'x, y, z'
loop_
 _atom_site_type_symbol
 _atom_site_label
 _atom_site_symmetry_multiplicity
 _atom_site_fract_x
 _atom_site_fract_y
 _atom_site_fract_z
 _atom_site_occupancy
  Er  Er0  1  0.072373  0.250000  0.495869  1
  Er  Er1  1  0.427627  0.250000  0.995869  1
  Tm  Tm2  1  0.927508  0.750000  0.504104  1
  Tm  Tm3  1  0.572492  0.750000  0.004104  1
  In  In4  1  0.937912  0.005281  0.827830  1
  In  In5  1  0.064204  0.994813  0.171886  1
  In  In6  1  0.562088  0.494719  0.327830  1
  In  In7  1  0.064204  0.505187  0.171886  1
  In  In8  1  0.937912  0.494719  0.827830  1
  In  In9  1  0.435796  0.505187  0.671886  1
  In  In10  1  0.562088  0.005281  0.327830  1
  In  In11  1  0.435796  0.994813  0.671886  1
  Cl  Cl12  1  0.600729  0.750000  0.509750  1
  Cl  Cl13  1  0.159681  0.953262  0.435486  1
  Cl  Cl14  1  0.840047  0.045885  0.565092  1
  Cl  Cl15  1  0.340319  0.546738  0.935486  1
  Cl  Cl16  1  0.159681  0.546738  0.435486  1
  Cl  Cl17  1  0.349369  0.250000  0.194054  1
  Cl  Cl18  1  0.340319  0.953262  0.935486  1
  Cl  Cl19  1  0.840047  0.454115  0.565092  1
  Cl  Cl20  1  0.408852  0.750000  0.179945  1
  Cl  Cl21  1  0.659953  0.045885  0.065092  1
  Cl  Cl22  1  0.150631  0.250000  0.694054  1
  Cl  Cl23  1  0.589408  0.250000  0.819672  1
  Cl  Cl24  1  0.398891  0.250000  0.489608  1
  Cl  Cl25  1  0.091148  0.750000  0.679945  1
  Cl  Cl26  1  0.659953  0.454115  0.065092  1
  Cl  Cl27  1  0.101109  0.250000  0.989608  1
  Cl  Cl28  1  0.899271  0.750000  0.009750  1
  Cl  Cl29  1  0.849948  0.750000  0.306410  1
  Cl  Cl30  1  0.650052  0.750000  0.806410  1
  Cl  Cl31  1  0.910592  0.250000  0.319672  1
