# generated using pymatgen
data_Hf12UTi3Mn8
_symmetry_space_group_name_H-M   'P 1'
_cell_length_a   8.34763886
_cell_length_b   8.34763788
_cell_length_c   8.34763790
_cell_angle_alpha   60.52562181
_cell_angle_beta   60.52562433
_cell_angle_gamma   60.52562216
_symmetry_Int_Tables_number   1
_chemical_formula_structural   Hf12UTi3Mn8
_chemical_formula_sum   'Hf12 U1 Ti3 Mn8'
_cell_volume   416.20145509
_cell_formula_units_Z   1
loop_
 _symmetry_equiv_pos_site_id
 _symmetry_equiv_pos_as_xyz
  1  'x, y, z'
loop_
 _atom_site_type_symbol
 _atom_site_label
 _atom_site_symmetry_multiplicity
 _atom_site_fract_x
 _atom_site_fract_y
 _atom_site_fract_z
 _atom_site_occupancy
  Hf  Hf0  1  0.441096  0.814590  0.814590  1
  Hf  Hf1  1  0.816823  0.432724  0.432724  1
  Hf  Hf2  1  0.814590  0.441096  0.814590  1
  Hf  Hf3  1  0.432724  0.816823  0.432724  1
  Hf  Hf4  1  0.814590  0.814590  0.441096  1
  Hf  Hf5  1  0.432724  0.432724  0.816823  1
  Hf  Hf6  1  0.558904  0.185410  0.185410  1
  Hf  Hf7  1  0.183177  0.567276  0.567276  1
  Hf  Hf8  1  0.185410  0.558904  0.185410  1
  Hf  Hf9  1  0.567276  0.183177  0.567276  1
  Hf  Hf10  1  0.185410  0.185410  0.558904  1
  Hf  Hf11  1  0.567276  0.567276  0.183177  1
  U  U12  1  0.000000  0.000000  0.000000  1
  Ti  Ti13  1  0.000000  0.000000  0.500000  1
  Ti  Ti14  1  0.000000  0.500000  0.000000  1
  Ti  Ti15  1  0.500000  0.000000  0.000000  1
  Mn  Mn16  1  0.203298  0.203298  0.880905  1
  Mn  Mn17  1  0.203298  0.880905  0.203298  1
  Mn  Mn18  1  0.880905  0.203298  0.203298  1
  Mn  Mn19  1  0.208338  0.208338  0.208338  1
  Mn  Mn20  1  0.796702  0.796702  0.119095  1
  Mn  Mn21  1  0.796702  0.119095  0.796702  1
  Mn  Mn22  1  0.119095  0.796702  0.796702  1
  Mn  Mn23  1  0.791662  0.791662  0.791662  1
