# generated using pymatgen
data_HoUS6
_symmetry_space_group_name_H-M   'P 1'
_cell_length_a   3.93271500
_cell_length_b   5.39698806
_cell_length_c   9.46013710
_cell_angle_alpha   82.70967501
_cell_angle_beta   90.00000000
_cell_angle_gamma   90.00000000
_symmetry_Int_Tables_number   1
_chemical_formula_structural   HoUS6
_chemical_formula_sum   'Ho1 U1 S6'
_cell_volume   199.16646160
_cell_formula_units_Z   1
loop_
 _symmetry_equiv_pos_site_id
 _symmetry_equiv_pos_as_xyz
  1  'x, y, z'
loop_
 _atom_site_type_symbol
 _atom_site_label
 _atom_site_symmetry_multiplicity
 _atom_site_fract_x
 _atom_site_fract_y
 _atom_site_fract_z
 _atom_site_occupancy
  Ho  Ho0  1  0.250000  0.717334  0.147075  1
  U  U1  1  0.750000  0.279800  0.865368  1
  S  S2  1  0.250000  0.129039  0.691113  1
  S  S3  1  0.750000  0.873440  0.314141  1
  S  S4  1  0.750000  0.486431  0.313980  1
  S  S5  1  0.250000  0.508817  0.691493  1
  S  S6  1  0.750000  0.767115  0.923004  1
  S  S7  1  0.250000  0.238025  0.053826  1
