# generated using pymatgen
data_Ho20Ir3Rh8Au
_symmetry_space_group_name_H-M   'P 1'
_cell_length_a   10.92741774
_cell_length_b   10.92741906
_cell_length_c   6.33292206
_cell_angle_alpha   89.96211395
_cell_angle_beta   89.96211827
_cell_angle_gamma   89.76598877
_symmetry_Int_Tables_number   1
_chemical_formula_structural   Ho20Ir3Rh8Au
_chemical_formula_sum   'Ho20 Ir3 Rh8 Au1'
_cell_volume   756.19791616
_cell_formula_units_Z   1
loop_
 _symmetry_equiv_pos_site_id
 _symmetry_equiv_pos_as_xyz
  1  'x, y, z'
loop_
 _atom_site_type_symbol
 _atom_site_label
 _atom_site_symmetry_multiplicity
 _atom_site_fract_x
 _atom_site_fract_y
 _atom_site_fract_z
 _atom_site_occupancy
  Ho  Ho0  1  0.289302  0.087250  0.376130  1
  Ho  Ho1  1  0.292154  0.908710  0.877161  1
  Ho  Ho2  1  0.704123  0.086475  0.866607  1
  Ho  Ho3  1  0.705896  0.905145  0.380022  1
  Ho  Ho4  1  0.586995  0.789953  0.878805  1
  Ho  Ho5  1  0.581396  0.210721  0.379564  1
  Ho  Ho6  1  0.408574  0.790161  0.379632  1
  Ho  Ho7  1  0.410817  0.209086  0.877607  1
  Ho  Ho8  1  0.210047  0.413005  0.621195  1
  Ho  Ho9  1  0.209839  0.591426  0.120368  1
  Ho  Ho10  1  0.789279  0.418604  0.120436  1
  Ho  Ho11  1  0.790914  0.589183  0.622393  1
  Ho  Ho12  1  0.912750  0.710698  0.123870  1
  Ho  Ho13  1  0.913525  0.295877  0.633393  1
  Ho  Ho14  1  0.091290  0.707846  0.622839  1
  Ho  Ho15  1  0.094855  0.294104  0.119978  1
  Ho  Ho16  1  0.003162  0.995648  0.501669  1
  Ho  Ho17  1  0.004352  0.996838  0.998331  1
  Ho  Ho18  1  0.498890  0.499067  0.999409  1
  Ho  Ho19  1  0.500933  0.501110  0.500591  1
  Ir  Ir20  1  0.155138  0.844862  0.250000  1
  Ir  Ir21  1  0.655351  0.344649  0.750000  1
  Ir  Ir22  1  0.346471  0.653529  0.750000  1
  Rh  Rh23  1  0.845278  0.847119  0.749127  1
  Rh  Rh24  1  0.152881  0.154722  0.750873  1
  Rh  Rh25  1  0.655281  0.653705  0.248335  1
  Rh  Rh26  1  0.346295  0.344719  0.251665  1
  Rh  Rh27  1  0.500597  0.999953  0.125459  1
  Rh  Rh28  1  0.499976  0.000666  0.621644  1
  Rh  Rh29  1  0.999334  0.500024  0.878356  1
  Rh  Rh30  1  0.000047  0.499403  0.374541  1
  Au  Au31  1  0.844257  0.155743  0.250000  1
