# generated using pymatgen
data_CePr3(C2Cl)2
_symmetry_space_group_name_H-M   'P 1'
_cell_length_a   7.67108778
_cell_length_b   7.66104480
_cell_length_c   6.67211848
_cell_angle_alpha   78.81793065
_cell_angle_beta   78.69984182
_cell_angle_gamma   31.63311395
_symmetry_Int_Tables_number   1
_chemical_formula_structural   CePr3(C2Cl)2
_chemical_formula_sum   'Ce1 Pr3 C4 Cl2'
_cell_volume   201.38671234
_cell_formula_units_Z   1
loop_
 _symmetry_equiv_pos_site_id
 _symmetry_equiv_pos_as_xyz
  1  'x, y, z'
loop_
 _atom_site_type_symbol
 _atom_site_label
 _atom_site_symmetry_multiplicity
 _atom_site_fract_x
 _atom_site_fract_y
 _atom_site_fract_z
 _atom_site_occupancy
  Ce  Ce0  1  0.464670  0.844023  0.849049  1
  Pr  Pr1  1  0.844769  0.452199  0.351741  1
  Pr  Pr2  1  0.537721  0.158488  0.149390  1
  Pr  Pr3  1  0.156347  0.546011  0.648155  1
  C  C4  1  0.356598  0.082496  0.478091  1
  C  C5  1  0.911403  0.642332  0.023460  1
  C  C6  1  0.639758  0.916168  0.529852  1
  C  C7  1  0.089300  0.351593  0.970420  1
  Cl  Cl8  1  0.215362  0.786055  0.246596  1
  Cl  Cl9  1  0.784072  0.220634  0.753248  1
