# generated using pymatgen
data_Sc6Ga7PPd16
_symmetry_space_group_name_H-M   'P 1'
_cell_length_a   8.82088432
_cell_length_b   8.82089251
_cell_length_c   8.82089300
_cell_angle_alpha   60.00003193
_cell_angle_beta   60.00000121
_cell_angle_gamma   59.99992110
_symmetry_Int_Tables_number   1
_chemical_formula_structural   Sc6Ga7PPd16
_chemical_formula_sum   'Sc6 Ga7 P1 Pd16'
_cell_volume   485.31315414
_cell_formula_units_Z   1
loop_
 _symmetry_equiv_pos_site_id
 _symmetry_equiv_pos_as_xyz
  1  'x, y, z'
loop_
 _atom_site_type_symbol
 _atom_site_label
 _atom_site_symmetry_multiplicity
 _atom_site_fract_x
 _atom_site_fract_y
 _atom_site_fract_z
 _atom_site_occupancy
  Sc  Sc0  1  0.710216  0.289784  0.289783  1
  Sc  Sc1  1  0.289784  0.710216  0.710217  1
  Sc  Sc2  1  0.289784  0.710216  0.289784  1
  Sc  Sc3  1  0.710216  0.289784  0.710216  1
  Sc  Sc4  1  0.289783  0.289783  0.710216  1
  Sc  Sc5  1  0.710217  0.710217  0.289784  1
  Ga  Ga6  1  0.000000  0.000000  0.000000  1
  Ga  Ga7  1  0.500000  0.000000  0.000000  1
  Ga  Ga8  1  0.000000  0.500000  0.500000  1
  Ga  Ga9  1  0.000000  0.500000  0.000000  1
  Ga  Ga10  1  0.500000  0.000000  0.500000  1
  Ga  Ga11  1  0.000000  0.000000  0.500000  1
  Ga  Ga12  1  0.500000  0.500000  0.000000  1
  P  P13  1  0.500000  0.500000  0.500000  1
  Pd  Pd14  1  0.118125  0.118125  0.118125  1
  Pd  Pd15  1  0.881875  0.881875  0.881875  1
  Pd  Pd16  1  0.118125  0.118125  0.645624  1
  Pd  Pd17  1  0.118125  0.645624  0.118125  1
  Pd  Pd18  1  0.881875  0.881875  0.354376  1
  Pd  Pd19  1  0.881875  0.354376  0.881875  1
  Pd  Pd20  1  0.645624  0.118125  0.118126  1
  Pd  Pd21  1  0.354376  0.881875  0.881874  1
  Pd  Pd22  1  0.336472  0.336472  0.336472  1
  Pd  Pd23  1  0.663528  0.663528  0.663528  1
  Pd  Pd24  1  0.336472  0.336472  0.990583  1
  Pd  Pd25  1  0.336472  0.990583  0.336472  1
  Pd  Pd26  1  0.663528  0.663528  0.009417  1
  Pd  Pd27  1  0.663528  0.009417  0.663528  1
  Pd  Pd28  1  0.990584  0.336472  0.336472  1
  Pd  Pd29  1  0.009416  0.663528  0.663528  1
