# generated using pymatgen
data_Tb5Nb3Fe6(Co5P6)2
_symmetry_space_group_name_H-M   'P 1'
_cell_length_a   12.18716500
_cell_length_b   12.18716519
_cell_length_c   3.73082700
_cell_angle_alpha   90.00000000
_cell_angle_beta   90.00000000
_cell_angle_gamma   119.99999677
_symmetry_Int_Tables_number   1
_chemical_formula_structural   Tb5Nb3Fe6(Co5P6)2
_chemical_formula_sum   'Tb5 Nb3 Fe6 Co10 P12'
_cell_volume   479.88938744
_cell_formula_units_Z   1
loop_
 _symmetry_equiv_pos_site_id
 _symmetry_equiv_pos_as_xyz
  1  'x, y, z'
loop_
 _atom_site_type_symbol
 _atom_site_label
 _atom_site_symmetry_multiplicity
 _atom_site_fract_x
 _atom_site_fract_y
 _atom_site_fract_z
 _atom_site_occupancy
  Tb  Tb0  1  0.816808  0.000451  0.500000  1
  Tb  Tb1  1  0.999549  0.816358  0.500000  1
  Tb  Tb2  1  0.183642  0.183192  0.500000  1
  Tb  Tb3  1  0.333333  0.666667  0.000000  1
  Tb  Tb4  1  0.666667  0.333333  0.000000  1
  Nb  Nb5  1  0.439553  0.999774  0.000000  1
  Nb  Nb6  1  0.000226  0.439779  0.000000  1
  Nb  Nb7  1  0.560221  0.560447  0.000000  1
  Fe  Fe8  1  0.281900  0.002205  0.500000  1
  Fe  Fe9  1  0.997795  0.279695  0.500000  1
  Fe  Fe10  1  0.720305  0.718100  0.500000  1
  Fe  Fe11  1  0.623031  0.803259  0.000000  1
  Fe  Fe12  1  0.196741  0.819772  0.000000  1
  Fe  Fe13  1  0.180228  0.376969  0.000000  1
  Co  Co14  1  0.376318  0.181409  0.000000  1
  Co  Co15  1  0.805091  0.623682  0.000000  1
  Co  Co16  1  0.818591  0.194909  0.000000  1
  Co  Co17  1  0.518586  0.877095  0.500000  1
  Co  Co18  1  0.122905  0.641491  0.500000  1
  Co  Co19  1  0.358509  0.481414  0.500000  1
  Co  Co20  1  0.482249  0.356846  0.500000  1
  Co  Co21  1  0.874597  0.517751  0.500000  1
  Co  Co22  1  0.643154  0.125403  0.500000  1
  Co  Co23  1  0.000000  0.000000  0.000000  1
  P  P24  1  0.181796  0.998385  0.000000  1
  P  P25  1  0.001615  0.183412  0.000000  1
  P  P26  1  0.816588  0.818204  0.000000  1
  P  P27  1  0.525189  0.694276  0.500000  1
  P  P28  1  0.305724  0.830913  0.500000  1
  P  P29  1  0.169087  0.474811  0.500000  1
  P  P30  1  0.477129  0.168896  0.500000  1
  P  P31  1  0.691767  0.522871  0.500000  1
  P  P32  1  0.831104  0.308233  0.500000  1
  P  P33  1  0.642715  0.998071  0.000000  1
  P  P34  1  0.001929  0.644645  0.000000  1
  P  P35  1  0.355355  0.357285  0.000000  1
