# generated using pymatgen
data_LaYb7(YIr2)2
_symmetry_space_group_name_H-M   'P 1'
_cell_length_a   6.57483690
_cell_length_b   7.38769977
_cell_length_c   8.59542878
_cell_angle_alpha   97.00210480
_cell_angle_beta   112.83005229
_cell_angle_gamma   90.28085888
_symmetry_Int_Tables_number   1
_chemical_formula_structural   LaYb7(YIr2)2
_chemical_formula_sum   'La1 Yb7 Y2 Ir4'
_cell_volume   381.30535232
_cell_formula_units_Z   1
loop_
 _symmetry_equiv_pos_site_id
 _symmetry_equiv_pos_as_xyz
  1  'x, y, z'
loop_
 _atom_site_type_symbol
 _atom_site_label
 _atom_site_symmetry_multiplicity
 _atom_site_fract_x
 _atom_site_fract_y
 _atom_site_fract_z
 _atom_site_occupancy
  La  La0  1  0.980765  0.917494  0.174339  1
  Yb  Yb1  1  0.799220  0.577029  0.822250  1
  Yb  Yb2  1  0.021780  0.081270  0.819774  1
  Yb  Yb3  1  0.193486  0.419082  0.169858  1
  Yb  Yb4  1  0.637742  0.819589  0.434818  1
  Yb  Yb5  1  0.205593  0.677611  0.566872  1
  Yb  Yb6  1  0.366120  0.181958  0.569661  1
  Yb  Yb7  1  0.798124  0.320187  0.434832  1
  Y  Y8  1  0.430259  0.747889  0.996526  1
  Y  Y9  1  0.562684  0.251684  0.001410  1
  Ir  Ir10  1  0.817716  0.583297  0.212955  1
  Ir  Ir11  1  0.609797  0.925315  0.797314  1
  Ir  Ir12  1  0.184451  0.422895  0.786497  1
  Ir  Ir13  1  0.392263  0.074699  0.212892  1
