# generated using pymatgen
data_La3Tc4SbF28
_symmetry_space_group_name_H-M   'P 1'
_cell_length_a   5.81482301
_cell_length_b   9.31543800
_cell_length_c   12.48556200
_cell_angle_alpha   62.07996276
_cell_angle_beta   90.00260130
_cell_angle_gamma   90.00558497
_symmetry_Int_Tables_number   1
_chemical_formula_structural   La3Tc4SbF28
_chemical_formula_sum   'La3 Tc4 Sb1 F28'
_cell_volume   597.59166421
_cell_formula_units_Z   1
loop_
 _symmetry_equiv_pos_site_id
 _symmetry_equiv_pos_as_xyz
  1  'x, y, z'
loop_
 _atom_site_type_symbol
 _atom_site_label
 _atom_site_symmetry_multiplicity
 _atom_site_fract_x
 _atom_site_fract_y
 _atom_site_fract_z
 _atom_site_occupancy
  La  La0  1  0.259091  0.192711  0.237035  1
  La  La1  1  0.241744  0.189429  0.733892  1
  La  La2  1  0.742760  0.810165  0.764240  1
  Tc  Tc3  1  0.241794  0.726766  0.539024  1
  Tc  Tc4  1  0.744868  0.270829  0.959809  1
  Tc  Tc5  1  0.756493  0.276769  0.455755  1
  Tc  Tc6  1  0.257994  0.727313  0.046138  1
  Sb  Sb7  1  0.772057  0.827870  0.256572  1
  F  F8  1  0.961849  0.722431  0.449178  1
  F  F9  1  0.466950  0.279494  0.047939  1
  F  F10  1  0.034460  0.285971  0.542233  1
  F  F11  1  0.532198  0.714922  0.957317  1
  F  F12  1  0.055482  0.709553  0.925729  1
  F  F13  1  0.556963  0.291900  0.576644  1
  F  F14  1  0.944442  0.287675  0.080324  1
  F  F15  1  0.441043  0.710256  0.421409  1
  F  F16  1  0.736157  0.506748  0.863501  1
  F  F17  1  0.233312  0.488884  0.636634  1
  F  F18  1  0.263507  0.486786  0.141184  1
  F  F19  1  0.763191  0.509616  0.360968  1
  F  F20  1  0.742577  0.029190  0.058183  1
  F  F21  1  0.242234  0.966166  0.443708  1
  F  F22  1  0.260137  0.964491  0.950712  1
  F  F23  1  0.759586  0.037242  0.550869  1
  F  F24  1  0.044625  0.743155  0.663169  1
  F  F25  1  0.550218  0.254275  0.837389  1
  F  F26  1  0.951543  0.257404  0.332224  1
  F  F27  1  0.453810  0.746858  0.166372  1
  F  F28  1  0.014673  0.265735  0.868260  1
  F  F29  1  0.510159  0.731665  0.633833  1
  F  F30  1  0.986864  0.736105  0.137775  1
  F  F31  1  0.486177  0.266738  0.362821  1
  F  F32  1  0.063816  0.967305  0.231173  1
  F  F33  1  0.602254  0.016580  0.268151  1
  F  F34  1  0.912333  0.031873  0.768755  1
  F  F35  1  0.412640  0.969125  0.731077  1
