# generated using pymatgen
data_Rb4YbBr6
_symmetry_space_group_name_H-M   'P 1'
_cell_length_a   9.57836640
_cell_length_b   9.57836685
_cell_length_c   9.57836572
_cell_angle_alpha   89.48863188
_cell_angle_beta   89.48863080
_cell_angle_gamma   89.48862848
_symmetry_Int_Tables_number   1
_chemical_formula_structural   Rb4YbBr6
_chemical_formula_sum   'Rb8 Yb2 Br12'
_cell_volume   878.66381061
_cell_formula_units_Z   2
loop_
 _symmetry_equiv_pos_site_id
 _symmetry_equiv_pos_as_xyz
  1  'x, y, z'
loop_
 _atom_site_type_symbol
 _atom_site_label
 _atom_site_symmetry_multiplicity
 _atom_site_fract_x
 _atom_site_fract_y
 _atom_site_fract_z
 _atom_site_occupancy
  Rb  Rb0  1  0.250000  0.250000  0.250000  1
  Rb  Rb1  1  0.750000  0.750000  0.750000  1
  Rb  Rb2  1  0.871309  0.628691  0.250000  1
  Rb  Rb3  1  0.628691  0.250000  0.871309  1
  Rb  Rb4  1  0.250000  0.871309  0.628691  1
  Rb  Rb5  1  0.128691  0.371309  0.750000  1
  Rb  Rb6  1  0.371309  0.750000  0.128691  1
  Rb  Rb7  1  0.750000  0.128691  0.371309  1
  Yb  Yb8  1  0.000000  0.000000  0.000000  1
  Yb  Yb9  1  0.500000  0.500000  0.500000  1
  Br  Br10  1  0.210226  0.557137  0.431089  1
  Br  Br11  1  0.057137  0.710226  0.931089  1
  Br  Br12  1  0.931089  0.057137  0.710226  1
  Br  Br13  1  0.789774  0.442863  0.568911  1
  Br  Br14  1  0.710226  0.931089  0.057137  1
  Br  Br15  1  0.442863  0.568911  0.789774  1
  Br  Br16  1  0.568911  0.789774  0.442863  1
  Br  Br17  1  0.557137  0.431089  0.210226  1
  Br  Br18  1  0.068911  0.942863  0.289774  1
  Br  Br19  1  0.942863  0.289774  0.068911  1
  Br  Br20  1  0.289774  0.068911  0.942863  1
  Br  Br21  1  0.431089  0.210226  0.557137  1
