# generated using pymatgen
data_Tm12Mn2In2Ru
_symmetry_space_group_name_H-M   'P 1'
_cell_length_a   8.27157155
_cell_length_b   8.27157123
_cell_length_c   8.27157145
_cell_angle_alpha   108.61322943
_cell_angle_beta   108.61322483
_cell_angle_gamma   111.20118418
_symmetry_Int_Tables_number   1
_chemical_formula_structural   Tm12Mn2In2Ru
_chemical_formula_sum   'Tm12 Mn2 In2 Ru1'
_cell_volume   435.35557777
_cell_formula_units_Z   1
loop_
 _symmetry_equiv_pos_site_id
 _symmetry_equiv_pos_as_xyz
  1  'x, y, z'
loop_
 _atom_site_type_symbol
 _atom_site_label
 _atom_site_symmetry_multiplicity
 _atom_site_fract_x
 _atom_site_fract_y
 _atom_site_fract_z
 _atom_site_occupancy
  Tm  Tm0  1  0.192860  0.431229  0.238369  1
  Tm  Tm1  1  0.807140  0.568771  0.761631  1
  Tm  Tm2  1  0.192860  0.954492  0.761631  1
  Tm  Tm3  1  0.954492  0.192860  0.761631  1
  Tm  Tm4  1  0.807140  0.045508  0.238369  1
  Tm  Tm5  1  0.045508  0.807140  0.238369  1
  Tm  Tm6  1  0.431229  0.192860  0.238369  1
  Tm  Tm7  1  0.568771  0.807140  0.761631  1
  Tm  Tm8  1  0.307713  0.307713  0.615427  1
  Tm  Tm9  1  0.692287  0.692287  0.384573  1
  Tm  Tm10  1  0.692287  0.307713  0.000000  1
  Tm  Tm11  1  0.307713  0.692287  0.000000  1
  Mn  Mn12  1  0.385113  0.385113  0.000000  1
  Mn  Mn13  1  0.614887  0.614887  0.000000  1
  In  In14  1  0.000000  0.500000  0.500000  1
  In  In15  1  0.500000  0.000000  0.500000  1
  Ru  Ru16  1  0.000000  0.000000  0.000000  1
