# generated using pymatgen
data_Sm2ZnGa3Au2
_symmetry_space_group_name_H-M   'P 1'
_cell_length_a   5.67287388
_cell_length_b   5.67287161
_cell_length_c   6.70577559
_cell_angle_alpha   89.78689132
_cell_angle_beta   90.21310991
_cell_angle_gamma   132.19026269
_symmetry_Int_Tables_number   1
_chemical_formula_structural   Sm2ZnGa3Au2
_chemical_formula_sum   'Sm2 Zn1 Ga3 Au2'
_cell_volume   159.89028841
_cell_formula_units_Z   1
loop_
 _symmetry_equiv_pos_site_id
 _symmetry_equiv_pos_as_xyz
  1  'x, y, z'
loop_
 _atom_site_type_symbol
 _atom_site_label
 _atom_site_symmetry_multiplicity
 _atom_site_fract_x
 _atom_site_fract_y
 _atom_site_fract_z
 _atom_site_occupancy
  Sm  Sm0  1  0.595814  0.404187  0.249543  1
  Sm  Sm1  1  0.405060  0.594941  0.750657  1
  Zn  Zn2  1  0.878832  0.121169  0.055261  1
  Ga  Ga3  1  0.878859  0.121142  0.443627  1
  Ga  Ga4  1  0.119785  0.880216  0.552647  1
  Ga  Ga5  1  0.120452  0.879549  0.947768  1
  Au  Au6  1  0.300847  0.699155  0.251978  1
  Au  Au7  1  0.700357  0.299645  0.748521  1
