# generated using pymatgen
data_DyLu3(Ga3Pt)2
_symmetry_space_group_name_H-M   'P 1'
_cell_length_a   8.81736501
_cell_length_b   8.81736593
_cell_length_c   6.93504300
_cell_angle_alpha   90.00000000
_cell_angle_beta   90.00000000
_cell_angle_gamma   120.00498246
_symmetry_Int_Tables_number   1
_chemical_formula_structural   DyLu3(Ga3Pt)2
_chemical_formula_sum   'Dy2 Lu6 Ga12 Pt4'
_cell_volume   466.91267915
_cell_formula_units_Z   2
loop_
 _symmetry_equiv_pos_site_id
 _symmetry_equiv_pos_as_xyz
  1  'x, y, z'
loop_
 _atom_site_type_symbol
 _atom_site_label
 _atom_site_symmetry_multiplicity
 _atom_site_fract_x
 _atom_site_fract_y
 _atom_site_fract_z
 _atom_site_occupancy
  Dy  Dy0  1  0.000132  0.999868  0.250000  1
  Dy  Dy1  1  0.999868  0.000132  0.750000  1
  Lu  Lu2  1  0.520561  0.041219  0.250000  1
  Lu  Lu3  1  0.520438  0.479562  0.250000  1
  Lu  Lu4  1  0.958781  0.479439  0.250000  1
  Lu  Lu5  1  0.479439  0.958781  0.750000  1
  Lu  Lu6  1  0.479562  0.520438  0.750000  1
  Lu  Lu7  1  0.041219  0.520561  0.750000  1
  Ga  Ga8  1  0.167371  0.334881  0.046876  1
  Ga  Ga9  1  0.167565  0.832435  0.453134  1
  Ga  Ga10  1  0.665119  0.832629  0.453124  1
  Ga  Ga11  1  0.665119  0.832629  0.046876  1
  Ga  Ga12  1  0.167565  0.832435  0.046866  1
  Ga  Ga13  1  0.832629  0.665119  0.953124  1
  Ga  Ga14  1  0.832435  0.167565  0.953134  1
  Ga  Ga15  1  0.334881  0.167371  0.953124  1
  Ga  Ga16  1  0.167371  0.334881  0.453124  1
  Ga  Ga17  1  0.334881  0.167371  0.546876  1
  Ga  Ga18  1  0.832629  0.665119  0.546876  1
  Ga  Ga19  1  0.832435  0.167565  0.546866  1
  Pt  Pt20  1  0.333362  0.666638  0.027545  1
  Pt  Pt21  1  0.333362  0.666638  0.472455  1
  Pt  Pt22  1  0.666638  0.333362  0.972455  1
  Pt  Pt23  1  0.666638  0.333362  0.527545  1
