# generated using pymatgen
data_La3PrCu4(Si2Sn)2
_symmetry_space_group_name_H-M   'P 1'
_cell_length_a   9.60102203
_cell_length_b   9.60101996
_cell_length_c   6.79544300
_cell_angle_alpha   90.00000000
_cell_angle_beta   90.00000000
_cell_angle_gamma   152.36577451
_symmetry_Int_Tables_number   1
_chemical_formula_structural   La3PrCu4(Si2Sn)2
_chemical_formula_sum   'La3 Pr1 Cu4 Si4 Sn2'
_cell_volume   290.54076074
_cell_formula_units_Z   1
loop_
 _symmetry_equiv_pos_site_id
 _symmetry_equiv_pos_as_xyz
  1  'x, y, z'
loop_
 _atom_site_type_symbol
 _atom_site_label
 _atom_site_symmetry_multiplicity
 _atom_site_fract_x
 _atom_site_fract_y
 _atom_site_fract_z
 _atom_site_occupancy
  La  La0  1  0.547703  0.452297  0.250000  1
  La  La1  1  0.452743  0.547257  0.750000  1
  La  La2  1  0.343901  0.656099  0.250000  1
  Pr  Pr3  1  0.655849  0.344151  0.750000  1
  Cu  Cu4  1  0.824424  0.175576  0.564747  1
  Cu  Cu5  1  0.175229  0.824771  0.436113  1
  Cu  Cu6  1  0.175229  0.824771  0.063887  1
  Cu  Cu7  1  0.824424  0.175576  0.935253  1
  Si  Si8  1  0.941987  0.058013  0.073044  1
  Si  Si9  1  0.058578  0.941422  0.926179  1
  Si  Si10  1  0.058578  0.941422  0.573821  1
  Si  Si11  1  0.941987  0.058013  0.426956  1
  Sn  Sn12  1  0.722270  0.277730  0.250000  1
  Sn  Sn13  1  0.277097  0.722903  0.750000  1
