# generated using pymatgen
data_Lu9Mg(ZnTe)4
_symmetry_space_group_name_H-M   'P 1'
_cell_length_a   8.50774460
_cell_length_b   8.50774638
_cell_length_c   7.64539546
_cell_angle_alpha   90.04132533
_cell_angle_beta   90.04132310
_cell_angle_gamma   126.53336623
_symmetry_Int_Tables_number   1
_chemical_formula_structural   Lu9Mg(ZnTe)4
_chemical_formula_sum   'Lu9 Mg1 Zn4 Te4'
_cell_volume   444.65157924
_cell_formula_units_Z   1
loop_
 _symmetry_equiv_pos_site_id
 _symmetry_equiv_pos_as_xyz
  1  'x, y, z'
loop_
 _atom_site_type_symbol
 _atom_site_label
 _atom_site_symmetry_multiplicity
 _atom_site_fract_x
 _atom_site_fract_y
 _atom_site_fract_z
 _atom_site_occupancy
  Lu  Lu0  1  0.500000  0.500000  0.500000  1
  Lu  Lu1  1  0.789365  0.544106  0.161682  1
  Lu  Lu2  1  0.455894  0.210635  0.838318  1
  Lu  Lu3  1  0.960030  0.715119  0.666177  1
  Lu  Lu4  1  0.284881  0.039970  0.333823  1
  Lu  Lu5  1  0.210635  0.455894  0.838318  1
  Lu  Lu6  1  0.544106  0.789365  0.161682  1
  Lu  Lu7  1  0.039970  0.284881  0.333823  1
  Lu  Lu8  1  0.715119  0.960030  0.666177  1
  Mg  Mg9  1  0.000000  0.000000  0.000000  1
  Zn  Zn10  1  0.868671  0.868671  0.375167  1
  Zn  Zn11  1  0.131329  0.131329  0.624833  1
  Zn  Zn12  1  0.627380  0.627380  0.870558  1
  Zn  Zn13  1  0.372620  0.372620  0.129442  1
  Te  Te14  1  0.206525  0.793475  0.000000  1
  Te  Te15  1  0.706884  0.293116  0.500000  1
  Te  Te16  1  0.793475  0.206525  0.000000  1
  Te  Te17  1  0.293116  0.706884  0.500000  1
