# generated using pymatgen
data_Ho2Er13Tm(Ga3Co)2
_symmetry_space_group_name_H-M   'P 1'
_cell_length_a   9.93116204
_cell_length_b   9.93116304
_cell_length_c   6.85691804
_cell_angle_alpha   90.01075389
_cell_angle_beta   89.98924440
_cell_angle_gamma   120.00003427
_symmetry_Int_Tables_number   1
_chemical_formula_structural   Ho2Er13Tm(Ga3Co)2
_chemical_formula_sum   'Ho2 Er13 Tm1 Ga6 Co2'
_cell_volume   585.67894288
_cell_formula_units_Z   1
loop_
 _symmetry_equiv_pos_site_id
 _symmetry_equiv_pos_as_xyz
  1  'x, y, z'
loop_
 _atom_site_type_symbol
 _atom_site_label
 _atom_site_symmetry_multiplicity
 _atom_site_fract_x
 _atom_site_fract_y
 _atom_site_fract_z
 _atom_site_occupancy
  Ho  Ho0  1  0.000042  0.999958  0.269813  1
  Ho  Ho1  1  0.000019  0.999981  0.770116  1
  Er  Er2  1  0.826783  0.173217  0.491332  1
  Er  Er3  1  0.173189  0.346402  0.991307  1
  Er  Er4  1  0.653598  0.826811  0.991307  1
  Er  Er5  1  0.346427  0.173205  0.491319  1
  Er  Er6  1  0.826795  0.653573  0.491319  1
  Er  Er7  1  0.333266  0.666734  0.672282  1
  Er  Er8  1  0.666668  0.333332  0.172150  1
  Er  Er9  1  0.464101  0.535899  0.292950  1
  Er  Er10  1  0.535932  0.464068  0.792927  1
  Er  Er11  1  0.463990  0.928157  0.292824  1
  Er  Er12  1  0.071843  0.536010  0.292824  1
  Er  Er13  1  0.928248  0.464203  0.793010  1
  Er  Er14  1  0.535797  0.071752  0.793010  1
  Tm  Tm15  1  0.173281  0.826719  0.991319  1
  Ga  Ga16  1  0.163571  0.836429  0.540209  1
  Ga  Ga17  1  0.836438  0.163562  0.039994  1
  Ga  Ga18  1  0.163586  0.327165  0.540011  1
  Ga  Ga19  1  0.672835  0.836414  0.540011  1
  Ga  Ga20  1  0.327032  0.163358  0.039965  1
  Ga  Ga21  1  0.836642  0.672968  0.039965  1
  Co  Co22  1  0.333251  0.666749  0.058059  1
  Co  Co23  1  0.666667  0.333333  0.558095  1
