# generated using pymatgen
data_Nd20Ir3Pt5Rh4
_symmetry_space_group_name_H-M   'P 1'
_cell_length_a   11.37068569
_cell_length_b   11.37068569
_cell_length_c   6.57406865
_cell_angle_alpha   89.96344869
_cell_angle_beta   89.96344869
_cell_angle_gamma   89.94961510
_symmetry_Int_Tables_number   1
_chemical_formula_structural   Nd20Ir3Pt5Rh4
_chemical_formula_sum   'Nd20 Ir3 Pt5 Rh4'
_cell_volume   849.97705154
_cell_formula_units_Z   1
loop_
 _symmetry_equiv_pos_site_id
 _symmetry_equiv_pos_as_xyz
  1  'x, y, z'
loop_
 _atom_site_type_symbol
 _atom_site_label
 _atom_site_symmetry_multiplicity
 _atom_site_fract_x
 _atom_site_fract_y
 _atom_site_fract_z
 _atom_site_occupancy
  Nd  Nd0  1  0.090986  0.290896  0.114811  1
  Nd  Nd1  1  0.792111  0.408964  0.115692  1
  Nd  Nd2  1  0.205472  0.589014  0.120550  1
  Nd  Nd3  1  0.907963  0.708668  0.114989  1
  Nd  Nd4  1  0.410986  0.794528  0.379450  1
  Nd  Nd5  1  0.591036  0.207889  0.384308  1
  Nd  Nd6  1  0.291332  0.092037  0.385011  1
  Nd  Nd7  1  0.709104  0.909014  0.385189  1
  Nd  Nd8  1  0.409508  0.207066  0.878866  1
  Nd  Nd9  1  0.706029  0.090695  0.879273  1
  Nd  Nd10  1  0.293890  0.913565  0.879277  1
  Nd  Nd11  1  0.593971  0.795170  0.879969  1
  Nd  Nd12  1  0.086435  0.706110  0.620723  1
  Nd  Nd13  1  0.909305  0.293971  0.620727  1
  Nd  Nd14  1  0.204830  0.406029  0.620031  1
  Nd  Nd15  1  0.792934  0.590492  0.621134  1
  Nd  Nd16  1  0.999695  0.999747  0.999171  1
  Nd  Nd17  1  0.501792  0.498622  0.998526  1
  Nd  Nd18  1  0.501378  0.498208  0.501474  1
  Nd  Nd19  1  0.000253  0.000305  0.500829  1
  Ir  Ir20  1  0.153895  0.153169  0.750444  1
  Ir  Ir21  1  0.846831  0.846105  0.749556  1
  Ir  Ir22  1  0.654268  0.345732  0.750000  1
  Pt  Pt23  1  0.155579  0.844421  0.250000  1
  Pt  Pt24  1  0.345569  0.345961  0.250032  1
  Pt  Pt25  1  0.654039  0.654431  0.249968  1
  Pt  Pt26  1  0.844873  0.155127  0.250000  1
  Pt  Pt27  1  0.345392  0.654608  0.750000  1
  Rh  Rh28  1  0.000314  0.500420  0.378141  1
  Rh  Rh29  1  0.499580  0.999686  0.121859  1
  Rh  Rh30  1  0.499729  0.999076  0.619492  1
  Rh  Rh31  1  0.000924  0.500271  0.880508  1
