# generated using pymatgen
data_Yb4CrIn7O16
_symmetry_space_group_name_H-M   'P 1'
_cell_length_a   3.20747100
_cell_length_b   9.60558582
_cell_length_c   11.31235859
_cell_angle_alpha   90.56876242
_cell_angle_beta   89.99637282
_cell_angle_gamma   89.99545590
_symmetry_Int_Tables_number   1
_chemical_formula_structural   Yb4CrIn7O16
_chemical_formula_sum   'Yb4 Cr1 In7 O16'
_cell_volume   348.51249938
_cell_formula_units_Z   1
loop_
 _symmetry_equiv_pos_site_id
 _symmetry_equiv_pos_as_xyz
  1  'x, y, z'
loop_
 _atom_site_type_symbol
 _atom_site_label
 _atom_site_symmetry_multiplicity
 _atom_site_fract_x
 _atom_site_fract_y
 _atom_site_fract_z
 _atom_site_occupancy
  Yb  Yb0  1  0.750190  0.243907  0.347828  1
  Yb  Yb1  1  0.250046  0.765352  0.644743  1
  Yb  Yb2  1  0.750150  0.746882  0.159925  1
  Yb  Yb3  1  0.249918  0.258026  0.847333  1
  Cr  Cr4  1  0.250394  0.917753  0.392445  1
  In  In5  1  0.750163  0.066793  0.116947  1
  In  In6  1  0.249492  0.930656  0.885559  1
  In  In7  1  0.749734  0.586125  0.896755  1
  In  In8  1  0.249808  0.416719  0.107174  1
  In  In9  1  0.750282  0.576517  0.390091  1
  In  In10  1  0.249991  0.432431  0.614892  1
  In  In11  1  0.749685  0.081434  0.598983  1
  O  O12  1  0.749666  0.792178  0.814917  1
  O  O13  1  0.250144  0.206280  0.185351  1
  O  O14  1  0.749976  0.289726  0.678415  1
  O  O15  1  0.250297  0.717342  0.324484  1
  O  O16  1  0.750329  0.873018  0.511399  1
  O  O17  1  0.250153  0.117338  0.461620  1
  O  O18  1  0.749886  0.370371  0.974152  1
  O  O19  1  0.249861  0.630586  0.031204  1
  O  O20  1  0.749895  0.478770  0.220020  1
  O  O21  1  0.249776  0.514449  0.788913  1
  O  O22  1  0.750390  0.964618  0.289065  1
  O  O23  1  0.249733  0.017352  0.710400  1
  O  O24  1  0.750026  0.594978  0.579608  1
  O  O25  1  0.250108  0.410557  0.426471  1
  O  O26  1  0.749762  0.089791  0.924575  1
  O  O27  1  0.250145  0.910051  0.076727  1
