# generated using pymatgen
data_Er10Tm2ZnCo4Bi
_symmetry_space_group_name_H-M   'P 1'
_cell_length_a   8.28280622
_cell_length_b   8.28446964
_cell_length_c   8.28280717
_cell_angle_alpha   111.45421056
_cell_angle_beta   109.68206305
_cell_angle_gamma   107.29603517
_symmetry_Int_Tables_number   1
_chemical_formula_structural   Er10Tm2ZnCo4Bi
_chemical_formula_sum   'Er10 Tm2 Zn1 Co4 Bi1'
_cell_volume   436.98523077
_cell_formula_units_Z   1
loop_
 _symmetry_equiv_pos_site_id
 _symmetry_equiv_pos_as_xyz
  1  'x, y, z'
loop_
 _atom_site_type_symbol
 _atom_site_label
 _atom_site_symmetry_multiplicity
 _atom_site_fract_x
 _atom_site_fract_y
 _atom_site_fract_z
 _atom_site_occupancy
  Er  Er0  1  0.313780  0.006274  0.692495  1
  Er  Er1  1  0.686220  0.993726  0.307505  1
  Er  Er2  1  0.426723  0.220173  0.207377  1
  Er  Er3  1  0.573277  0.779827  0.792623  1
  Er  Er4  1  0.012797  0.220173  0.793451  1
  Er  Er5  1  0.987203  0.779827  0.206549  1
  Er  Er6  1  0.182540  0.285786  0.467408  1
  Er  Er7  1  0.817460  0.714214  0.532592  1
  Er  Er8  1  0.181622  0.714214  0.896755  1
  Er  Er9  1  0.818378  0.285786  0.103245  1
  Tm  Tm10  1  0.314024  0.622024  0.307999  1
  Tm  Tm11  1  0.685976  0.377977  0.692001  1
  Zn  Zn12  1  0.000000  0.000000  0.000000  1
  Co  Co13  1  0.113069  0.612996  0.499927  1
  Co  Co14  1  0.886932  0.387005  0.500073  1
  Co  Co15  1  0.376702  0.000000  0.376702  1
  Co  Co16  1  0.623298  0.000000  0.623298  1
  Bi  Bi17  1  0.500000  0.500000  0.000000  1
