# generated using pymatgen
data_Lu7Pu3(SiB4)4
_symmetry_space_group_name_H-M   'P 1'
_cell_length_a   7.13485900
_cell_length_b   7.13485900
_cell_length_c   7.92467931
_cell_angle_alpha   89.98299798
_cell_angle_beta   89.98299798
_cell_angle_gamma   89.89558815
_symmetry_Int_Tables_number   1
_chemical_formula_structural   Lu7Pu3(SiB4)4
_chemical_formula_sum   'Lu7 Pu3 Si4 B16'
_cell_volume   403.41470680
_cell_formula_units_Z   1
loop_
 _symmetry_equiv_pos_site_id
 _symmetry_equiv_pos_as_xyz
  1  'x, y, z'
loop_
 _atom_site_type_symbol
 _atom_site_label
 _atom_site_symmetry_multiplicity
 _atom_site_fract_x
 _atom_site_fract_y
 _atom_site_fract_z
 _atom_site_occupancy
  Lu  Lu0  1  0.818679  0.681125  0.221305  1
  Lu  Lu1  1  0.818544  0.681557  0.778686  1
  Lu  Lu2  1  0.681648  0.181648  0.776719  1
  Lu  Lu3  1  0.181557  0.318544  0.778686  1
  Lu  Lu4  1  0.181125  0.318679  0.221305  1
  Lu  Lu5  1  0.002952  0.998976  0.498746  1
  Lu  Lu6  1  0.498976  0.502952  0.498746  1
  Pu  Pu7  1  0.683417  0.183417  0.232572  1
  Pu  Pu8  1  0.315692  0.815692  0.767912  1
  Pu  Pu9  1  0.316817  0.816817  0.232203  1
  Si  Si10  1  0.114209  0.614209  0.501616  1
  Si  Si11  1  0.881380  0.381380  0.501526  1
  Si  Si12  1  0.384436  0.118708  0.501250  1
  Si  Si13  1  0.618708  0.884436  0.501250  1
  B  B14  1  0.174025  0.039384  0.998563  1
  B  B15  1  0.826045  0.961106  0.999455  1
  B  B16  1  0.959557  0.173443  0.999451  1
  B  B17  1  0.326886  0.540474  0.998852  1
  B  B18  1  0.040474  0.826886  0.998852  1
  B  B19  1  0.673443  0.459557  0.999451  1
  B  B20  1  0.539384  0.674025  0.998563  1
  B  B21  1  0.461106  0.326045  0.999455  1
  B  B22  1  0.089683  0.589683  0.999501  1
  B  B23  1  0.910208  0.410208  0.001325  1
  B  B24  1  0.410952  0.089494  0.998644  1
  B  B25  1  0.589494  0.910952  0.998644  1
  B  B26  1  0.999755  0.000199  0.165156  1
  B  B27  1  0.000484  0.000166  0.833206  1
  B  B28  1  0.500166  0.500484  0.833206  1
  B  B29  1  0.500199  0.499755  0.165156  1
