# generated using pymatgen
data_Pr2YSc3(SnPt)6
_symmetry_space_group_name_H-M   'P 1'
_cell_length_a   7.59151483
_cell_length_b   7.60256843
_cell_length_c   7.74958500
_cell_angle_alpha   90.00000000
_cell_angle_beta   90.00000000
_cell_angle_gamma   120.00542652
_symmetry_Int_Tables_number   1
_chemical_formula_structural   Pr2YSc3(SnPt)6
_chemical_formula_sum   'Pr2 Y1 Sc3 Sn6 Pt6'
_cell_volume   387.32373413
_cell_formula_units_Z   1
loop_
 _symmetry_equiv_pos_site_id
 _symmetry_equiv_pos_as_xyz
  1  'x, y, z'
loop_
 _atom_site_type_symbol
 _atom_site_label
 _atom_site_symmetry_multiplicity
 _atom_site_fract_x
 _atom_site_fract_y
 _atom_site_fract_z
 _atom_site_occupancy
  Pr  Pr0  1  0.405076  0.000572  0.750000  1
  Pr  Pr1  1  0.594415  0.596270  0.750000  1
  Y  Y2  1  0.999747  0.401581  0.750000  1
  Sc  Sc3  1  0.391093  0.000610  0.250000  1
  Sc  Sc4  1  0.610281  0.608104  0.250000  1
  Sc  Sc5  1  0.998662  0.390617  0.250000  1
  Sn  Sn6  1  0.266650  0.268928  0.014686  1
  Sn  Sn7  1  0.000639  0.730781  0.010608  1
  Sn  Sn8  1  0.000639  0.730781  0.489392  1
  Sn  Sn9  1  0.732426  0.000571  0.485007  1
  Sn  Sn10  1  0.266650  0.268928  0.485314  1
  Sn  Sn11  1  0.732426  0.000571  0.014993  1
  Pt  Pt12  1  0.999985  0.007566  0.750000  1
  Pt  Pt13  1  0.000265  0.997990  0.250000  1
  Pt  Pt14  1  0.669434  0.333646  0.041249  1
  Pt  Pt15  1  0.331089  0.664419  0.454495  1
  Pt  Pt16  1  0.331089  0.664419  0.045505  1
  Pt  Pt17  1  0.669434  0.333646  0.458751  1
