# generated using pymatgen
data_ErTh5(Ni3As2)6
_symmetry_space_group_name_H-M   'P 1'
_cell_length_a   4.00511000
_cell_length_b   10.84700901
_cell_length_c   12.88533776
_cell_angle_alpha   89.86617418
_cell_angle_beta   90.00000000
_cell_angle_gamma   90.00000000
_symmetry_Int_Tables_number   1
_chemical_formula_structural   ErTh5(Ni3As2)6
_chemical_formula_sum   'Er1 Th5 Ni18 As12'
_cell_volume   559.78218335
_cell_formula_units_Z   1
loop_
 _symmetry_equiv_pos_site_id
 _symmetry_equiv_pos_as_xyz
  1  'x, y, z'
loop_
 _atom_site_type_symbol
 _atom_site_label
 _atom_site_symmetry_multiplicity
 _atom_site_fract_x
 _atom_site_fract_y
 _atom_site_fract_z
 _atom_site_occupancy
  Er  Er0  1  0.750000  0.438718  0.206887  1
  Th  Th1  1  0.750000  0.250958  0.481113  1
  Th  Th2  1  0.250000  0.750618  0.516323  1
  Th  Th3  1  0.250000  0.939458  0.794655  1
  Th  Th4  1  0.250000  0.561299  0.791980  1
  Th  Th5  1  0.750000  0.062776  0.206374  1
  Ni  Ni6  1  0.250000  0.251249  0.851221  1
  Ni  Ni7  1  0.750000  0.748715  0.147536  1
  Ni  Ni8  1  0.250000  0.248924  0.305427  1
  Ni  Ni9  1  0.750000  0.749542  0.696078  1
  Ni  Ni10  1  0.750000  0.253683  0.029671  1
  Ni  Ni11  1  0.250000  0.745028  0.975780  1
  Ni  Ni12  1  0.250000  0.417258  0.004110  1
  Ni  Ni13  1  0.250000  0.086560  0.006704  1
  Ni  Ni14  1  0.750000  0.580396  0.997179  1
  Ni  Ni15  1  0.750000  0.916610  0.995503  1
  Ni  Ni16  1  0.250000  0.445447  0.571744  1
  Ni  Ni17  1  0.250000  0.056512  0.577044  1
  Ni  Ni18  1  0.750000  0.553901  0.422522  1
  Ni  Ni19  1  0.750000  0.943061  0.423156  1
  Ni  Ni20  1  0.250000  0.869884  0.289142  1
  Ni  Ni21  1  0.250000  0.629101  0.287715  1
  Ni  Ni22  1  0.750000  0.130218  0.711900  1
  Ni  Ni23  1  0.750000  0.369841  0.709970  1
  As  As24  1  0.250000  0.256124  0.127901  1
  As  As25  1  0.750000  0.748905  0.876818  1
  As  As26  1  0.250000  0.251232  0.666089  1
  As  As27  1  0.750000  0.748801  0.331465  1
  As  As28  1  0.250000  0.441279  0.383572  1
  As  As29  1  0.250000  0.057996  0.390427  1
  As  As30  1  0.750000  0.558968  0.608514  1
  As  As31  1  0.750000  0.941384  0.610472  1
  As  As32  1  0.250000  0.896908  0.102640  1
  As  As33  1  0.250000  0.596836  0.106835  1
  As  As34  1  0.750000  0.105252  0.899521  1
  As  As35  1  0.750000  0.396557  0.896012  1
