# generated using pymatgen
data_NdTm2Th3Si4
_symmetry_space_group_name_H-M   'P 1'
_cell_length_a   7.60705593
_cell_length_b   7.60705586
_cell_length_c   4.29080200
_cell_angle_alpha   90.00000000
_cell_angle_beta   90.00000000
_cell_angle_gamma   90.17340077
_symmetry_Int_Tables_number   1
_chemical_formula_structural   NdTm2Th3Si4
_chemical_formula_sum   'Nd1 Tm2 Th3 Si4'
_cell_volume   248.29598683
_cell_formula_units_Z   1
loop_
 _symmetry_equiv_pos_site_id
 _symmetry_equiv_pos_as_xyz
  1  'x, y, z'
loop_
 _atom_site_type_symbol
 _atom_site_label
 _atom_site_symmetry_multiplicity
 _atom_site_fract_x
 _atom_site_fract_y
 _atom_site_fract_z
 _atom_site_occupancy
  Nd  Nd0  1  0.823160  0.676840  0.500000  1
  Tm  Tm1  1  0.998993  0.000688  0.000000  1
  Tm  Tm2  1  0.499312  0.501007  0.000000  1
  Th  Th3  1  0.678058  0.178683  0.500000  1
  Th  Th4  1  0.321317  0.821942  0.500000  1
  Th  Th5  1  0.178213  0.321787  0.500000  1
  Si  Si6  1  0.119469  0.616113  0.000000  1
  Si  Si7  1  0.883887  0.380531  0.000000  1
  Si  Si8  1  0.615726  0.884274  0.000000  1
  Si  Si9  1  0.381865  0.118135  0.000000  1
