# generated using pymatgen
data_V6ZnGa2CuN2
_symmetry_space_group_name_H-M   'P 1'
_cell_length_a   6.56621507
_cell_length_b   6.56660293
_cell_length_c   6.56601400
_cell_angle_alpha   90.00000000
_cell_angle_beta   90.00000000
_cell_angle_gamma   90.03550288
_symmetry_Int_Tables_number   1
_chemical_formula_structural   V6ZnGa2CuN2
_chemical_formula_sum   'V12 Zn2 Ga4 Cu2 N4'
_cell_volume   283.11154549
_cell_formula_units_Z   2
loop_
 _symmetry_equiv_pos_site_id
 _symmetry_equiv_pos_as_xyz
  1  'x, y, z'
loop_
 _atom_site_type_symbol
 _atom_site_label
 _atom_site_symmetry_multiplicity
 _atom_site_fract_x
 _atom_site_fract_y
 _atom_site_fract_z
 _atom_site_occupancy
  V  V0  1  0.788895  0.960495  0.374748  1
  V  V1  1  0.711105  0.039505  0.874748  1
  V  V2  1  0.211275  0.459952  0.125589  1
  V  V3  1  0.288725  0.540048  0.625589  1
  V  V4  1  0.960845  0.375150  0.788708  1
  V  V5  1  0.040328  0.874111  0.711131  1
  V  V6  1  0.459672  0.125889  0.211131  1
  V  V7  1  0.539155  0.624850  0.288708  1
  V  V8  1  0.374705  0.788989  0.960551  1
  V  V9  1  0.874509  0.711571  0.040213  1
  V  V10  1  0.125295  0.211011  0.460551  1
  V  V11  1  0.625491  0.288429  0.540213  1
  Zn  Zn12  1  0.821597  0.320460  0.178629  1
  Zn  Zn13  1  0.678403  0.679540  0.678629  1
  Ga  Ga14  1  0.567825  0.423661  0.926105  1
  Ga  Ga15  1  0.422447  0.930361  0.572034  1
  Ga  Ga16  1  0.932175  0.576339  0.426105  1
  Ga  Ga17  1  0.077553  0.069639  0.072034  1
  Cu  Cu18  1  0.180004  0.821902  0.320506  1
  Cu  Cu19  1  0.319996  0.178098  0.820506  1
  N  N20  1  0.877222  0.123152  0.624463  1
  N  N21  1  0.622778  0.876848  0.124463  1
  N  N22  1  0.124309  0.623997  0.877322  1
  N  N23  1  0.375691  0.376003  0.377322  1
