# generated using pymatgen
data_Tb2Ga9PtRh2
_symmetry_space_group_name_H-M   'P 1'
_cell_length_a   7.63976835
_cell_length_b   7.63976712
_cell_length_c   9.52662700
_cell_angle_alpha   90.00000000
_cell_angle_beta   90.00000000
_cell_angle_gamma   119.79116596
_symmetry_Int_Tables_number   1
_chemical_formula_structural   Tb2Ga9PtRh2
_chemical_formula_sum   'Tb4 Ga18 Pt2 Rh4'
_cell_volume   482.54761197
_cell_formula_units_Z   2
loop_
 _symmetry_equiv_pos_site_id
 _symmetry_equiv_pos_as_xyz
  1  'x, y, z'
loop_
 _atom_site_type_symbol
 _atom_site_label
 _atom_site_symmetry_multiplicity
 _atom_site_fract_x
 _atom_site_fract_y
 _atom_site_fract_z
 _atom_site_occupancy
  Tb  Tb0  1  0.996481  0.670661  0.250000  1
  Tb  Tb1  1  0.003519  0.329339  0.750000  1
  Tb  Tb2  1  0.670661  0.996481  0.250000  1
  Tb  Tb3  1  0.329339  0.003519  0.750000  1
  Ga  Ga4  1  0.133007  0.133007  0.250000  1
  Ga  Ga5  1  0.866993  0.866993  0.750000  1
  Ga  Ga6  1  0.998664  0.338495  0.080028  1
  Ga  Ga7  1  0.001336  0.661505  0.919972  1
  Ga  Ga8  1  0.001336  0.661505  0.580028  1
  Ga  Ga9  1  0.338495  0.998664  0.419972  1
  Ga  Ga10  1  0.998664  0.338495  0.419972  1
  Ga  Ga11  1  0.661505  0.001336  0.580028  1
  Ga  Ga12  1  0.661505  0.001336  0.919972  1
  Ga  Ga13  1  0.338495  0.998664  0.080028  1
  Ga  Ga14  1  0.337251  0.337251  0.566555  1
  Ga  Ga15  1  0.662749  0.662749  0.433445  1
  Ga  Ga16  1  0.662749  0.662749  0.066555  1
  Ga  Ga17  1  0.337251  0.337251  0.933445  1
  Ga  Ga18  1  0.336460  0.548000  0.250000  1
  Ga  Ga19  1  0.663540  0.452000  0.750000  1
  Ga  Ga20  1  0.548000  0.336460  0.250000  1
  Ga  Ga21  1  0.452000  0.663540  0.750000  1
  Pt  Pt22  1  0.000000  0.000000  0.000000  1
  Pt  Pt23  1  0.000000  0.000000  0.500000  1
  Rh  Rh24  1  0.671084  0.328916  0.000000  1
  Rh  Rh25  1  0.328916  0.671084  0.000000  1
  Rh  Rh26  1  0.328916  0.671084  0.500000  1
  Rh  Rh27  1  0.671084  0.328916  0.500000  1
