# generated using pymatgen
data_Er2Ga5Co2Cu
_symmetry_space_group_name_H-M   'P 1'
_cell_length_a   8.36555925
_cell_length_b   8.36555884
_cell_length_c   5.48980558
_cell_angle_alpha   70.92707295
_cell_angle_beta   70.92707455
_cell_angle_gamma   96.11923845
_symmetry_Int_Tables_number   1
_chemical_formula_structural   Er2Ga5Co2Cu
_chemical_formula_sum   'Er4 Ga10 Co4 Cu2'
_cell_volume   333.23158278
_cell_formula_units_Z   2
loop_
 _symmetry_equiv_pos_site_id
 _symmetry_equiv_pos_as_xyz
  1  'x, y, z'
loop_
 _atom_site_type_symbol
 _atom_site_label
 _atom_site_symmetry_multiplicity
 _atom_site_fract_x
 _atom_site_fract_y
 _atom_site_fract_z
 _atom_site_occupancy
  Er  Er0  1  0.426713  0.133742  0.719612  1
  Er  Er1  1  0.133742  0.426713  0.219612  1
  Er  Er2  1  0.573287  0.866258  0.280388  1
  Er  Er3  1  0.866258  0.573287  0.780388  1
  Ga  Ga4  1  0.275970  0.096880  0.313934  1
  Ga  Ga5  1  0.903120  0.724030  0.186066  1
  Ga  Ga6  1  0.724030  0.903120  0.686066  1
  Ga  Ga7  1  0.096880  0.275970  0.813934  1
  Ga  Ga8  1  0.207924  0.792076  0.750000  1
  Ga  Ga9  1  0.792076  0.207924  0.250000  1
  Ga  Ga10  1  0.500163  0.499837  0.750000  1
  Ga  Ga11  1  0.499837  0.500163  0.250000  1
  Ga  Ga12  1  0.791676  0.208324  0.750000  1
  Ga  Ga13  1  0.208324  0.791676  0.250000  1
  Co  Co14  1  0.733628  0.437091  0.414420  1
  Co  Co15  1  0.437091  0.733628  0.914420  1
  Co  Co16  1  0.266372  0.562909  0.585580  1
  Co  Co17  1  0.562909  0.266372  0.085580  1
  Cu  Cu18  1  0.999431  0.000569  0.750000  1
  Cu  Cu19  1  0.000569  0.999431  0.250000  1
