# generated using pymatgen
data_Ho6InCoSi
_symmetry_space_group_name_H-M   'P 1'
_cell_length_a   8.44300593
_cell_length_b   8.44300644
_cell_length_c   8.44300602
_cell_angle_alpha   113.46162066
_cell_angle_beta   110.73423966
_cell_angle_gamma   104.34923127
_symmetry_Int_Tables_number   1
_chemical_formula_structural   Ho6InCoSi
_chemical_formula_sum   'Ho12 In2 Co2 Si2'
_cell_volume   460.27609849
_cell_formula_units_Z   2
loop_
 _symmetry_equiv_pos_site_id
 _symmetry_equiv_pos_as_xyz
  1  'x, y, z'
loop_
 _atom_site_type_symbol
 _atom_site_label
 _atom_site_symmetry_multiplicity
 _atom_site_fract_x
 _atom_site_fract_y
 _atom_site_fract_z
 _atom_site_occupancy
  Ho  Ho0  1  0.442229  0.240573  0.201657  1
  Ho  Ho1  1  0.557771  0.759427  0.798343  1
  Ho  Ho2  1  0.038915  0.240573  0.798343  1
  Ho  Ho3  1  0.961085  0.759427  0.201657  1
  Ho  Ho4  1  0.187489  0.288517  0.476007  1
  Ho  Ho5  1  0.812511  0.711483  0.523993  1
  Ho  Ho6  1  0.187489  0.711483  0.898972  1
  Ho  Ho7  1  0.812511  0.288517  0.101028  1
  Ho  Ho8  1  0.305256  0.616198  0.310941  1
  Ho  Ho9  1  0.694744  0.383802  0.689059  1
  Ho  Ho10  1  0.305256  0.994315  0.689059  1
  Ho  Ho11  1  0.694744  0.005685  0.310941  1
  In  In12  1  0.500000  0.500000  0.000000  1
  In  In13  1  0.000000  0.000000  0.000000  1
  Co  Co14  1  0.107587  0.607587  0.500000  1
  Co  Co15  1  0.892413  0.392413  0.500000  1
  Si  Si16  1  0.363239  0.000000  0.363239  1
  Si  Si17  1  0.636761  0.000000  0.636761  1
