# generated using pymatgen
data_HfNbAsC
_symmetry_space_group_name_H-M   'P 1'
_cell_length_a   3.37158600
_cell_length_b   3.37158552
_cell_length_c   12.30336600
_cell_angle_alpha   90.00000000
_cell_angle_beta   90.00000000
_cell_angle_gamma   120.00002429
_symmetry_Int_Tables_number   1
_chemical_formula_structural   HfNbAsC
_chemical_formula_sum   'Hf2 Nb2 As2 C2'
_cell_volume   121.12196036
_cell_formula_units_Z   2
loop_
 _symmetry_equiv_pos_site_id
 _symmetry_equiv_pos_as_xyz
  1  'x, y, z'
loop_
 _atom_site_type_symbol
 _atom_site_label
 _atom_site_symmetry_multiplicity
 _atom_site_fract_x
 _atom_site_fract_y
 _atom_site_fract_z
 _atom_site_occupancy
  Hf  Hf0  1  0.333333  0.666667  0.404634  1
  Hf  Hf1  1  0.666667  0.333333  0.904634  1
  Nb  Nb2  1  0.666667  0.333333  0.597972  1
  Nb  Nb3  1  0.333333  0.666667  0.097972  1
  As  As4  1  0.666667  0.333333  0.245639  1
  As  As5  1  0.333333  0.666667  0.745639  1
  C  C6  1  0.000000  0.000000  0.501755  1
  C  C7  1  0.000000  0.000000  0.001755  1
