# generated using pymatgen
data_DyTm2Ni9
_symmetry_space_group_name_H-M   'P 1'
_cell_length_a   4.95204198
_cell_length_b   4.95204279
_cell_length_c   8.53638989
_cell_angle_alpha   73.13875912
_cell_angle_beta   73.13875592
_cell_angle_gamma   60.00000165
_symmetry_Int_Tables_number   1
_chemical_formula_structural   DyTm2Ni9
_chemical_formula_sum   'Dy1 Tm2 Ni9'
_cell_volume   170.81935603
_cell_formula_units_Z   1
loop_
 _symmetry_equiv_pos_site_id
 _symmetry_equiv_pos_as_xyz
  1  'x, y, z'
loop_
 _atom_site_type_symbol
 _atom_site_label
 _atom_site_symmetry_multiplicity
 _atom_site_fract_x
 _atom_site_fract_y
 _atom_site_fract_z
 _atom_site_occupancy
  Dy  Dy0  1  0.000000  0.000000  0.000000  1
  Tm  Tm1  1  0.139247  0.139247  0.582259  1
  Tm  Tm2  1  0.860753  0.860753  0.417741  1
  Ni  Ni3  1  0.080509  0.583706  0.752079  1
  Ni  Ni4  1  0.583706  0.583706  0.752079  1
  Ni  Ni5  1  0.583706  0.080509  0.752079  1
  Ni  Ni6  1  0.919491  0.416294  0.247921  1
  Ni  Ni7  1  0.416294  0.416294  0.247921  1
  Ni  Ni8  1  0.416294  0.919491  0.247921  1
  Ni  Ni9  1  0.333111  0.333111  0.000668  1
  Ni  Ni10  1  0.666889  0.666889  0.999332  1
  Ni  Ni11  1  0.500000  0.500000  0.500000  1
