# generated using pymatgen
data_Ho10Er2Tc3Ru
_symmetry_space_group_name_H-M   'P 1'
_cell_length_a   6.25687527
_cell_length_b   7.37099506
_cell_length_c   9.10108845
_cell_angle_alpha   89.98704440
_cell_angle_beta   90.03346689
_cell_angle_gamma   90.00645292
_symmetry_Int_Tables_number   1
_chemical_formula_structural   Ho10Er2Tc3Ru
_chemical_formula_sum   'Ho10 Er2 Tc3 Ru1'
_cell_volume   419.73662392
_cell_formula_units_Z   1
loop_
 _symmetry_equiv_pos_site_id
 _symmetry_equiv_pos_as_xyz
  1  'x, y, z'
loop_
 _atom_site_type_symbol
 _atom_site_label
 _atom_site_symmetry_multiplicity
 _atom_site_fract_x
 _atom_site_fract_y
 _atom_site_fract_z
 _atom_site_occupancy
  Ho  Ho0  1  0.336456  0.676747  0.063057  1
  Ho  Ho1  1  0.161086  0.176029  0.437655  1
  Ho  Ho2  1  0.661160  0.324272  0.562569  1
  Ho  Ho3  1  0.838064  0.823909  0.937769  1
  Ho  Ho4  1  0.661101  0.323899  0.937410  1
  Ho  Ho5  1  0.837966  0.823509  0.562230  1
  Ho  Ho6  1  0.874026  0.540444  0.250146  1
  Ho  Ho7  1  0.626294  0.039500  0.249972  1
  Ho  Ho8  1  0.130262  0.458769  0.749917  1
  Ho  Ho9  1  0.373918  0.957853  0.749993  1
  Er  Er10  1  0.336464  0.676662  0.436965  1
  Er  Er11  1  0.161053  0.175594  0.062247  1
  Tc  Tc12  1  0.041378  0.884533  0.250087  1
  Tc  Tc13  1  0.460339  0.386563  0.249880  1
  Tc  Tc14  1  0.960934  0.115633  0.750424  1
  Ru  Ru15  1  0.539498  0.616084  0.749679  1
