# generated using pymatgen
data_Ac4La2OsI10
_symmetry_space_group_name_H-M   'P 1'
_cell_length_a   8.46480580
_cell_length_b   10.55646710
_cell_length_c   10.19448087
_cell_angle_alpha   107.84632046
_cell_angle_beta   97.75985360
_cell_angle_gamma   105.12843883
_symmetry_Int_Tables_number   1
_chemical_formula_structural   Ac4La2OsI10
_chemical_formula_sum   'Ac4 La2 Os1 I10'
_cell_volume   813.84092835
_cell_formula_units_Z   1
loop_
 _symmetry_equiv_pos_site_id
 _symmetry_equiv_pos_as_xyz
  1  'x, y, z'
loop_
 _atom_site_type_symbol
 _atom_site_label
 _atom_site_symmetry_multiplicity
 _atom_site_fract_x
 _atom_site_fract_y
 _atom_site_fract_z
 _atom_site_occupancy
  Ac  Ac0  1  0.464132  0.297505  0.592548  1
  Ac  Ac1  1  0.535868  0.702495  0.407452  1
  Ac  Ac2  1  0.861898  0.137124  0.688285  1
  Ac  Ac3  1  0.138102  0.862876  0.311715  1
  La  La4  1  0.391316  0.959081  0.721804  1
  La  La5  1  0.608684  0.040919  0.278196  1
  Os  Os6  1  0.500000  0.000000  0.500000  1
  I  I7  1  0.412274  0.636572  0.682537  1
  I  I8  1  0.587726  0.363428  0.317463  1
  I  I9  1  0.292734  0.251403  0.855766  1
  I  I10  1  0.707266  0.748597  0.144234  1
  I  I11  1  0.855564  0.462666  0.775793  1
  I  I12  1  0.144436  0.537334  0.224207  1
  I  I13  1  0.035334  0.176406  0.409914  1
  I  I14  1  0.255667  0.918195  0.034309  1
  I  I15  1  0.744333  0.081805  0.965691  1
  I  I16  1  0.964666  0.823594  0.590086  1
