# generated using pymatgen
data_Zr4MnCrIr6
_symmetry_space_group_name_H-M   'P 1'
_cell_length_a   5.10696455
_cell_length_b   5.31023555
_cell_length_c   8.59665900
_cell_angle_alpha   90.00000000
_cell_angle_beta   90.00000000
_cell_angle_gamma   121.32564919
_symmetry_Int_Tables_number   1
_chemical_formula_structural   Zr4MnCrIr6
_chemical_formula_sum   'Zr4 Mn1 Cr1 Ir6'
_cell_volume   199.14949244
_cell_formula_units_Z   1
loop_
 _symmetry_equiv_pos_site_id
 _symmetry_equiv_pos_as_xyz
  1  'x, y, z'
loop_
 _atom_site_type_symbol
 _atom_site_label
 _atom_site_symmetry_multiplicity
 _atom_site_fract_x
 _atom_site_fract_y
 _atom_site_fract_z
 _atom_site_occupancy
  Zr  Zr0  1  0.332636  0.666318  0.068516  1
  Zr  Zr1  1  0.664256  0.332128  0.565899  1
  Zr  Zr2  1  0.664256  0.332128  0.934101  1
  Zr  Zr3  1  0.332636  0.666318  0.431484  1
  Mn  Mn4  1  0.328570  0.164286  0.250000  1
  Cr  Cr5  1  0.671920  0.835960  0.750000  1
  Ir  Ir6  1  0.995513  0.997757  0.502171  1
  Ir  Ir7  1  0.995513  0.997757  0.997829  1
  Ir  Ir8  1  0.189112  0.350560  0.750000  1
  Ir  Ir9  1  0.818237  0.163771  0.250000  1
  Ir  Ir10  1  0.818237  0.654467  0.250000  1
  Ir  Ir11  1  0.189112  0.838551  0.750000  1
