# generated using pymatgen
data_Tb6Ho4InBi5
_symmetry_space_group_name_H-M   'P 1'
_cell_length_a   9.14353046
_cell_length_b   9.15237867
_cell_length_c   6.48176000
_cell_angle_alpha   90.00000000
_cell_angle_beta   90.00000000
_cell_angle_gamma   120.03201602
_symmetry_Int_Tables_number   1
_chemical_formula_structural   Tb6Ho4InBi5
_chemical_formula_sum   'Tb6 Ho4 In1 Bi5'
_cell_volume   469.60344487
_cell_formula_units_Z   1
loop_
 _symmetry_equiv_pos_site_id
 _symmetry_equiv_pos_as_xyz
  1  'x, y, z'
loop_
 _atom_site_type_symbol
 _atom_site_label
 _atom_site_symmetry_multiplicity
 _atom_site_fract_x
 _atom_site_fract_y
 _atom_site_fract_z
 _atom_site_occupancy
  Tb  Tb0  1  0.758171  0.756625  0.750000  1
  Tb  Tb1  1  0.241829  0.998454  0.750000  1
  Tb  Tb2  1  0.000000  0.241698  0.750000  1
  Tb  Tb3  1  0.236826  0.244457  0.250000  1
  Tb  Tb4  1  0.763174  0.007632  0.250000  1
  Tb  Tb5  1  0.000000  0.754741  0.250000  1
  Ho  Ho6  1  0.672151  0.334292  0.000031  1
  Ho  Ho7  1  0.327849  0.662141  0.000031  1
  Ho  Ho8  1  0.327849  0.662141  0.499969  1
  Ho  Ho9  1  0.672151  0.334292  0.499969  1
  In  In10  1  0.000000  0.395451  0.250000  1
  Bi  Bi11  1  0.392160  0.389910  0.750000  1
  Bi  Bi12  1  0.607840  0.997749  0.750000  1
  Bi  Bi13  1  0.000000  0.608063  0.750000  1
  Bi  Bi14  1  0.609581  0.610967  0.250000  1
  Bi  Bi15  1  0.390419  0.001385  0.250000  1
