# generated using pymatgen
data_NaTe19
_symmetry_space_group_name_H-M   'P 1'
_cell_length_a   8.01800513
_cell_length_b   9.02478919
_cell_length_c   10.16484391
_cell_angle_alpha   104.08862809
_cell_angle_beta   97.23290400
_cell_angle_gamma   106.97193452
_symmetry_Int_Tables_number   1
_chemical_formula_structural   NaTe19
_chemical_formula_sum   'Na1 Te19'
_cell_volume   666.78470825
_cell_formula_units_Z   1
loop_
 _symmetry_equiv_pos_site_id
 _symmetry_equiv_pos_as_xyz
  1  'x, y, z'
loop_
 _atom_site_type_symbol
 _atom_site_label
 _atom_site_symmetry_multiplicity
 _atom_site_fract_x
 _atom_site_fract_y
 _atom_site_fract_z
 _atom_site_occupancy
  Na  Na0  1  0.000000  0.500000  0.000000  1
  Te  Te1  1  0.785701  0.581271  0.618418  1
  Te  Te2  1  0.641842  0.205282  0.201992  1
  Te  Te3  1  0.358158  0.794718  0.798008  1
  Te  Te4  1  0.600295  0.683241  0.195744  1
  Te  Te5  1  0.214299  0.418729  0.381582  1
  Te  Te6  1  0.399705  0.316759  0.804256  1
  Te  Te7  1  0.000000  0.000000  0.000000  1
  Te  Te8  1  0.201429  0.914521  0.394685  1
  Te  Te9  1  0.798571  0.085479  0.605315  1
  Te  Te10  1  0.691581  0.631834  0.901088  1
  Te  Te11  1  0.513728  0.254157  0.502310  1
  Te  Te12  1  0.703694  0.135951  0.907014  1
  Te  Te13  1  0.296306  0.864049  0.092986  1
  Te  Te14  1  0.486272  0.745843  0.497690  1
  Te  Te15  1  0.093073  0.467760  0.704588  1
  Te  Te16  1  0.308419  0.368166  0.098912  1
  Te  Te17  1  0.915373  0.039023  0.298699  1
  Te  Te18  1  0.084627  0.960977  0.701301  1
  Te  Te19  1  0.906927  0.532240  0.295412  1
