# generated using pymatgen
data_Er9Lu(SiPb3)2
_symmetry_space_group_name_H-M   'P 1'
_cell_length_a   9.23446500
_cell_length_b   9.23446414
_cell_length_c   6.45074300
_cell_angle_alpha   90.00000000
_cell_angle_beta   90.00000000
_cell_angle_gamma   120.00000666
_symmetry_Int_Tables_number   1
_chemical_formula_structural   Er9Lu(SiPb3)2
_chemical_formula_sum   'Er9 Lu1 Si2 Pb6'
_cell_volume   476.39125554
_cell_formula_units_Z   1
loop_
 _symmetry_equiv_pos_site_id
 _symmetry_equiv_pos_as_xyz
  1  'x, y, z'
loop_
 _atom_site_type_symbol
 _atom_site_label
 _atom_site_symmetry_multiplicity
 _atom_site_fract_x
 _atom_site_fract_y
 _atom_site_fract_z
 _atom_site_occupancy
  Er  Er0  1  0.248690  0.999875  0.749824  1
  Er  Er1  1  0.751185  0.999875  0.250176  1
  Er  Er2  1  0.000125  0.248815  0.749824  1
  Er  Er3  1  0.000125  0.751310  0.250176  1
  Er  Er4  1  0.751185  0.751310  0.749824  1
  Er  Er5  1  0.248690  0.248815  0.250176  1
  Er  Er6  1  0.333333  0.666667  0.500000  1
  Er  Er7  1  0.666667  0.333333  0.500000  1
  Er  Er8  1  0.666667  0.333333  0.000000  1
  Lu  Lu9  1  0.333333  0.666667  0.000000  1
  Si  Si10  1  0.000000  0.000000  0.500000  1
  Si  Si11  1  0.000000  0.000000  0.000000  1
  Pb  Pb12  1  0.606270  0.999490  0.750151  1
  Pb  Pb13  1  0.393219  0.999490  0.249849  1
  Pb  Pb14  1  0.000510  0.606781  0.750151  1
  Pb  Pb15  1  0.000510  0.393730  0.249849  1
  Pb  Pb16  1  0.393219  0.393730  0.750151  1
  Pb  Pb17  1  0.606270  0.606781  0.249849  1
