# generated using pymatgen
data_Dy8CoSi16Tc11
_symmetry_space_group_name_H-M   'P 1'
_cell_length_a   6.76845015
_cell_length_b   6.78700048
_cell_length_c   12.71561212
_cell_angle_alpha   89.42762657
_cell_angle_beta   90.01919948
_cell_angle_gamma   90.07808006
_symmetry_Int_Tables_number   1
_chemical_formula_structural   Dy8CoSi16Tc11
_chemical_formula_sum   'Dy8 Co1 Si16 Tc11'
_cell_volume   584.09338802
_cell_formula_units_Z   1
loop_
 _symmetry_equiv_pos_site_id
 _symmetry_equiv_pos_as_xyz
  1  'x, y, z'
loop_
 _atom_site_type_symbol
 _atom_site_label
 _atom_site_symmetry_multiplicity
 _atom_site_fract_x
 _atom_site_fract_y
 _atom_site_fract_z
 _atom_site_occupancy
  Dy  Dy0  1  0.007458  0.659088  0.029016  1
  Dy  Dy1  1  0.991580  0.341770  0.532749  1
  Dy  Dy2  1  0.662698  0.001932  0.970644  1
  Dy  Dy3  1  0.164749  0.493542  0.779790  1
  Dy  Dy4  1  0.833058  0.510265  0.280200  1
  Dy  Dy5  1  0.492772  0.166201  0.216366  1
  Dy  Dy6  1  0.507493  0.837988  0.718494  1
  Dy  Dy7  1  0.332510  0.998384  0.469407  1
  Co  Co8  1  0.696704  0.525039  0.876824  1
  Si  Si9  1  0.014909  0.731296  0.438521  1
  Si  Si10  1  0.991117  0.259017  0.936811  1
  Si  Si11  1  0.729501  0.016703  0.559440  1
  Si  Si12  1  0.216378  0.478687  0.188961  1
  Si  Si13  1  0.764191  0.511974  0.693838  1
  Si  Si14  1  0.489990  0.234920  0.812529  1
  Si  Si15  1  0.521353  0.784920  0.315080  1
  Si  Si16  1  0.266702  0.978183  0.061604  1
  Si  Si17  1  0.804151  0.887538  0.184256  1
  Si  Si18  1  0.304428  0.616741  0.563710  1
  Si  Si19  1  0.689155  0.393499  0.056781  1
  Si  Si20  1  0.614342  0.307312  0.435753  1
  Si  Si21  1  0.404194  0.681079  0.938269  1
  Si  Si22  1  0.113958  0.197833  0.313964  1
  Si  Si23  1  0.194355  0.111158  0.686551  1
  Si  Si24  1  0.884070  0.800292  0.816183  1
  Tc  Tc25  1  0.320841  0.487140  0.378293  1
  Tc  Tc26  1  0.812448  0.026094  0.368404  1
  Tc  Tc27  1  0.977338  0.190801  0.130572  1
  Tc  Tc28  1  0.015871  0.812651  0.632803  1
  Tc  Tc29  1  0.479274  0.317717  0.619105  1
  Tc  Tc30  1  0.193798  0.961781  0.868755  1
  Tc  Tc31  1  0.662306  0.667248  0.499169  1
  Tc  Tc32  1  0.839177  0.162816  0.754626  1
  Tc  Tc33  1  0.159128  0.838716  0.250459  1
  Tc  Tc34  1  0.339878  0.330418  0.993443  1
  Tc  Tc35  1  0.508123  0.679260  0.128631  1
