# generated using pymatgen
data_Y8AlCdPd2
_symmetry_space_group_name_H-M   'P 1'
_cell_length_a   9.70416858
_cell_length_b   9.70416933
_cell_length_c   9.69951000
_cell_angle_alpha   60.01588153
_cell_angle_beta   60.01587897
_cell_angle_gamma   60.07347427
_symmetry_Int_Tables_number   1
_chemical_formula_structural   Y8AlCdPd2
_chemical_formula_sum   'Y16 Al2 Cd2 Pd4'
_cell_volume   646.39261961
_cell_formula_units_Z   2
loop_
 _symmetry_equiv_pos_site_id
 _symmetry_equiv_pos_as_xyz
  1  'x, y, z'
loop_
 _atom_site_type_symbol
 _atom_site_label
 _atom_site_symmetry_multiplicity
 _atom_site_fract_x
 _atom_site_fract_y
 _atom_site_fract_z
 _atom_site_occupancy
  Y  Y0  1  0.354917  0.354917  0.352655  1
  Y  Y1  1  0.354917  0.354917  0.937512  1
  Y  Y2  1  0.357411  0.932721  0.354934  1
  Y  Y3  1  0.932721  0.357411  0.354934  1
  Y  Y4  1  0.808641  0.192519  0.190239  1
  Y  Y5  1  0.192519  0.808641  0.808602  1
  Y  Y6  1  0.192519  0.808641  0.190239  1
  Y  Y7  1  0.808641  0.192519  0.808602  1
  Y  Y8  1  0.189444  0.189444  0.810556  1
  Y  Y9  1  0.806558  0.806558  0.193442  1
  Y  Y10  1  0.932679  0.565715  0.565803  1
  Y  Y11  1  0.565715  0.932679  0.935803  1
  Y  Y12  1  0.565715  0.932679  0.565803  1
  Y  Y13  1  0.932679  0.565715  0.935803  1
  Y  Y14  1  0.566309  0.566309  0.933691  1
  Y  Y15  1  0.936219  0.936219  0.563781  1
  Al  Al16  1  0.581629  0.581629  0.579836  1
  Al  Al17  1  0.581629  0.581629  0.256906  1
  Cd  Cd18  1  0.581157  0.258118  0.580363  1
  Cd  Cd19  1  0.258118  0.581157  0.580363  1
  Pd  Pd20  1  0.144564  0.144564  0.145476  1
  Pd  Pd21  1  0.144564  0.144564  0.565395  1
  Pd  Pd22  1  0.143159  0.567578  0.144631  1
  Pd  Pd23  1  0.567578  0.143159  0.144631  1
