# generated using pymatgen
data_Th3InGe2Rh3
_symmetry_space_group_name_H-M   'P 1'
_cell_length_a   7.40489700
_cell_length_b   7.43819616
_cell_length_c   4.03507300
_cell_angle_alpha   90.00000000
_cell_angle_beta   90.00000000
_cell_angle_gamma   120.14887950
_symmetry_Int_Tables_number   1
_chemical_formula_structural   Th3InGe2Rh3
_chemical_formula_sum   'Th3 In1 Ge2 Rh3'
_cell_volume   192.18309713
_cell_formula_units_Z   1
loop_
 _symmetry_equiv_pos_site_id
 _symmetry_equiv_pos_as_xyz
  1  'x, y, z'
loop_
 _atom_site_type_symbol
 _atom_site_label
 _atom_site_symmetry_multiplicity
 _atom_site_fract_x
 _atom_site_fract_y
 _atom_site_fract_z
 _atom_site_occupancy
  Th  Th0  1  0.420611  0.415989  0.500000  1
  Th  Th1  1  0.579389  0.995379  0.500000  1
  Th  Th2  1  0.000000  0.596461  0.500000  1
  In  In3  1  0.000000  0.245732  0.000000  1
  Ge  Ge4  1  0.750404  0.755492  0.000000  1
  Ge  Ge5  1  0.249596  0.005088  0.000000  1
  Rh  Rh6  1  0.658178  0.333344  0.000000  1
  Rh  Rh7  1  0.341822  0.675167  0.000000  1
  Rh  Rh8  1  0.000000  0.977347  0.500000  1
