# generated using pymatgen
data_Gd4Si6IrRh
_symmetry_space_group_name_H-M   'P 1'
_cell_length_a   8.18475900
_cell_length_b   8.18476029
_cell_length_c   7.95095200
_cell_angle_alpha   90.00000000
_cell_angle_beta   90.00000000
_cell_angle_gamma   119.99999073
_symmetry_Int_Tables_number   1
_chemical_formula_structural   Gd4Si6IrRh
_chemical_formula_sum   'Gd8 Si12 Ir2 Rh2'
_cell_volume   461.27685583
_cell_formula_units_Z   2
loop_
 _symmetry_equiv_pos_site_id
 _symmetry_equiv_pos_as_xyz
  1  'x, y, z'
loop_
 _atom_site_type_symbol
 _atom_site_label
 _atom_site_symmetry_multiplicity
 _atom_site_fract_x
 _atom_site_fract_y
 _atom_site_fract_z
 _atom_site_occupancy
  Gd  Gd0  1  0.000000  0.000000  0.248558  1
  Gd  Gd1  1  0.000000  0.000000  0.751442  1
  Gd  Gd2  1  0.508857  0.491143  0.250369  1
  Gd  Gd3  1  0.508857  0.017715  0.250369  1
  Gd  Gd4  1  0.982285  0.491143  0.250369  1
  Gd  Gd5  1  0.491143  0.508857  0.749631  1
  Gd  Gd6  1  0.491143  0.982285  0.749631  1
  Gd  Gd7  1  0.017715  0.508857  0.749631  1
  Si  Si8  1  0.166407  0.833593  0.498927  1
  Si  Si9  1  0.166407  0.332813  0.498927  1
  Si  Si10  1  0.667187  0.833593  0.498927  1
  Si  Si11  1  0.833593  0.166407  0.501073  1
  Si  Si12  1  0.833593  0.667187  0.501073  1
  Si  Si13  1  0.332813  0.166407  0.501073  1
  Si  Si14  1  0.833261  0.166739  0.000420  1
  Si  Si15  1  0.833261  0.666523  0.000420  1
  Si  Si16  1  0.333477  0.166739  0.000420  1
  Si  Si17  1  0.166739  0.833261  0.999580  1
  Si  Si18  1  0.166739  0.333477  0.999580  1
  Si  Si19  1  0.666523  0.833261  0.999580  1
  Ir  Ir20  1  0.333333  0.666667  0.471102  1
  Ir  Ir21  1  0.666667  0.333333  0.528898  1
  Rh  Rh22  1  0.666667  0.333333  0.963187  1
  Rh  Rh23  1  0.333333  0.666667  0.036813  1
