# generated using pymatgen
data_Y3HoAl18Ir5Pt
_symmetry_space_group_name_H-M   'P 1'
_cell_length_a   7.56258920
_cell_length_b   7.56359132
_cell_length_c   9.46335952
_cell_angle_alpha   89.97203825
_cell_angle_beta   89.97534164
_cell_angle_gamma   119.60033553
_symmetry_Int_Tables_number   1
_chemical_formula_structural   Y3HoAl18Ir5Pt
_chemical_formula_sum   'Y3 Ho1 Al18 Ir5 Pt1'
_cell_volume   470.66221298
_cell_formula_units_Z   1
loop_
 _symmetry_equiv_pos_site_id
 _symmetry_equiv_pos_as_xyz
  1  'x, y, z'
loop_
 _atom_site_type_symbol
 _atom_site_label
 _atom_site_symmetry_multiplicity
 _atom_site_fract_x
 _atom_site_fract_y
 _atom_site_fract_z
 _atom_site_occupancy
  Y  Y0  1  0.994648  0.670448  0.250677  1
  Y  Y1  1  0.004765  0.329210  0.749469  1
  Y  Y2  1  0.670725  0.995277  0.250538  1
  Ho  Ho3  1  0.329274  0.005049  0.749277  1
  Al  Al4  1  0.128174  0.127347  0.250399  1
  Al  Al5  1  0.872800  0.871838  0.749592  1
  Al  Al6  1  0.004359  0.335332  0.076383  1
  Al  Al7  1  0.002356  0.668636  0.923565  1
  Al  Al8  1  0.000232  0.665229  0.574661  1
  Al  Al9  1  0.335043  0.000002  0.425700  1
  Al  Al10  1  0.000693  0.334518  0.424897  1
  Al  Al11  1  0.665202  0.999298  0.575143  1
  Al  Al12  1  0.664405  0.995636  0.923565  1
  Al  Al13  1  0.331629  0.997885  0.076119  1
  Al  Al14  1  0.333062  0.332724  0.551857  1
  Al  Al15  1  0.667080  0.666910  0.448280  1
  Al  Al16  1  0.666246  0.669413  0.055154  1
  Al  Al17  1  0.330568  0.333580  0.944689  1
  Al  Al18  1  0.340403  0.549431  0.250378  1
  Al  Al19  1  0.659702  0.453110  0.747414  1
  Al  Al20  1  0.546647  0.339905  0.252588  1
  Al  Al21  1  0.450674  0.659879  0.749629  1
  Ir  Ir22  1  0.328111  0.671800  0.999870  1
  Ir  Ir23  1  0.328381  0.671490  0.500139  1
  Ir  Ir24  1  0.672064  0.328030  0.500178  1
  Ir  Ir25  1  0.999977  0.000312  0.999824  1
  Ir  Ir26  1  0.000488  0.999832  0.500165  1
  Pt  Pt27  1  0.672292  0.327881  0.999848  1
