# generated using pymatgen
data_SrZnPt
_symmetry_space_group_name_H-M   'P 1'
_cell_length_a   4.42357500
_cell_length_b   8.47777400
_cell_length_c   7.67328600
_cell_angle_alpha   89.99997972
_cell_angle_beta   90.00000000
_cell_angle_gamma   90.00000000
_symmetry_Int_Tables_number   1
_chemical_formula_structural   SrZnPt
_chemical_formula_sum   'Sr4 Zn4 Pt4'
_cell_volume   287.76410197
_cell_formula_units_Z   4
loop_
 _symmetry_equiv_pos_site_id
 _symmetry_equiv_pos_as_xyz
  1  'x, y, z'
loop_
 _atom_site_type_symbol
 _atom_site_label
 _atom_site_symmetry_multiplicity
 _atom_site_fract_x
 _atom_site_fract_y
 _atom_site_fract_z
 _atom_site_occupancy
  Sr  Sr0  1  0.250000  0.500000  0.749998  1
  Sr  Sr1  1  0.750000  0.999999  0.249999  1
  Sr  Sr2  1  0.750000  0.499999  0.250002  1
  Sr  Sr3  1  0.250000  0.000001  0.750003  1
  Zn  Zn4  1  0.750000  0.249994  0.582778  1
  Zn  Zn5  1  0.250000  0.750006  0.417223  1
  Zn  Zn6  1  0.250000  0.249998  0.082778  1
  Zn  Zn7  1  0.750000  0.750001  0.917222  1
  Pt  Pt8  1  0.250000  0.749996  0.084220  1
  Pt  Pt9  1  0.250000  0.249995  0.415780  1
  Pt  Pt10  1  0.750000  0.249996  0.915781  1
  Pt  Pt11  1  0.750000  0.750012  0.584220  1
