# generated using pymatgen
data_Pr16MgHg3RuPt3
_symmetry_space_group_name_H-M   'P 1'
_cell_length_a   10.06178919
_cell_length_b   10.06178921
_cell_length_c   10.06786328
_cell_angle_alpha   60.01994972
_cell_angle_beta   60.01995177
_cell_angle_gamma   59.99999315
_symmetry_Int_Tables_number   1
_chemical_formula_structural   Pr16MgHg3RuPt3
_chemical_formula_sum   'Pr16 Mg1 Hg3 Ru1 Pt3'
_cell_volume   720.94745932
_cell_formula_units_Z   1
loop_
 _symmetry_equiv_pos_site_id
 _symmetry_equiv_pos_as_xyz
  1  'x, y, z'
loop_
 _atom_site_type_symbol
 _atom_site_label
 _atom_site_symmetry_multiplicity
 _atom_site_fract_x
 _atom_site_fract_y
 _atom_site_fract_z
 _atom_site_occupancy
  Pr  Pr0  1  0.063399  0.439930  0.433272  1
  Pr  Pr1  1  0.185529  0.808613  0.197246  1
  Pr  Pr2  1  0.653950  0.653950  0.647331  1
  Pr  Pr3  1  0.436859  0.436859  0.061240  1
  Pr  Pr4  1  0.065042  0.436859  0.061240  1
  Pr  Pr5  1  0.436859  0.065042  0.061240  1
  Pr  Pr6  1  0.063399  0.063399  0.433272  1
  Pr  Pr7  1  0.646173  0.646173  0.061480  1
  Pr  Pr8  1  0.653950  0.044767  0.647331  1
  Pr  Pr9  1  0.190494  0.808254  0.810758  1
  Pr  Pr10  1  0.439930  0.063399  0.433272  1
  Pr  Pr11  1  0.190494  0.190494  0.810758  1
  Pr  Pr12  1  0.044767  0.653950  0.647331  1
  Pr  Pr13  1  0.808613  0.808613  0.197246  1
  Pr  Pr14  1  0.808613  0.185529  0.197246  1
  Pr  Pr15  1  0.808254  0.190494  0.810758  1
  Mg  Mg16  1  0.430169  0.430169  0.709494  1
  Hg  Hg17  1  0.413739  0.413739  0.420919  1
  Hg  Hg18  1  0.413739  0.751602  0.420919  1
  Hg  Hg19  1  0.751602  0.413739  0.420919  1
  Ru  Ru20  1  0.857218  0.857218  0.428345  1
  Pt  Pt21  1  0.854860  0.854860  0.862795  1
  Pt  Pt22  1  0.427487  0.854860  0.862795  1
  Pt  Pt23  1  0.854860  0.427487  0.862795  1
