# generated using pymatgen
data_Tb3ErAl24Pd2Pt7
_symmetry_space_group_name_H-M   'P 1'
_cell_length_a   7.53566849
_cell_length_b   7.54251794
_cell_length_c   13.18683143
_cell_angle_alpha   84.60930342
_cell_angle_beta   100.91362464
_cell_angle_gamma   119.84424135
_symmetry_Int_Tables_number   1
_chemical_formula_structural   Tb3ErAl24Pd2Pt7
_chemical_formula_sum   'Tb3 Er1 Al24 Pd2 Pt7'
_cell_volume   638.35465337
_cell_formula_units_Z   1
loop_
 _symmetry_equiv_pos_site_id
 _symmetry_equiv_pos_as_xyz
  1  'x, y, z'
loop_
 _atom_site_type_symbol
 _atom_site_label
 _atom_site_symmetry_multiplicity
 _atom_site_fract_x
 _atom_site_fract_y
 _atom_site_fract_z
 _atom_site_occupancy
  Tb  Tb0  1  0.732429  0.998600  0.192094  1
  Tb  Tb1  1  0.268033  0.001674  0.807810  1
  Tb  Tb2  1  0.062001  0.668031  0.192165  1
  Er  Er3  1  0.937705  0.331309  0.807126  1
  Al  Al4  1  0.807270  0.869738  0.815534  1
  Al  Al5  1  0.192507  0.131474  0.184495  1
  Al  Al6  1  0.981171  0.665449  0.944044  1
  Al  Al7  1  0.019013  0.333849  0.054717  1
  Al  Al8  1  0.397320  0.663116  0.816496  1
  Al  Al9  1  0.600496  0.335998  0.183683  1
  Al  Al10  1  0.881816  0.664638  0.669865  1
  Al  Al11  1  0.118660  0.334653  0.330762  1
  Al  Al12  1  0.603661  0.459368  0.815946  1
  Al  Al13  1  0.396823  0.541559  0.183908  1
  Al  Al14  1  0.230047  0.340224  0.668905  1
  Al  Al15  1  0.769650  0.659713  0.331745  1
  Al  Al16  1  0.853145  0.332971  0.558547  1
  Al  Al17  1  0.185611  0.998980  0.558621  1
  Al  Al18  1  0.814376  0.000880  0.441542  1
  Al  Al19  1  0.352183  0.999715  0.055354  1
  Al  Al20  1  0.648486  0.000612  0.944236  1
  Al  Al21  1  0.556516  0.993469  0.669933  1
  Al  Al22  1  0.444319  0.006811  0.330520  1
  Al  Al23  1  0.520842  0.667404  0.561555  1
  Al  Al24  1  0.479415  0.332574  0.438775  1
  Al  Al25  1  0.682415  0.667343  0.046165  1
  Al  Al26  1  0.316284  0.333025  0.953114  1
  Al  Al27  1  0.147009  0.667034  0.441640  1
  Pd  Pd28  1  0.328479  0.671429  0.999837  1
  Pd  Pd29  1  0.000133  0.000133  0.999810  1
  Pt  Pt30  1  0.546578  0.324789  0.637496  1
  Pt  Pt31  1  0.454177  0.674867  0.363282  1
  Pt  Pt32  1  0.887568  0.008103  0.638615  1
  Pt  Pt33  1  0.112817  0.992449  0.361822  1
  Pt  Pt34  1  0.671428  0.328594  0.999838  1
  Pt  Pt35  1  0.203939  0.666078  0.638631  1
  Pt  Pt36  1  0.795677  0.333345  0.361371  1
