# generated using pymatgen
data_Sm8Nb11Si16Ru
_symmetry_space_group_name_H-M   'P 1'
_cell_length_a   7.11257472
_cell_length_b   7.12230734
_cell_length_c   13.17813793
_cell_angle_alpha   89.74674497
_cell_angle_beta   90.02335847
_cell_angle_gamma   90.11507957
_symmetry_Int_Tables_number   1
_chemical_formula_structural   Sm8Nb11Si16Ru
_chemical_formula_sum   'Sm8 Nb11 Si16 Ru1'
_cell_volume   667.56944080
_cell_formula_units_Z   1
loop_
 _symmetry_equiv_pos_site_id
 _symmetry_equiv_pos_as_xyz
  1  'x, y, z'
loop_
 _atom_site_type_symbol
 _atom_site_label
 _atom_site_symmetry_multiplicity
 _atom_site_fract_x
 _atom_site_fract_y
 _atom_site_fract_z
 _atom_site_occupancy
  Sm  Sm0  1  0.997638  0.339781  0.219953  1
  Sm  Sm1  1  0.003213  0.660828  0.715958  1
  Sm  Sm2  1  0.159873  0.499359  0.466915  1
  Sm  Sm3  1  0.501514  0.840206  0.033895  1
  Sm  Sm4  1  0.839218  0.502309  0.967346  1
  Sm  Sm5  1  0.496805  0.159355  0.531669  1
  Sm  Sm6  1  0.339082  0.997623  0.781697  1
  Sm  Sm7  1  0.661380  0.001927  0.282672  1
  Nb  Nb8  1  0.170629  0.170885  0.000868  1
  Nb  Nb9  1  0.825152  0.828382  0.500362  1
  Nb  Nb10  1  0.329013  0.667420  0.248890  1
  Nb  Nb11  1  0.669277  0.330016  0.750028  1
  Nb  Nb12  1  0.844477  0.008522  0.875127  1
  Nb  Nb13  1  0.505599  0.658428  0.623983  1
  Nb  Nb14  1  0.344309  0.491528  0.874588  1
  Nb  Nb15  1  0.488258  0.340034  0.126847  1
  Nb  Nb16  1  0.656748  0.508780  0.374861  1
  Nb  Nb17  1  0.993045  0.155755  0.624275  1
  Nb  Nb18  1  0.007196  0.843241  0.123957  1
  Si  Si19  1  0.288631  0.039990  0.190086  1
  Si  Si20  1  0.708460  0.956114  0.686927  1
  Si  Si21  1  0.452016  0.791543  0.434598  1
  Si  Si22  1  0.208108  0.544119  0.063125  1
  Si  Si23  1  0.544282  0.207679  0.936390  1
  Si  Si24  1  0.789112  0.454661  0.563572  1
  Si  Si25  1  0.044783  0.291958  0.813384  1
  Si  Si26  1  0.962469  0.718471  0.313422  1
  Si  Si27  1  0.372211  0.293941  0.316356  1
  Si  Si28  1  0.629276  0.704896  0.815107  1
  Si  Si29  1  0.199480  0.872607  0.561828  1
  Si  Si30  1  0.129721  0.796702  0.934326  1
  Si  Si31  1  0.797531  0.130206  0.065959  1
  Si  Si32  1  0.877366  0.196054  0.435568  1
  Si  Si33  1  0.296995  0.370434  0.684107  1
  Si  Si34  1  0.703271  0.627056  0.185592  1
  Ru  Ru35  1  0.163863  0.999191  0.375761  1
