# generated using pymatgen
data_Nd2SmCCl5
_symmetry_space_group_name_H-M   'P 1'
_cell_length_a   7.38484561
_cell_length_b   8.82808377
_cell_length_c   8.89678483
_cell_angle_alpha   108.47067823
_cell_angle_beta   96.60873316
_cell_angle_gamma   105.93938975
_symmetry_Int_Tables_number   1
_chemical_formula_structural   Nd2SmCCl5
_chemical_formula_sum   'Nd4 Sm2 C2 Cl10'
_cell_volume   515.83638307
_cell_formula_units_Z   2
loop_
 _symmetry_equiv_pos_site_id
 _symmetry_equiv_pos_as_xyz
  1  'x, y, z'
loop_
 _atom_site_type_symbol
 _atom_site_label
 _atom_site_symmetry_multiplicity
 _atom_site_fract_x
 _atom_site_fract_y
 _atom_site_fract_z
 _atom_site_occupancy
  Nd  Nd0  1  0.879159  0.951865  0.235428  1
  Nd  Nd1  1  0.120841  0.048135  0.764572  1
  Nd  Nd2  1  0.027253  0.711869  0.910593  1
  Nd  Nd3  1  0.972747  0.288131  0.089407  1
  Sm  Sm4  1  0.606264  0.843773  0.792983  1
  Sm  Sm5  1  0.393736  0.156227  0.207017  1
  C  C6  1  0.905179  0.965687  0.952041  1
  C  C7  1  0.094821  0.034313  0.047959  1
  Cl  Cl8  1  0.754032  0.914811  0.541012  1
  Cl  Cl9  1  0.245968  0.085189  0.458988  1
  Cl  Cl10  1  0.456841  0.827720  0.078336  1
  Cl  Cl11  1  0.543159  0.172280  0.921664  1
  Cl  Cl12  1  0.809360  0.261041  0.353559  1
  Cl  Cl13  1  0.190640  0.738959  0.646441  1
  Cl  Cl14  1  0.908589  0.627811  0.169927  1
  Cl  Cl15  1  0.091411  0.372189  0.830073  1
  Cl  Cl16  1  0.651792  0.539126  0.720188  1
  Cl  Cl17  1  0.348208  0.460874  0.279812  1
