# generated using pymatgen
data_Dy3Ho5Si12PtRh3
_symmetry_space_group_name_H-M   'P 1'
_cell_length_a   8.17174401
_cell_length_b   8.17174451
_cell_length_c   7.88636300
_cell_angle_alpha   89.99947066
_cell_angle_beta   90.00052799
_cell_angle_gamma   120.00479344
_symmetry_Int_Tables_number   1
_chemical_formula_structural   Dy3Ho5Si12PtRh3
_chemical_formula_sum   'Dy3 Ho5 Si12 Pt1 Rh3'
_cell_volume   456.05366333
_cell_formula_units_Z   1
loop_
 _symmetry_equiv_pos_site_id
 _symmetry_equiv_pos_as_xyz
  1  'x, y, z'
loop_
 _atom_site_type_symbol
 _atom_site_label
 _atom_site_symmetry_multiplicity
 _atom_site_fract_x
 _atom_site_fract_y
 _atom_site_fract_z
 _atom_site_occupancy
  Dy  Dy0  1  0.999999  0.000001  0.249309  1
  Dy  Dy1  1  0.000004  0.999996  0.751452  1
  Dy  Dy2  1  0.510402  0.489598  0.247436  1
  Ho  Ho3  1  0.510390  0.020744  0.247414  1
  Ho  Ho4  1  0.979256  0.489610  0.247414  1
  Ho  Ho5  1  0.491488  0.508512  0.752134  1
  Ho  Ho6  1  0.491491  0.982983  0.752140  1
  Ho  Ho7  1  0.017017  0.508509  0.752140  1
  Si  Si8  1  0.164411  0.835589  0.500141  1
  Si  Si9  1  0.164370  0.328814  0.500153  1
  Si  Si10  1  0.671186  0.835630  0.500153  1
  Si  Si11  1  0.832060  0.167940  0.499706  1
  Si  Si12  1  0.832144  0.664160  0.499762  1
  Si  Si13  1  0.335840  0.167856  0.499762  1
  Si  Si14  1  0.833259  0.166741  0.999391  1
  Si  Si15  1  0.833347  0.666560  0.999337  1
  Si  Si16  1  0.333440  0.166653  0.999337  1
  Si  Si17  1  0.166936  0.833064  0.000569  1
  Si  Si18  1  0.166874  0.333846  0.000544  1
  Si  Si19  1  0.666154  0.833126  0.000544  1
  Pt  Pt20  1  0.333255  0.666745  0.466148  1
  Rh  Rh21  1  0.666707  0.333293  0.536999  1
  Rh  Rh22  1  0.666707  0.333293  0.963400  1
  Rh  Rh23  1  0.333263  0.666737  0.034613  1
