# generated using pymatgen
data_Ba3InBiSb2
_symmetry_space_group_name_H-M   'P 1'
_cell_length_a   5.09538300
_cell_length_b   14.82546000
_cell_length_c   15.43230100
_cell_angle_alpha   90.00000000
_cell_angle_beta   90.00000000
_cell_angle_gamma   90.00000000
_symmetry_Int_Tables_number   1
_chemical_formula_structural   Ba3InBiSb2
_chemical_formula_sum   'Ba12 In4 Bi4 Sb8'
_cell_volume   1165.77757417
_cell_formula_units_Z   4
loop_
 _symmetry_equiv_pos_site_id
 _symmetry_equiv_pos_as_xyz
  1  'x, y, z'
loop_
 _atom_site_type_symbol
 _atom_site_label
 _atom_site_symmetry_multiplicity
 _atom_site_fract_x
 _atom_site_fract_y
 _atom_site_fract_z
 _atom_site_occupancy
  Ba  Ba0  1  0.250000  0.425037  0.110640  1
  Ba  Ba1  1  0.250000  0.140345  0.000516  1
  Ba  Ba2  1  0.250000  0.213380  0.291084  1
  Ba  Ba3  1  0.750000  0.286620  0.791084  1
  Ba  Ba4  1  0.750000  0.359655  0.500516  1
  Ba  Ba5  1  0.250000  0.925037  0.389360  1
  Ba  Ba6  1  0.750000  0.786620  0.708916  1
  Ba  Ba7  1  0.750000  0.859655  0.999484  1
  Ba  Ba8  1  0.250000  0.713380  0.208916  1
  Ba  Ba9  1  0.750000  0.074963  0.610640  1
  Ba  Ba10  1  0.750000  0.574963  0.889360  1
  Ba  Ba11  1  0.250000  0.640345  0.499484  1
  In  In12  1  0.750000  0.558057  0.300896  1
  In  In13  1  0.750000  0.058057  0.199104  1
  In  In14  1  0.250000  0.441943  0.699104  1
  In  In15  1  0.250000  0.941943  0.800896  1
  Bi  Bi16  1  0.750000  0.046925  0.850319  1
  Bi  Bi17  1  0.250000  0.453075  0.350319  1
  Bi  Bi18  1  0.250000  0.953075  0.149681  1
  Bi  Bi19  1  0.750000  0.546925  0.649681  1
  Sb  Sb20  1  0.750000  0.242039  0.124258  1
  Sb  Sb21  1  0.750000  0.742039  0.375742  1
  Sb  Sb22  1  0.750000  0.591152  0.112911  1
  Sb  Sb23  1  0.250000  0.257961  0.624258  1
  Sb  Sb24  1  0.250000  0.757961  0.875742  1
  Sb  Sb25  1  0.750000  0.091152  0.387089  1
  Sb  Sb26  1  0.250000  0.908848  0.612911  1
  Sb  Sb27  1  0.250000  0.408848  0.887089  1
