# generated using pymatgen
data_La2Nb3P7Rh9
_symmetry_space_group_name_H-M   'P 1'
_cell_length_a   3.97475800
_cell_length_b   9.73109706
_cell_length_c   9.73542708
_cell_angle_alpha   120.00037589
_cell_angle_beta   90.00051195
_cell_angle_gamma   89.99960442
_symmetry_Int_Tables_number   1
_chemical_formula_structural   La2Nb3P7Rh9
_chemical_formula_sum   'La2 Nb3 P7 Rh9'
_cell_volume   326.10427449
_cell_formula_units_Z   1
loop_
 _symmetry_equiv_pos_site_id
 _symmetry_equiv_pos_as_xyz
  1  'x, y, z'
loop_
 _atom_site_type_symbol
 _atom_site_label
 _atom_site_symmetry_multiplicity
 _atom_site_fract_x
 _atom_site_fract_y
 _atom_site_fract_z
 _atom_site_occupancy
  La  La0  1  0.261555  0.666780  0.333369  1
  La  La1  1  0.761975  0.333260  0.666644  1
  Nb  Nb2  1  0.761987  0.095687  0.876937  1
  Nb  Nb3  1  0.761983  0.123066  0.218906  1
  Nb  Nb4  1  0.761988  0.781073  0.904370  1
  P  P5  1  0.262076  0.000023  0.999896  1
  P  P6  1  0.761832  0.884923  0.595886  1
  P  P7  1  0.761818  0.404166  0.288977  1
  P  P8  1  0.761813  0.710866  0.115078  1
  P  P9  1  0.261974  0.112239  0.411378  1
  P  P10  1  0.261975  0.588680  0.700723  1
  P  P11  1  0.261967  0.299375  0.887899  1
  Rh  Rh12  1  0.261912  0.884293  0.160167  1
  Rh  Rh13  1  0.261918  0.840028  0.724061  1
  Rh  Rh14  1  0.261912  0.275769  0.115832  1
  Rh  Rh15  1  0.761878  0.611544  0.561237  1
  Rh  Rh16  1  0.761872  0.438688  0.050397  1
  Rh  Rh17  1  0.761871  0.949569  0.388424  1
  Rh  Rh18  1  0.261893  0.368042  0.435928  1
  Rh  Rh19  1  0.261904  0.564179  0.932044  1
  Rh  Rh20  1  0.261897  0.067752  0.631843  1
