# generated using pymatgen
data_KVIrSe4
_symmetry_space_group_name_H-M   'P 1'
_cell_length_a   3.73399100
_cell_length_b   5.89740454
_cell_length_c   8.65173395
_cell_angle_alpha   68.50050203
_cell_angle_beta   90.00000000
_cell_angle_gamma   90.00000000
_symmetry_Int_Tables_number   1
_chemical_formula_structural   KVIrSe4
_chemical_formula_sum   'K1 V1 Ir1 Se4'
_cell_volume   177.26244833
_cell_formula_units_Z   1
loop_
 _symmetry_equiv_pos_site_id
 _symmetry_equiv_pos_as_xyz
  1  'x, y, z'
loop_
 _atom_site_type_symbol
 _atom_site_label
 _atom_site_symmetry_multiplicity
 _atom_site_fract_x
 _atom_site_fract_y
 _atom_site_fract_z
 _atom_site_occupancy
  K  K0  1  0.500000  0.613479  0.511071  1
  V  V1  1  0.500000  0.562127  0.006079  1
  Ir  Ir2  1  0.000000  0.973262  0.993582  1
  Se  Se3  1  0.000000  0.545466  0.205295  1
  Se  Se4  1  0.500000  0.081727  0.149160  1
  Se  Se5  1  0.000000  0.432432  0.844699  1
  Se  Se6  1  0.500000  0.956608  0.794813  1
