# generated using pymatgen
data_Dy4Mn3Co(CuO5)4
_symmetry_space_group_name_H-M   'P 1'
_cell_length_a   5.63593600
_cell_length_b   7.49166055
_cell_length_c   8.43871032
_cell_angle_alpha   89.71904545
_cell_angle_beta   90.00000000
_cell_angle_gamma   90.00000000
_symmetry_Int_Tables_number   1
_chemical_formula_structural   Dy4Mn3Co(CuO5)4
_chemical_formula_sum   'Dy4 Mn3 Co1 Cu4 O20'
_cell_volume   356.29932676
_cell_formula_units_Z   1
loop_
 _symmetry_equiv_pos_site_id
 _symmetry_equiv_pos_as_xyz
  1  'x, y, z'
loop_
 _atom_site_type_symbol
 _atom_site_label
 _atom_site_symmetry_multiplicity
 _atom_site_fract_x
 _atom_site_fract_y
 _atom_site_fract_z
 _atom_site_occupancy
  Dy  Dy0  1  0.001364  0.352514  0.675041  1
  Dy  Dy1  1  0.001364  0.647486  0.324959  1
  Dy  Dy2  1  0.000818  0.850704  0.826779  1
  Dy  Dy3  1  0.000818  0.149296  0.173221  1
  Mn  Mn4  1  0.740942  0.000000  0.500000  1
  Mn  Mn5  1  0.739855  0.500000  0.000000  1
  Mn  Mn6  1  0.259078  0.000000  0.500000  1
  Co  Co7  1  0.258427  0.500000  0.000000  1
  Cu  Cu8  1  0.499808  0.071994  0.849752  1
  Cu  Cu9  1  0.499808  0.928006  0.150248  1
  Cu  Cu10  1  0.500182  0.571457  0.651567  1
  Cu  Cu11  1  0.500182  0.428543  0.348433  1
  O  O12  1  0.241513  0.904712  0.286868  1
  O  O13  1  0.241513  0.095288  0.713132  1
  O  O14  1  0.759019  0.404457  0.212950  1
  O  O15  1  0.759019  0.595543  0.787050  1
  O  O16  1  0.758476  0.095744  0.713370  1
  O  O17  1  0.758476  0.904256  0.286630  1
  O  O18  1  0.242748  0.592617  0.791046  1
  O  O19  1  0.242748  0.407383  0.208954  1
  O  O20  1  0.495842  0.348911  0.939307  1
  O  O21  1  0.495842  0.651089  0.060693  1
  O  O22  1  0.499918  0.846521  0.562124  1
  O  O23  1  0.499918  0.153479  0.437876  1
  O  O24  1  0.271986  0.000000  0.000000  1
  O  O25  1  0.727986  0.500000  0.500000  1
  O  O26  1  0.728009  0.000000  0.000000  1
  O  O27  1  0.271585  0.500000  0.500000  1
  O  O28  1  0.000326  0.165335  0.447732  1
  O  O29  1  0.000326  0.834665  0.552268  1
  O  O30  1  0.001052  0.663941  0.051587  1
  O  O31  1  0.001052  0.336059  0.948413  1
