# generated using pymatgen
data_Pr3MgCd2Ga2Au
_symmetry_space_group_name_H-M   'P 1'
_cell_length_a   7.52399000
_cell_length_b   7.60793357
_cell_length_c   4.50479800
_cell_angle_alpha   90.00000000
_cell_angle_beta   90.00000000
_cell_angle_gamma   119.63568346
_symmetry_Int_Tables_number   1
_chemical_formula_structural   Pr3MgCd2Ga2Au
_chemical_formula_sum   'Pr3 Mg1 Cd2 Ga2 Au1'
_cell_volume   224.13182828
_cell_formula_units_Z   1
loop_
 _symmetry_equiv_pos_site_id
 _symmetry_equiv_pos_as_xyz
  1  'x, y, z'
loop_
 _atom_site_type_symbol
 _atom_site_label
 _atom_site_symmetry_multiplicity
 _atom_site_fract_x
 _atom_site_fract_y
 _atom_site_fract_z
 _atom_site_occupancy
  Pr  Pr0  1  0.000997  0.416475  0.000000  1
  Pr  Pr1  1  0.584522  0.583525  0.000000  1
  Pr  Pr2  1  0.410430  0.000000  0.000000  1
  Mg  Mg3  1  0.765839  0.000000  0.500000  1
  Cd  Cd4  1  0.999027  0.751838  0.500000  1
  Cd  Cd5  1  0.247188  0.248162  0.500000  1
  Ga  Ga6  1  0.337605  0.671044  0.500000  1
  Ga  Ga7  1  0.666562  0.328956  0.500000  1
  Au  Au8  1  0.987830  0.000000  0.000000  1
