# generated using pymatgen
data_CsNaSe2O5
_symmetry_space_group_name_H-M   'P 1'
_cell_length_a   7.06583483
_cell_length_b   7.81020363
_cell_length_c   9.39098014
_cell_angle_alpha   78.32035628
_cell_angle_beta   119.34065412
_cell_angle_gamma   106.88586535
_symmetry_Int_Tables_number   1
_chemical_formula_structural   CsNaSe2O5
_chemical_formula_sum   'Cs2 Na2 Se4 O10'
_cell_volume   431.16543328
_cell_formula_units_Z   2
loop_
 _symmetry_equiv_pos_site_id
 _symmetry_equiv_pos_as_xyz
  1  'x, y, z'
loop_
 _atom_site_type_symbol
 _atom_site_label
 _atom_site_symmetry_multiplicity
 _atom_site_fract_x
 _atom_site_fract_y
 _atom_site_fract_z
 _atom_site_occupancy
  Cs  Cs0  1  0.878412  0.186037  0.755396  1
  Cs  Cs1  1  0.121588  0.813963  0.244604  1
  Na  Na2  1  0.650090  0.584486  0.773592  1
  Na  Na3  1  0.349910  0.415514  0.226408  1
  Se  Se4  1  0.192478  0.711979  0.840475  1
  Se  Se5  1  0.807522  0.288021  0.159525  1
  Se  Se6  1  0.780101  0.779341  0.489337  1
  Se  Se7  1  0.219899  0.220659  0.510663  1
  O  O8  1  0.100694  0.844269  0.902545  1
  O  O9  1  0.899306  0.155731  0.097455  1
  O  O10  1  0.213398  0.520810  0.959662  1
  O  O11  1  0.786602  0.479190  0.040338  1
  O  O12  1  0.595397  0.800248  0.546057  1
  O  O13  1  0.404603  0.199752  0.453943  1
  O  O14  1  0.644063  0.652711  0.329118  1
  O  O15  1  0.355937  0.347289  0.670882  1
  O  O16  1  0.917626  0.610639  0.659641  1
  O  O17  1  0.082374  0.389361  0.340359  1
