# generated using pymatgen
data_SmMg4P12Ru19
_symmetry_space_group_name_H-M   'P 1'
_cell_length_a   12.42818100
_cell_length_b   12.42818171
_cell_length_c   3.96435200
_cell_angle_alpha   90.00000000
_cell_angle_beta   90.00000000
_cell_angle_gamma   120.00000077
_symmetry_Int_Tables_number   1
_chemical_formula_structural   SmMg4P12Ru19
_chemical_formula_sum   'Sm1 Mg4 P12 Ru19'
_cell_volume   530.29557272
_cell_formula_units_Z   1
loop_
 _symmetry_equiv_pos_site_id
 _symmetry_equiv_pos_as_xyz
  1  'x, y, z'
loop_
 _atom_site_type_symbol
 _atom_site_label
 _atom_site_symmetry_multiplicity
 _atom_site_fract_x
 _atom_site_fract_y
 _atom_site_fract_z
 _atom_site_occupancy
  Sm  Sm0  1  0.333333  0.666667  0.000000  1
  Mg  Mg1  1  0.185662  0.185616  0.500000  1
  Mg  Mg2  1  0.814384  0.000046  0.500000  1
  Mg  Mg3  1  0.999954  0.814338  0.500000  1
  Mg  Mg4  1  0.666667  0.333333  0.000000  1
  P  P5  1  0.820961  0.819827  0.000000  1
  P  P6  1  0.180173  0.001135  0.000000  1
  P  P7  1  0.998865  0.179039  0.000000  1
  P  P8  1  0.171450  0.470247  0.500000  1
  P  P9  1  0.529753  0.701202  0.500000  1
  P  P10  1  0.298798  0.828550  0.500000  1
  P  P11  1  0.702328  0.533191  0.500000  1
  P  P12  1  0.830863  0.297672  0.500000  1
  P  P13  1  0.466809  0.169137  0.500000  1
  P  P14  1  0.388515  0.386792  0.000000  1
  P  P15  1  0.613208  0.001723  0.000000  1
  P  P16  1  0.998277  0.611485  0.000000  1
  Ru  Ru17  1  0.566495  0.568110  0.000000  1
  Ru  Ru18  1  0.431890  0.998385  0.000000  1
  Ru  Ru19  1  0.001615  0.433505  0.000000  1
  Ru  Ru20  1  0.728971  0.729475  0.500000  1
  Ru  Ru21  1  0.270525  0.999496  0.500000  1
  Ru  Ru22  1  0.000504  0.271029  0.500000  1
  Ru  Ru23  1  0.189371  0.361876  0.000000  1
  Ru  Ru24  1  0.638124  0.827495  0.000000  1
  Ru  Ru25  1  0.172505  0.810629  0.000000  1
  Ru  Ru26  1  0.824113  0.634140  0.000000  1
  Ru  Ru27  1  0.810027  0.175887  0.000000  1
  Ru  Ru28  1  0.365860  0.189973  0.000000  1
  Ru  Ru29  1  0.371821  0.493708  0.500000  1
  Ru  Ru30  1  0.506292  0.878113  0.500000  1
  Ru  Ru31  1  0.121887  0.628179  0.500000  1
  Ru  Ru32  1  0.867015  0.495462  0.500000  1
  Ru  Ru33  1  0.628448  0.132985  0.500000  1
  Ru  Ru34  1  0.504538  0.371552  0.500000  1
  Ru  Ru35  1  0.000000  0.000000  0.000000  1
