# generated using pymatgen
data_Ta4Si4Ir3Rh
_symmetry_space_group_name_H-M   'P 1'
_cell_length_a   3.80193600
_cell_length_b   6.43737343
_cell_length_c   7.33690479
_cell_angle_alpha   90.09979640
_cell_angle_beta   90.00000000
_cell_angle_gamma   90.00000000
_symmetry_Int_Tables_number   1
_chemical_formula_structural   Ta4Si4Ir3Rh
_chemical_formula_sum   'Ta4 Si4 Ir3 Rh1'
_cell_volume   179.56667041
_cell_formula_units_Z   1
loop_
 _symmetry_equiv_pos_site_id
 _symmetry_equiv_pos_as_xyz
  1  'x, y, z'
loop_
 _atom_site_type_symbol
 _atom_site_label
 _atom_site_symmetry_multiplicity
 _atom_site_fract_x
 _atom_site_fract_y
 _atom_site_fract_z
 _atom_site_occupancy
  Ta  Ta0  1  0.250000  0.525371  0.671532  1
  Ta  Ta1  1  0.750000  0.474779  0.328289  1
  Ta  Ta2  1  0.250000  0.024351  0.827309  1
  Ta  Ta3  1  0.750000  0.975345  0.172900  1
  Si  Si4  1  0.250000  0.267716  0.124300  1
  Si  Si5  1  0.750000  0.732265  0.876448  1
  Si  Si6  1  0.250000  0.766496  0.374247  1
  Si  Si7  1  0.750000  0.233094  0.624675  1
  Ir  Ir8  1  0.750000  0.854960  0.564127  1
  Ir  Ir9  1  0.250000  0.145540  0.435748  1
  Ir  Ir10  1  0.750000  0.354868  0.936073  1
  Rh  Rh11  1  0.250000  0.645214  0.064351  1
