# generated using pymatgen
data_GaI15
_symmetry_space_group_name_H-M   'P 1'
_cell_length_a   7.76265010
_cell_length_b   12.25322819
_cell_length_c   12.99491180
_cell_angle_alpha   58.22145688
_cell_angle_beta   86.36482839
_cell_angle_gamma   94.96546064
_symmetry_Int_Tables_number   1
_chemical_formula_structural   GaI15
_chemical_formula_sum   'Ga1 I15'
_cell_volume   1038.10092825
_cell_formula_units_Z   1
loop_
 _symmetry_equiv_pos_site_id
 _symmetry_equiv_pos_as_xyz
  1  'x, y, z'
loop_
 _atom_site_type_symbol
 _atom_site_label
 _atom_site_symmetry_multiplicity
 _atom_site_fract_x
 _atom_site_fract_y
 _atom_site_fract_z
 _atom_site_occupancy
  Ga  Ga0  1  0.524672  0.160936  0.487231  1
  I  I1  1  0.845445  0.204007  0.972624  1
  I  I2  1  0.558993  0.812082  0.483895  1
  I  I3  1  0.035418  0.721650  0.045607  1
  I  I4  1  0.813404  0.420597  0.734081  1
  I  I5  1  0.396015  0.599247  0.770712  1
  I  I6  1  0.281945  0.765860  0.210470  1
  I  I7  1  0.614030  0.367965  0.283033  1
  I  I8  1  0.253937  0.405933  0.001883  1
  I  I9  1  0.811627  0.650435  0.482759  1
  I  I10  1  0.787406  0.656736  0.930823  1
  I  I11  1  0.299560  0.229141  0.605085  1
  I  I12  1  0.550968  0.991286  0.074853  1
  I  I13  1  0.307583  0.995241  0.461820  1
  I  I14  1  0.179321  0.980250  0.827492  1
  I  I15  1  0.739677  0.038636  0.627633  1
