# generated using pymatgen
data_Lu4Zn(SiB4)2
_symmetry_space_group_name_H-M   'P 1'
_cell_length_a   7.07707000
_cell_length_b   7.07707000
_cell_length_c   7.45937200
_cell_angle_alpha   90.00000000
_cell_angle_beta   90.00000000
_cell_angle_gamma   90.00000000
_symmetry_Int_Tables_number   1
_chemical_formula_structural   Lu4Zn(SiB4)2
_chemical_formula_sum   'Lu8 Zn2 Si4 B16'
_cell_volume   373.60204827
_cell_formula_units_Z   2
loop_
 _symmetry_equiv_pos_site_id
 _symmetry_equiv_pos_as_xyz
  1  'x, y, z'
loop_
 _atom_site_type_symbol
 _atom_site_label
 _atom_site_symmetry_multiplicity
 _atom_site_fract_x
 _atom_site_fract_y
 _atom_site_fract_z
 _atom_site_occupancy
  Lu  Lu0  1  0.682506  0.182506  0.234513  1
  Lu  Lu1  1  0.317494  0.817494  0.765487  1
  Lu  Lu2  1  0.317494  0.817494  0.234513  1
  Lu  Lu3  1  0.817494  0.682506  0.234513  1
  Lu  Lu4  1  0.817494  0.682506  0.765487  1
  Lu  Lu5  1  0.682506  0.182506  0.765487  1
  Lu  Lu6  1  0.182506  0.317494  0.765487  1
  Lu  Lu7  1  0.182506  0.317494  0.234513  1
  Zn  Zn8  1  0.000000  0.000000  0.500000  1
  Zn  Zn9  1  0.500000  0.500000  0.500000  1
  Si  Si10  1  0.115668  0.615668  0.500000  1
  Si  Si11  1  0.884332  0.384332  0.500000  1
  Si  Si12  1  0.384332  0.115668  0.500000  1
  Si  Si13  1  0.615668  0.884332  0.500000  1
  B  B14  1  0.174347  0.039847  0.000000  1
  B  B15  1  0.825653  0.960153  0.000000  1
  B  B16  1  0.960153  0.174347  0.000000  1
  B  B17  1  0.325653  0.539847  0.000000  1
  B  B18  1  0.039847  0.825653  0.000000  1
  B  B19  1  0.674347  0.460153  0.000000  1
  B  B20  1  0.539847  0.674347  0.000000  1
  B  B21  1  0.460153  0.325653  0.000000  1
  B  B22  1  0.088587  0.588587  0.000000  1
  B  B23  1  0.911413  0.411413  0.000000  1
  B  B24  1  0.411413  0.088587  0.000000  1
  B  B25  1  0.588587  0.911413  0.000000  1
  B  B26  1  0.000000  0.000000  0.172703  1
  B  B27  1  0.000000  0.000000  0.827297  1
  B  B28  1  0.500000  0.500000  0.827297  1
  B  B29  1  0.500000  0.500000  0.172703  1
