# generated using pymatgen
data_Tm7Lu5In2Fe2Ru
_symmetry_space_group_name_H-M   'P 1'
_cell_length_a   8.22838148
_cell_length_b   8.22600877
_cell_length_c   8.22838239
_cell_angle_alpha   108.59268218
_cell_angle_beta   108.57499359
_cell_angle_gamma   111.27303330
_symmetry_Int_Tables_number   1
_chemical_formula_structural   Tm7Lu5In2Fe2Ru
_chemical_formula_sum   'Tm7 Lu5 In2 Fe2 Ru1'
_cell_volume   428.36118472
_cell_formula_units_Z   1
loop_
 _symmetry_equiv_pos_site_id
 _symmetry_equiv_pos_as_xyz
  1  'x, y, z'
loop_
 _atom_site_type_symbol
 _atom_site_label
 _atom_site_symmetry_multiplicity
 _atom_site_fract_x
 _atom_site_fract_y
 _atom_site_fract_z
 _atom_site_occupancy
  Tm  Tm0  1  0.307330  0.307574  0.615015  1
  Tm  Tm1  1  0.692556  0.692580  0.384785  1
  Tm  Tm2  1  0.692559  0.307574  0.000244  1
  Tm  Tm3  1  0.307795  0.692580  0.000024  1
  Tm  Tm4  1  0.192832  0.430848  0.238015  1
  Tm  Tm5  1  0.806972  0.569026  0.762055  1
  Tm  Tm6  1  0.193019  0.954938  0.761920  1
  Lu  Lu7  1  0.954517  0.192501  0.761874  1
  Lu  Lu8  1  0.807124  0.044820  0.237695  1
  Lu  Lu9  1  0.045232  0.807601  0.237944  1
  Lu  Lu10  1  0.430628  0.192501  0.237983  1
  Lu  Lu11  1  0.569656  0.807601  0.762370  1
  In  In12  1  0.999742  0.499431  0.499689  1
  In  In13  1  0.500030  0.000064  0.500034  1
  Fe  Fe14  1  0.383510  0.383540  0.000030  1
  Fe  Fe15  1  0.616680  0.616795  0.000115  1
  Ru  Ru16  1  0.999818  0.000027  0.000209  1
