# generated using pymatgen
data_TbDy5(Sc2Bi3)2
_symmetry_space_group_name_H-M   'P 1'
_cell_length_a   9.02150024
_cell_length_b   9.01788482
_cell_length_c   6.19993000
_cell_angle_alpha   90.00000000
_cell_angle_beta   90.00000000
_cell_angle_gamma   119.98674339
_symmetry_Int_Tables_number   1
_chemical_formula_structural   TbDy5(Sc2Bi3)2
_chemical_formula_sum   'Tb1 Dy5 Sc4 Bi6'
_cell_volume   436.87668231
_cell_formula_units_Z   1
loop_
 _symmetry_equiv_pos_site_id
 _symmetry_equiv_pos_as_xyz
  1  'x, y, z'
loop_
 _atom_site_type_symbol
 _atom_site_label
 _atom_site_symmetry_multiplicity
 _atom_site_fract_x
 _atom_site_fract_y
 _atom_site_fract_z
 _atom_site_occupancy
  Tb  Tb0  1  0.000000  0.756009  0.250000  1
  Dy  Dy1  1  0.755878  0.755979  0.750000  1
  Dy  Dy2  1  0.244122  0.000101  0.750000  1
  Dy  Dy3  1  0.000000  0.243954  0.750000  1
  Dy  Dy4  1  0.244105  0.244100  0.250000  1
  Dy  Dy5  1  0.755895  0.999995  0.250000  1
  Sc  Sc6  1  0.666681  0.333334  0.000006  1
  Sc  Sc7  1  0.333319  0.666653  0.000006  1
  Sc  Sc8  1  0.333319  0.666653  0.499994  1
  Sc  Sc9  1  0.666681  0.333334  0.499994  1
  Bi  Bi10  1  0.394673  0.394672  0.750000  1
  Bi  Bi11  1  0.605327  0.000000  0.750000  1
  Bi  Bi12  1  0.000000  0.605275  0.750000  1
  Bi  Bi13  1  0.605028  0.605279  0.250000  1
  Bi  Bi14  1  0.394972  0.000250  0.250000  1
  Bi  Bi15  1  0.000000  0.394411  0.250000  1
