# generated using pymatgen
data_Dy3LuMg3ZnPt4
_symmetry_space_group_name_H-M   'P 1'
_cell_length_a   4.16671200
_cell_length_b   7.01078057
_cell_length_c   8.53687562
_cell_angle_alpha   88.81328836
_cell_angle_beta   90.00000000
_cell_angle_gamma   90.00000000
_symmetry_Int_Tables_number   1
_chemical_formula_structural   Dy3LuMg3ZnPt4
_chemical_formula_sum   'Dy3 Lu1 Mg3 Zn1 Pt4'
_cell_volume   249.32489861
_cell_formula_units_Z   1
loop_
 _symmetry_equiv_pos_site_id
 _symmetry_equiv_pos_as_xyz
  1  'x, y, z'
loop_
 _atom_site_type_symbol
 _atom_site_label
 _atom_site_symmetry_multiplicity
 _atom_site_fract_x
 _atom_site_fract_y
 _atom_site_fract_z
 _atom_site_occupancy
  Dy  Dy0  1  0.250000  0.537423  0.173060  1
  Dy  Dy1  1  0.750000  0.448142  0.830130  1
  Dy  Dy2  1  0.750000  0.961117  0.679327  1
  Lu  Lu3  1  0.250000  0.044611  0.320564  1
  Mg  Mg4  1  0.250000  0.635198  0.560074  1
  Mg  Mg5  1  0.750000  0.363841  0.439478  1
  Mg  Mg6  1  0.750000  0.873543  0.055808  1
  Zn  Zn7  1  0.250000  0.134878  0.941844  1
  Pt  Pt8  1  0.250000  0.747889  0.871636  1
  Pt  Pt9  1  0.750000  0.248397  0.131770  1
  Pt  Pt10  1  0.750000  0.760192  0.371067  1
  Pt  Pt11  1  0.250000  0.244768  0.625243  1
