# generated using pymatgen
data_LiAc4AgO8
_symmetry_space_group_name_H-M   'P 1'
_cell_length_a   5.93035500
_cell_length_b   7.05780998
_cell_length_c   7.05781000
_cell_angle_alpha   49.68298149
_cell_angle_beta   90.00000000
_cell_angle_gamma   90.00000000
_symmetry_Int_Tables_number   1
_chemical_formula_structural   LiAc4AgO8
_chemical_formula_sum   'Li1 Ac4 Ag1 O8'
_cell_volume   225.24071498
_cell_formula_units_Z   1
loop_
 _symmetry_equiv_pos_site_id
 _symmetry_equiv_pos_as_xyz
  1  'x, y, z'
loop_
 _atom_site_type_symbol
 _atom_site_label
 _atom_site_symmetry_multiplicity
 _atom_site_fract_x
 _atom_site_fract_y
 _atom_site_fract_z
 _atom_site_occupancy
  Li  Li0  1  0.000000  0.500001  0.500001  1
  Ac  Ac1  1  0.000000  0.147714  0.147714  1
  Ac  Ac2  1  0.000000  0.852286  0.852286  1
  Ac  Ac3  1  0.500000  0.351938  0.351938  1
  Ac  Ac4  1  0.500000  0.648062  0.648062  1
  Ag  Ag5  1  0.500000  0.000000  0.000000  1
  O  O6  1  0.249465  0.499999  0.000001  1
  O  O7  1  0.750534  0.000001  0.499999  1
  O  O8  1  0.750534  0.499999  0.000001  1
  O  O9  1  0.249465  0.000001  0.499999  1
  O  O10  1  0.253377  0.246740  0.753262  1
  O  O11  1  0.746622  0.753262  0.246740  1
  O  O12  1  0.253377  0.753262  0.246740  1
  O  O13  1  0.746622  0.246740  0.753262  1
