# generated using pymatgen
data_Dy5Tm11MgIn3Ir4
_symmetry_space_group_name_H-M   'P 1'
_cell_length_a   9.59741600
_cell_length_b   9.58267548
_cell_length_c   9.58267403
_cell_angle_alpha   59.99518822
_cell_angle_beta   59.98994368
_cell_angle_gamma   59.98994728
_symmetry_Int_Tables_number   1
_chemical_formula_structural   Dy5Tm11MgIn3Ir4
_chemical_formula_sum   'Dy5 Tm11 Mg1 In3 Ir4'
_cell_volume   623.06163292
_cell_formula_units_Z   1
loop_
 _symmetry_equiv_pos_site_id
 _symmetry_equiv_pos_as_xyz
  1  'x, y, z'
loop_
 _atom_site_type_symbol
 _atom_site_label
 _atom_site_symmetry_multiplicity
 _atom_site_fract_x
 _atom_site_fract_y
 _atom_site_fract_z
 _atom_site_occupancy
  Dy  Dy0  1  0.807580  0.192300  0.192300  1
  Dy  Dy1  1  0.812710  0.188126  0.811719  1
  Dy  Dy2  1  0.191012  0.808575  0.190390  1
  Dy  Dy3  1  0.812710  0.811719  0.188126  1
  Dy  Dy4  1  0.191012  0.190390  0.808575  1
  Tm  Tm5  1  0.598510  0.597607  0.597607  1
  Tm  Tm6  1  0.597690  0.599443  0.206030  1
  Tm  Tm7  1  0.597690  0.206030  0.599443  1
  Tm  Tm8  1  0.205572  0.598487  0.598487  1
  Tm  Tm9  1  0.058797  0.440632  0.440632  1
  Tm  Tm10  1  0.436708  0.061898  0.061898  1
  Tm  Tm11  1  0.440233  0.058728  0.441239  1
  Tm  Tm12  1  0.061698  0.437795  0.061236  1
  Tm  Tm13  1  0.440233  0.441239  0.058728  1
  Tm  Tm14  1  0.061698  0.061236  0.437795  1
  Tm  Tm15  1  0.191529  0.809879  0.809879  1
  Mg  Mg16  1  0.827789  0.827102  0.827102  1
  In  In17  1  0.832411  0.832055  0.503509  1
  In  In18  1  0.832411  0.503509  0.832055  1
  In  In19  1  0.502749  0.832187  0.832187  1
  Ir  Ir20  1  0.391680  0.391332  0.391332  1
  Ir  Ir21  1  0.390265  0.392257  0.826855  1
  Ir  Ir22  1  0.390265  0.826855  0.392257  1
  Ir  Ir23  1  0.827052  0.390620  0.390620  1
