# generated using pymatgen
data_Ca20IrRh3
_symmetry_space_group_name_H-M   'P 1'
_cell_length_a   6.80403816
_cell_length_b   7.56521519
_cell_length_c   16.03331300
_cell_angle_alpha   90.00000000
_cell_angle_beta   90.00000000
_cell_angle_gamma   89.97473689
_symmetry_Int_Tables_number   1
_chemical_formula_structural   Ca20IrRh3
_chemical_formula_sum   'Ca20 Ir1 Rh3'
_cell_volume   825.29887901
_cell_formula_units_Z   1
loop_
 _symmetry_equiv_pos_site_id
 _symmetry_equiv_pos_as_xyz
  1  'x, y, z'
loop_
 _atom_site_type_symbol
 _atom_site_label
 _atom_site_symmetry_multiplicity
 _atom_site_fract_x
 _atom_site_fract_y
 _atom_site_fract_z
 _atom_site_occupancy
  Ca  Ca0  1  0.152910  0.093656  0.250000  1
  Ca  Ca1  1  0.855567  0.191786  0.565072  1
  Ca  Ca2  1  0.846671  0.906066  0.750000  1
  Ca  Ca3  1  0.825484  0.466318  0.145380  1
  Ca  Ca4  1  0.175178  0.535195  0.644646  1
  Ca  Ca5  1  0.356311  0.307753  0.065385  1
  Ca  Ca6  1  0.345151  0.594308  0.250000  1
  Ca  Ca7  1  0.825484  0.466318  0.354620  1
  Ca  Ca8  1  0.324838  0.035161  0.855376  1
  Ca  Ca9  1  0.143039  0.807910  0.066942  1
  Ca  Ca10  1  0.644387  0.691823  0.565162  1
  Ca  Ca11  1  0.676839  0.963868  0.354485  1
  Ca  Ca12  1  0.644387  0.691823  0.934838  1
  Ca  Ca13  1  0.324838  0.035161  0.644624  1
  Ca  Ca14  1  0.143039  0.807910  0.433058  1
  Ca  Ca15  1  0.653103  0.405720  0.750000  1
  Ca  Ca16  1  0.175178  0.535195  0.855354  1
  Ca  Ca17  1  0.356311  0.307753  0.434615  1
  Ca  Ca18  1  0.676839  0.963868  0.145515  1
  Ca  Ca19  1  0.855567  0.191786  0.934928  1
  Ir  Ir20  1  0.962442  0.759681  0.250000  1
  Rh  Rh21  1  0.037002  0.240722  0.750000  1
  Rh  Rh22  1  0.463361  0.740711  0.750000  1
  Rh  Rh23  1  0.536076  0.259509  0.250000  1
