# generated using pymatgen
data_Li3Mn2AlPd10
_symmetry_space_group_name_H-M   'P 1'
_cell_length_a   4.14082500
_cell_length_b   5.36991451
_cell_length_c   10.44881925
_cell_angle_alpha   87.93359805
_cell_angle_beta   90.00000000
_cell_angle_gamma   90.00000000
_symmetry_Int_Tables_number   1
_chemical_formula_structural   Li3Mn2AlPd10
_chemical_formula_sum   'Li3 Mn2 Al1 Pd10'
_cell_volume   232.18756419
_cell_formula_units_Z   1
loop_
 _symmetry_equiv_pos_site_id
 _symmetry_equiv_pos_as_xyz
  1  'x, y, z'
loop_
 _atom_site_type_symbol
 _atom_site_label
 _atom_site_symmetry_multiplicity
 _atom_site_fract_x
 _atom_site_fract_y
 _atom_site_fract_z
 _atom_site_occupancy
  Li  Li0  1  0.000000  0.000000  0.000000  1
  Li  Li1  1  0.500000  0.165686  0.364173  1
  Li  Li2  1  0.500000  0.834314  0.635827  1
  Mn  Mn3  1  0.500000  0.664886  0.137035  1
  Mn  Mn4  1  0.500000  0.335114  0.862965  1
  Al  Al5  1  0.000000  0.500000  0.500000  1
  Pd  Pd6  1  0.500000  0.174711  0.110571  1
  Pd  Pd7  1  0.500000  0.825289  0.889429  1
  Pd  Pd8  1  0.500000  0.676760  0.391607  1
  Pd  Pd9  1  0.500000  0.323240  0.608393  1
  Pd  Pd10  1  0.000000  0.000000  0.500000  1
  Pd  Pd11  1  0.000000  0.500000  0.000000  1
  Pd  Pd12  1  0.000000  0.898297  0.240055  1
  Pd  Pd13  1  0.000000  0.101703  0.759945  1
  Pd  Pd14  1  0.000000  0.394879  0.264161  1
  Pd  Pd15  1  0.000000  0.605121  0.735839  1
