# generated using pymatgen
data_PuBe2B5O11
_symmetry_space_group_name_H-M   'P 1'
_cell_length_a   4.36660200
_cell_length_b   6.72502900
_cell_length_c   25.83481100
_cell_angle_alpha   90.00000000
_cell_angle_beta   90.00000000
_cell_angle_gamma   90.00000000
_symmetry_Int_Tables_number   1
_chemical_formula_structural   PuBe2B5O11
_chemical_formula_sum   'Pu4 Be8 B20 O44'
_cell_volume   758.65279040
_cell_formula_units_Z   4
loop_
 _symmetry_equiv_pos_site_id
 _symmetry_equiv_pos_as_xyz
  1  'x, y, z'
loop_
 _atom_site_type_symbol
 _atom_site_label
 _atom_site_symmetry_multiplicity
 _atom_site_fract_x
 _atom_site_fract_y
 _atom_site_fract_z
 _atom_site_occupancy
  Pu  Pu0  1  0.859658  0.371941  0.918832  1
  Pu  Pu1  1  0.140342  0.871941  0.081168  1
  Pu  Pu2  1  0.359658  0.871941  0.581168  1
  Pu  Pu3  1  0.640342  0.371941  0.418832  1
  Be  Be4  1  0.171640  0.451685  0.789018  1
  Be  Be5  1  0.828360  0.951685  0.210982  1
  Be  Be6  1  0.671640  0.951685  0.710982  1
  Be  Be7  1  0.328360  0.451685  0.289018  1
  Be  Be8  1  0.668167  0.230545  0.792024  1
  Be  Be9  1  0.331833  0.730545  0.207976  1
  Be  Be10  1  0.168167  0.730545  0.707976  1
  Be  Be11  1  0.831833  0.230545  0.292024  1
  B  B12  1  0.382040  0.039885  0.867351  1
  B  B13  1  0.617960  0.539885  0.132649  1
  B  B14  1  0.882040  0.539885  0.632649  1
  B  B15  1  0.117960  0.039885  0.367351  1
  B  B16  1  0.158982  0.711362  0.867594  1
  B  B17  1  0.841018  0.211362  0.132406  1
  B  B18  1  0.658982  0.211362  0.632406  1
  B  B19  1  0.341018  0.711362  0.367594  1
  B  B20  1  0.038520  0.937092  0.940622  1
  B  B21  1  0.961480  0.437092  0.059378  1
  B  B22  1  0.538520  0.437092  0.559378  1
  B  B23  1  0.461480  0.937092  0.440622  1
  B  B24  1  0.547771  0.954982  0.994467  1
  B  B25  1  0.452229  0.454982  0.005533  1
  B  B26  1  0.047771  0.454982  0.505533  1
  B  B27  1  0.952229  0.954982  0.494467  1
  B  B28  1  0.181995  0.087659  0.752231  1
  B  B29  1  0.818005  0.587659  0.247769  1
  B  B30  1  0.681995  0.587659  0.747769  1
  B  B31  1  0.318005  0.087659  0.252231  1
  O  O32  1  0.364559  0.847703  0.847013  1
  O  O33  1  0.635441  0.347703  0.152987  1
  O  O34  1  0.864559  0.347703  0.652987  1
  O  O35  1  0.135441  0.847703  0.347013  1
  O  O36  1  0.643477  0.926153  0.043728  1
  O  O37  1  0.356523  0.426153  0.956272  1
  O  O38  1  0.143477  0.426153  0.456272  1
  O  O39  1  0.856523  0.926153  0.543728  1
  O  O40  1  0.006018  0.746750  0.913898  1
  O  O41  1  0.993982  0.246750  0.086102  1
  O  O42  1  0.506018  0.246750  0.586102  1
  O  O43  1  0.493982  0.746750  0.413898  1
  O  O44  1  0.234311  0.922088  0.987056  1
  O  O45  1  0.765689  0.422088  0.012944  1
  O  O46  1  0.734311  0.422088  0.512944  1
  O  O47  1  0.265689  0.922088  0.487056  1
  O  O48  1  0.168342  0.086575  0.905357  1
  O  O49  1  0.831658  0.586575  0.094643  1
  O  O50  1  0.668342  0.586575  0.594643  1
  O  O51  1  0.331658  0.086575  0.405357  1
  O  O52  1  0.100541  0.530679  0.846471  1
  O  O53  1  0.899459  0.030679  0.153529  1
  O  O54  1  0.600541  0.030679  0.653529  1
  O  O55  1  0.399459  0.530679  0.346471  1
  O  O56  1  0.582656  0.180722  0.851775  1
  O  O57  1  0.417344  0.680722  0.148225  1
  O  O58  1  0.082656  0.680722  0.648225  1
  O  O59  1  0.917344  0.180722  0.351775  1
  O  O60  1  0.734073  0.014369  0.954044  1
  O  O61  1  0.265927  0.514369  0.045956  1
  O  O62  1  0.234073  0.514369  0.545956  1
  O  O63  1  0.765927  0.014369  0.454044  1
  O  O64  1  0.031804  0.225169  0.782668  1
  O  O65  1  0.968196  0.725169  0.217332  1
  O  O66  1  0.531804  0.725169  0.717332  1
  O  O67  1  0.468196  0.225169  0.282668  1
  O  O68  1  0.495764  0.086169  0.752556  1
  O  O69  1  0.504236  0.586169  0.247444  1
  O  O70  1  0.995764  0.586169  0.747444  1
  O  O71  1  0.004236  0.086169  0.252556  1
  O  O72  1  0.031361  0.952081  0.722137  1
  O  O73  1  0.968639  0.452081  0.277863  1
  O  O74  1  0.531361  0.452081  0.777863  1
  O  O75  1  0.468639  0.952081  0.222137  1
