# generated using pymatgen
data_Dy3TmSiS3
_symmetry_space_group_name_H-M   'P 1'
_cell_length_a   6.87896573
_cell_length_b   6.87896660
_cell_length_c   6.87896600
_cell_angle_alpha   132.01351720
_cell_angle_beta   132.03687911
_cell_angle_gamma   70.18924650
_symmetry_Int_Tables_number   1
_chemical_formula_structural   Dy3TmSiS3
_chemical_formula_sum   'Dy3 Tm1 Si1 S3'
_cell_volume   176.07122313
_cell_formula_units_Z   1
loop_
 _symmetry_equiv_pos_site_id
 _symmetry_equiv_pos_as_xyz
  1  'x, y, z'
loop_
 _atom_site_type_symbol
 _atom_site_label
 _atom_site_symmetry_multiplicity
 _atom_site_fract_x
 _atom_site_fract_y
 _atom_site_fract_z
 _atom_site_occupancy
  Dy  Dy0  1  0.246668  0.246668  0.000000  1
  Dy  Dy1  1  0.753332  0.753332  0.000000  1
  Dy  Dy2  1  0.000000  0.500000  0.500000  1
  Tm  Tm3  1  0.500000  0.000000  0.500000  1
  Si  Si4  1  0.000000  0.000000  0.000000  1
  S  S5  1  0.500000  0.500000  0.000000  1
  S  S6  1  0.748428  0.248428  0.500000  1
  S  S7  1  0.251572  0.751572  0.500000  1
