# generated using pymatgen
data_NdY3NiHg
_symmetry_space_group_name_H-M   'P 1'
_cell_length_a   9.63935089
_cell_length_b   9.63935066
_cell_length_c   9.63935100
_cell_angle_alpha   60.00000225
_cell_angle_beta   60.00000304
_cell_angle_gamma   60.00000124
_symmetry_Int_Tables_number   1
_chemical_formula_structural   NdY3NiHg
_chemical_formula_sum   'Nd4 Y12 Ni4 Hg4'
_cell_volume   633.32755943
_cell_formula_units_Z   4
loop_
 _symmetry_equiv_pos_site_id
 _symmetry_equiv_pos_as_xyz
  1  'x, y, z'
loop_
 _atom_site_type_symbol
 _atom_site_label
 _atom_site_symmetry_multiplicity
 _atom_site_fract_x
 _atom_site_fract_y
 _atom_site_fract_z
 _atom_site_occupancy
  Nd  Nd0  1  0.602145  0.602145  0.602145  1
  Nd  Nd1  1  0.602145  0.602145  0.193563  1
  Nd  Nd2  1  0.602145  0.193563  0.602145  1
  Nd  Nd3  1  0.193563  0.602145  0.602145  1
  Y  Y4  1  0.062115  0.437885  0.437885  1
  Y  Y5  1  0.437885  0.062115  0.062115  1
  Y  Y6  1  0.437885  0.062115  0.437885  1
  Y  Y7  1  0.062115  0.437885  0.062115  1
  Y  Y8  1  0.437885  0.437885  0.062115  1
  Y  Y9  1  0.062115  0.062115  0.437885  1
  Y  Y10  1  0.185510  0.814490  0.814490  1
  Y  Y11  1  0.814490  0.185510  0.185510  1
  Y  Y12  1  0.814490  0.185510  0.814490  1
  Y  Y13  1  0.185510  0.814490  0.185510  1
  Y  Y14  1  0.814490  0.814490  0.185510  1
  Y  Y15  1  0.185510  0.185510  0.814490  1
  Ni  Ni16  1  0.391679  0.391679  0.391679  1
  Ni  Ni17  1  0.391679  0.391679  0.824965  1
  Ni  Ni18  1  0.391679  0.824965  0.391679  1
  Ni  Ni19  1  0.824965  0.391679  0.391679  1
  Hg  Hg20  1  0.836636  0.836636  0.836636  1
  Hg  Hg21  1  0.836636  0.836636  0.490092  1
  Hg  Hg22  1  0.836636  0.490092  0.836636  1
  Hg  Hg23  1  0.490092  0.836636  0.836636  1
