# generated using pymatgen
data_Tm2Sc3Ge4
_symmetry_space_group_name_H-M   'P 1'
_cell_length_a   7.18509400
_cell_length_b   7.45004000
_cell_length_c   14.04679900
_cell_angle_alpha   90.00000000
_cell_angle_beta   90.00000000
_cell_angle_gamma   90.00000000
_symmetry_Int_Tables_number   1
_chemical_formula_structural   Tm2Sc3Ge4
_chemical_formula_sum   'Tm8 Sc12 Ge16'
_cell_volume   751.91444265
_cell_formula_units_Z   4
loop_
 _symmetry_equiv_pos_site_id
 _symmetry_equiv_pos_as_xyz
  1  'x, y, z'
loop_
 _atom_site_type_symbol
 _atom_site_label
 _atom_site_symmetry_multiplicity
 _atom_site_fract_x
 _atom_site_fract_y
 _atom_site_fract_z
 _atom_site_occupancy
  Tm  Tm0  1  0.998507  0.177231  0.096005  1
  Tm  Tm1  1  0.001493  0.822769  0.903995  1
  Tm  Tm2  1  0.501493  0.677231  0.903995  1
  Tm  Tm3  1  0.001493  0.822769  0.596005  1
  Tm  Tm4  1  0.498507  0.322769  0.096005  1
  Tm  Tm5  1  0.998507  0.177231  0.403995  1
  Tm  Tm6  1  0.498507  0.322769  0.403995  1
  Tm  Tm7  1  0.501493  0.677231  0.596005  1
  Sc  Sc8  1  0.176591  0.500271  0.750000  1
  Sc  Sc9  1  0.823409  0.499729  0.250000  1
  Sc  Sc10  1  0.323409  0.000271  0.250000  1
  Sc  Sc11  1  0.676591  0.999729  0.750000  1
  Sc  Sc12  1  0.342767  0.168370  0.624555  1
  Sc  Sc13  1  0.657233  0.831630  0.375445  1
  Sc  Sc14  1  0.157233  0.668370  0.375445  1
  Sc  Sc15  1  0.657233  0.831630  0.124555  1
  Sc  Sc16  1  0.842767  0.331630  0.624555  1
  Sc  Sc17  1  0.342767  0.168370  0.875445  1
  Sc  Sc18  1  0.842767  0.331630  0.875445  1
  Sc  Sc19  1  0.157233  0.668370  0.124555  1
  Ge  Ge20  1  0.181731  0.459749  0.541511  1
  Ge  Ge21  1  0.818269  0.540251  0.458489  1
  Ge  Ge22  1  0.318269  0.959749  0.458489  1
  Ge  Ge23  1  0.818269  0.540251  0.041511  1
  Ge  Ge24  1  0.681731  0.040251  0.541511  1
  Ge  Ge25  1  0.181731  0.459749  0.958489  1
  Ge  Ge26  1  0.681731  0.040251  0.958489  1
  Ge  Ge27  1  0.318269  0.959749  0.041511  1
  Ge  Ge28  1  0.041279  0.124249  0.750000  1
  Ge  Ge29  1  0.958721  0.875751  0.250000  1
  Ge  Ge30  1  0.458721  0.624249  0.250000  1
  Ge  Ge31  1  0.541279  0.375751  0.750000  1
  Ge  Ge32  1  0.307772  0.859570  0.750000  1
  Ge  Ge33  1  0.692228  0.140430  0.250000  1
  Ge  Ge34  1  0.192228  0.359570  0.250000  1
  Ge  Ge35  1  0.807772  0.640430  0.750000  1
