# generated using pymatgen
data_Y6Mn14Co3MoP12
_symmetry_space_group_name_H-M   'P 1'
_cell_length_a   3.68622500
_cell_length_b   10.81747900
_cell_length_c   12.56306500
_cell_angle_alpha   90.00000000
_cell_angle_beta   90.00000000
_cell_angle_gamma   90.00000000
_symmetry_Int_Tables_number   1
_chemical_formula_structural   Y6Mn14Co3MoP12
_chemical_formula_sum   'Y6 Mn14 Co3 Mo1 P12'
_cell_volume   500.96052768
_cell_formula_units_Z   1
loop_
 _symmetry_equiv_pos_site_id
 _symmetry_equiv_pos_as_xyz
  1  'x, y, z'
loop_
 _atom_site_type_symbol
 _atom_site_label
 _atom_site_symmetry_multiplicity
 _atom_site_fract_x
 _atom_site_fract_y
 _atom_site_fract_z
 _atom_site_occupancy
  Y  Y0  1  0.000000  0.500000  0.532378  1
  Y  Y1  1  0.500000  0.000000  0.468572  1
  Y  Y2  1  0.500000  0.821338  0.206616  1
  Y  Y3  1  0.500000  0.178662  0.206616  1
  Y  Y4  1  0.000000  0.676189  0.795621  1
  Y  Y5  1  0.000000  0.323811  0.795621  1
  Mn  Mn6  1  0.000000  0.000000  0.834712  1
  Mn  Mn7  1  0.500000  0.000000  0.008593  1
  Mn  Mn8  1  0.500000  0.327663  0.995167  1
  Mn  Mn9  1  0.500000  0.672337  0.995167  1
  Mn  Mn10  1  0.000000  0.165625  0.002437  1
  Mn  Mn11  1  0.000000  0.834375  0.002437  1
  Mn  Mn12  1  0.500000  0.296766  0.433653  1
  Mn  Mn13  1  0.500000  0.703234  0.433653  1
  Mn  Mn14  1  0.000000  0.202451  0.569046  1
  Mn  Mn15  1  0.000000  0.797549  0.569046  1
  Mn  Mn16  1  0.500000  0.883117  0.702205  1
  Mn  Mn17  1  0.500000  0.116883  0.702205  1
  Mn  Mn18  1  0.000000  0.620401  0.299027  1
  Mn  Mn19  1  0.000000  0.379599  0.299027  1
  Co  Co20  1  0.500000  0.500000  0.707287  1
  Co  Co21  1  0.000000  0.000000  0.295645  1
  Co  Co22  1  0.000000  0.500000  0.989702  1
  Mo  Mo23  1  0.500000  0.500000  0.158092  1
  P  P24  1  0.500000  0.500000  0.885297  1
  P  P25  1  0.000000  0.000000  0.120038  1
  P  P26  1  0.500000  0.500000  0.357659  1
  P  P27  1  0.000000  0.000000  0.642132  1
  P  P28  1  0.500000  0.317027  0.620212  1
  P  P29  1  0.500000  0.682973  0.620212  1
  P  P30  1  0.000000  0.182335  0.383002  1
  P  P31  1  0.000000  0.817665  0.383002  1
  P  P32  1  0.500000  0.847139  0.884047  1
  P  P33  1  0.500000  0.152861  0.884047  1
  P  P34  1  0.000000  0.656035  0.108914  1
  P  P35  1  0.000000  0.343965  0.108914  1
