# generated using pymatgen
data_ErSc3CrCoB12
_symmetry_space_group_name_H-M   'P 1'
_cell_length_a   3.39433400
_cell_length_b   8.88196129
_cell_length_c   11.23421605
_cell_angle_alpha   89.68776734
_cell_angle_beta   90.00000000
_cell_angle_gamma   90.00000000
_symmetry_Int_Tables_number   1
_chemical_formula_structural   ErSc3CrCoB12
_chemical_formula_sum   'Er2 Sc6 Cr2 Co2 B24'
_cell_volume   338.68797205
_cell_formula_units_Z   2
loop_
 _symmetry_equiv_pos_site_id
 _symmetry_equiv_pos_as_xyz
  1  'x, y, z'
loop_
 _atom_site_type_symbol
 _atom_site_label
 _atom_site_symmetry_multiplicity
 _atom_site_fract_x
 _atom_site_fract_y
 _atom_site_fract_z
 _atom_site_occupancy
  Er  Er0  1  0.000000  0.820493  0.086496  1
  Er  Er1  1  0.000000  0.179507  0.913504  1
  Sc  Sc2  1  0.000000  0.324361  0.417374  1
  Sc  Sc3  1  0.000000  0.675639  0.582626  1
  Sc  Sc4  1  0.000000  0.444549  0.130580  1
  Sc  Sc5  1  0.000000  0.555451  0.869420  1
  Sc  Sc6  1  0.000000  0.942658  0.372739  1
  Sc  Sc7  1  0.000000  0.057342  0.627261  1
  Cr  Cr8  1  0.000000  0.639704  0.319670  1
  Cr  Cr9  1  0.000000  0.360296  0.680330  1
  Co  Co10  1  0.000000  0.141066  0.182340  1
  Co  Co11  1  0.000000  0.858934  0.817660  1
  B  B12  1  0.500000  0.055515  0.068034  1
  B  B13  1  0.500000  0.944485  0.931966  1
  B  B14  1  0.500000  0.552419  0.434299  1
  B  B15  1  0.500000  0.447581  0.565701  1
  B  B16  1  0.500000  0.251625  0.082928  1
  B  B17  1  0.500000  0.748375  0.917072  1
  B  B18  1  0.500000  0.750612  0.421144  1
  B  B19  1  0.500000  0.249388  0.578856  1
  B  B20  1  0.500000  0.293089  0.237429  1
  B  B21  1  0.500000  0.706911  0.762571  1
  B  B22  1  0.500000  0.794794  0.266074  1
  B  B23  1  0.500000  0.205206  0.733926  1
  B  B24  1  0.500000  0.131716  0.318111  1
  B  B25  1  0.500000  0.868284  0.681889  1
  B  B26  1  0.500000  0.629521  0.184182  1
  B  B27  1  0.500000  0.370479  0.815818  1
  B  B28  1  0.500000  0.479139  0.288572  1
  B  B29  1  0.500000  0.520861  0.711428  1
  B  B30  1  0.500000  0.984585  0.214041  1
  B  B31  1  0.500000  0.015415  0.785959  1
  B  B32  1  0.500000  0.101969  0.471878  1
  B  B33  1  0.500000  0.898031  0.528122  1
  B  B34  1  0.500000  0.598874  0.026134  1
  B  B35  1  0.500000  0.401126  0.973866  1
