# generated using pymatgen
data_Ce6Cd23Br
_symmetry_space_group_name_H-M   'P 1'
_cell_length_a   10.16423053
_cell_length_b   10.16423012
_cell_length_c   10.16423000
_cell_angle_alpha   60.00000039
_cell_angle_beta   60.00000172
_cell_angle_gamma   59.99999794
_symmetry_Int_Tables_number   1
_chemical_formula_structural   Ce6Cd23Br
_chemical_formula_sum   'Ce6 Cd23 Br1'
_cell_volume   742.52055674
_cell_formula_units_Z   1
loop_
 _symmetry_equiv_pos_site_id
 _symmetry_equiv_pos_as_xyz
  1  'x, y, z'
loop_
 _atom_site_type_symbol
 _atom_site_label
 _atom_site_symmetry_multiplicity
 _atom_site_fract_x
 _atom_site_fract_y
 _atom_site_fract_z
 _atom_site_occupancy
  Ce  Ce0  1  0.784768  0.784768  0.215232  1
  Ce  Ce1  1  0.215232  0.784768  0.215232  1
  Ce  Ce2  1  0.784768  0.215232  0.215232  1
  Ce  Ce3  1  0.215232  0.215232  0.784768  1
  Ce  Ce4  1  0.784768  0.215232  0.784768  1
  Ce  Ce5  1  0.215232  0.784768  0.784768  1
  Cd  Cd6  1  0.834208  0.834208  0.497377  1
  Cd  Cd7  1  0.834208  0.497377  0.834208  1
  Cd  Cd8  1  0.497377  0.834208  0.834208  1
  Cd  Cd9  1  0.834208  0.834208  0.834208  1
  Cd  Cd10  1  0.165792  0.165792  0.502623  1
  Cd  Cd11  1  0.165792  0.502623  0.165792  1
  Cd  Cd12  1  0.502623  0.165792  0.165792  1
  Cd  Cd13  1  0.165792  0.165792  0.165792  1
  Cd  Cd14  1  0.621889  0.621889  0.134334  1
  Cd  Cd15  1  0.621889  0.134334  0.621889  1
  Cd  Cd16  1  0.134334  0.621889  0.621889  1
  Cd  Cd17  1  0.621889  0.621889  0.621889  1
  Cd  Cd18  1  0.378111  0.378111  0.865666  1
  Cd  Cd19  1  0.378111  0.865666  0.378111  1
  Cd  Cd20  1  0.865666  0.378111  0.378111  1
  Cd  Cd21  1  0.378111  0.378111  0.378111  1
  Cd  Cd22  1  0.000000  0.000000  0.500000  1
  Cd  Cd23  1  0.500000  0.000000  0.500000  1
  Cd  Cd24  1  0.000000  0.500000  0.500000  1
  Cd  Cd25  1  0.500000  0.500000  0.000000  1
  Cd  Cd26  1  0.000000  0.500000  0.000000  1
  Cd  Cd27  1  0.500000  0.000000  0.000000  1
  Cd  Cd28  1  0.500000  0.500000  0.500000  1
  Br  Br29  1  0.000000  0.000000  0.000000  1
