# generated using pymatgen
data_TbDyY6(CdNi)2
_symmetry_space_group_name_H-M   'P 1'
_cell_length_a   9.58650015
_cell_length_b   9.58650072
_cell_length_c   9.58640300
_cell_angle_alpha   60.00033374
_cell_angle_beta   60.00033869
_cell_angle_gamma   60.00065158
_symmetry_Int_Tables_number   1
_chemical_formula_structural   TbDyY6(CdNi)2
_chemical_formula_sum   'Tb2 Dy2 Y12 Cd4 Ni4'
_cell_volume   622.96725953
_cell_formula_units_Z   2
loop_
 _symmetry_equiv_pos_site_id
 _symmetry_equiv_pos_as_xyz
  1  'x, y, z'
loop_
 _atom_site_type_symbol
 _atom_site_label
 _atom_site_symmetry_multiplicity
 _atom_site_fract_x
 _atom_site_fract_y
 _atom_site_fract_z
 _atom_site_occupancy
  Tb  Tb0  1  0.598479  0.598479  0.598488  1
  Tb  Tb1  1  0.598479  0.598479  0.204555  1
  Dy  Dy2  1  0.598474  0.204559  0.598484  1
  Dy  Dy3  1  0.204560  0.598474  0.598484  1
  Y  Y4  1  0.060894  0.439114  0.439109  1
  Y  Y5  1  0.439114  0.060894  0.060882  1
  Y  Y6  1  0.439114  0.060894  0.439109  1
  Y  Y7  1  0.060894  0.439114  0.060882  1
  Y  Y8  1  0.439107  0.439107  0.060893  1
  Y  Y9  1  0.060883  0.060883  0.439117  1
  Y  Y10  1  0.186673  0.813323  0.813323  1
  Y  Y11  1  0.813323  0.186673  0.186682  1
  Y  Y12  1  0.813323  0.186673  0.813323  1
  Y  Y13  1  0.186673  0.813323  0.186682  1
  Y  Y14  1  0.813324  0.813324  0.186676  1
  Y  Y15  1  0.186678  0.186678  0.813322  1
  Cd  Cd16  1  0.831052  0.831052  0.831036  1
  Cd  Cd17  1  0.831052  0.831052  0.506859  1
  Cd  Cd18  1  0.831057  0.506861  0.831040  1
  Cd  Cd19  1  0.506861  0.831057  0.831040  1
  Ni  Ni20  1  0.393285  0.393285  0.393310  1
  Ni  Ni21  1  0.393285  0.393285  0.820123  1
  Ni  Ni22  1  0.393271  0.820147  0.393292  1
  Ni  Ni23  1  0.820147  0.393271  0.393292  1
