# generated using pymatgen
data_Tc2Mo4PbS8
_symmetry_space_group_name_H-M   'P 1'
_cell_length_a   6.58457755
_cell_length_b   6.58172630
_cell_length_c   6.62426301
_cell_angle_alpha   89.10480248
_cell_angle_beta   90.10912873
_cell_angle_gamma   90.04329732
_symmetry_Int_Tables_number   1
_chemical_formula_structural   Tc2Mo4PbS8
_chemical_formula_sum   'Tc2 Mo4 Pb1 S8'
_cell_volume   287.04592724
_cell_formula_units_Z   1
loop_
 _symmetry_equiv_pos_site_id
 _symmetry_equiv_pos_as_xyz
  1  'x, y, z'
loop_
 _atom_site_type_symbol
 _atom_site_label
 _atom_site_symmetry_multiplicity
 _atom_site_fract_x
 _atom_site_fract_y
 _atom_site_fract_z
 _atom_site_occupancy
  Tc  Tc0  1  0.562841  0.417427  0.232792  1
  Tc  Tc1  1  0.437159  0.582573  0.767208  1
  Mo  Mo2  1  0.418655  0.231477  0.564722  1
  Mo  Mo3  1  0.581345  0.768523  0.435278  1
  Mo  Mo4  1  0.232259  0.559219  0.415976  1
  Mo  Mo5  1  0.767741  0.440781  0.584024  1
  Pb  Pb6  1  0.000000  0.000000  0.000000  1
  S  S7  1  0.250320  0.243317  0.245163  1
  S  S8  1  0.749680  0.756683  0.754837  1
  S  S9  1  0.379833  0.731095  0.121476  1
  S  S10  1  0.620167  0.268905  0.878524  1
  S  S11  1  0.735841  0.129365  0.378632  1
  S  S12  1  0.264159  0.870635  0.621368  1
  S  S13  1  0.128182  0.378989  0.737532  1
  S  S14  1  0.871818  0.621011  0.262468  1
