# generated using pymatgen
data_Ho2Tc5(PRh)7
_symmetry_space_group_name_H-M   'P 1'
_cell_length_a   3.93808200
_cell_length_b   9.45904796
_cell_length_c   9.48448172
_cell_angle_alpha   119.59870719
_cell_angle_beta   89.99965981
_cell_angle_gamma   90.00050497
_symmetry_Int_Tables_number   1
_chemical_formula_structural   Ho2Tc5(PRh)7
_chemical_formula_sum   'Ho2 Tc5 P7 Rh7'
_cell_volume   307.19801647
_cell_formula_units_Z   1
loop_
 _symmetry_equiv_pos_site_id
 _symmetry_equiv_pos_as_xyz
  1  'x, y, z'
loop_
 _atom_site_type_symbol
 _atom_site_label
 _atom_site_symmetry_multiplicity
 _atom_site_fract_x
 _atom_site_fract_y
 _atom_site_fract_z
 _atom_site_occupancy
  Ho  Ho0  1  0.262044  0.668871  0.333471  1
  Ho  Ho1  1  0.762179  0.333449  0.666611  1
  Tc  Tc2  1  0.761858  0.093433  0.870596  1
  Tc  Tc3  1  0.761811  0.127858  0.219437  1
  Tc  Tc4  1  0.761811  0.780215  0.906794  1
  Tc  Tc5  1  0.261810  0.885618  0.160396  1
  Tc  Tc6  1  0.261896  0.840455  0.725943  1
  P  P7  1  0.261328  0.996499  0.997611  1
  P  P8  1  0.761972  0.880989  0.598710  1
  P  P9  1  0.761877  0.402863  0.286793  1
  P  P10  1  0.761802  0.718517  0.121205  1
  P  P11  1  0.262195  0.116127  0.410831  1
  P  P12  1  0.262116  0.587733  0.704225  1
  P  P13  1  0.262021  0.294489  0.881103  1
  Rh  Rh14  1  0.261785  0.272779  0.112417  1
  Rh  Rh15  1  0.761991  0.608213  0.556037  1
  Rh  Rh16  1  0.761791  0.443857  0.056027  1
  Rh  Rh17  1  0.761960  0.946644  0.392116  1
  Rh  Rh18  1  0.261963  0.368944  0.436371  1
  Rh  Rh19  1  0.261821  0.561790  0.931654  1
  Rh  Rh20  1  0.261972  0.070656  0.631653  1
