# generated using pymatgen
data_Tb(Al5Os)2
_symmetry_space_group_name_H-M   'P 1'
_cell_length_a   6.86132412
_cell_length_b   6.86132430
_cell_length_c   9.17329600
_cell_angle_alpha   90.00000000
_cell_angle_beta   90.00000000
_cell_angle_gamma   96.49480928
_symmetry_Int_Tables_number   1
_chemical_formula_structural   Tb(Al5Os)2
_chemical_formula_sum   'Tb2 Al20 Os4'
_cell_volume   429.08669824
_cell_formula_units_Z   2
loop_
 _symmetry_equiv_pos_site_id
 _symmetry_equiv_pos_as_xyz
  1  'x, y, z'
loop_
 _atom_site_type_symbol
 _atom_site_label
 _atom_site_symmetry_multiplicity
 _atom_site_fract_x
 _atom_site_fract_y
 _atom_site_fract_z
 _atom_site_occupancy
  Tb  Tb0  1  0.870728  0.129272  0.750000  1
  Tb  Tb1  1  0.129272  0.870728  0.250000  1
  Al  Al2  1  0.518252  0.782649  0.750000  1
  Al  Al3  1  0.782649  0.518252  0.250000  1
  Al  Al4  1  0.481748  0.217351  0.250000  1
  Al  Al5  1  0.217351  0.481748  0.750000  1
  Al  Al6  1  0.623457  0.376543  0.954838  1
  Al  Al7  1  0.376543  0.623457  0.045162  1
  Al  Al8  1  0.623457  0.376543  0.545162  1
  Al  Al9  1  0.376543  0.623457  0.454838  1
  Al  Al10  1  0.415486  0.147431  0.750000  1
  Al  Al11  1  0.147431  0.415486  0.250000  1
  Al  Al12  1  0.584514  0.852569  0.250000  1
  Al  Al13  1  0.852569  0.584514  0.750000  1
  Al  Al14  1  0.844190  0.155810  0.398888  1
  Al  Al15  1  0.155810  0.844190  0.601112  1
  Al  Al16  1  0.844190  0.155810  0.101112  1
  Al  Al17  1  0.155810  0.844190  0.898888  1
  Al  Al18  1  0.775234  0.775234  0.000000  1
  Al  Al19  1  0.775234  0.775234  0.500000  1
  Al  Al20  1  0.224766  0.224766  0.000000  1
  Al  Al21  1  0.224766  0.224766  0.500000  1
  Os  Os22  1  0.500000  0.000000  0.000000  1
  Os  Os23  1  0.000000  0.500000  0.000000  1
  Os  Os24  1  0.500000  0.000000  0.500000  1
  Os  Os25  1  0.000000  0.500000  0.500000  1
