# generated using pymatgen
data_Na4Si11GeP12
_symmetry_space_group_name_H-M   'P 1'
_cell_length_a   3.51705400
_cell_length_b   9.91117091
_cell_length_c   17.91973510
_cell_angle_alpha   89.76858545
_cell_angle_beta   90.00000000
_cell_angle_gamma   90.00000000
_symmetry_Int_Tables_number   1
_chemical_formula_structural   Na4Si11GeP12
_chemical_formula_sum   'Na4 Si11 Ge1 P12'
_cell_volume   624.64324012
_cell_formula_units_Z   1
loop_
 _symmetry_equiv_pos_site_id
 _symmetry_equiv_pos_as_xyz
  1  'x, y, z'
loop_
 _atom_site_type_symbol
 _atom_site_label
 _atom_site_symmetry_multiplicity
 _atom_site_fract_x
 _atom_site_fract_y
 _atom_site_fract_z
 _atom_site_occupancy
  Na  Na0  1  0.000000  0.322498  0.303700  1
  Na  Na1  1  0.000000  0.678622  0.697377  1
  Na  Na2  1  0.000000  0.180696  0.802990  1
  Na  Na3  1  0.000000  0.819995  0.197863  1
  Si  Si4  1  0.500000  0.402454  0.037137  1
  Si  Si5  1  0.500000  0.595867  0.962291  1
  Si  Si6  1  0.500000  0.097158  0.537221  1
  Si  Si7  1  0.500000  0.902907  0.462836  1
  Si  Si8  1  0.000000  0.880650  0.983394  1
  Si  Si9  1  0.000000  0.385666  0.515027  1
  Si  Si10  1  0.000000  0.614288  0.484976  1
  Si  Si11  1  0.000000  0.181613  0.143637  1
  Si  Si12  1  0.000000  0.820259  0.857690  1
  Si  Si13  1  0.000000  0.321812  0.640823  1
  Si  Si14  1  0.000000  0.678502  0.359201  1
  Ge  Ge15  1  0.000000  0.111609  0.015979  1
  P  P16  1  0.500000  0.112760  0.211212  1
  P  P17  1  0.500000  0.888732  0.789994  1
  P  P18  1  0.500000  0.389044  0.708666  1
  P  P19  1  0.500000  0.611566  0.291175  1
  P  P20  1  0.500000  0.282491  0.457540  1
  P  P21  1  0.500000  0.717479  0.542448  1
  P  P22  1  0.500000  0.223626  0.955281  1
  P  P23  1  0.500000  0.779171  0.041912  1
  P  P24  1  0.000000  0.409921  0.117274  1
  P  P25  1  0.000000  0.590430  0.882307  1
  P  P26  1  0.000000  0.091829  0.617173  1
  P  P27  1  0.000000  0.908354  0.382876  1
