# generated using pymatgen
data_Ta4Fe4SiP3
_symmetry_space_group_name_H-M   'P 1'
_cell_length_a   6.14609453
_cell_length_b   3.62393100
_cell_length_c   6.95422760
_cell_angle_alpha   90.00000000
_cell_angle_beta   90.04755783
_cell_angle_gamma   90.00000000
_symmetry_Int_Tables_number   1
_chemical_formula_structural   Ta4Fe4SiP3
_chemical_formula_sum   'Ta4 Fe4 Si1 P3'
_cell_volume   154.89161438
_cell_formula_units_Z   1
loop_
 _symmetry_equiv_pos_site_id
 _symmetry_equiv_pos_as_xyz
  1  'x, y, z'
loop_
 _atom_site_type_symbol
 _atom_site_label
 _atom_site_symmetry_multiplicity
 _atom_site_fract_x
 _atom_site_fract_y
 _atom_site_fract_z
 _atom_site_occupancy
  Ta  Ta0  1  0.019869  0.250000  0.323725  1
  Ta  Ta1  1  0.522544  0.250000  0.178207  1
  Ta  Ta2  1  0.980798  0.750000  0.679128  1
  Ta  Ta3  1  0.481031  0.750000  0.821304  1
  Fe  Fe4  1  0.140644  0.250000  0.929849  1
  Fe  Fe5  1  0.645055  0.250000  0.563207  1
  Fe  Fe6  1  0.851020  0.750000  0.062084  1
  Fe  Fe7  1  0.358478  0.750000  0.442444  1
  Si  Si8  1  0.221821  0.750000  0.118258  1
  P  P9  1  0.278552  0.250000  0.618051  1
  P  P10  1  0.778000  0.250000  0.881779  1
  P  P11  1  0.722188  0.750000  0.381966  1
