# generated using pymatgen
data_YbCo2SiC
_symmetry_space_group_name_H-M   'P 1'
_cell_length_a   5.51543249
_cell_length_b   5.51543229
_cell_length_c   6.66151800
_cell_angle_alpha   90.00000000
_cell_angle_beta   90.00000000
_cell_angle_gamma   139.88459050
_symmetry_Int_Tables_number   1
_chemical_formula_structural   YbCo2SiC
_chemical_formula_sum   'Yb2 Co4 Si2 C2'
_cell_volume   130.56904787
_cell_formula_units_Z   2
loop_
 _symmetry_equiv_pos_site_id
 _symmetry_equiv_pos_as_xyz
  1  'x, y, z'
loop_
 _atom_site_type_symbol
 _atom_site_label
 _atom_site_symmetry_multiplicity
 _atom_site_fract_x
 _atom_site_fract_y
 _atom_site_fract_z
 _atom_site_occupancy
  Yb  Yb0  1  0.552744  0.447256  0.250000  1
  Yb  Yb1  1  0.447256  0.552744  0.750000  1
  Co  Co2  1  0.836293  0.163707  0.058346  1
  Co  Co3  1  0.163707  0.836293  0.941654  1
  Co  Co4  1  0.163707  0.836293  0.558346  1
  Co  Co5  1  0.836293  0.163707  0.441654  1
  Si  Si6  1  0.272946  0.727054  0.250000  1
  Si  Si7  1  0.727054  0.272946  0.750000  1
  C  C8  1  0.000000  0.000000  0.000000  1
  C  C9  1  0.000000  0.000000  0.500000  1
