# generated using pymatgen
data_DyTmWO6
_symmetry_space_group_name_H-M   'P 1'
_cell_length_a   5.38037400
_cell_length_b   7.67733103
_cell_length_c   11.38297776
_cell_angle_alpha   75.48070710
_cell_angle_beta   90.00000000
_cell_angle_gamma   90.00000000
_symmetry_Int_Tables_number   1
_chemical_formula_structural   DyTmWO6
_chemical_formula_sum   'Dy4 Tm4 W4 O24'
_cell_volume   455.17915488
_cell_formula_units_Z   4
loop_
 _symmetry_equiv_pos_site_id
 _symmetry_equiv_pos_as_xyz
  1  'x, y, z'
loop_
 _atom_site_type_symbol
 _atom_site_label
 _atom_site_symmetry_multiplicity
 _atom_site_fract_x
 _atom_site_fract_y
 _atom_site_fract_z
 _atom_site_occupancy
  Dy  Dy0  1  0.741094  0.000000  0.750000  1
  Dy  Dy1  1  0.258906  0.000000  0.250000  1
  Dy  Dy2  1  0.683662  0.500000  0.750000  1
  Dy  Dy3  1  0.316338  0.500000  0.250000  1
  Tm  Tm4  1  0.184310  0.794212  0.578889  1
  Tm  Tm5  1  0.815690  0.794212  0.078889  1
  Tm  Tm6  1  0.184310  0.205788  0.921111  1
  Tm  Tm7  1  0.815690  0.205788  0.421111  1
  W  W8  1  0.255234  0.723319  0.886206  1
  W  W9  1  0.744766  0.723319  0.386206  1
  W  W10  1  0.255234  0.276681  0.613794  1
  W  W11  1  0.744766  0.276681  0.113794  1
  O  O12  1  0.045173  0.940855  0.896812  1
  O  O13  1  0.535748  0.844818  0.932652  1
  O  O14  1  0.954827  0.940855  0.396812  1
  O  O15  1  0.457074  0.790598  0.726560  1
  O  O16  1  0.464252  0.844818  0.432652  1
  O  O17  1  0.981534  0.711711  0.770566  1
  O  O18  1  0.542926  0.790598  0.226560  1
  O  O19  1  0.853782  0.634822  0.549625  1
  O  O20  1  0.359494  0.488457  0.887038  1
  O  O21  1  0.018466  0.711711  0.270566  1
  O  O22  1  0.359494  0.511543  0.612962  1
  O  O23  1  0.853782  0.365178  0.950375  1
  O  O24  1  0.146218  0.634822  0.049625  1
  O  O25  1  0.640506  0.488457  0.387038  1
  O  O26  1  0.981534  0.288289  0.729434  1
  O  O27  1  0.640506  0.511543  0.112962  1
  O  O28  1  0.146218  0.365178  0.450375  1
  O  O29  1  0.457074  0.209402  0.773440  1
  O  O30  1  0.018466  0.288289  0.229434  1
  O  O31  1  0.535748  0.155182  0.567348  1
  O  O32  1  0.542926  0.209402  0.273440  1
  O  O33  1  0.045173  0.059145  0.603188  1
  O  O34  1  0.464252  0.155182  0.067348  1
  O  O35  1  0.954827  0.059145  0.103188  1
