# generated using pymatgen
data_Tb2Ho14MgNi4Hg3
_symmetry_space_group_name_H-M   'P 1'
_cell_length_a   9.49236636
_cell_length_b   9.49234482
_cell_length_c   9.48712500
_cell_angle_alpha   60.01819231
_cell_angle_beta   60.01826731
_cell_angle_gamma   60.09888302
_symmetry_Int_Tables_number   1
_chemical_formula_structural   Tb2Ho14MgNi4Hg3
_chemical_formula_sum   'Tb2 Ho14 Mg1 Ni4 Hg3'
_cell_volume   605.07737653
_cell_formula_units_Z   1
loop_
 _symmetry_equiv_pos_site_id
 _symmetry_equiv_pos_as_xyz
  1  'x, y, z'
loop_
 _atom_site_type_symbol
 _atom_site_label
 _atom_site_symmetry_multiplicity
 _atom_site_fract_x
 _atom_site_fract_y
 _atom_site_fract_z
 _atom_site_occupancy
  Tb  Tb0  1  0.348692  0.347948  0.347078  1
  Tb  Tb1  1  0.348692  0.347948  0.956281  1
  Ho  Ho2  1  0.351742  0.950511  0.348873  1
  Ho  Ho3  1  0.943625  0.352868  0.351753  1
  Ho  Ho4  1  0.809990  0.190414  0.190377  1
  Ho  Ho5  1  0.184638  0.814204  0.812269  1
  Ho  Ho6  1  0.184638  0.814204  0.188889  1
  Ho  Ho7  1  0.809990  0.190414  0.809219  1
  Ho  Ho8  1  0.185801  0.190364  0.811917  1
  Ho  Ho9  1  0.809235  0.810687  0.190039  1
  Ho  Ho10  1  0.935750  0.564094  0.564425  1
  Ho  Ho11  1  0.561663  0.937213  0.936412  1
  Ho  Ho12  1  0.561664  0.937213  0.564710  1
  Ho  Ho13  1  0.935750  0.564094  0.935730  1
  Ho  Ho14  1  0.563372  0.564286  0.936170  1
  Ho  Ho15  1  0.936383  0.937641  0.562988  1
  Mg  Mg16  1  0.284205  0.571212  0.572292  1
  Ni  Ni17  1  0.140631  0.142218  0.146389  1
  Ni  Ni18  1  0.140631  0.142218  0.570762  1
  Ni  Ni19  1  0.139021  0.573377  0.143800  1
  Ni  Ni20  1  0.573669  0.140673  0.142829  1
  Hg  Hg21  1  0.583144  0.586909  0.586522  1
  Hg  Hg22  1  0.583144  0.586909  0.243426  1
  Hg  Hg23  1  0.583928  0.242380  0.586846  1
