# generated using pymatgen
data_Ti12AlSi7(IrN)4
_symmetry_space_group_name_H-M   'P 1'
_cell_length_a   8.02462912
_cell_length_b   8.02067569
_cell_length_c   8.02462900
_cell_angle_alpha   59.98369810
_cell_angle_beta   60.00000463
_cell_angle_gamma   59.98369656
_symmetry_Int_Tables_number   1
_chemical_formula_structural   Ti12AlSi7(IrN)4
_chemical_formula_sum   'Ti12 Al1 Si7 Ir4 N4'
_cell_volume   365.12270943
_cell_formula_units_Z   1
loop_
 _symmetry_equiv_pos_site_id
 _symmetry_equiv_pos_as_xyz
  1  'x, y, z'
loop_
 _atom_site_type_symbol
 _atom_site_label
 _atom_site_symmetry_multiplicity
 _atom_site_fract_x
 _atom_site_fract_y
 _atom_site_fract_z
 _atom_site_occupancy
  Ti  Ti0  1  0.814876  0.815172  0.184976  1
  Ti  Ti1  1  0.065107  0.434780  0.435006  1
  Ti  Ti2  1  0.434444  0.065986  0.065127  1
  Ti  Ti3  1  0.065127  0.065986  0.434444  1
  Ti  Ti4  1  0.065107  0.434780  0.065107  1
  Ti  Ti5  1  0.434444  0.065986  0.434444  1
  Ti  Ti6  1  0.184976  0.815172  0.184976  1
  Ti  Ti7  1  0.184976  0.815172  0.814876  1
  Ti  Ti8  1  0.815076  0.181160  0.188687  1
  Ti  Ti9  1  0.815076  0.181160  0.815076  1
  Ti  Ti10  1  0.435006  0.434780  0.065107  1
  Ti  Ti11  1  0.188687  0.181160  0.815076  1
  Al  Al12  1  0.834621  0.496139  0.834621  1
  Si  Si13  1  0.411913  0.764260  0.411913  1
  Si  Si14  1  0.837647  0.833204  0.491504  1
  Si  Si15  1  0.491504  0.833204  0.837647  1
  Si  Si16  1  0.837647  0.833204  0.837647  1
  Si  Si17  1  0.760693  0.413212  0.413046  1
  Si  Si18  1  0.413046  0.413212  0.413046  1
  Si  Si19  1  0.413046  0.413212  0.760693  1
  Ir  Ir20  1  0.625055  0.124836  0.625055  1
  Ir  Ir21  1  0.621072  0.627556  0.130300  1
  Ir  Ir22  1  0.130300  0.627556  0.621072  1
  Ir  Ir23  1  0.621072  0.627556  0.621072  1
  N  N24  1  0.124710  0.625871  0.124710  1
  N  N25  1  0.124745  0.125228  0.625282  1
  N  N26  1  0.625282  0.125228  0.124745  1
  N  N27  1  0.124745  0.125228  0.124745  1
