# generated using pymatgen
data_Nd2Gd3Ir4
_symmetry_space_group_name_H-M   'P 1'
_cell_length_a   7.54549700
_cell_length_b   7.69838000
_cell_length_c   14.74353300
_cell_angle_alpha   90.00000000
_cell_angle_beta   90.00000000
_cell_angle_gamma   90.00000000
_symmetry_Int_Tables_number   1
_chemical_formula_structural   Nd2Gd3Ir4
_chemical_formula_sum   'Nd8 Gd12 Ir16'
_cell_volume   856.42386636
_cell_formula_units_Z   4
loop_
 _symmetry_equiv_pos_site_id
 _symmetry_equiv_pos_as_xyz
  1  'x, y, z'
loop_
 _atom_site_type_symbol
 _atom_site_label
 _atom_site_symmetry_multiplicity
 _atom_site_fract_x
 _atom_site_fract_y
 _atom_site_fract_z
 _atom_site_occupancy
  Nd  Nd0  1  0.024793  0.179020  0.402908  1
  Nd  Nd1  1  0.524793  0.320980  0.402908  1
  Nd  Nd2  1  0.475207  0.679020  0.902908  1
  Nd  Nd3  1  0.475207  0.679020  0.597092  1
  Nd  Nd4  1  0.975207  0.820980  0.597092  1
  Nd  Nd5  1  0.975207  0.820980  0.902908  1
  Nd  Nd6  1  0.524793  0.320980  0.097092  1
  Nd  Nd7  1  0.024793  0.179020  0.097092  1
  Gd  Gd8  1  0.325878  0.176502  0.621758  1
  Gd  Gd9  1  0.674122  0.823498  0.378242  1
  Gd  Gd10  1  0.657060  0.991571  0.750000  1
  Gd  Gd11  1  0.174122  0.676502  0.378242  1
  Gd  Gd12  1  0.825878  0.323498  0.878242  1
  Gd  Gd13  1  0.825878  0.323498  0.621758  1
  Gd  Gd14  1  0.842940  0.491571  0.250000  1
  Gd  Gd15  1  0.342940  0.008429  0.250000  1
  Gd  Gd16  1  0.325878  0.176502  0.878242  1
  Gd  Gd17  1  0.174122  0.676502  0.121758  1
  Gd  Gd18  1  0.674122  0.823498  0.121758  1
  Gd  Gd19  1  0.157060  0.508429  0.750000  1
  Ir  Ir20  1  0.279281  0.867872  0.750000  1
  Ir  Ir21  1  0.470414  0.613913  0.250000  1
  Ir  Ir22  1  0.029586  0.113913  0.750000  1
  Ir  Ir23  1  0.529586  0.386087  0.750000  1
  Ir  Ir24  1  0.159750  0.471441  0.542259  1
  Ir  Ir25  1  0.970414  0.886087  0.250000  1
  Ir  Ir26  1  0.720719  0.132128  0.250000  1
  Ir  Ir27  1  0.840250  0.528559  0.042259  1
  Ir  Ir28  1  0.340250  0.971441  0.042259  1
  Ir  Ir29  1  0.159750  0.471441  0.957741  1
  Ir  Ir30  1  0.659750  0.028559  0.542259  1
  Ir  Ir31  1  0.340250  0.971441  0.457741  1
  Ir  Ir32  1  0.840250  0.528559  0.457741  1
  Ir  Ir33  1  0.779281  0.632128  0.750000  1
  Ir  Ir34  1  0.220719  0.367872  0.250000  1
  Ir  Ir35  1  0.659750  0.028559  0.957741  1
