# generated using pymatgen
data_Tb2ThMg(Co4P3)2
_symmetry_space_group_name_H-M   'P 1'
_cell_length_a   3.76773900
_cell_length_b   10.71945200
_cell_length_c   12.36717100
_cell_angle_alpha   90.00000000
_cell_angle_beta   90.00000000
_cell_angle_gamma   90.00000000
_symmetry_Int_Tables_number   1
_chemical_formula_structural   Tb2ThMg(Co4P3)2
_chemical_formula_sum   'Tb4 Th2 Mg2 Co16 P12'
_cell_volume   499.48650640
_cell_formula_units_Z   2
loop_
 _symmetry_equiv_pos_site_id
 _symmetry_equiv_pos_as_xyz
  1  'x, y, z'
loop_
 _atom_site_type_symbol
 _atom_site_label
 _atom_site_symmetry_multiplicity
 _atom_site_fract_x
 _atom_site_fract_y
 _atom_site_fract_z
 _atom_site_occupancy
  Tb  Tb0  1  0.500000  0.819685  0.204373  1
  Tb  Tb1  1  0.500000  0.180315  0.204373  1
  Tb  Tb2  1  0.000000  0.680315  0.795627  1
  Tb  Tb3  1  0.000000  0.319685  0.795627  1
  Th  Th4  1  0.000000  0.500000  0.528891  1
  Th  Th5  1  0.500000  0.000000  0.471109  1
  Mg  Mg6  1  0.500000  0.500000  0.152225  1
  Mg  Mg7  1  0.000000  0.000000  0.847775  1
  Co  Co8  1  0.500000  0.500000  0.703810  1
  Co  Co9  1  0.000000  0.000000  0.296190  1
  Co  Co10  1  0.000000  0.500000  0.987592  1
  Co  Co11  1  0.500000  0.000000  0.012408  1
  Co  Co12  1  0.500000  0.332694  0.995880  1
  Co  Co13  1  0.500000  0.667306  0.995880  1
  Co  Co14  1  0.000000  0.167306  0.004120  1
  Co  Co15  1  0.000000  0.832694  0.004120  1
  Co  Co16  1  0.500000  0.297148  0.431504  1
  Co  Co17  1  0.500000  0.702852  0.431504  1
  Co  Co18  1  0.000000  0.202852  0.568496  1
  Co  Co19  1  0.000000  0.797148  0.568496  1
  Co  Co20  1  0.500000  0.878809  0.708463  1
  Co  Co21  1  0.500000  0.121191  0.708463  1
  Co  Co22  1  0.000000  0.621191  0.291537  1
  Co  Co23  1  0.000000  0.378809  0.291537  1
  P  P24  1  0.500000  0.500000  0.884505  1
  P  P25  1  0.000000  0.000000  0.115495  1
  P  P26  1  0.500000  0.500000  0.349754  1
  P  P27  1  0.000000  0.000000  0.650246  1
  P  P28  1  0.500000  0.304461  0.617047  1
  P  P29  1  0.500000  0.695539  0.617047  1
  P  P30  1  0.000000  0.195539  0.382953  1
  P  P31  1  0.000000  0.804461  0.382953  1
  P  P32  1  0.500000  0.839581  0.895165  1
  P  P33  1  0.500000  0.160419  0.895165  1
  P  P34  1  0.000000  0.660419  0.104835  1
  P  P35  1  0.000000  0.339581  0.104835  1
