# generated using pymatgen
data_DyErTm(CdGa)3
_symmetry_space_group_name_H-M   'P 1'
_cell_length_a   7.23078000
_cell_length_b   7.22370699
_cell_length_c   4.39202100
_cell_angle_alpha   90.00000000
_cell_angle_beta   90.00000000
_cell_angle_gamma   119.84511723
_symmetry_Int_Tables_number   1
_chemical_formula_structural   DyErTm(CdGa)3
_chemical_formula_sum   'Dy1 Er1 Tm1 Cd3 Ga3'
_cell_volume   198.98301178
_cell_formula_units_Z   1
loop_
 _symmetry_equiv_pos_site_id
 _symmetry_equiv_pos_as_xyz
  1  'x, y, z'
loop_
 _atom_site_type_symbol
 _atom_site_label
 _atom_site_symmetry_multiplicity
 _atom_site_fract_x
 _atom_site_fract_y
 _atom_site_fract_z
 _atom_site_occupancy
  Dy  Dy0  1  0.999569  0.574952  0.500000  1
  Er  Er1  1  0.575003  0.999410  0.500000  1
  Tm  Tm2  1  0.424352  0.424214  0.500000  1
  Cd  Cd3  1  0.750122  0.750294  0.000000  1
  Cd  Cd4  1  0.249729  0.000355  0.000000  1
  Cd  Cd5  1  0.000196  0.249313  0.000000  1
  Ga  Ga6  1  0.665427  0.333563  0.000000  1
  Ga  Ga7  1  0.334328  0.666238  0.000000  1
  Ga  Ga8  1  0.001274  0.001661  0.500000  1
