# generated using pymatgen
data_Dy9Tm(Pb3Cl)2
_symmetry_space_group_name_H-M   'P 1'
_cell_length_a   9.17856200
_cell_length_b   9.17856096
_cell_length_c   6.60948100
_cell_angle_alpha   90.00000000
_cell_angle_beta   90.00000000
_cell_angle_gamma   119.88014141
_symmetry_Int_Tables_number   1
_chemical_formula_structural   Dy9Tm(Pb3Cl)2
_chemical_formula_sum   'Dy9 Tm1 Pb6 Cl2'
_cell_volume   482.80359635
_cell_formula_units_Z   1
loop_
 _symmetry_equiv_pos_site_id
 _symmetry_equiv_pos_as_xyz
  1  'x, y, z'
loop_
 _atom_site_type_symbol
 _atom_site_label
 _atom_site_symmetry_multiplicity
 _atom_site_fract_x
 _atom_site_fract_y
 _atom_site_fract_z
 _atom_site_occupancy
  Dy  Dy0  1  0.260671  0.999762  0.250000  1
  Dy  Dy1  1  0.739214  0.000399  0.750000  1
  Dy  Dy2  1  0.999762  0.260671  0.250000  1
  Dy  Dy3  1  0.000399  0.739214  0.750000  1
  Dy  Dy4  1  0.738542  0.738542  0.250000  1
  Dy  Dy5  1  0.333459  0.666549  0.999932  1
  Dy  Dy6  1  0.666549  0.333459  0.999932  1
  Dy  Dy7  1  0.666549  0.333459  0.500068  1
  Dy  Dy8  1  0.333459  0.666549  0.500068  1
  Tm  Tm9  1  0.262911  0.262911  0.750000  1
  Pb  Pb10  1  0.610805  0.000016  0.250000  1
  Pb  Pb11  1  0.388623  0.001208  0.750000  1
  Pb  Pb12  1  0.000016  0.610805  0.250000  1
  Pb  Pb13  1  0.001208  0.388623  0.750000  1
  Pb  Pb14  1  0.388356  0.388356  0.250000  1
  Pb  Pb15  1  0.610597  0.610597  0.750000  1
  Cl  Cl16  1  0.999442  0.999442  0.000010  1
  Cl  Cl17  1  0.999442  0.999442  0.499990  1
