# generated using pymatgen
data_TmHf2(ZrRe12)2
_symmetry_space_group_name_H-M   'P 1'
_cell_length_a   8.50110577
_cell_length_b   8.50110714
_cell_length_c   8.50347404
_cell_angle_alpha   109.47144854
_cell_angle_beta   109.47145014
_cell_angle_gamma   109.45947746
_symmetry_Int_Tables_number   1
_chemical_formula_structural   TmHf2(ZrRe12)2
_chemical_formula_sum   'Tm1 Hf2 Zr2 Re24'
_cell_volume   473.13587426
_cell_formula_units_Z   1
loop_
 _symmetry_equiv_pos_site_id
 _symmetry_equiv_pos_as_xyz
  1  'x, y, z'
loop_
 _atom_site_type_symbol
 _atom_site_label
 _atom_site_symmetry_multiplicity
 _atom_site_fract_x
 _atom_site_fract_y
 _atom_site_fract_z
 _atom_site_occupancy
  Tm  Tm0  1  0.000131  0.000131  0.000000  1
  Hf  Hf1  1  0.999987  0.999987  0.628471  1
  Hf  Hf2  1  0.371516  0.371516  0.371529  1
  Zr  Zr3  1  0.628613  0.999986  0.000000  1
  Zr  Zr4  1  0.999986  0.628613  0.000000  1
  Re  Re5  1  0.396189  0.676390  0.000000  1
  Re  Re6  1  0.719659  0.323648  0.323539  1
  Re  Re7  1  0.396120  0.000108  0.676461  1
  Re  Re8  1  0.676390  0.396189  0.000000  1
  Re  Re9  1  0.000108  0.396120  0.676461  1
  Re  Re10  1  0.323648  0.719659  0.323539  1
  Re  Re11  1  0.323345  0.323345  0.719670  1
  Re  Re12  1  0.000112  0.676692  0.396507  1
  Re  Re13  1  0.676692  0.000112  0.396507  1
  Re  Re14  1  0.603675  0.603675  0.280330  1
  Re  Re15  1  0.280185  0.603605  0.603493  1
  Re  Re16  1  0.603605  0.280185  0.603493  1
  Re  Re17  1  0.376970  0.194441  0.000000  1
  Re  Re18  1  0.182615  0.805611  0.805171  1
  Re  Re19  1  0.377444  0.000439  0.194829  1
  Re  Re20  1  0.194441  0.376970  0.000000  1
  Re  Re21  1  0.000439  0.377444  0.194829  1
  Re  Re22  1  0.805611  0.182615  0.805171  1
  Re  Re23  1  0.805453  0.805453  0.183138  1
  Re  Re24  1  0.000429  0.194592  0.377644  1
  Re  Re25  1  0.194592  0.000429  0.377644  1
  Re  Re26  1  0.622314  0.622314  0.816862  1
  Re  Re27  1  0.816947  0.622785  0.622356  1
  Re  Re28  1  0.622785  0.816947  0.622356  1
