# generated using pymatgen
data_BaLi2Ce2Al7
_symmetry_space_group_name_H-M   'P 1'
_cell_length_a   9.61125315
_cell_length_b   9.61125353
_cell_length_c   9.61125400
_cell_angle_alpha   34.20620486
_cell_angle_beta   34.20620146
_cell_angle_gamma   34.20619934
_symmetry_Int_Tables_number   1
_chemical_formula_structural   BaLi2Ce2Al7
_chemical_formula_sum   'Ba1 Li2 Ce2 Al7'
_cell_volume   250.20176461
_cell_formula_units_Z   1
loop_
 _symmetry_equiv_pos_site_id
 _symmetry_equiv_pos_as_xyz
  1  'x, y, z'
loop_
 _atom_site_type_symbol
 _atom_site_label
 _atom_site_symmetry_multiplicity
 _atom_site_fract_x
 _atom_site_fract_y
 _atom_site_fract_z
 _atom_site_occupancy
  Ba  Ba0  1  0.000000  0.000000  0.000000  1
  Li  Li1  1  0.664376  0.664376  0.664376  1
  Li  Li2  1  0.335624  0.335624  0.335624  1
  Ce  Ce3  1  0.857766  0.857766  0.857766  1
  Ce  Ce4  1  0.142234  0.142234  0.142234  1
  Al  Al5  1  0.409613  0.409613  0.922331  1
  Al  Al6  1  0.922331  0.409613  0.409613  1
  Al  Al7  1  0.409613  0.922331  0.409613  1
  Al  Al8  1  0.500000  0.500000  0.500000  1
  Al  Al9  1  0.590387  0.077669  0.590387  1
  Al  Al10  1  0.077669  0.590387  0.590387  1
  Al  Al11  1  0.590387  0.590387  0.077669  1
