# generated using pymatgen
data_Dy6S5
_symmetry_space_group_name_H-M   'P 1'
_cell_length_a   8.68137697
_cell_length_b   6.70332051
_cell_length_c   7.76527530
_cell_angle_alpha   73.15182138
_cell_angle_beta   47.82429855
_cell_angle_gamma   49.88315026
_symmetry_Int_Tables_number   1
_chemical_formula_structural   Dy6S5
_chemical_formula_sum   'Dy6 S5'
_cell_volume   247.84221741
_cell_formula_units_Z   1
loop_
 _symmetry_equiv_pos_site_id
 _symmetry_equiv_pos_as_xyz
  1  'x, y, z'
loop_
 _atom_site_type_symbol
 _atom_site_label
 _atom_site_symmetry_multiplicity
 _atom_site_fract_x
 _atom_site_fract_y
 _atom_site_fract_z
 _atom_site_occupancy
  Dy  Dy0  1  0.981697  0.856972  0.449735  1
  Dy  Dy1  1  0.315669  0.195247  0.116315  1
  Dy  Dy2  1  0.655588  0.520360  0.282392  1
  Dy  Dy3  1  0.316000  0.197514  0.616747  1
  Dy  Dy4  1  0.640583  0.535362  0.785194  1
  Dy  Dy5  1  0.981845  0.858884  0.949985  1
  S  S6  1  0.480404  0.357810  0.702545  1
  S  S7  1  0.817289  0.696523  0.364251  1
  S  S8  1  0.148053  0.027674  0.033484  1
  S  S9  1  0.813223  0.693822  0.868161  1
  S  S10  1  0.484401  0.360493  0.198296  1
