# generated using pymatgen
data_Ba4CuAuO6
_symmetry_space_group_name_H-M   'P 1'
_cell_length_a   7.18187460
_cell_length_b   7.18187386
_cell_length_c   11.55701600
_cell_angle_alpha   90.00000000
_cell_angle_beta   90.00000000
_cell_angle_gamma   131.76358055
_symmetry_Int_Tables_number   1
_chemical_formula_structural   Ba4CuAuO6
_chemical_formula_sum   'Ba8 Cu2 Au2 O12'
_cell_volume   444.63294146
_cell_formula_units_Z   2
loop_
 _symmetry_equiv_pos_site_id
 _symmetry_equiv_pos_as_xyz
  1  'x, y, z'
loop_
 _atom_site_type_symbol
 _atom_site_label
 _atom_site_symmetry_multiplicity
 _atom_site_fract_x
 _atom_site_fract_y
 _atom_site_fract_z
 _atom_site_occupancy
  Ba  Ba0  1  0.202954  0.918244  0.750000  1
  Ba  Ba1  1  0.645639  0.354361  0.500000  1
  Ba  Ba2  1  0.797046  0.081756  0.250000  1
  Ba  Ba3  1  0.918244  0.202954  0.750000  1
  Ba  Ba4  1  0.081756  0.797046  0.250000  1
  Ba  Ba5  1  0.354361  0.645639  0.000000  1
  Ba  Ba6  1  0.354361  0.645639  0.500000  1
  Ba  Ba7  1  0.645639  0.354361  0.000000  1
  Cu  Cu8  1  0.000000  0.000000  0.000000  1
  Cu  Cu9  1  0.000000  0.000000  0.500000  1
  Au  Au10  1  0.408246  0.408246  0.250000  1
  Au  Au11  1  0.591754  0.591754  0.750000  1
  O  O12  1  0.261947  0.577523  0.250000  1
  O  O13  1  0.147375  0.852625  0.500000  1
  O  O14  1  0.577523  0.261947  0.250000  1
  O  O15  1  0.755002  0.755002  0.398654  1
  O  O16  1  0.147375  0.852625  0.000000  1
  O  O17  1  0.852625  0.147375  0.000000  1
  O  O18  1  0.422477  0.738053  0.750000  1
  O  O19  1  0.738053  0.422477  0.750000  1
  O  O20  1  0.755002  0.755002  0.101346  1
  O  O21  1  0.852625  0.147375  0.500000  1
  O  O22  1  0.244998  0.244998  0.601346  1
  O  O23  1  0.244998  0.244998  0.898654  1
