# generated using pymatgen
data_Dy8HoEr3Ru4
_symmetry_space_group_name_H-M   'P 1'
_cell_length_a   6.29567908
_cell_length_b   7.29710753
_cell_length_c   9.15251117
_cell_angle_alpha   89.99393249
_cell_angle_beta   90.05599967
_cell_angle_gamma   90.01340350
_symmetry_Int_Tables_number   1
_chemical_formula_structural   Dy8HoEr3Ru4
_chemical_formula_sum   'Dy8 Ho1 Er3 Ru4'
_cell_volume   420.46841093
_cell_formula_units_Z   1
loop_
 _symmetry_equiv_pos_site_id
 _symmetry_equiv_pos_as_xyz
  1  'x, y, z'
loop_
 _atom_site_type_symbol
 _atom_site_label
 _atom_site_symmetry_multiplicity
 _atom_site_fract_x
 _atom_site_fract_y
 _atom_site_fract_z
 _atom_site_occupancy
  Dy  Dy0  1  0.169163  0.176743  0.435465  1
  Dy  Dy1  1  0.669354  0.323229  0.564055  1
  Dy  Dy2  1  0.831022  0.823100  0.935528  1
  Dy  Dy3  1  0.669138  0.323114  0.935876  1
  Dy  Dy4  1  0.866668  0.539940  0.250310  1
  Dy  Dy5  1  0.633318  0.039399  0.250095  1
  Dy  Dy6  1  0.134054  0.460711  0.749822  1
  Dy  Dy7  1  0.366049  0.960074  0.749771  1
  Ho  Ho8  1  0.330428  0.677163  0.065005  1
  Er  Er9  1  0.830929  0.823107  0.564409  1
  Er  Er10  1  0.330841  0.676793  0.435287  1
  Er  Er11  1  0.169109  0.176554  0.064789  1
  Ru  Ru12  1  0.040788  0.884468  0.250615  1
  Ru  Ru13  1  0.458835  0.384934  0.249661  1
  Ru  Ru14  1  0.959932  0.114947  0.750461  1
  Ru  Ru15  1  0.540371  0.615724  0.748853  1
