# generated using pymatgen
data_Y6Er2ReOsBr8
_symmetry_space_group_name_H-M   'P 1'
_cell_length_a   9.01579722
_cell_length_b   8.96627286
_cell_length_c   6.57081286
_cell_angle_alpha   89.37925743
_cell_angle_beta   89.59536075
_cell_angle_gamma   89.24494592
_symmetry_Int_Tables_number   1
_chemical_formula_structural   Y6Er2ReOsBr8
_chemical_formula_sum   'Y6 Er2 Re1 Os1 Br8'
_cell_volume   531.08200265
_cell_formula_units_Z   1
loop_
 _symmetry_equiv_pos_site_id
 _symmetry_equiv_pos_as_xyz
  1  'x, y, z'
loop_
 _atom_site_type_symbol
 _atom_site_label
 _atom_site_symmetry_multiplicity
 _atom_site_fract_x
 _atom_site_fract_y
 _atom_site_fract_z
 _atom_site_occupancy
  Y  Y0  1  0.250366  0.899106  0.011593  1
  Y  Y1  1  0.748736  0.101337  0.989904  1
  Y  Y2  1  0.099368  0.749948  0.488782  1
  Y  Y3  1  0.900184  0.250892  0.509937  1
  Y  Y4  1  0.751715  0.903015  0.507991  1
  Y  Y5  1  0.248280  0.097070  0.490729  1
  Er  Er6  1  0.094961  0.243640  0.991583  1
  Er  Er7  1  0.904894  0.756485  0.008964  1
  Re  Re8  1  0.994869  0.005068  0.249180  1
  Os  Os9  1  0.005248  0.994740  0.751100  1
  Br  Br10  1  0.419801  0.815117  0.413073  1
  Br  Br11  1  0.580501  0.184731  0.588400  1
  Br  Br12  1  0.180885  0.579052  0.088466  1
  Br  Br13  1  0.819511  0.420549  0.910217  1
  Br  Br14  1  0.412337  0.190318  0.088858  1
  Br  Br15  1  0.588196  0.809761  0.911061  1
  Br  Br16  1  0.810826  0.585541  0.406955  1
  Br  Br17  1  0.189323  0.413630  0.593208  1
