# generated using pymatgen
data_Y16Mg4CdSn15
_symmetry_space_group_name_H-M   'P 1'
_cell_length_a   7.69467400
_cell_length_b   8.29417205
_cell_length_c   15.39508200
_cell_angle_alpha   90.00000000
_cell_angle_beta   90.00000000
_cell_angle_gamma   89.86202725
_symmetry_Int_Tables_number   1
_chemical_formula_structural   Y16Mg4CdSn15
_chemical_formula_sum   'Y16 Mg4 Cd1 Sn15'
_cell_volume   982.52590998
_cell_formula_units_Z   1
loop_
 _symmetry_equiv_pos_site_id
 _symmetry_equiv_pos_as_xyz
  1  'x, y, z'
loop_
 _atom_site_type_symbol
 _atom_site_label
 _atom_site_symmetry_multiplicity
 _atom_site_fract_x
 _atom_site_fract_y
 _atom_site_fract_z
 _atom_site_occupancy
  Y  Y0  1  0.328130  0.168213  0.628124  1
  Y  Y1  1  0.665962  0.831995  0.372485  1
  Y  Y2  1  0.164260  0.668615  0.371453  1
  Y  Y3  1  0.665962  0.831995  0.127515  1
  Y  Y4  1  0.839703  0.331261  0.630130  1
  Y  Y5  1  0.328130  0.168213  0.871876  1
  Y  Y6  1  0.839703  0.331261  0.869870  1
  Y  Y7  1  0.164260  0.668615  0.128547  1
  Y  Y8  1  0.999116  0.183596  0.089381  1
  Y  Y9  1  0.999801  0.814040  0.910711  1
  Y  Y10  1  0.500652  0.687467  0.906349  1
  Y  Y11  1  0.999801  0.814040  0.589289  1
  Y  Y12  1  0.499743  0.314112  0.091403  1
  Y  Y13  1  0.999116  0.183596  0.410619  1
  Y  Y14  1  0.499743  0.314112  0.408597  1
  Y  Y15  1  0.500652  0.687467  0.593651  1
  Mg  Mg16  1  0.164367  0.502679  0.750000  1
  Mg  Mg17  1  0.839765  0.496927  0.250000  1
  Mg  Mg18  1  0.340755  0.001059  0.250000  1
  Mg  Mg19  1  0.660333  0.998331  0.750000  1
  Cd  Cd20  1  0.016572  0.086277  0.750000  1
  Sn  Sn21  1  0.976604  0.907990  0.250000  1
  Sn  Sn22  1  0.477826  0.592069  0.250000  1
  Sn  Sn23  1  0.525831  0.403237  0.750000  1
  Sn  Sn24  1  0.183952  0.466171  0.538889  1
  Sn  Sn25  1  0.818247  0.536293  0.462703  1
  Sn  Sn26  1  0.320217  0.962796  0.460504  1
  Sn  Sn27  1  0.818247  0.536293  0.037297  1
  Sn  Sn28  1  0.681667  0.038098  0.541166  1
  Sn  Sn29  1  0.183952  0.466171  0.961111  1
  Sn  Sn30  1  0.681667  0.038098  0.958834  1
  Sn  Sn31  1  0.320217  0.962796  0.039496  1
  Sn  Sn32  1  0.295283  0.853877  0.750000  1
  Sn  Sn33  1  0.698844  0.153585  0.250000  1
  Sn  Sn34  1  0.197760  0.344918  0.250000  1
  Sn  Sn35  1  0.803160  0.653739  0.750000  1
