# generated using pymatgen
data_Tb5Lu5Si5Sn
_symmetry_space_group_name_H-M   'P 1'
_cell_length_a   8.45022226
_cell_length_b   8.48864591
_cell_length_c   6.28831400
_cell_angle_alpha   90.00000000
_cell_angle_beta   90.00000000
_cell_angle_gamma   120.01039350
_symmetry_Int_Tables_number   1
_chemical_formula_structural   Tb5Lu5Si5Sn
_chemical_formula_sum   'Tb5 Lu5 Si5 Sn1'
_cell_volume   390.59430559
_cell_formula_units_Z   1
loop_
 _symmetry_equiv_pos_site_id
 _symmetry_equiv_pos_as_xyz
  1  'x, y, z'
loop_
 _atom_site_type_symbol
 _atom_site_label
 _atom_site_symmetry_multiplicity
 _atom_site_fract_x
 _atom_site_fract_y
 _atom_site_fract_z
 _atom_site_occupancy
  Tb  Tb0  1  0.998968  0.245088  0.250000  1
  Tb  Tb1  1  0.755731  0.756206  0.250000  1
  Tb  Tb2  1  0.764646  0.999615  0.750000  1
  Tb  Tb3  1  0.241565  0.251768  0.750000  1
  Tb  Tb4  1  0.241378  0.999400  0.250000  1
  Lu  Lu5  1  0.988996  0.746884  0.750000  1
  Lu  Lu6  1  0.331201  0.658037  0.497286  1
  Lu  Lu7  1  0.673913  0.342578  0.002523  1
  Lu  Lu8  1  0.673913  0.342578  0.497477  1
  Lu  Lu9  1  0.331201  0.658037  0.002714  1
  Si  Si10  1  0.395514  0.393859  0.250000  1
  Si  Si11  1  0.001234  0.605344  0.250000  1
  Si  Si12  1  0.998359  0.397829  0.750000  1
  Si  Si13  1  0.605315  0.604865  0.750000  1
  Si  Si14  1  0.603790  0.999524  0.250000  1
  Sn  Sn15  1  0.394277  0.998387  0.750000  1
