# generated using pymatgen
data_YbPrHo8(In2Pt)4
_symmetry_space_group_name_H-M   'P 1'
_cell_length_a   3.61325200
_cell_length_b   8.19258603
_cell_length_c   18.36090104
_cell_angle_alpha   89.88633326
_cell_angle_beta   90.00000000
_cell_angle_gamma   90.00000000
_symmetry_Int_Tables_number   1
_chemical_formula_structural   YbPrHo8(In2Pt)4
_chemical_formula_sum   'Yb1 Pr1 Ho8 In8 Pt4'
_cell_volume   543.51608021
_cell_formula_units_Z   1
loop_
 _symmetry_equiv_pos_site_id
 _symmetry_equiv_pos_as_xyz
  1  'x, y, z'
loop_
 _atom_site_type_symbol
 _atom_site_label
 _atom_site_symmetry_multiplicity
 _atom_site_fract_x
 _atom_site_fract_y
 _atom_site_fract_z
 _atom_site_occupancy
  Yb  Yb0  1  0.000000  0.500000  0.500000  1
  Pr  Pr1  1  0.000000  0.000000  0.000000  1
  Ho  Ho2  1  0.000000  0.118741  0.414105  1
  Ho  Ho3  1  0.000000  0.881259  0.585895  1
  Ho  Ho4  1  0.000000  0.379292  0.913568  1
  Ho  Ho5  1  0.000000  0.620708  0.086432  1
  Ho  Ho6  1  0.000000  0.242365  0.221048  1
  Ho  Ho7  1  0.000000  0.757635  0.778952  1
  Ho  Ho8  1  0.000000  0.258530  0.719288  1
  Ho  Ho9  1  0.000000  0.741470  0.280712  1
  In  In10  1  0.500000  0.424211  0.350850  1
  In  In11  1  0.500000  0.575789  0.649150  1
  In  In12  1  0.500000  0.078138  0.847970  1
  In  In13  1  0.500000  0.921862  0.152030  1
  In  In14  1  0.500000  0.299656  0.068263  1
  In  In15  1  0.500000  0.700344  0.931737  1
  In  In16  1  0.500000  0.205836  0.566898  1
  In  In17  1  0.500000  0.794164  0.433102  1
  Pt  Pt18  1  0.500000  0.022705  0.303895  1
  Pt  Pt19  1  0.500000  0.977295  0.696105  1
  Pt  Pt20  1  0.500000  0.475331  0.802906  1
  Pt  Pt21  1  0.500000  0.524669  0.197094  1
