# generated using pymatgen
data_Dy4TmSc3Au4
_symmetry_space_group_name_H-M   'P 1'
_cell_length_a   4.80010900
_cell_length_b   7.05213585
_cell_length_c   8.64888676
_cell_angle_alpha   89.98234808
_cell_angle_beta   90.00000000
_cell_angle_gamma   90.00000000
_symmetry_Int_Tables_number   1
_chemical_formula_structural   Dy4TmSc3Au4
_chemical_formula_sum   'Dy4 Tm1 Sc3 Au4'
_cell_volume   292.77363130
_cell_formula_units_Z   1
loop_
 _symmetry_equiv_pos_site_id
 _symmetry_equiv_pos_as_xyz
  1  'x, y, z'
loop_
 _atom_site_type_symbol
 _atom_site_label
 _atom_site_symmetry_multiplicity
 _atom_site_fract_x
 _atom_site_fract_y
 _atom_site_fract_z
 _atom_site_occupancy
  Dy  Dy0  1  0.250000  0.480063  0.174352  1
  Dy  Dy1  1  0.250000  0.989941  0.320543  1
  Dy  Dy2  1  0.750000  0.516218  0.822223  1
  Dy  Dy3  1  0.750000  0.019964  0.684065  1
  Tm  Tm4  1  0.750000  0.647486  0.420889  1
  Sc  Sc5  1  0.250000  0.854736  0.925283  1
  Sc  Sc6  1  0.250000  0.353471  0.579769  1
  Sc  Sc7  1  0.750000  0.146089  0.075818  1
  Au  Au8  1  0.250000  0.242419  0.896352  1
  Au  Au9  1  0.250000  0.746715  0.608907  1
  Au  Au10  1  0.750000  0.756896  0.094525  1
  Au  Au11  1  0.750000  0.246003  0.397276  1
