# generated using pymatgen
data_CdIn2(SeO3)4
_symmetry_space_group_name_H-M   'P 1'
_cell_length_a   4.92277400
_cell_length_b   8.83578237
_cell_length_c   16.34980321
_cell_angle_alpha   70.35380539
_cell_angle_beta   90.00000000
_cell_angle_gamma   90.00000000
_symmetry_Int_Tables_number   1
_chemical_formula_structural   CdIn2(SeO3)4
_chemical_formula_sum   'Cd2 In4 Se8 O24'
_cell_volume   669.76120303
_cell_formula_units_Z   2
loop_
 _symmetry_equiv_pos_site_id
 _symmetry_equiv_pos_as_xyz
  1  'x, y, z'
loop_
 _atom_site_type_symbol
 _atom_site_label
 _atom_site_symmetry_multiplicity
 _atom_site_fract_x
 _atom_site_fract_y
 _atom_site_fract_z
 _atom_site_occupancy
  Cd  Cd0  1  0.000000  0.000000  0.000000  1
  Cd  Cd1  1  0.500000  0.000000  0.500000  1
  In  In2  1  0.528530  0.153664  0.786516  1
  In  In3  1  0.971470  0.153664  0.286516  1
  In  In4  1  0.471470  0.846336  0.213484  1
  In  In5  1  0.028530  0.846336  0.713484  1
  Se  Se6  1  0.558679  0.784547  0.880349  1
  Se  Se7  1  0.941321  0.784547  0.380349  1
  Se  Se8  1  0.441321  0.215453  0.119651  1
  Se  Se9  1  0.058679  0.215453  0.619651  1
  Se  Se10  1  0.005744  0.350006  0.865828  1
  Se  Se11  1  0.494256  0.350006  0.365828  1
  Se  Se12  1  0.994256  0.649994  0.134172  1
  Se  Se13  1  0.505744  0.649994  0.634172  1
  O  O14  1  0.764870  0.353325  0.787847  1
  O  O15  1  0.735130  0.353325  0.287847  1
  O  O16  1  0.235130  0.646675  0.212153  1
  O  O17  1  0.264870  0.646675  0.712153  1
  O  O18  1  0.818251  0.717834  0.831789  1
  O  O19  1  0.681749  0.717834  0.331789  1
  O  O20  1  0.181749  0.282166  0.168211  1
  O  O21  1  0.318251  0.282166  0.668211  1
  O  O22  1  0.207754  0.180108  0.871697  1
  O  O23  1  0.292246  0.180108  0.371697  1
  O  O24  1  0.792246  0.819892  0.128303  1
  O  O25  1  0.707754  0.819892  0.628303  1
  O  O26  1  0.688168  0.953320  0.899609  1
  O  O27  1  0.811832  0.953320  0.399609  1
  O  O28  1  0.311832  0.046680  0.100391  1
  O  O29  1  0.188168  0.046680  0.600391  1
  O  O30  1  0.361094  0.908575  0.793381  1
  O  O31  1  0.138906  0.908575  0.293381  1
  O  O32  1  0.638906  0.091425  0.206619  1
  O  O33  1  0.861094  0.091425  0.706619  1
  O  O34  1  0.848151  0.257869  0.962944  1
  O  O35  1  0.651849  0.257869  0.462944  1
  O  O36  1  0.151849  0.742131  0.037056  1
  O  O37  1  0.348151  0.742131  0.537056  1
