# generated using pymatgen
data_Rb3SrLaUTe6
_symmetry_space_group_name_H-M   'P 1'
_cell_length_a   8.17220394
_cell_length_b   8.17220457
_cell_length_c   8.96689571
_cell_angle_alpha   81.17336707
_cell_angle_beta   81.17336751
_cell_angle_gamma   119.87580025
_symmetry_Int_Tables_number   1
_chemical_formula_structural   Rb3SrLaUTe6
_chemical_formula_sum   'Rb3 Sr1 La1 U1 Te6'
_cell_volume   494.30884365
_cell_formula_units_Z   1
loop_
 _symmetry_equiv_pos_site_id
 _symmetry_equiv_pos_as_xyz
  1  'x, y, z'
loop_
 _atom_site_type_symbol
 _atom_site_label
 _atom_site_symmetry_multiplicity
 _atom_site_fract_x
 _atom_site_fract_y
 _atom_site_fract_z
 _atom_site_occupancy
  Rb  Rb0  1  0.661677  0.338323  0.500000  1
  Rb  Rb1  1  0.340282  0.659718  0.500000  1
  Rb  Rb2  1  0.998524  0.001476  0.500000  1
  Sr  Sr3  1  0.499915  0.500085  0.000000  1
  La  La4  1  0.832682  0.167318  0.000000  1
  U  U5  1  0.167346  0.832654  0.000000  1
  Te  Te6  1  0.788783  0.776323  0.203345  1
  Te  Te7  1  0.223677  0.211217  0.796655  1
  Te  Te8  1  0.417533  0.073476  0.205508  1
  Te  Te9  1  0.556129  0.913070  0.793799  1
  Te  Te10  1  0.926524  0.582467  0.794492  1
  Te  Te11  1  0.086930  0.443871  0.206201  1
