# generated using pymatgen
data_Y4AsI6
_symmetry_space_group_name_H-M   'P 1'
_cell_length_a   4.24848100
_cell_length_b   13.93352400
_cell_length_c   14.76696800
_cell_angle_alpha   90.00000000
_cell_angle_beta   90.00000000
_cell_angle_gamma   90.00000000
_symmetry_Int_Tables_number   1
_chemical_formula_structural   Y4AsI6
_chemical_formula_sum   'Y8 As2 I12'
_cell_volume   874.15004468
_cell_formula_units_Z   2
loop_
 _symmetry_equiv_pos_site_id
 _symmetry_equiv_pos_as_xyz
  1  'x, y, z'
loop_
 _atom_site_type_symbol
 _atom_site_label
 _atom_site_symmetry_multiplicity
 _atom_site_fract_x
 _atom_site_fract_y
 _atom_site_fract_z
 _atom_site_occupancy
  Y  Y0  1  0.500000  0.114961  0.347652  1
  Y  Y1  1  0.500000  0.885039  0.652348  1
  Y  Y2  1  0.500000  0.614961  0.152348  1
  Y  Y3  1  0.500000  0.385039  0.847652  1
  Y  Y4  1  0.000000  0.109566  0.573291  1
  Y  Y5  1  0.000000  0.890434  0.426709  1
  Y  Y6  1  0.000000  0.609566  0.926709  1
  Y  Y7  1  0.000000  0.390434  0.073291  1
  As  As8  1  0.500000  0.000000  0.500000  1
  As  As9  1  0.500000  0.500000  0.000000  1
  I  I10  1  0.500000  0.246986  0.160801  1
  I  I11  1  0.500000  0.753014  0.839199  1
  I  I12  1  0.500000  0.746986  0.339199  1
  I  I13  1  0.500000  0.253014  0.660801  1
  I  I14  1  0.000000  0.258849  0.415187  1
  I  I15  1  0.000000  0.741151  0.584813  1
  I  I16  1  0.000000  0.758849  0.084813  1
  I  I17  1  0.000000  0.241151  0.915187  1
  I  I18  1  0.000000  0.999628  0.241035  1
  I  I19  1  0.000000  0.000372  0.758965  1
  I  I20  1  0.000000  0.499628  0.258965  1
  I  I21  1  0.000000  0.500372  0.741035  1
