# generated using pymatgen
data_Nd8Cu3Si12Ge
_symmetry_space_group_name_H-M   'P 1'
_cell_length_a   8.14281400
_cell_length_b   8.14281419
_cell_length_c   8.49155500
_cell_angle_alpha   90.00000000
_cell_angle_beta   90.00000000
_cell_angle_gamma   119.99999923
_symmetry_Int_Tables_number   1
_chemical_formula_structural   Nd8Cu3Si12Ge
_chemical_formula_sum   'Nd8 Cu3 Si12 Ge1'
_cell_volume   487.60359767
_cell_formula_units_Z   1
loop_
 _symmetry_equiv_pos_site_id
 _symmetry_equiv_pos_as_xyz
  1  'x, y, z'
loop_
 _atom_site_type_symbol
 _atom_site_label
 _atom_site_symmetry_multiplicity
 _atom_site_fract_x
 _atom_site_fract_y
 _atom_site_fract_z
 _atom_site_occupancy
  Nd  Nd0  1  0.000000  0.000000  0.749387  1
  Nd  Nd1  1  0.000000  0.000000  0.250733  1
  Nd  Nd2  1  0.498580  0.501420  0.751786  1
  Nd  Nd3  1  0.498580  0.997162  0.751786  1
  Nd  Nd4  1  0.002838  0.501420  0.751786  1
  Nd  Nd5  1  0.499100  0.500900  0.248272  1
  Nd  Nd6  1  0.001802  0.500900  0.248272  1
  Nd  Nd7  1  0.499100  0.998198  0.248272  1
  Cu  Cu8  1  0.666667  0.333333  0.997946  1
  Cu  Cu9  1  0.666667  0.333333  0.501820  1
  Cu  Cu10  1  0.333333  0.666667  0.498836  1
  Si  Si11  1  0.828623  0.171377  0.999802  1
  Si  Si12  1  0.828623  0.657246  0.999802  1
  Si  Si13  1  0.342754  0.171377  0.999802  1
  Si  Si14  1  0.830943  0.169057  0.500197  1
  Si  Si15  1  0.830943  0.661886  0.500197  1
  Si  Si16  1  0.338114  0.169057  0.500197  1
  Si  Si17  1  0.169261  0.830739  0.499848  1
  Si  Si18  1  0.661479  0.830739  0.499848  1
  Si  Si19  1  0.169261  0.338521  0.499848  1
  Si  Si20  1  0.160562  0.839438  0.000284  1
  Si  Si21  1  0.678876  0.839438  0.000284  1
  Si  Si22  1  0.160562  0.321124  0.000284  1
  Ge  Ge23  1  0.333333  0.666667  0.000709  1
