# generated using pymatgen
data_La9Nd7Cd4CoPt3
_symmetry_space_group_name_H-M   'P 1'
_cell_length_a   10.05573378
_cell_length_b   10.05573324
_cell_length_c   10.05201601
_cell_angle_alpha   60.21976761
_cell_angle_beta   60.21976921
_cell_angle_gamma   60.27496889
_symmetry_Int_Tables_number   1
_chemical_formula_structural   La9Nd7Cd4CoPt3
_chemical_formula_sum   'La9 Nd7 Cd4 Co1 Pt3'
_cell_volume   722.60459317
_cell_formula_units_Z   1
loop_
 _symmetry_equiv_pos_site_id
 _symmetry_equiv_pos_as_xyz
  1  'x, y, z'
loop_
 _atom_site_type_symbol
 _atom_site_label
 _atom_site_symmetry_multiplicity
 _atom_site_fract_x
 _atom_site_fract_y
 _atom_site_fract_z
 _atom_site_occupancy
  La  La0  1  0.350021  0.350021  0.350169  1
  La  La1  1  0.344040  0.344040  0.955469  1
  La  La2  1  0.345552  0.955309  0.343285  1
  La  La3  1  0.955309  0.345552  0.343285  1
  La  La4  1  0.819541  0.189025  0.191546  1
  La  La5  1  0.191882  0.806783  0.807973  1
  La  La6  1  0.189025  0.819541  0.191546  1
  La  La7  1  0.806783  0.191882  0.807973  1
  La  La8  1  0.190973  0.190973  0.819657  1
  Nd  Nd9  1  0.805911  0.805911  0.194006  1
  Nd  Nd10  1  0.936173  0.564964  0.563666  1
  Nd  Nd11  1  0.565575  0.932269  0.933767  1
  Nd  Nd12  1  0.564964  0.936173  0.563666  1
  Nd  Nd13  1  0.932269  0.565575  0.933767  1
  Nd  Nd14  1  0.563883  0.563883  0.937536  1
  Nd  Nd15  1  0.933531  0.933531  0.564673  1
  Cd  Cd16  1  0.580810  0.580810  0.578543  1
  Cd  Cd17  1  0.582543  0.582543  0.255943  1
  Cd  Cd18  1  0.581896  0.256439  0.581555  1
  Cd  Cd19  1  0.256439  0.581896  0.581555  1
  Co  Co20  1  0.141870  0.141870  0.141125  1
  Pt  Pt21  1  0.143093  0.143093  0.573556  1
  Pt  Pt22  1  0.143797  0.574117  0.142868  1
  Pt  Pt23  1  0.574117  0.143797  0.142868  1
