# generated using pymatgen
data_CsAlCr2O8
_symmetry_space_group_name_H-M   'P 1'
_cell_length_a   5.19701566
_cell_length_b   5.19701697
_cell_length_c   8.67397549
_cell_angle_alpha   94.34782066
_cell_angle_beta   94.34782636
_cell_angle_gamma   62.92773484
_symmetry_Int_Tables_number   1
_chemical_formula_structural   CsAlCr2O8
_chemical_formula_sum   'Cs1 Al1 Cr2 O8'
_cell_volume   207.78086196
_cell_formula_units_Z   1
loop_
 _symmetry_equiv_pos_site_id
 _symmetry_equiv_pos_as_xyz
  1  'x, y, z'
loop_
 _atom_site_type_symbol
 _atom_site_label
 _atom_site_symmetry_multiplicity
 _atom_site_fract_x
 _atom_site_fract_y
 _atom_site_fract_z
 _atom_site_occupancy
  Cs  Cs0  1  0.000000  0.000000  0.500000  1
  Al  Al1  1  0.000000  0.000000  0.000000  1
  Cr  Cr2  1  0.368904  0.368904  0.181757  1
  Cr  Cr3  1  0.631096  0.631096  0.818243  1
  O  O4  1  0.212034  0.212034  0.062492  1
  O  O5  1  0.726416  0.216324  0.152319  1
  O  O6  1  0.216324  0.726416  0.152319  1
  O  O7  1  0.328816  0.328816  0.361649  1
  O  O8  1  0.671184  0.671184  0.638351  1
  O  O9  1  0.783677  0.273585  0.847681  1
  O  O10  1  0.273585  0.783677  0.847681  1
  O  O11  1  0.787965  0.787965  0.937508  1
