# generated using pymatgen
data_Na16VFe7P8(O4F)8
_symmetry_space_group_name_H-M   'P 1'
_cell_length_a   5.28099600
_cell_length_b   11.95417000
_cell_length_c   14.04166800
_cell_angle_alpha   90.00000000
_cell_angle_beta   90.00000000
_cell_angle_gamma   90.00000000
_symmetry_Int_Tables_number   1
_chemical_formula_structural   Na16VFe7P8(O4F)8
_chemical_formula_sum   'Na16 V1 Fe7 P8 O32 F8'
_cell_volume   886.44943302
_cell_formula_units_Z   1
loop_
 _symmetry_equiv_pos_site_id
 _symmetry_equiv_pos_as_xyz
  1  'x, y, z'
loop_
 _atom_site_type_symbol
 _atom_site_label
 _atom_site_symmetry_multiplicity
 _atom_site_fract_x
 _atom_site_fract_y
 _atom_site_fract_z
 _atom_site_occupancy
  Na  Na0  1  0.265062  0.328512  0.753871  1
  Na  Na1  1  0.235163  0.828168  0.744755  1
  Na  Na2  1  0.764892  0.671937  0.744784  1
  Na  Na3  1  0.735252  0.171551  0.754411  1
  Na  Na4  1  0.735548  0.671439  0.245088  1
  Na  Na5  1  0.765019  0.172502  0.255286  1
  Na  Na6  1  0.235175  0.328800  0.254303  1
  Na  Na7  1  0.264630  0.828007  0.245240  1
  Na  Na8  1  0.238265  0.082343  0.874968  1
  Na  Na9  1  0.261944  0.583573  0.624519  1
  Na  Na10  1  0.738021  0.916449  0.624563  1
  Na  Na11  1  0.759255  0.417603  0.875116  1
  Na  Na12  1  0.761747  0.916395  0.124821  1
  Na  Na13  1  0.738175  0.416487  0.375089  1
  Na  Na14  1  0.261954  0.083602  0.375462  1
  Na  Na15  1  0.237886  0.581981  0.124684  1
  V  V16  1  0.219030  0.322957  0.986633  1
  Fe  Fe17  1  0.271428  0.825856  0.509462  1
  Fe  Fe18  1  0.728632  0.674042  0.509442  1
  Fe  Fe19  1  0.769616  0.173510  0.990933  1
  Fe  Fe20  1  0.772576  0.673959  0.010150  1
  Fe  Fe21  1  0.728968  0.174083  0.490485  1
  Fe  Fe22  1  0.271257  0.326105  0.490382  1
  Fe  Fe23  1  0.227643  0.825554  0.009712  1
  P  P24  1  0.203885  0.087047  0.619297  1
  P  P25  1  0.296479  0.587658  0.880588  1
  P  P26  1  0.703528  0.913050  0.880641  1
  P  P27  1  0.796157  0.412985  0.619299  1
  P  P28  1  0.796202  0.913000  0.380728  1
  P  P29  1  0.703472  0.413568  0.120323  1
  P  P30  1  0.296125  0.086609  0.119980  1
  P  P31  1  0.203849  0.587127  0.380806  1
  O  O32  1  0.267753  0.960386  0.612960  1
  O  O33  1  0.232121  0.460893  0.886921  1
  O  O34  1  0.767178  0.039875  0.887044  1
  O  O35  1  0.732194  0.539634  0.613012  1
  O  O36  1  0.732243  0.039657  0.387139  1
  O  O37  1  0.770695  0.540198  0.113610  1
  O  O38  1  0.232201  0.960117  0.112999  1
  O  O39  1  0.267845  0.460508  0.387345  1
  O  O40  1  0.285011  0.134176  0.716479  1
  O  O41  1  0.214992  0.634276  0.783372  1
  O  O42  1  0.785259  0.866120  0.783522  1
  O  O43  1  0.715035  0.365870  0.716493  1
  O  O44  1  0.714933  0.865886  0.283588  1
  O  O45  1  0.789695  0.366546  0.217006  1
  O  O46  1  0.214915  0.133814  0.216893  1
  O  O47  1  0.285158  0.634315  0.283730  1
  O  O48  1  0.908749  0.102337  0.605549  1
  O  O49  1  0.591422  0.602812  0.894245  1
  O  O50  1  0.408529  0.897509  0.894274  1
  O  O51  1  0.091307  0.397707  0.605544  1
  O  O52  1  0.091329  0.897716  0.394511  1
  O  O53  1  0.410527  0.398292  0.107609  1
  O  O54  1  0.591019  0.102146  0.106295  1
  O  O55  1  0.908695  0.602412  0.394581  1
  O  O56  1  0.338640  0.151005  0.536286  1
  O  O57  1  0.161199  0.651227  0.963644  1
  O  O58  1  0.838752  0.849461  0.963799  1
  O  O59  1  0.661447  0.349053  0.536271  1
  O  O60  1  0.661495  0.849063  0.463820  1
  O  O61  1  0.836590  0.349473  0.036351  1
  O  O62  1  0.160587  0.150511  0.036657  1
  O  O63  1  0.338530  0.651041  0.463962  1
  F  F64  1  0.000514  0.249125  0.874972  1
  F  F65  1  0.500086  0.749999  0.622674  1
  F  F66  1  0.000434  0.750449  0.123395  1
  F  F67  1  0.499962  0.249954  0.377672  1
  F  F68  1  0.505942  0.249982  0.899273  1
  F  F69  1  0.999978  0.750006  0.601114  1
  F  F70  1  0.500137  0.750150  0.100547  1
  F  F71  1  0.000063  0.249840  0.399018  1
