# generated using pymatgen
data_CaHoNi12As7
_symmetry_space_group_name_H-M   'P 1'
_cell_length_a   9.38035400
_cell_length_b   9.38035462
_cell_length_c   3.83082800
_cell_angle_alpha   90.00000000
_cell_angle_beta   90.00000000
_cell_angle_gamma   120.00000486
_symmetry_Int_Tables_number   1
_chemical_formula_structural   CaHoNi12As7
_chemical_formula_sum   'Ca1 Ho1 Ni12 As7'
_cell_volume   291.91858740
_cell_formula_units_Z   1
loop_
 _symmetry_equiv_pos_site_id
 _symmetry_equiv_pos_as_xyz
  1  'x, y, z'
loop_
 _atom_site_type_symbol
 _atom_site_label
 _atom_site_symmetry_multiplicity
 _atom_site_fract_x
 _atom_site_fract_y
 _atom_site_fract_z
 _atom_site_occupancy
  Ca  Ca0  1  0.333333  0.666667  0.500000  1
  Ho  Ho1  1  0.666667  0.333333  0.000000  1
  Ni  Ni2  1  0.053752  0.437320  0.000000  1
  Ni  Ni3  1  0.562680  0.616431  0.000000  1
  Ni  Ni4  1  0.383569  0.946248  0.000000  1
  Ni  Ni5  1  0.280133  0.151788  0.000000  1
  Ni  Ni6  1  0.848212  0.128346  0.000000  1
  Ni  Ni7  1  0.871654  0.719867  0.000000  1
  Ni  Ni8  1  0.426028  0.374672  0.500000  1
  Ni  Ni9  1  0.625328  0.051355  0.500000  1
  Ni  Ni10  1  0.948645  0.573972  0.500000  1
  Ni  Ni11  1  0.096742  0.210502  0.500000  1
  Ni  Ni12  1  0.789498  0.886241  0.500000  1
  Ni  Ni13  1  0.113759  0.903258  0.500000  1
  As  As14  1  0.286320  0.403336  0.000000  1
  As  As15  1  0.596664  0.882984  0.000000  1
  As  As16  1  0.117016  0.713680  0.000000  1
  As  As17  1  0.406834  0.108473  0.500000  1
  As  As18  1  0.891527  0.298362  0.500000  1
  As  As19  1  0.701638  0.593166  0.500000  1
  As  As20  1  0.000000  0.000000  0.000000  1
