# generated using pymatgen
data_Zr4Al4Tc3Pd
_symmetry_space_group_name_H-M   'P 1'
_cell_length_a   5.23609723
_cell_length_b   5.23609809
_cell_length_c   8.71352500
_cell_angle_alpha   90.00000000
_cell_angle_beta   90.00000000
_cell_angle_gamma   119.07811629
_symmetry_Int_Tables_number   1
_chemical_formula_structural   Zr4Al4Tc3Pd
_chemical_formula_sum   'Zr4 Al4 Tc3 Pd1'
_cell_volume   208.78527995
_cell_formula_units_Z   1
loop_
 _symmetry_equiv_pos_site_id
 _symmetry_equiv_pos_as_xyz
  1  'x, y, z'
loop_
 _atom_site_type_symbol
 _atom_site_label
 _atom_site_symmetry_multiplicity
 _atom_site_fract_x
 _atom_site_fract_y
 _atom_site_fract_z
 _atom_site_occupancy
  Zr  Zr0  1  0.333157  0.666843  0.193100  1
  Zr  Zr1  1  0.665253  0.334747  0.319937  1
  Zr  Zr2  1  0.665253  0.334747  0.680063  1
  Zr  Zr3  1  0.333157  0.666843  0.806900  1
  Al  Al4  1  0.996496  0.003504  0.247488  1
  Al  Al5  1  0.996496  0.003504  0.752512  1
  Al  Al6  1  0.833990  0.650751  0.000000  1
  Al  Al7  1  0.349249  0.166010  0.000000  1
  Tc  Tc8  1  0.166764  0.342420  0.500000  1
  Tc  Tc9  1  0.657580  0.833236  0.500000  1
  Tc  Tc10  1  0.166859  0.833141  0.500000  1
  Pd  Pd11  1  0.835898  0.164102  0.000000  1
