# generated using pymatgen
data_Nd2Sm6Sc12Ga11Si4Ge
_symmetry_space_group_name_H-M   'P 1'
_cell_length_a   7.33628862
_cell_length_b   7.59059923
_cell_length_c   14.48944307
_cell_angle_alpha   90.05620045
_cell_angle_beta   89.92085774
_cell_angle_gamma   90.14083613
_symmetry_Int_Tables_number   1
_chemical_formula_structural   Nd2Sm6Sc12Ga11Si4Ge
_chemical_formula_sum   'Nd2 Sm6 Sc12 Ga11 Si4 Ge1'
_cell_volume   806.86751248
_cell_formula_units_Z   1
loop_
 _symmetry_equiv_pos_site_id
 _symmetry_equiv_pos_as_xyz
  1  'x, y, z'
loop_
 _atom_site_type_symbol
 _atom_site_label
 _atom_site_symmetry_multiplicity
 _atom_site_fract_x
 _atom_site_fract_y
 _atom_site_fract_z
 _atom_site_occupancy
  Nd  Nd0  1  0.013346  0.175047  0.096353  1
  Nd  Nd1  1  0.988504  0.821451  0.904782  1
  Sm  Sm2  1  0.489039  0.678192  0.904532  1
  Sm  Sm3  1  0.987218  0.822192  0.596939  1
  Sm  Sm4  1  0.511408  0.321359  0.097273  1
  Sm  Sm5  1  0.011182  0.177770  0.402186  1
  Sm  Sm6  1  0.511175  0.321998  0.402228  1
  Sm  Sm7  1  0.489633  0.676760  0.596232  1
  Sc  Sc8  1  0.162615  0.504077  0.749402  1
  Sc  Sc9  1  0.838007  0.494478  0.250160  1
  Sc  Sc10  1  0.336877  0.006151  0.248835  1
  Sc  Sc11  1  0.663861  0.994889  0.749514  1
  Sc  Sc12  1  0.328984  0.171775  0.623269  1
  Sc  Sc13  1  0.670161  0.829231  0.375898  1
  Sc  Sc14  1  0.170579  0.670903  0.375960  1
  Sc  Sc15  1  0.667135  0.828092  0.124268  1
  Sc  Sc16  1  0.828641  0.329170  0.623732  1
  Sc  Sc17  1  0.328517  0.172048  0.877757  1
  Sc  Sc18  1  0.828097  0.331337  0.876567  1
  Sc  Sc19  1  0.175652  0.672829  0.122720  1
  Ga  Ga20  1  0.030099  0.121398  0.750833  1
  Ga  Ga21  1  0.967059  0.879405  0.249753  1
  Ga  Ga22  1  0.467595  0.617686  0.249564  1
  Ga  Ga23  1  0.531702  0.381498  0.750448  1
  Ga  Ga24  1  0.158083  0.463209  0.541482  1
  Ga  Ga25  1  0.841179  0.536867  0.458296  1
  Ga  Ga26  1  0.340834  0.963138  0.458078  1
  Ga  Ga27  1  0.841142  0.537126  0.042826  1
  Ga  Ga28  1  0.658220  0.037087  0.541371  1
  Ga  Ga29  1  0.158615  0.463571  0.958620  1
  Ga  Ga30  1  0.656019  0.037778  0.959158  1
  Si  Si31  1  0.714305  0.120386  0.249640  1
  Si  Si32  1  0.215004  0.379739  0.249742  1
  Si  Si33  1  0.783899  0.620405  0.750052  1
  Si  Si34  1  0.347554  0.964110  0.041417  1
  Ge  Ge35  1  0.288061  0.876851  0.750112  1
