# generated using pymatgen
data_Pr4HoRh2
_symmetry_space_group_name_H-M   'P 1'
_cell_length_a   6.65250885
_cell_length_b   7.25011255
_cell_length_c   9.05981404
_cell_angle_alpha   96.50579238
_cell_angle_beta   111.53956990
_cell_angle_gamma   90.00000181
_symmetry_Int_Tables_number   1
_chemical_formula_structural   Pr4HoRh2
_chemical_formula_sum   'Pr8 Ho2 Rh4'
_cell_volume   403.42518232
_cell_formula_units_Z   2
loop_
 _symmetry_equiv_pos_site_id
 _symmetry_equiv_pos_as_xyz
  1  'x, y, z'
loop_
 _atom_site_type_symbol
 _atom_site_label
 _atom_site_symmetry_multiplicity
 _atom_site_fract_x
 _atom_site_fract_y
 _atom_site_fract_z
 _atom_site_occupancy
  Pr  Pr0  1  0.978287  0.923357  0.183800  1
  Pr  Pr1  1  0.794488  0.576643  0.816200  1
  Pr  Pr2  1  0.021713  0.076643  0.816200  1
  Pr  Pr3  1  0.205512  0.423357  0.183800  1
  Pr  Pr4  1  0.644689  0.811533  0.429777  1
  Pr  Pr5  1  0.214913  0.688467  0.570223  1
  Pr  Pr6  1  0.355311  0.188467  0.570223  1
  Pr  Pr7  1  0.785087  0.311533  0.429777  1
  Ho  Ho8  1  0.435170  0.750000  0.000000  1
  Ho  Ho9  1  0.564830  0.250000  0.000000  1
  Rh  Rh10  1  0.803773  0.569629  0.207841  1
  Rh  Rh11  1  0.595932  0.930371  0.792159  1
  Rh  Rh12  1  0.196227  0.430371  0.792159  1
  Rh  Rh13  1  0.404068  0.069629  0.207841  1
