# generated using pymatgen
data_GdLuTe2(ClO3)2
_symmetry_space_group_name_H-M   'P 1'
_cell_length_a   7.18201512
_cell_length_b   7.56954329
_cell_length_c   8.40983033
_cell_angle_alpha   75.43951794
_cell_angle_beta   90.09231035
_cell_angle_gamma   91.29903708
_symmetry_Int_Tables_number   1
_chemical_formula_structural   GdLuTe2(ClO3)2
_chemical_formula_sum   'Gd2 Lu2 Te4 Cl4 O12'
_cell_volume   442.39528417
_cell_formula_units_Z   2
loop_
 _symmetry_equiv_pos_site_id
 _symmetry_equiv_pos_as_xyz
  1  'x, y, z'
loop_
 _atom_site_type_symbol
 _atom_site_label
 _atom_site_symmetry_multiplicity
 _atom_site_fract_x
 _atom_site_fract_y
 _atom_site_fract_z
 _atom_site_occupancy
  Gd  Gd0  1  0.747406  0.788917  0.361653  1
  Gd  Gd1  1  0.252594  0.211083  0.638347  1
  Lu  Lu2  1  0.249329  0.702522  0.669208  1
  Lu  Lu3  1  0.750671  0.297478  0.330792  1
  Te  Te4  1  0.718054  0.942963  0.718869  1
  Te  Te5  1  0.216804  0.569179  0.280501  1
  Te  Te6  1  0.783196  0.430821  0.719499  1
  Te  Te7  1  0.281946  0.057037  0.281131  1
  Cl  Cl8  1  0.702099  0.605728  0.103111  1
  Cl  Cl9  1  0.297901  0.394272  0.896889  1
  Cl  Cl10  1  0.799840  0.115864  0.105404  1
  Cl  Cl11  1  0.200160  0.884136  0.894596  1
  O  O12  1  0.790287  0.024118  0.489722  1
  O  O13  1  0.446031  0.235823  0.337540  1
  O  O14  1  0.050416  0.753340  0.298427  1
  O  O15  1  0.552987  0.136829  0.709303  1
  O  O16  1  0.945925  0.642247  0.669691  1
  O  O17  1  0.054075  0.357753  0.330309  1
  O  O18  1  0.447013  0.863171  0.290697  1
  O  O19  1  0.553969  0.764177  0.662460  1
  O  O20  1  0.710174  0.481567  0.490604  1
  O  O21  1  0.209713  0.975882  0.510278  1
  O  O22  1  0.289826  0.518433  0.509396  1
  O  O23  1  0.949584  0.246660  0.701573  1
