# generated using pymatgen
data_Tb3SmGa18(PdRu2)2
_symmetry_space_group_name_H-M   'P 1'
_cell_length_a   7.59433126
_cell_length_b   7.59005713
_cell_length_c   9.66264100
_cell_angle_alpha   90.00000000
_cell_angle_beta   90.00000000
_cell_angle_gamma   119.61335091
_symmetry_Int_Tables_number   1
_chemical_formula_structural   Tb3SmGa18(PdRu2)2
_chemical_formula_sum   'Tb3 Sm1 Ga18 Pd2 Ru4'
_cell_volume   484.21693628
_cell_formula_units_Z   1
loop_
 _symmetry_equiv_pos_site_id
 _symmetry_equiv_pos_as_xyz
  1  'x, y, z'
loop_
 _atom_site_type_symbol
 _atom_site_label
 _atom_site_symmetry_multiplicity
 _atom_site_fract_x
 _atom_site_fract_y
 _atom_site_fract_z
 _atom_site_occupancy
  Tb  Tb0  1  0.997793  0.672478  0.250000  1
  Tb  Tb1  1  0.002370  0.327765  0.750000  1
  Tb  Tb2  1  0.672691  0.997605  0.250000  1
  Sm  Sm3  1  0.327287  0.002810  0.750000  1
  Ga  Ga4  1  0.133757  0.133814  0.250000  1
  Ga  Ga5  1  0.864801  0.865612  0.750000  1
  Ga  Ga6  1  0.003107  0.340445  0.078225  1
  Ga  Ga7  1  0.995683  0.658266  0.922682  1
  Ga  Ga8  1  0.995683  0.658266  0.577318  1
  Ga  Ga9  1  0.340456  0.003543  0.421206  1
  Ga  Ga10  1  0.003107  0.340445  0.421775  1
  Ga  Ga11  1  0.660710  0.996743  0.577071  1
  Ga  Ga12  1  0.660710  0.996743  0.922929  1
  Ga  Ga13  1  0.340456  0.003543  0.078794  1
  Ga  Ga14  1  0.341670  0.342621  0.564640  1
  Ga  Ga15  1  0.658471  0.658280  0.434389  1
  Ga  Ga16  1  0.658471  0.658280  0.065611  1
  Ga  Ga17  1  0.341670  0.342621  0.935360  1
  Ga  Ga18  1  0.335290  0.551503  0.250000  1
  Ga  Ga19  1  0.665754  0.449680  0.750000  1
  Ga  Ga20  1  0.551996  0.335658  0.250000  1
  Ga  Ga21  1  0.448466  0.663631  0.750000  1
  Pd  Pd22  1  0.999558  0.999834  0.000392  1
  Pd  Pd23  1  0.999558  0.999834  0.499608  1
  Ru  Ru24  1  0.673471  0.326471  0.000309  1
  Ru  Ru25  1  0.326774  0.673519  0.000617  1
  Ru  Ru26  1  0.326774  0.673519  0.499383  1
  Ru  Ru27  1  0.673471  0.326471  0.499691  1
