# generated using pymatgen
data_Ce3Tm5Np4O24
_symmetry_space_group_name_H-M   'P 1'
_cell_length_a   5.47237400
_cell_length_b   7.76511135
_cell_length_c   11.73828800
_cell_angle_alpha   73.61951136
_cell_angle_beta   90.00000000
_cell_angle_gamma   90.00000000
_symmetry_Int_Tables_number   1
_chemical_formula_structural   Ce3Tm5Np4O24
_chemical_formula_sum   'Ce3 Tm5 Np4 O24'
_cell_volume   478.55569683
_cell_formula_units_Z   1
loop_
 _symmetry_equiv_pos_site_id
 _symmetry_equiv_pos_as_xyz
  1  'x, y, z'
loop_
 _atom_site_type_symbol
 _atom_site_label
 _atom_site_symmetry_multiplicity
 _atom_site_fract_x
 _atom_site_fract_y
 _atom_site_fract_z
 _atom_site_occupancy
  Ce  Ce0  1  0.744499  0.000000  0.750000  1
  Ce  Ce1  1  0.256949  0.000000  0.250000  1
  Ce  Ce2  1  0.705533  0.500000  0.750000  1
  Tm  Tm3  1  0.194626  0.802837  0.580861  1
  Tm  Tm4  1  0.805724  0.800638  0.081634  1
  Tm  Tm5  1  0.292763  0.500000  0.250000  1
  Tm  Tm6  1  0.194626  0.197163  0.919139  1
  Tm  Tm7  1  0.805724  0.199362  0.418366  1
  Np  Np8  1  0.254914  0.703849  0.899364  1
  Np  Np9  1  0.744996  0.704623  0.394880  1
  Np  Np10  1  0.254914  0.296151  0.600636  1
  Np  Np11  1  0.744996  0.295377  0.105120  1
  O  O12  1  0.040447  0.935845  0.905460  1
  O  O13  1  0.548401  0.864804  0.932331  1
  O  O14  1  0.946434  0.934218  0.402073  1
  O  O15  1  0.452198  0.786016  0.733641  1
  O  O16  1  0.444702  0.859824  0.429923  1
  O  O17  1  0.963507  0.726835  0.759503  1
  O  O18  1  0.545732  0.790552  0.230693  1
  O  O19  1  0.909608  0.610951  0.561841  1
  O  O20  1  0.410041  0.462411  0.893485  1
  O  O21  1  0.033884  0.719799  0.262723  1
  O  O22  1  0.410041  0.537589  0.606515  1
  O  O23  1  0.909608  0.389049  0.938159  1
  O  O24  1  0.106895  0.617377  0.065971  1
  O  O25  1  0.598021  0.468098  0.389023  1
  O  O26  1  0.963507  0.273165  0.740497  1
  O  O27  1  0.598021  0.531902  0.110977  1
  O  O28  1  0.106895  0.382623  0.434029  1
  O  O29  1  0.452198  0.213984  0.766359  1
  O  O30  1  0.033884  0.280201  0.237277  1
  O  O31  1  0.548401  0.135196  0.567669  1
  O  O32  1  0.545732  0.209448  0.269307  1
  O  O33  1  0.040447  0.064155  0.594540  1
  O  O34  1  0.444702  0.140176  0.070077  1
  O  O35  1  0.946434  0.065782  0.097927  1
