# generated using pymatgen
data_Pr5Sn3O
_symmetry_space_group_name_H-M   'P 1'
_cell_length_a   9.35295100
_cell_length_b   9.35295147
_cell_length_c   6.64419000
_cell_angle_alpha   90.00000000
_cell_angle_beta   90.00000000
_cell_angle_gamma   119.99999479
_symmetry_Int_Tables_number   1
_chemical_formula_structural   Pr5Sn3O
_chemical_formula_sum   'Pr10 Sn6 O2'
_cell_volume   503.34995925
_cell_formula_units_Z   2
loop_
 _symmetry_equiv_pos_site_id
 _symmetry_equiv_pos_as_xyz
  1  'x, y, z'
loop_
 _atom_site_type_symbol
 _atom_site_label
 _atom_site_symmetry_multiplicity
 _atom_site_fract_x
 _atom_site_fract_y
 _atom_site_fract_z
 _atom_site_occupancy
  Pr  Pr0  1  0.000000  0.776735  0.750000  1
  Pr  Pr1  1  0.000000  0.223265  0.250000  1
  Pr  Pr2  1  0.333333  0.666667  0.000000  1
  Pr  Pr3  1  0.333333  0.666667  0.500000  1
  Pr  Pr4  1  0.223265  0.223265  0.750000  1
  Pr  Pr5  1  0.223265  0.000000  0.250000  1
  Pr  Pr6  1  0.776735  0.776735  0.250000  1
  Pr  Pr7  1  0.666667  0.333333  0.000000  1
  Pr  Pr8  1  0.666667  0.333333  0.500000  1
  Pr  Pr9  1  0.776735  0.000000  0.750000  1
  Sn  Sn10  1  0.000000  0.600136  0.250000  1
  Sn  Sn11  1  0.000000  0.399864  0.750000  1
  Sn  Sn12  1  0.399864  0.399864  0.250000  1
  Sn  Sn13  1  0.600136  0.600136  0.750000  1
  Sn  Sn14  1  0.399864  0.000000  0.750000  1
  Sn  Sn15  1  0.600136  0.000000  0.250000  1
  O  O16  1  0.000000  0.000000  0.000000  1
  O  O17  1  0.000000  0.000000  0.500000  1
