# generated using pymatgen
data_Ho3ErFeTc7
_symmetry_space_group_name_H-M   'P 1'
_cell_length_a   5.39450607
_cell_length_b   5.39450657
_cell_length_c   8.80004200
_cell_angle_alpha   90.00078622
_cell_angle_beta   89.99921633
_cell_angle_gamma   121.60807277
_symmetry_Int_Tables_number   1
_chemical_formula_structural   Ho3ErFeTc7
_chemical_formula_sum   'Ho3 Er1 Fe1 Tc7'
_cell_volume   218.09760060
_cell_formula_units_Z   1
loop_
 _symmetry_equiv_pos_site_id
 _symmetry_equiv_pos_as_xyz
  1  'x, y, z'
loop_
 _atom_site_type_symbol
 _atom_site_label
 _atom_site_symmetry_multiplicity
 _atom_site_fract_x
 _atom_site_fract_y
 _atom_site_fract_z
 _atom_site_occupancy
  Ho  Ho0  1  0.334679  0.665321  0.436867  1
  Ho  Ho1  1  0.666312  0.333688  0.561654  1
  Ho  Ho2  1  0.666310  0.333690  0.938381  1
  Er  Er3  1  0.334699  0.665301  0.063099  1
  Fe  Fe4  1  0.828145  0.171855  0.249951  1
  Tc  Tc5  1  0.002594  0.997406  0.492167  1
  Tc  Tc6  1  0.002579  0.997421  0.007805  1
  Tc  Tc7  1  0.823572  0.657378  0.249929  1
  Tc  Tc8  1  0.342622  0.176428  0.249929  1
  Tc  Tc9  1  0.169428  0.830572  0.750075  1
  Tc  Tc10  1  0.170071  0.341011  0.750071  1
  Tc  Tc11  1  0.658989  0.829929  0.750071  1
