# generated using pymatgen
data_Hf12Ti5Pd7N4
_symmetry_space_group_name_H-M   'P 1'
_cell_length_a   8.61691490
_cell_length_b   8.65375738
_cell_length_c   8.61691400
_cell_angle_alpha   60.14072208
_cell_angle_beta   59.99995738
_cell_angle_gamma   60.14070772
_symmetry_Int_Tables_number   1
_chemical_formula_structural   Hf12Ti5Pd7N4
_chemical_formula_sum   'Hf12 Ti5 Pd7 N4'
_cell_volume   455.31669553
_cell_formula_units_Z   1
loop_
 _symmetry_equiv_pos_site_id
 _symmetry_equiv_pos_as_xyz
  1  'x, y, z'
loop_
 _atom_site_type_symbol
 _atom_site_label
 _atom_site_symmetry_multiplicity
 _atom_site_fract_x
 _atom_site_fract_y
 _atom_site_fract_z
 _atom_site_occupancy
  Hf  Hf0  1  0.815434  0.192533  0.176596  1
  Hf  Hf1  1  0.183166  0.816906  0.183166  1
  Hf  Hf2  1  0.816763  0.816906  0.183166  1
  Hf  Hf3  1  0.183166  0.816907  0.816763  1
  Hf  Hf4  1  0.815435  0.192533  0.815435  1
  Hf  Hf5  1  0.176596  0.192532  0.815435  1
  Hf  Hf6  1  0.435753  0.064466  0.064029  1
  Hf  Hf7  1  0.063443  0.432718  0.063443  1
  Hf  Hf8  1  0.440397  0.432718  0.063443  1
  Hf  Hf9  1  0.063443  0.432717  0.440397  1
  Hf  Hf10  1  0.435752  0.064466  0.435753  1
  Hf  Hf11  1  0.064029  0.064466  0.435753  1
  Ti  Ti12  1  0.831595  0.505214  0.831595  1
  Ti  Ti13  1  0.623278  0.622842  0.130602  1
  Ti  Ti14  1  0.623278  0.622843  0.623278  1
  Ti  Ti15  1  0.130602  0.622842  0.623278  1
  Ti  Ti16  1  0.625813  0.122560  0.625813  1
  Pd  Pd17  1  0.414936  0.410738  0.759389  1
  Pd  Pd18  1  0.414937  0.410738  0.414937  1
  Pd  Pd19  1  0.759389  0.410737  0.414937  1
  Pd  Pd20  1  0.413059  0.760822  0.413059  1
  Pd  Pd21  1  0.837170  0.832983  0.492676  1
  Pd  Pd22  1  0.837171  0.832984  0.837171  1
  Pd  Pd23  1  0.492676  0.832983  0.837170  1
  N  N24  1  0.126729  0.121218  0.625324  1
  N  N25  1  0.126729  0.121218  0.126728  1
  N  N26  1  0.625323  0.121218  0.126729  1
  N  N27  1  0.123935  0.628195  0.123935  1
