# generated using pymatgen
data_HoLu2Be2Co9B4
_symmetry_space_group_name_H-M   'P 1'
_cell_length_a   5.00087143
_cell_length_b   5.01306753
_cell_length_c   9.37250200
_cell_angle_alpha   90.00030522
_cell_angle_beta   89.99932239
_cell_angle_gamma   120.03242402
_symmetry_Int_Tables_number   1
_chemical_formula_structural   HoLu2Be2Co9B4
_chemical_formula_sum   'Ho1 Lu2 Be2 Co9 B4'
_cell_volume   203.41989682
_cell_formula_units_Z   1
loop_
 _symmetry_equiv_pos_site_id
 _symmetry_equiv_pos_as_xyz
  1  'x, y, z'
loop_
 _atom_site_type_symbol
 _atom_site_label
 _atom_site_symmetry_multiplicity
 _atom_site_fract_x
 _atom_site_fract_y
 _atom_site_fract_z
 _atom_site_occupancy
  Ho  Ho0  1  0.999990  0.000000  0.999960  1
  Lu  Lu1  1  0.000002  0.999997  0.338290  1
  Lu  Lu2  1  0.999997  0.000003  0.661627  1
  Be  Be3  1  0.333300  0.666652  0.000051  1
  Be  Be4  1  0.666683  0.333350  0.000044  1
  Co  Co5  1  0.500001  0.999999  0.500059  1
  Co  Co6  1  0.499990  0.499999  0.500060  1
  Co  Co7  1  0.999997  0.499987  0.500055  1
  Co  Co8  1  0.500031  0.000065  0.190280  1
  Co  Co9  1  0.500007  0.499971  0.190278  1
  Co  Co10  1  0.999928  0.499964  0.190318  1
  Co  Co11  1  0.499979  0.999985  0.809721  1
  Co  Co12  1  0.499999  0.500014  0.809628  1
  Co  Co13  1  0.000020  0.500006  0.809640  1
  B  B14  1  0.333117  0.666497  0.342403  1
  B  B15  1  0.666866  0.333506  0.342404  1
  B  B16  1  0.666847  0.333409  0.657591  1
  B  B17  1  0.333144  0.666594  0.657591  1
