# generated using pymatgen
data_TaTi(FeP)2
_symmetry_space_group_name_H-M   'P 1'
_cell_length_a   3.59285100
_cell_length_b   6.07383100
_cell_length_c   6.86510900
_cell_angle_alpha   90.00000000
_cell_angle_beta   90.00000000
_cell_angle_gamma   90.00000000
_symmetry_Int_Tables_number   1
_chemical_formula_structural   TaTi(FeP)2
_chemical_formula_sum   'Ta2 Ti2 Fe4 P4'
_cell_volume   149.81294719
_cell_formula_units_Z   2
loop_
 _symmetry_equiv_pos_site_id
 _symmetry_equiv_pos_as_xyz
  1  'x, y, z'
loop_
 _atom_site_type_symbol
 _atom_site_label
 _atom_site_symmetry_multiplicity
 _atom_site_fract_x
 _atom_site_fract_y
 _atom_site_fract_z
 _atom_site_occupancy
  Ta  Ta0  1  0.250000  0.021901  0.824083  1
  Ta  Ta1  1  0.250000  0.521901  0.675917  1
  Ti  Ti2  1  0.750000  0.980789  0.181737  1
  Ti  Ti3  1  0.750000  0.480789  0.318263  1
  Fe  Fe4  1  0.250000  0.144725  0.437455  1
  Fe  Fe5  1  0.250000  0.644725  0.062545  1
  Fe  Fe6  1  0.750000  0.854048  0.561163  1
  Fe  Fe7  1  0.750000  0.354048  0.938837  1
  P  P8  1  0.250000  0.775462  0.375661  1
  P  P9  1  0.250000  0.275462  0.124339  1
  P  P10  1  0.750000  0.223075  0.613403  1
  P  P11  1  0.750000  0.723075  0.886597  1
