# generated using pymatgen
data_Sc2Zn(Co3B2)3
_symmetry_space_group_name_H-M   'P 1'
_cell_length_a   5.66193352
_cell_length_b   5.66193468
_cell_length_c   5.66193370
_cell_angle_alpha   95.78618767
_cell_angle_beta   95.78620278
_cell_angle_gamma   95.78620186
_symmetry_Int_Tables_number   1
_chemical_formula_structural   Sc2Zn(Co3B2)3
_chemical_formula_sum   'Sc2 Zn1 Co9 B6'
_cell_volume   178.52975148
_cell_formula_units_Z   1
loop_
 _symmetry_equiv_pos_site_id
 _symmetry_equiv_pos_as_xyz
  1  'x, y, z'
loop_
 _atom_site_type_symbol
 _atom_site_label
 _atom_site_symmetry_multiplicity
 _atom_site_fract_x
 _atom_site_fract_y
 _atom_site_fract_z
 _atom_site_occupancy
  Sc  Sc0  1  0.677848  0.677848  0.677848  1
  Sc  Sc1  1  0.322152  0.322152  0.322152  1
  Zn  Zn2  1  0.000000  0.000000  0.000000  1
  Co  Co3  1  0.000000  0.000000  0.500000  1
  Co  Co4  1  0.500000  0.000000  0.000000  1
  Co  Co5  1  0.000000  0.500000  0.000000  1
  Co  Co6  1  0.706657  0.199749  0.706657  1
  Co  Co7  1  0.706657  0.706657  0.199749  1
  Co  Co8  1  0.199749  0.706657  0.706657  1
  Co  Co9  1  0.293343  0.800251  0.293343  1
  Co  Co10  1  0.293343  0.293343  0.800251  1
  Co  Co11  1  0.800251  0.293343  0.293343  1
  B  B12  1  0.612282  0.387718  0.000000  1
  B  B13  1  0.000000  0.612282  0.387718  1
  B  B14  1  0.387718  0.000000  0.612282  1
  B  B15  1  0.000000  0.387718  0.612282  1
  B  B16  1  0.612282  0.000000  0.387718  1
  B  B17  1  0.387718  0.612282  0.000000  1
