# generated using pymatgen
data_Dy15ErMgNi4Ag3
_symmetry_space_group_name_H-M   'P 1'
_cell_length_a   9.46836106
_cell_length_b   9.47087704
_cell_length_c   9.46810300
_cell_angle_alpha   60.00968514
_cell_angle_beta   60.00089810
_cell_angle_gamma   60.08822258
_symmetry_Int_Tables_number   1
_chemical_formula_structural   Dy15ErMgNi4Ag3
_chemical_formula_sum   'Dy15 Er1 Mg1 Ni4 Ag3'
_cell_volume   600.80907441
_cell_formula_units_Z   1
loop_
 _symmetry_equiv_pos_site_id
 _symmetry_equiv_pos_as_xyz
  1  'x, y, z'
loop_
 _atom_site_type_symbol
 _atom_site_label
 _atom_site_symmetry_multiplicity
 _atom_site_fract_x
 _atom_site_fract_y
 _atom_site_fract_z
 _atom_site_occupancy
  Dy  Dy0  1  0.184594  0.815188  0.814245  1
  Dy  Dy1  1  0.814195  0.185520  0.185738  1
  Dy  Dy2  1  0.814195  0.185520  0.814545  1
  Dy  Dy3  1  0.184594  0.815188  0.185974  1
  Dy  Dy4  1  0.813913  0.814963  0.185562  1
  Dy  Dy5  1  0.184947  0.186294  0.814380  1
  Dy  Dy6  1  0.598267  0.597889  0.596964  1
  Dy  Dy7  1  0.598267  0.597889  0.206881  1
  Dy  Dy8  1  0.600041  0.205010  0.597475  1
  Dy  Dy9  1  0.191894  0.604141  0.601982  1
  Dy  Dy10  1  0.058905  0.439255  0.440827  1
  Dy  Dy11  1  0.436163  0.062505  0.063474  1
  Dy  Dy12  1  0.436163  0.062505  0.437857  1
  Dy  Dy13  1  0.058905  0.439255  0.061013  1
  Dy  Dy14  1  0.437272  0.437579  0.062574  1
  Er  Er15  1  0.058931  0.060573  0.440249  1
  Mg  Mg16  1  0.537711  0.820489  0.820900  1
  Ni  Ni17  1  0.389755  0.394819  0.394719  1
  Ni  Ni18  1  0.389755  0.394819  0.820707  1
  Ni  Ni19  1  0.388541  0.822008  0.394726  1
  Ni  Ni20  1  0.821942  0.391868  0.393094  1
  Ag  Ag21  1  0.833711  0.834252  0.833480  1
  Ag  Ag22  1  0.833711  0.834252  0.498556  1
  Ag  Ag23  1  0.833625  0.498218  0.834078  1
