# generated using pymatgen
data_YHo4In4CoPd
_symmetry_space_group_name_H-M   'P 1'
_cell_length_a   3.59383200
_cell_length_b   8.06611003
_cell_length_c   18.05123700
_cell_angle_alpha   90.14912664
_cell_angle_beta   90.00000000
_cell_angle_gamma   90.00000000
_symmetry_Int_Tables_number   1
_chemical_formula_structural   YHo4In4CoPd
_chemical_formula_sum   'Y2 Ho8 In8 Co2 Pd2'
_cell_volume   523.27189631
_cell_formula_units_Z   2
loop_
 _symmetry_equiv_pos_site_id
 _symmetry_equiv_pos_as_xyz
  1  'x, y, z'
loop_
 _atom_site_type_symbol
 _atom_site_label
 _atom_site_symmetry_multiplicity
 _atom_site_fract_x
 _atom_site_fract_y
 _atom_site_fract_z
 _atom_site_occupancy
  Y  Y0  1  0.500000  0.000000  0.000000  1
  Y  Y1  1  0.500000  0.500000  0.500000  1
  Ho  Ho2  1  0.500000  0.226322  0.776148  1
  Ho  Ho3  1  0.500000  0.773678  0.223852  1
  Ho  Ho4  1  0.500000  0.240607  0.281558  1
  Ho  Ho5  1  0.500000  0.759393  0.718442  1
  Ho  Ho6  1  0.500000  0.113359  0.589463  1
  Ho  Ho7  1  0.500000  0.886641  0.410537  1
  Ho  Ho8  1  0.500000  0.381242  0.085620  1
  Ho  Ho9  1  0.500000  0.618758  0.914380  1
  In  In10  1  0.000000  0.074857  0.152409  1
  In  In11  1  0.000000  0.925143  0.847591  1
  In  In12  1  0.000000  0.423956  0.649936  1
  In  In13  1  0.000000  0.576044  0.350064  1
  In  In14  1  0.000000  0.204053  0.431761  1
  In  In15  1  0.000000  0.795947  0.568239  1
  In  In16  1  0.000000  0.292682  0.931496  1
  In  In17  1  0.000000  0.707318  0.068504  1
  Co  Co18  1  0.000000  0.018478  0.694371  1
  Co  Co19  1  0.000000  0.981522  0.305629  1
  Pd  Pd20  1  0.000000  0.479111  0.196613  1
  Pd  Pd21  1  0.000000  0.520889  0.803387  1
