# generated using pymatgen
data_AcAsSe
_symmetry_space_group_name_H-M   'P 1'
_cell_length_a   4.17645000
_cell_length_b   4.34077800
_cell_length_c   18.83747400
_cell_angle_alpha   90.00000000
_cell_angle_beta   90.00000000
_cell_angle_gamma   90.00000000
_symmetry_Int_Tables_number   1
_chemical_formula_structural   AcAsSe
_chemical_formula_sum   'Ac4 As4 Se4'
_cell_volume   341.50536256
_cell_formula_units_Z   4
loop_
 _symmetry_equiv_pos_site_id
 _symmetry_equiv_pos_as_xyz
  1  'x, y, z'
loop_
 _atom_site_type_symbol
 _atom_site_label
 _atom_site_symmetry_multiplicity
 _atom_site_fract_x
 _atom_site_fract_y
 _atom_site_fract_z
 _atom_site_occupancy
  Ac  Ac0  1  0.750000  0.728234  0.641425  1
  Ac  Ac1  1  0.250000  0.271766  0.358575  1
  Ac  Ac2  1  0.750000  0.771766  0.141425  1
  Ac  Ac3  1  0.250000  0.228234  0.858575  1
  As  As4  1  0.250000  0.685634  0.997065  1
  As  As5  1  0.750000  0.314366  0.002935  1
  As  As6  1  0.250000  0.814366  0.497065  1
  As  As7  1  0.750000  0.185634  0.502935  1
  Se  Se8  1  0.750000  0.730561  0.813427  1
  Se  Se9  1  0.250000  0.269439  0.186573  1
  Se  Se10  1  0.750000  0.769439  0.313427  1
  Se  Se11  1  0.250000  0.230561  0.686573  1
