# generated using pymatgen
data_La3Dy2P12Ir11Ru8
_symmetry_space_group_name_H-M   'P 1'
_cell_length_a   12.73021634
_cell_length_b   12.69871877
_cell_length_c   4.01197400
_cell_angle_alpha   90.00000000
_cell_angle_beta   90.00000000
_cell_angle_gamma   120.02027054
_symmetry_Int_Tables_number   1
_chemical_formula_structural   La3Dy2P12Ir11Ru8
_chemical_formula_sum   'La3 Dy2 P12 Ir11 Ru8'
_cell_volume   561.55938055
_cell_formula_units_Z   1
loop_
 _symmetry_equiv_pos_site_id
 _symmetry_equiv_pos_as_xyz
  1  'x, y, z'
loop_
 _atom_site_type_symbol
 _atom_site_label
 _atom_site_symmetry_multiplicity
 _atom_site_fract_x
 _atom_site_fract_y
 _atom_site_fract_z
 _atom_site_occupancy
  La  La0  1  0.813417  0.000960  0.500000  1
  La  La1  1  0.183940  0.185553  0.500000  1
  La  La2  1  0.999116  0.814263  0.500000  1
  Dy  Dy3  1  0.666803  0.331414  0.000000  1
  Dy  Dy4  1  0.334589  0.669029  0.000000  1
  P  P5  1  0.629901  0.998374  0.000000  1
  P  P6  1  0.366747  0.366943  0.000000  1
  P  P7  1  0.000598  0.632786  0.000000  1
  P  P8  1  0.689953  0.516417  0.500000  1
  P  P9  1  0.827611  0.306551  0.500000  1
  P  P10  1  0.316041  0.832035  0.500000  1
  P  P11  1  0.517955  0.692498  0.500000  1
  P  P12  1  0.183579  0.999998  0.000000  1
  P  P13  1  0.814463  0.814693  0.000000  1
  P  P14  1  0.997252  0.186169  0.000000  1
  P  P15  1  0.480968  0.169581  0.500000  1
  P  P16  1  0.172856  0.483578  0.500000  1
  Ir  Ir17  1  0.619121  0.798704  0.000000  1
  Ir  Ir18  1  0.183730  0.382278  0.000000  1
  Ir  Ir19  1  0.379622  0.181760  0.000000  1
  Ir  Ir20  1  0.196961  0.818231  0.000000  1
  Ir  Ir21  1  0.801069  0.617722  0.000000  1
  Ir  Ir22  1  0.870715  0.505575  0.500000  1
  Ir  Ir23  1  0.493398  0.361902  0.500000  1
  Ir  Ir24  1  0.635455  0.129553  0.500000  1
  Ir  Ir25  1  0.132581  0.639395  0.500000  1
  Ir  Ir26  1  0.364520  0.493612  0.500000  1
  Ir  Ir27  1  0.998972  0.000220  0.000000  1
  Ru  Ru28  1  0.510093  0.872072  0.500000  1
  Ru  Ru29  1  0.707794  0.706281  0.500000  1
  Ru  Ru30  1  0.002341  0.293643  0.500000  1
  Ru  Ru31  1  0.449907  0.998857  0.000000  1
  Ru  Ru32  1  0.547490  0.545133  0.000000  1
  Ru  Ru33  1  0.002420  0.454478  0.000000  1
  Ru  Ru34  1  0.817825  0.200005  0.000000  1
  Ru  Ru35  1  0.290198  0.999734  0.500000  1
