# generated using pymatgen
data_Er2Tc6P7Ir6
_symmetry_space_group_name_H-M   'P 1'
_cell_length_a   9.48095500
_cell_length_b   9.48095535
_cell_length_c   3.98448800
_cell_angle_alpha   90.00000000
_cell_angle_beta   90.00000000
_cell_angle_gamma   120.00000226
_symmetry_Int_Tables_number   1
_chemical_formula_structural   Er2Tc6P7Ir6
_chemical_formula_sum   'Er2 Tc6 P7 Ir6'
_cell_volume   310.17538622
_cell_formula_units_Z   1
loop_
 _symmetry_equiv_pos_site_id
 _symmetry_equiv_pos_as_xyz
  1  'x, y, z'
loop_
 _atom_site_type_symbol
 _atom_site_label
 _atom_site_symmetry_multiplicity
 _atom_site_fract_x
 _atom_site_fract_y
 _atom_site_fract_z
 _atom_site_occupancy
  Er  Er0  1  0.333333  0.666667  0.000000  1
  Er  Er1  1  0.000000  0.000000  0.500000  1
  Tc  Tc2  1  0.555315  0.060121  0.000000  1
  Tc  Tc3  1  0.939879  0.495195  0.000000  1
  Tc  Tc4  1  0.504805  0.444685  0.000000  1
  Tc  Tc5  1  0.791671  0.240556  0.500000  1
  Tc  Tc6  1  0.759444  0.551116  0.500000  1
  Tc  Tc7  1  0.448884  0.208329  0.500000  1
  P  P8  1  0.782860  0.034088  0.000000  1
  P  P9  1  0.965912  0.748771  0.000000  1
  P  P10  1  0.251229  0.217140  0.000000  1
  P  P11  1  0.387962  0.934038  0.500000  1
  P  P12  1  0.065962  0.453925  0.500000  1
  P  P13  1  0.546075  0.612038  0.500000  1
  P  P14  1  0.666667  0.333333  0.000000  1
  Ir  Ir15  1  0.031438  0.261627  0.000000  1
  Ir  Ir16  1  0.738373  0.769810  0.000000  1
  Ir  Ir17  1  0.230190  0.968562  0.000000  1
  Ir  Ir18  1  0.608672  0.883448  0.500000  1
  Ir  Ir19  1  0.116552  0.725223  0.500000  1
  Ir  Ir20  1  0.274777  0.391328  0.500000  1
