# generated using pymatgen
data_KBa(CuP2)4
_symmetry_space_group_name_H-M   'P 1'
_cell_length_a   5.39850709
_cell_length_b   5.77916230
_cell_length_c   9.93149203
_cell_angle_alpha   97.29296454
_cell_angle_beta   74.22935558
_cell_angle_gamma   117.84405638
_symmetry_Int_Tables_number   1
_chemical_formula_structural   KBa(CuP2)4
_chemical_formula_sum   'K1 Ba1 Cu4 P8'
_cell_volume   263.66398120
_cell_formula_units_Z   1
loop_
 _symmetry_equiv_pos_site_id
 _symmetry_equiv_pos_as_xyz
  1  'x, y, z'
loop_
 _atom_site_type_symbol
 _atom_site_label
 _atom_site_symmetry_multiplicity
 _atom_site_fract_x
 _atom_site_fract_y
 _atom_site_fract_z
 _atom_site_occupancy
  K  K0  1  0.875000  0.250000  0.250000  1
  Ba  Ba1  1  0.125000  0.749999  0.750000  1
  Cu  Cu2  1  0.495013  0.250000  0.009973  1
  Cu  Cu3  1  0.254985  0.250000  0.490027  1
  Cu  Cu4  1  0.746623  0.749999  0.506756  1
  Cu  Cu5  1  0.503378  0.749999  0.993244  1
  P  P6  1  0.692453  0.635157  0.140890  1
  P  P7  1  0.166657  0.864844  0.140890  1
  P  P8  1  0.442705  0.635157  0.359110  1
  P  P9  1  0.198187  0.864844  0.359110  1
  P  P10  1  0.804248  0.134160  0.640728  1
  P  P11  1  0.555025  0.365839  0.640728  1
  P  P12  1  0.829913  0.134160  0.859273  1
  P  P13  1  0.310814  0.365839  0.859273  1
