# generated using pymatgen
data_Ho9Tm3InCo4Rh
_symmetry_space_group_name_H-M   'P 1'
_cell_length_a   8.23380493
_cell_length_b   8.23293905
_cell_length_c   8.23380483
_cell_angle_alpha   110.93713027
_cell_angle_beta   110.65530740
_cell_angle_gamma   106.85673141
_symmetry_Int_Tables_number   1
_chemical_formula_structural   Ho9Tm3InCo4Rh
_chemical_formula_sum   'Ho9 Tm3 In1 Co4 Rh1'
_cell_volume   428.97666140
_cell_formula_units_Z   1
loop_
 _symmetry_equiv_pos_site_id
 _symmetry_equiv_pos_as_xyz
  1  'x, y, z'
loop_
 _atom_site_type_symbol
 _atom_site_label
 _atom_site_symmetry_multiplicity
 _atom_site_fract_x
 _atom_site_fract_y
 _atom_site_fract_z
 _atom_site_occupancy
  Ho  Ho0  1  0.685493  0.990715  0.305222  1
  Ho  Ho1  1  0.186769  0.290326  0.476397  1
  Ho  Ho2  1  0.813925  0.709749  0.524024  1
  Ho  Ho3  1  0.185725  0.709749  0.895825  1
  Ho  Ho4  1  0.813929  0.290326  0.103556  1
  Ho  Ho5  1  0.409439  0.215050  0.195002  1
  Ho  Ho6  1  0.590089  0.785078  0.804402  1
  Ho  Ho7  1  0.020048  0.215050  0.805611  1
  Ho  Ho8  1  0.980676  0.785078  0.194987  1
  Tm  Tm9  1  0.314618  0.620846  0.306227  1
  Tm  Tm10  1  0.684930  0.379134  0.694205  1
  Tm  Tm11  1  0.315012  0.008912  0.693901  1
  In  In12  1  0.499826  0.499426  0.999600  1
  Co  Co13  1  0.112724  0.612700  0.499976  1
  Co  Co14  1  0.887627  0.387921  0.500293  1
  Co  Co15  1  0.378736  0.999919  0.379465  1
  Co  Co16  1  0.620454  0.999919  0.621183  1
  Rh  Rh17  1  0.999980  0.000104  0.000124  1
