# generated using pymatgen
data_Nb6Al6Ga2Cu3Ir
_symmetry_space_group_name_H-M   'P 1'
_cell_length_a   8.78463455
_cell_length_b   8.87417908
_cell_length_c   8.19165700
_cell_angle_alpha   90.00000000
_cell_angle_beta   90.00000000
_cell_angle_gamma   121.09352665
_symmetry_Int_Tables_number   1
_chemical_formula_structural   Nb6Al6Ga2Cu3Ir
_chemical_formula_sum   'Nb12 Al12 Ga4 Cu6 Ir2'
_cell_volume   546.84279173
_cell_formula_units_Z   2
loop_
 _symmetry_equiv_pos_site_id
 _symmetry_equiv_pos_as_xyz
  1  'x, y, z'
loop_
 _atom_site_type_symbol
 _atom_site_label
 _atom_site_symmetry_multiplicity
 _atom_site_fract_x
 _atom_site_fract_y
 _atom_site_fract_z
 _atom_site_occupancy
  Nb  Nb0  1  0.328478  0.991271  0.068372  1
  Nb  Nb1  1  0.671522  0.008729  0.931628  1
  Nb  Nb2  1  0.996581  0.332132  0.068359  1
  Nb  Nb3  1  0.671522  0.008729  0.568372  1
  Nb  Nb4  1  0.996581  0.332132  0.431641  1
  Nb  Nb5  1  0.003419  0.667868  0.931641  1
  Nb  Nb6  1  0.328478  0.991271  0.431628  1
  Nb  Nb7  1  0.003419  0.667868  0.568359  1
  Nb  Nb8  1  0.667757  0.664784  0.068220  1
  Nb  Nb9  1  0.332243  0.335216  0.931780  1
  Nb  Nb10  1  0.332243  0.335216  0.568220  1
  Nb  Nb11  1  0.667757  0.664784  0.431780  1
  Al  Al12  1  0.845147  0.341790  0.750000  1
  Al  Al13  1  0.154853  0.658210  0.250000  1
  Al  Al14  1  0.340276  0.665586  0.505670  1
  Al  Al15  1  0.659724  0.334414  0.494330  1
  Al  Al16  1  0.659724  0.334414  0.005670  1
  Al  Al17  1  0.340276  0.665586  0.994330  1
  Al  Al18  1  0.179030  0.009468  0.750000  1
  Al  Al19  1  0.820970  0.990532  0.250000  1
  Al  Al20  1  0.009047  0.179462  0.750000  1
  Al  Al21  1  0.990953  0.820538  0.250000  1
  Al  Al22  1  0.824595  0.833732  0.750000  1
  Al  Al23  1  0.175405  0.166268  0.250000  1
  Ga  Ga24  1  0.342232  0.847965  0.750000  1
  Ga  Ga25  1  0.655523  0.506782  0.750000  1
  Ga  Ga26  1  0.657768  0.152035  0.250000  1
  Ga  Ga27  1  0.344477  0.493218  0.250000  1
  Cu  Cu28  1  0.168026  0.499034  0.750000  1
  Cu  Cu29  1  0.831974  0.500966  0.250000  1
  Cu  Cu30  1  0.505471  0.672400  0.750000  1
  Cu  Cu31  1  0.503470  0.171270  0.750000  1
  Cu  Cu32  1  0.494529  0.327600  0.250000  1
  Cu  Cu33  1  0.496530  0.828730  0.250000  1
  Ir  Ir34  1  0.000000  0.000000  0.500000  1
  Ir  Ir35  1  0.000000  0.000000  0.000000  1
