# generated using pymatgen
data_Lu3Bi(Rh2O7)2
_symmetry_space_group_name_H-M   'P 1'
_cell_length_a   7.15346129
_cell_length_b   7.20957223
_cell_length_c   7.15346100
_cell_angle_alpha   60.25711876
_cell_angle_beta   59.99999673
_cell_angle_gamma   60.25712248
_symmetry_Int_Tables_number   1
_chemical_formula_structural   Lu3Bi(Rh2O7)2
_chemical_formula_sum   'Lu3 Bi1 Rh4 O14'
_cell_volume   261.88093225
_cell_formula_units_Z   1
loop_
 _symmetry_equiv_pos_site_id
 _symmetry_equiv_pos_as_xyz
  1  'x, y, z'
loop_
 _atom_site_type_symbol
 _atom_site_label
 _atom_site_symmetry_multiplicity
 _atom_site_fract_x
 _atom_site_fract_y
 _atom_site_fract_z
 _atom_site_occupancy
  Lu  Lu0  1  0.125000  0.125000  0.125000  1
  Lu  Lu1  1  0.625000  0.125000  0.125000  1
  Lu  Lu2  1  0.125000  0.125000  0.625000  1
  Bi  Bi3  1  0.125000  0.625000  0.125000  1
  Rh  Rh4  1  0.625000  0.625000  0.625000  1
  Rh  Rh5  1  0.625000  0.625000  0.125000  1
  Rh  Rh6  1  0.125000  0.625000  0.625000  1
  Rh  Rh7  1  0.625000  0.125000  0.625000  1
  O  O8  1  0.253829  0.238513  0.253829  1
  O  O9  1  0.286036  0.718920  0.286036  1
  O  O10  1  0.965355  0.964704  0.534971  1
  O  O11  1  0.534971  0.964704  0.534971  1
  O  O12  1  0.709007  0.718920  0.286036  1
  O  O13  1  0.963964  0.531080  0.540993  1
  O  O14  1  0.715029  0.285296  0.715029  1
  O  O15  1  0.284645  0.285296  0.715029  1
  O  O16  1  0.715029  0.285296  0.284645  1
  O  O17  1  0.286036  0.718920  0.709007  1
  O  O18  1  0.963964  0.531080  0.963964  1
  O  O19  1  0.540993  0.531080  0.963964  1
  O  O20  1  0.996171  0.011487  0.996171  1
  O  O21  1  0.534971  0.964704  0.965355  1
