# generated using pymatgen
data_CaAc3(SnPd)4
_symmetry_space_group_name_H-M   'P 1'
_cell_length_a   4.85137700
_cell_length_b   7.79469001
_cell_length_c   8.16978530
_cell_angle_alpha   89.67652533
_cell_angle_beta   90.00000000
_cell_angle_gamma   90.00000000
_symmetry_Int_Tables_number   1
_chemical_formula_structural   CaAc3(SnPd)4
_chemical_formula_sum   'Ca1 Ac3 Sn4 Pd4'
_cell_volume   308.93534309
_cell_formula_units_Z   1
loop_
 _symmetry_equiv_pos_site_id
 _symmetry_equiv_pos_as_xyz
  1  'x, y, z'
loop_
 _atom_site_type_symbol
 _atom_site_label
 _atom_site_symmetry_multiplicity
 _atom_site_fract_x
 _atom_site_fract_y
 _atom_site_fract_z
 _atom_site_occupancy
  Ca  Ca0  1  0.750000  0.982622  0.700701  1
  Ac  Ac1  1  0.750000  0.480002  0.800801  1
  Ac  Ac2  1  0.250000  0.518939  0.195463  1
  Ac  Ac3  1  0.250000  0.015958  0.310093  1
  Sn  Sn4  1  0.750000  0.318913  0.417345  1
  Sn  Sn5  1  0.250000  0.683813  0.587797  1
  Sn  Sn6  1  0.750000  0.826872  0.076762  1
  Sn  Sn7  1  0.250000  0.167135  0.908549  1
  Pd  Pd8  1  0.750000  0.202988  0.087692  1
  Pd  Pd9  1  0.750000  0.703976  0.416133  1
  Pd  Pd10  1  0.250000  0.802080  0.906953  1
  Pd  Pd11  1  0.250000  0.296702  0.591709  1
