# generated using pymatgen
data_Ce8Be(Si4Ir)3
_symmetry_space_group_name_H-M   'P 1'
_cell_length_a   8.20459000
_cell_length_b   8.20459055
_cell_length_c   8.28029500
_cell_angle_alpha   90.00000000
_cell_angle_beta   90.00000000
_cell_angle_gamma   119.99999779
_symmetry_Int_Tables_number   1
_chemical_formula_structural   Ce8Be(Si4Ir)3
_chemical_formula_sum   'Ce8 Be1 Si12 Ir3'
_cell_volume   482.71439115
_cell_formula_units_Z   1
loop_
 _symmetry_equiv_pos_site_id
 _symmetry_equiv_pos_as_xyz
  1  'x, y, z'
loop_
 _atom_site_type_symbol
 _atom_site_label
 _atom_site_symmetry_multiplicity
 _atom_site_fract_x
 _atom_site_fract_y
 _atom_site_fract_z
 _atom_site_occupancy
  Ce  Ce0  1  0.999999  0.000006  0.247432  1
  Ce  Ce1  1  0.999996  0.000002  0.752829  1
  Ce  Ce2  1  0.501671  0.498326  0.250337  1
  Ce  Ce3  1  0.501703  0.003383  0.250293  1
  Ce  Ce4  1  0.996632  0.498305  0.250277  1
  Ce  Ce5  1  0.502168  0.497844  0.749712  1
  Ce  Ce6  1  0.502186  0.004340  0.749765  1
  Ce  Ce7  1  0.995636  0.497806  0.749745  1
  Be  Be8  1  0.333310  0.666716  0.998702  1
  Si  Si9  1  0.165874  0.834160  0.501004  1
  Si  Si10  1  0.165759  0.331686  0.501082  1
  Si  Si11  1  0.668308  0.834253  0.501065  1
  Si  Si12  1  0.835120  0.164847  0.499975  1
  Si  Si13  1  0.835236  0.670322  0.500065  1
  Si  Si14  1  0.329683  0.164751  0.500044  1
  Si  Si15  1  0.835629  0.164334  0.999642  1
  Si  Si16  1  0.835741  0.671343  0.999556  1
  Si  Si17  1  0.328662  0.164245  0.999577  1
  Si  Si18  1  0.173688  0.826342  0.999478  1
  Si  Si19  1  0.173492  0.347232  0.999382  1
  Si  Si20  1  0.652762  0.826520  0.999404  1
  Ir  Ir21  1  0.333281  0.666740  0.499788  1
  Ir  Ir22  1  0.666752  0.333227  0.499174  1
  Ir  Ir23  1  0.666713  0.333269  0.001673  1
