# generated using pymatgen
data_Nd3In3IrPtRh
_symmetry_space_group_name_H-M   'P 1'
_cell_length_a   7.76053400
_cell_length_b   7.76053399
_cell_length_c   3.98342100
_cell_angle_alpha   90.00000000
_cell_angle_beta   90.00000000
_cell_angle_gamma   120.00000858
_symmetry_Int_Tables_number   1
_chemical_formula_structural   Nd3In3IrPtRh
_chemical_formula_sum   'Nd3 In3 Ir1 Pt1 Rh1'
_cell_volume   207.76386413
_cell_formula_units_Z   1
loop_
 _symmetry_equiv_pos_site_id
 _symmetry_equiv_pos_as_xyz
  1  'x, y, z'
loop_
 _atom_site_type_symbol
 _atom_site_label
 _atom_site_symmetry_multiplicity
 _atom_site_fract_x
 _atom_site_fract_y
 _atom_site_fract_z
 _atom_site_occupancy
  Nd  Nd0  1  0.591404  0.007810  0.500000  1
  Nd  Nd1  1  0.416406  0.408596  0.500000  1
  Nd  Nd2  1  0.992190  0.583594  0.500000  1
  In  In3  1  0.251192  0.003119  0.000000  1
  In  In4  1  0.751928  0.748808  0.000000  1
  In  In5  1  0.996881  0.248072  0.000000  1
  Ir  Ir6  1  0.666667  0.333333  0.000000  1
  Pt  Pt7  1  0.333333  0.666667  0.000000  1
  Rh  Rh8  1  0.000000  0.000000  0.500000  1
