# generated using pymatgen
data_Dy4Y12Cd4RuPt3
_symmetry_space_group_name_H-M   'P 1'
_cell_length_a   9.73297051
_cell_length_b   9.73297124
_cell_length_c   9.73297163
_cell_angle_alpha   59.65105978
_cell_angle_beta   59.65105585
_cell_angle_gamma   59.65105812
_symmetry_Int_Tables_number   1
_chemical_formula_structural   Dy4Y12Cd4RuPt3
_chemical_formula_sum   'Dy4 Y12 Cd4 Ru1 Pt3'
_cell_volume   646.79142071
_cell_formula_units_Z   1
loop_
 _symmetry_equiv_pos_site_id
 _symmetry_equiv_pos_as_xyz
  1  'x, y, z'
loop_
 _atom_site_type_symbol
 _atom_site_label
 _atom_site_symmetry_multiplicity
 _atom_site_fract_x
 _atom_site_fract_y
 _atom_site_fract_z
 _atom_site_occupancy
  Dy  Dy0  1  0.351842  0.351842  0.351842  1
  Dy  Dy1  1  0.349442  0.349442  0.948605  1
  Dy  Dy2  1  0.349442  0.948605  0.349442  1
  Dy  Dy3  1  0.948605  0.349442  0.349442  1
  Y  Y4  1  0.814568  0.189112  0.189112  1
  Y  Y5  1  0.189376  0.809491  0.809491  1
  Y  Y6  1  0.189112  0.814568  0.189112  1
  Y  Y7  1  0.809491  0.189376  0.809491  1
  Y  Y8  1  0.189112  0.189112  0.814568  1
  Y  Y9  1  0.809491  0.809491  0.189376  1
  Y  Y10  1  0.936124  0.564776  0.564776  1
  Y  Y11  1  0.560550  0.936644  0.936644  1
  Y  Y12  1  0.564776  0.936124  0.564776  1
  Y  Y13  1  0.936644  0.560550  0.936644  1
  Y  Y14  1  0.564776  0.564776  0.936124  1
  Y  Y15  1  0.936644  0.936644  0.560550  1
  Cd  Cd16  1  0.580380  0.580380  0.580380  1
  Cd  Cd17  1  0.581306  0.581306  0.254581  1
  Cd  Cd18  1  0.581306  0.254581  0.581306  1
  Cd  Cd19  1  0.254581  0.581306  0.581306  1
  Ru  Ru20  1  0.143704  0.143704  0.143704  1
  Pt  Pt21  1  0.144214  0.144214  0.570301  1
  Pt  Pt22  1  0.144214  0.570301  0.144214  1
  Pt  Pt23  1  0.570301  0.144214  0.144214  1
