# generated using pymatgen
data_CaAg(PO3)3
_symmetry_space_group_name_H-M   'P 1'
_cell_length_a   6.82682749
_cell_length_b   7.10880818
_cell_length_c   7.87375030
_cell_angle_alpha   83.18941845
_cell_angle_beta   82.20868180
_cell_angle_gamma   82.53386599
_symmetry_Int_Tables_number   1
_chemical_formula_structural   CaAg(PO3)3
_chemical_formula_sum   'Ca2 Ag2 P6 O18'
_cell_volume   373.39243517
_cell_formula_units_Z   2
loop_
 _symmetry_equiv_pos_site_id
 _symmetry_equiv_pos_as_xyz
  1  'x, y, z'
loop_
 _atom_site_type_symbol
 _atom_site_label
 _atom_site_symmetry_multiplicity
 _atom_site_fract_x
 _atom_site_fract_y
 _atom_site_fract_z
 _atom_site_occupancy
  Ca  Ca0  1  0.008486  0.729133  0.637834  1
  Ca  Ca1  1  0.991514  0.270867  0.362166  1
  Ag  Ag2  1  0.479459  0.377653  0.335150  1
  Ag  Ag3  1  0.520541  0.622347  0.664850  1
  P  P4  1  0.829696  0.798859  0.282671  1
  P  P5  1  0.170304  0.201141  0.717329  1
  P  P6  1  0.820580  0.333151  0.942398  1
  P  P7  1  0.179420  0.666849  0.057602  1
  P  P8  1  0.619871  0.118057  0.723007  1
  P  P9  1  0.380129  0.881943  0.276993  1
  O  O10  1  0.096070  0.040416  0.646929  1
  O  O11  1  0.903930  0.959584  0.353071  1
  O  O12  1  0.383246  0.143324  0.781631  1
  O  O13  1  0.616754  0.856676  0.218369  1
  O  O14  1  0.162811  0.384174  0.596651  1
  O  O15  1  0.837189  0.615826  0.403349  1
  O  O16  1  0.047811  0.234694  0.903808  1
  O  O17  1  0.952189  0.765306  0.096192  1
  O  O18  1  0.785330  0.337211  0.134560  1
  O  O19  1  0.214670  0.662789  0.865440  1
  O  O20  1  0.793304  0.515358  0.825670  1
  O  O21  1  0.206696  0.484642  0.174330  1
  O  O22  1  0.688459  0.178271  0.896160  1
  O  O23  1  0.311541  0.821729  0.103840  1
  O  O24  1  0.673008  0.262572  0.571708  1
  O  O25  1  0.326992  0.737428  0.428292  1
  O  O26  1  0.687306  0.910825  0.710891  1
  O  O27  1  0.312694  0.089175  0.289109  1
