# generated using pymatgen
data_Tb9Ho8Sc3Sn16
_symmetry_space_group_name_H-M   'P 1'
_cell_length_a   7.95824167
_cell_length_b   8.13606974
_cell_length_c   15.42708600
_cell_angle_alpha   90.01740830
_cell_angle_beta   90.07955508
_cell_angle_gamma   89.96682121
_symmetry_Int_Tables_number   1
_chemical_formula_structural   Tb9Ho8Sc3Sn16
_chemical_formula_sum   'Tb9 Ho8 Sc3 Sn16'
_cell_volume   998.88427213
_cell_formula_units_Z   1
loop_
 _symmetry_equiv_pos_site_id
 _symmetry_equiv_pos_as_xyz
  1  'x, y, z'
loop_
 _atom_site_type_symbol
 _atom_site_label
 _atom_site_symmetry_multiplicity
 _atom_site_fract_x
 _atom_site_fract_y
 _atom_site_fract_z
 _atom_site_occupancy
  Tb  Tb0  1  0.860128  0.662953  0.877656  1
  Tb  Tb1  1  0.517703  0.320250  0.904363  1
  Tb  Tb2  1  0.015156  0.178706  0.594629  1
  Tb  Tb3  1  0.483008  0.678751  0.403502  1
  Tb  Tb4  1  0.982616  0.821039  0.097053  1
  Tb  Tb5  1  0.482961  0.678933  0.097237  1
  Tb  Tb6  1  0.983661  0.820694  0.403755  1
  Tb  Tb7  1  0.516225  0.320292  0.594778  1
  Tb  Tb8  1  0.015642  0.178466  0.904527  1
  Ho  Ho9  1  0.360561  0.838216  0.876278  1
  Ho  Ho10  1  0.858970  0.662678  0.622760  1
  Ho  Ho11  1  0.640199  0.161734  0.375269  1
  Ho  Ho12  1  0.140271  0.338501  0.125053  1
  Ho  Ho13  1  0.638992  0.161784  0.125305  1
  Ho  Ho14  1  0.140618  0.338200  0.374795  1
  Ho  Ho15  1  0.360339  0.838274  0.623034  1
  Ho  Ho16  1  0.191159  0.502394  0.749990  1
  Sc  Sc17  1  0.692134  0.996697  0.749661  1
  Sc  Sc18  1  0.808521  0.497397  0.250355  1
  Sc  Sc19  1  0.308081  0.002262  0.249955  1
  Sn  Sn20  1  0.299209  0.036867  0.044353  1
  Sn  Sn21  1  0.800009  0.462389  0.455578  1
  Sn  Sn22  1  0.699674  0.963140  0.543039  1
  Sn  Sn23  1  0.202754  0.538168  0.959346  1
  Sn  Sn24  1  0.699034  0.964487  0.957100  1
  Sn  Sn25  1  0.199465  0.538750  0.540719  1
  Sn  Sn26  1  0.299981  0.037098  0.455246  1
  Sn  Sn27  1  0.798675  0.461935  0.045343  1
  Sn  Sn28  1  0.558310  0.620571  0.749443  1
  Sn  Sn29  1  0.052145  0.886092  0.749554  1
  Sn  Sn30  1  0.447629  0.384227  0.250404  1
  Sn  Sn31  1  0.947430  0.116052  0.250026  1
  Sn  Sn32  1  0.329481  0.147235  0.749626  1
  Sn  Sn33  1  0.821799  0.344667  0.749536  1
  Sn  Sn34  1  0.673993  0.846529  0.250498  1
  Sn  Sn35  1  0.173469  0.653572  0.250235  1
