# generated using pymatgen
data_TbEr3Al2(CdPd2)2
_symmetry_space_group_name_H-M   'P 1'
_cell_length_a   4.37238400
_cell_length_b   6.95974773
_cell_length_c   8.19091959
_cell_angle_alpha   88.12707038
_cell_angle_beta   90.00000000
_cell_angle_gamma   90.00000000
_symmetry_Int_Tables_number   1
_chemical_formula_structural   TbEr3Al2(CdPd2)2
_chemical_formula_sum   'Tb1 Er3 Al2 Cd2 Pd4'
_cell_volume   249.12217188
_cell_formula_units_Z   1
loop_
 _symmetry_equiv_pos_site_id
 _symmetry_equiv_pos_as_xyz
  1  'x, y, z'
loop_
 _atom_site_type_symbol
 _atom_site_label
 _atom_site_symmetry_multiplicity
 _atom_site_fract_x
 _atom_site_fract_y
 _atom_site_fract_z
 _atom_site_occupancy
  Tb  Tb0  1  0.750000  0.963438  0.312662  1
  Er  Er1  1  0.250000  0.537675  0.823615  1
  Er  Er2  1  0.750000  0.462377  0.175688  1
  Er  Er3  1  0.250000  0.036554  0.688569  1
  Al  Al4  1  0.250000  0.141742  0.056002  1
  Al  Al5  1  0.750000  0.858571  0.942624  1
  Cd  Cd6  1  0.250000  0.642404  0.436414  1
  Cd  Cd7  1  0.750000  0.357075  0.564342  1
  Pd  Pd8  1  0.750000  0.759125  0.641575  1
  Pd  Pd9  1  0.250000  0.242340  0.359731  1
  Pd  Pd10  1  0.750000  0.229358  0.897031  1
  Pd  Pd11  1  0.250000  0.769340  0.101746  1
