# generated using pymatgen
data_Ho2Cr3Fe9P7
_symmetry_space_group_name_H-M   'P 1'
_cell_length_a   9.03056400
_cell_length_b   9.03056328
_cell_length_c   3.62475000
_cell_angle_alpha   90.00000000
_cell_angle_beta   90.00000000
_cell_angle_gamma   120.00000265
_symmetry_Int_Tables_number   1
_chemical_formula_structural   Ho2Cr3Fe9P7
_chemical_formula_sum   'Ho2 Cr3 Fe9 P7'
_cell_volume   255.99907351
_cell_formula_units_Z   1
loop_
 _symmetry_equiv_pos_site_id
 _symmetry_equiv_pos_as_xyz
  1  'x, y, z'
loop_
 _atom_site_type_symbol
 _atom_site_label
 _atom_site_symmetry_multiplicity
 _atom_site_fract_x
 _atom_site_fract_y
 _atom_site_fract_z
 _atom_site_occupancy
  Ho  Ho0  1  0.000000  0.000000  0.000000  1
  Ho  Ho1  1  0.333333  0.666667  0.500000  1
  Cr  Cr2  1  0.550510  0.117404  0.500000  1
  Cr  Cr3  1  0.566894  0.449490  0.500000  1
  Cr  Cr4  1  0.882596  0.433106  0.500000  1
  Fe  Fe5  1  0.292772  0.905403  0.000000  1
  Fe  Fe6  1  0.612631  0.707228  0.000000  1
  Fe  Fe7  1  0.094597  0.387369  0.000000  1
  Fe  Fe8  1  0.786816  0.177981  0.000000  1
  Fe  Fe9  1  0.391164  0.213184  0.000000  1
  Fe  Fe10  1  0.822019  0.608836  0.000000  1
  Fe  Fe11  1  0.714348  0.947624  0.500000  1
  Fe  Fe12  1  0.233278  0.285652  0.500000  1
  Fe  Fe13  1  0.052376  0.766722  0.500000  1
  P  P14  1  0.552556  0.923129  0.000000  1
  P  P15  1  0.370572  0.447444  0.000000  1
  P  P16  1  0.076871  0.629428  0.000000  1
  P  P17  1  0.955739  0.216688  0.500000  1
  P  P18  1  0.260949  0.044261  0.500000  1
  P  P19  1  0.783312  0.739051  0.500000  1
  P  P20  1  0.666667  0.333333  0.000000  1
