# generated using pymatgen
data_Zr6Zn22AgAs
_symmetry_space_group_name_H-M   'P 1'
_cell_length_a   8.81347454
_cell_length_b   8.81347374
_cell_length_c   8.81347300
_cell_angle_alpha   59.99999904
_cell_angle_beta   60.00000202
_cell_angle_gamma   59.99999837
_symmetry_Int_Tables_number   1
_chemical_formula_structural   Zr6Zn22AgAs
_chemical_formula_sum   'Zr6 Zn22 Ag1 As1'
_cell_volume   484.09026357
_cell_formula_units_Z   1
loop_
 _symmetry_equiv_pos_site_id
 _symmetry_equiv_pos_as_xyz
  1  'x, y, z'
loop_
 _atom_site_type_symbol
 _atom_site_label
 _atom_site_symmetry_multiplicity
 _atom_site_fract_x
 _atom_site_fract_y
 _atom_site_fract_z
 _atom_site_occupancy
  Zr  Zr0  1  0.712683  0.287317  0.287317  1
  Zr  Zr1  1  0.287317  0.712683  0.712683  1
  Zr  Zr2  1  0.287317  0.712683  0.287317  1
  Zr  Zr3  1  0.712683  0.287317  0.712683  1
  Zr  Zr4  1  0.287317  0.287317  0.712683  1
  Zr  Zr5  1  0.712683  0.712683  0.287317  1
  Zn  Zn6  1  0.124538  0.124538  0.124538  1
  Zn  Zn7  1  0.875462  0.875462  0.875462  1
  Zn  Zn8  1  0.124538  0.124538  0.626385  1
  Zn  Zn9  1  0.124538  0.626385  0.124538  1
  Zn  Zn10  1  0.875462  0.875462  0.373615  1
  Zn  Zn11  1  0.875462  0.373615  0.875462  1
  Zn  Zn12  1  0.626385  0.124538  0.124538  1
  Zn  Zn13  1  0.373615  0.875462  0.875462  1
  Zn  Zn14  1  0.500000  0.000000  0.000000  1
  Zn  Zn15  1  0.000000  0.500000  0.500000  1
  Zn  Zn16  1  0.000000  0.500000  0.000000  1
  Zn  Zn17  1  0.500000  0.000000  0.500000  1
  Zn  Zn18  1  0.000000  0.000000  0.500000  1
  Zn  Zn19  1  0.500000  0.500000  0.000000  1
  Zn  Zn20  1  0.335248  0.335248  0.335248  1
  Zn  Zn21  1  0.664752  0.664752  0.664752  1
  Zn  Zn22  1  0.335248  0.335248  0.994256  1
  Zn  Zn23  1  0.335248  0.994256  0.335248  1
  Zn  Zn24  1  0.664752  0.664752  0.005744  1
  Zn  Zn25  1  0.664752  0.005744  0.664752  1
  Zn  Zn26  1  0.994256  0.335248  0.335248  1
  Zn  Zn27  1  0.005744  0.664752  0.664752  1
  Ag  Ag28  1  0.000000  0.000000  0.000000  1
  As  As29  1  0.500000  0.500000  0.500000  1
