# generated using pymatgen
data_Eu10Sb6BrCl
_symmetry_space_group_name_H-M   'P 1'
_cell_length_a   9.49372900
_cell_length_b   9.49372919
_cell_length_c   7.16262200
_cell_angle_alpha   90.00000000
_cell_angle_beta   90.00000000
_cell_angle_gamma   119.99999585
_symmetry_Int_Tables_number   1
_chemical_formula_structural   Eu10Sb6BrCl
_chemical_formula_sum   'Eu10 Sb6 Br1 Cl1'
_cell_volume   559.08308385
_cell_formula_units_Z   1
loop_
 _symmetry_equiv_pos_site_id
 _symmetry_equiv_pos_as_xyz
  1  'x, y, z'
loop_
 _atom_site_type_symbol
 _atom_site_label
 _atom_site_symmetry_multiplicity
 _atom_site_fract_x
 _atom_site_fract_y
 _atom_site_fract_z
 _atom_site_occupancy
  Eu  Eu0  1  0.262260  0.000000  0.245234  1
  Eu  Eu1  1  0.000000  0.737740  0.754766  1
  Eu  Eu2  1  0.737740  0.737740  0.245234  1
  Eu  Eu3  1  0.262260  0.262260  0.754766  1
  Eu  Eu4  1  0.737740  0.000000  0.754766  1
  Eu  Eu5  1  0.000000  0.262260  0.245234  1
  Eu  Eu6  1  0.666667  0.333333  0.500000  1
  Eu  Eu7  1  0.333333  0.666667  0.000000  1
  Eu  Eu8  1  0.333333  0.666667  0.500000  1
  Eu  Eu9  1  0.666667  0.333333  0.000000  1
  Sb  Sb10  1  0.609207  0.609207  0.750349  1
  Sb  Sb11  1  0.000000  0.609207  0.249651  1
  Sb  Sb12  1  0.609207  0.000000  0.249651  1
  Sb  Sb13  1  0.390793  0.000000  0.750349  1
  Sb  Sb14  1  0.000000  0.390793  0.750349  1
  Sb  Sb15  1  0.390793  0.390793  0.249651  1
  Br  Br16  1  0.000000  0.000000  0.500000  1
  Cl  Cl17  1  0.000000  0.000000  0.000000  1
