# generated using pymatgen
data_Er8Lu4InCo4Pt
_symmetry_space_group_name_H-M   'P 1'
_cell_length_a   8.19049925
_cell_length_b   8.19049885
_cell_length_c   8.19049957
_cell_angle_alpha   111.13299022
_cell_angle_beta   110.78090281
_cell_angle_gamma   106.53916890
_symmetry_Int_Tables_number   1
_chemical_formula_structural   Er8Lu4InCo4Pt
_chemical_formula_sum   'Er8 Lu4 In1 Co4 Pt1'
_cell_volume   422.14009514
_cell_formula_units_Z   1
loop_
 _symmetry_equiv_pos_site_id
 _symmetry_equiv_pos_as_xyz
  1  'x, y, z'
loop_
 _atom_site_type_symbol
 _atom_site_label
 _atom_site_symmetry_multiplicity
 _atom_site_fract_x
 _atom_site_fract_y
 _atom_site_fract_z
 _atom_site_occupancy
  Er  Er0  1  0.418675  0.219549  0.199127  1
  Er  Er1  1  0.581325  0.780451  0.800873  1
  Er  Er2  1  0.020422  0.219549  0.800873  1
  Er  Er3  1  0.979578  0.780451  0.199127  1
  Er  Er4  1  0.186294  0.287649  0.473943  1
  Er  Er5  1  0.813706  0.712351  0.526057  1
  Er  Er6  1  0.186294  0.712351  0.898646  1
  Er  Er7  1  0.813706  0.287649  0.101354  1
  Lu  Lu8  1  0.315637  0.620898  0.305260  1
  Lu  Lu9  1  0.684363  0.379102  0.694740  1
  Lu  Lu10  1  0.315637  0.010377  0.694740  1
  Lu  Lu11  1  0.684363  0.989623  0.305260  1
  In  In12  1  0.500000  0.500000  0.000000  1
  Co  Co13  1  0.377672  0.000000  0.377672  1
  Co  Co14  1  0.622328  0.000000  0.622328  1
  Co  Co15  1  0.112911  0.612911  0.500000  1
  Co  Co16  1  0.887089  0.387089  0.500000  1
  Pt  Pt17  1  0.000000  0.000000  0.000000  1
