# generated using pymatgen
data_NdY2(TiRh2)3
_symmetry_space_group_name_H-M   'P 1'
_cell_length_a   5.68333700
_cell_length_b   5.68333519
_cell_length_c   15.77193800
_cell_angle_alpha   90.00000000
_cell_angle_beta   90.00000000
_cell_angle_gamma   119.99999305
_symmetry_Int_Tables_number   1
_chemical_formula_structural   NdY2(TiRh2)3
_chemical_formula_sum   'Nd2 Y4 Ti6 Rh12'
_cell_volume   441.18669092
_cell_formula_units_Z   2
loop_
 _symmetry_equiv_pos_site_id
 _symmetry_equiv_pos_as_xyz
  1  'x, y, z'
loop_
 _atom_site_type_symbol
 _atom_site_label
 _atom_site_symmetry_multiplicity
 _atom_site_fract_x
 _atom_site_fract_y
 _atom_site_fract_z
 _atom_site_occupancy
  Nd  Nd0  1  0.666667  0.333333  0.750000  1
  Nd  Nd1  1  0.333333  0.666667  0.250000  1
  Y  Y2  1  0.666667  0.333333  0.961927  1
  Y  Y3  1  0.666667  0.333333  0.538073  1
  Y  Y4  1  0.333333  0.666667  0.038073  1
  Y  Y5  1  0.333333  0.666667  0.461927  1
  Ti  Ti6  1  0.666667  0.333333  0.250000  1
  Ti  Ti7  1  0.000000  0.000000  0.500000  1
  Ti  Ti8  1  0.000000  0.000000  0.250000  1
  Ti  Ti9  1  0.000000  0.000000  0.750000  1
  Ti  Ti10  1  0.333333  0.666667  0.750000  1
  Ti  Ti11  1  0.000000  0.000000  0.000000  1
  Rh  Rh12  1  0.167977  0.335955  0.874472  1
  Rh  Rh13  1  0.167977  0.335955  0.625528  1
  Rh  Rh14  1  0.664045  0.832023  0.874472  1
  Rh  Rh15  1  0.335955  0.167977  0.374472  1
  Rh  Rh16  1  0.832023  0.664045  0.374472  1
  Rh  Rh17  1  0.832023  0.167977  0.374472  1
  Rh  Rh18  1  0.832023  0.167977  0.125528  1
  Rh  Rh19  1  0.335955  0.167977  0.125528  1
  Rh  Rh20  1  0.664045  0.832023  0.625528  1
  Rh  Rh21  1  0.167977  0.832023  0.625528  1
  Rh  Rh22  1  0.832023  0.664045  0.125528  1
  Rh  Rh23  1  0.167977  0.832023  0.874472  1
