# generated using pymatgen
data_Ca3NdSb3
_symmetry_space_group_name_H-M   'P 1'
_cell_length_a   8.23189420
_cell_length_b   8.23189373
_cell_length_c   8.29316831
_cell_angle_alpha   70.51640164
_cell_angle_beta   70.51640749
_cell_angle_gamma   109.13989269
_symmetry_Int_Tables_number   1
_chemical_formula_structural   Ca3NdSb3
_chemical_formula_sum   'Ca6 Nd2 Sb6'
_cell_volume   434.23676680
_cell_formula_units_Z   2
loop_
 _symmetry_equiv_pos_site_id
 _symmetry_equiv_pos_as_xyz
  1  'x, y, z'
loop_
 _atom_site_type_symbol
 _atom_site_label
 _atom_site_symmetry_multiplicity
 _atom_site_fract_x
 _atom_site_fract_y
 _atom_site_fract_z
 _atom_site_occupancy
  Ca  Ca0  1  0.141084  0.499796  0.501886  1
  Ca  Ca1  1  0.001893  0.001276  0.856110  1
  Ca  Ca2  1  0.356141  0.857729  0.642486  1
  Ca  Ca3  1  0.499796  0.141084  0.001886  1
  Ca  Ca4  1  0.001276  0.001893  0.356110  1
  Ca  Ca5  1  0.857729  0.356141  0.142486  1
  Nd  Nd6  1  0.500704  0.640915  0.999378  1
  Nd  Nd7  1  0.640915  0.500704  0.499378  1
  Sb  Sb8  1  0.626212  0.873546  0.248602  1
  Sb  Sb9  1  0.873546  0.626212  0.748602  1
  Sb  Sb10  1  0.376751  0.252088  0.374541  1
  Sb  Sb11  1  0.124181  0.747684  0.126998  1
  Sb  Sb12  1  0.747684  0.124181  0.626998  1
  Sb  Sb13  1  0.252088  0.376751  0.874541  1
