# generated using pymatgen
data_Cs6CrMoS8
_symmetry_space_group_name_H-M   'P 1'
_cell_length_a   9.91491700
_cell_length_b   9.77691900
_cell_length_c   11.38981100
_cell_angle_alpha   90.00000000
_cell_angle_beta   90.00000000
_cell_angle_gamma   90.00000000
_symmetry_Int_Tables_number   1
_chemical_formula_structural   Cs6CrMoS8
_chemical_formula_sum   'Cs12 Cr2 Mo2 S16'
_cell_volume   1104.09798601
_cell_formula_units_Z   2
loop_
 _symmetry_equiv_pos_site_id
 _symmetry_equiv_pos_as_xyz
  1  'x, y, z'
loop_
 _atom_site_type_symbol
 _atom_site_label
 _atom_site_symmetry_multiplicity
 _atom_site_fract_x
 _atom_site_fract_y
 _atom_site_fract_z
 _atom_site_occupancy
  Cs  Cs0  1  0.419120  0.850504  0.750000  1
  Cs  Cs1  1  0.580819  0.151883  0.250000  1
  Cs  Cs2  1  0.080880  0.350504  0.750000  1
  Cs  Cs3  1  0.708932  0.545460  0.950746  1
  Cs  Cs4  1  0.294072  0.454765  0.028616  1
  Cs  Cs5  1  0.919181  0.651883  0.250000  1
  Cs  Cs6  1  0.205928  0.954765  0.028616  1
  Cs  Cs7  1  0.294072  0.454765  0.471384  1
  Cs  Cs8  1  0.205928  0.954765  0.471384  1
  Cs  Cs9  1  0.708932  0.545460  0.549254  1
  Cs  Cs10  1  0.791068  0.045460  0.549254  1
  Cs  Cs11  1  0.791068  0.045460  0.950746  1
  Cr  Cr12  1  0.982484  0.774341  0.750000  1
  Cr  Cr13  1  0.517516  0.274341  0.750000  1
  Mo  Mo14  1  0.014878  0.223632  0.250000  1
  Mo  Mo15  1  0.485122  0.723632  0.250000  1
  S  S16  1  0.572774  0.513787  0.250000  1
  S  S17  1  0.066611  0.979436  0.750000  1
  S  S18  1  0.456271  0.169233  0.908746  1
  S  S19  1  0.043729  0.669233  0.591254  1
  S  S20  1  0.433389  0.479436  0.750000  1
  S  S21  1  0.950207  0.333315  0.089408  1
  S  S22  1  0.549793  0.833315  0.410592  1
  S  S23  1  0.764927  0.791069  0.750000  1
  S  S24  1  0.043729  0.669233  0.908746  1
  S  S25  1  0.261649  0.709796  0.250000  1
  S  S26  1  0.549793  0.833315  0.089408  1
  S  S27  1  0.238351  0.209796  0.250000  1
  S  S28  1  0.735073  0.291069  0.750000  1
  S  S29  1  0.456271  0.169233  0.591254  1
  S  S30  1  0.927226  0.013787  0.250000  1
  S  S31  1  0.950207  0.333315  0.410592  1
