# generated using pymatgen
data_Zr4GaAsRh10
_symmetry_space_group_name_H-M   'P 1'
_cell_length_a   5.62736772
_cell_length_b   5.62736733
_cell_length_c   8.07114100
_cell_angle_alpha   90.00000000
_cell_angle_beta   90.00000000
_cell_angle_gamma   97.43985569
_symmetry_Int_Tables_number   1
_chemical_formula_structural   Zr4GaAsRh10
_chemical_formula_sum   'Zr4 Ga1 As1 Rh10'
_cell_volume   253.43922704
_cell_formula_units_Z   1
loop_
 _symmetry_equiv_pos_site_id
 _symmetry_equiv_pos_as_xyz
  1  'x, y, z'
loop_
 _atom_site_type_symbol
 _atom_site_label
 _atom_site_symmetry_multiplicity
 _atom_site_fract_x
 _atom_site_fract_y
 _atom_site_fract_z
 _atom_site_occupancy
  Zr  Zr0  1  0.780335  0.219549  0.497815  1
  Zr  Zr1  1  0.219549  0.780335  0.002185  1
  Zr  Zr2  1  0.219549  0.780335  0.497815  1
  Zr  Zr3  1  0.780335  0.219549  0.002185  1
  Ga  Ga4  1  0.498581  0.498581  0.250000  1
  As  As5  1  0.501770  0.501770  0.750000  1
  Rh  Rh6  1  0.716319  0.716319  0.996626  1
  Rh  Rh7  1  0.716319  0.716319  0.503374  1
  Rh  Rh8  1  0.283935  0.283935  0.995129  1
  Rh  Rh9  1  0.283935  0.283935  0.504871  1
  Rh  Rh10  1  0.500097  0.999263  0.750000  1
  Rh  Rh11  1  0.499965  0.999819  0.250000  1
  Rh  Rh12  1  0.000217  0.000217  0.250000  1
  Rh  Rh13  1  0.000013  0.000013  0.750000  1
  Rh  Rh14  1  0.999263  0.500097  0.750000  1
  Rh  Rh15  1  0.999819  0.499965  0.250000  1
