# generated using pymatgen
data_La20Si15Hg
_symmetry_space_group_name_H-M   'P 1'
_cell_length_a   8.03559815
_cell_length_b   8.04012265
_cell_length_c   15.73782928
_cell_angle_alpha   90.12536511
_cell_angle_beta   89.75828960
_cell_angle_gamma   89.90542980
_symmetry_Int_Tables_number   1
_chemical_formula_structural   La20Si15Hg
_chemical_formula_sum   'La20 Si15 Hg1'
_cell_volume   1016.76411852
_cell_formula_units_Z   1
loop_
 _symmetry_equiv_pos_site_id
 _symmetry_equiv_pos_as_xyz
  1  'x, y, z'
loop_
 _atom_site_type_symbol
 _atom_site_label
 _atom_site_symmetry_multiplicity
 _atom_site_fract_x
 _atom_site_fract_y
 _atom_site_fract_z
 _atom_site_occupancy
  La  La0  1  0.381626  0.475337  0.371579  1
  La  La1  1  0.863299  0.034136  0.370904  1
  La  La2  1  0.977582  0.126450  0.123154  1
  La  La3  1  0.021357  0.875398  0.626497  1
  La  La4  1  0.627915  0.520687  0.873488  1
  La  La5  1  0.481921  0.373278  0.629757  1
  La  La6  1  0.520447  0.624089  0.125468  1
  La  La7  1  0.126795  0.978754  0.877895  1
  La  La8  1  0.990372  0.617428  0.054026  1
  La  La9  1  0.008646  0.371713  0.558126  1
  La  La10  1  0.620111  0.988116  0.946204  1
  La  La11  1  0.119841  0.511099  0.804484  1
  La  La12  1  0.869856  0.479923  0.295533  1
  La  La13  1  0.510649  0.119925  0.195041  1
  La  La14  1  0.492769  0.881489  0.697705  1
  La  La15  1  0.385929  0.017568  0.447945  1
  La  La16  1  0.684651  0.694803  0.499743  1
  La  La17  1  0.808935  0.188241  0.751373  1
  La  La18  1  0.189721  0.808079  0.245426  1
  La  La19  1  0.306917  0.307864  0.999536  1
  Si  Si20  1  0.920190  0.287981  0.940426  1
  Si  Si21  1  0.712923  0.080363  0.560417  1
  Si  Si22  1  0.211404  0.420111  0.190682  1
  Si  Si23  1  0.790654  0.580593  0.690637  1
  Si  Si24  1  0.419256  0.211757  0.810961  1
  Si  Si25  1  0.578400  0.789386  0.308305  1
  Si  Si26  1  0.290054  0.920037  0.058211  1
  Si  Si27  1  0.831302  0.805207  0.795377  1
  Si  Si28  1  0.171436  0.194693  0.293895  1
  Si  Si29  1  0.803431  0.829431  0.204048  1
  Si  Si30  1  0.314207  0.670766  0.552288  1
  Si  Si31  1  0.695513  0.330272  0.043845  1
  Si  Si32  1  0.670253  0.308855  0.459283  1
  Si  Si33  1  0.330805  0.693621  0.955412  1
  Si  Si34  1  0.196099  0.170155  0.706581  1
  Hg  Hg35  1  0.074739  0.712397  0.435746  1
