# generated using pymatgen
data_ErMn4CrP3
_symmetry_space_group_name_H-M   'P 1'
_cell_length_a   3.61751300
_cell_length_b   10.67539700
_cell_length_c   12.21299700
_cell_angle_alpha   90.00000000
_cell_angle_beta   90.00000000
_cell_angle_gamma   90.00000000
_symmetry_Int_Tables_number   1
_chemical_formula_structural   ErMn4CrP3
_chemical_formula_sum   'Er4 Mn16 Cr4 P12'
_cell_volume   471.64624980
_cell_formula_units_Z   4
loop_
 _symmetry_equiv_pos_site_id
 _symmetry_equiv_pos_as_xyz
  1  'x, y, z'
loop_
 _atom_site_type_symbol
 _atom_site_label
 _atom_site_symmetry_multiplicity
 _atom_site_fract_x
 _atom_site_fract_y
 _atom_site_fract_z
 _atom_site_occupancy
  Er  Er0  1  0.250000  0.585605  0.705771  1
  Er  Er1  1  0.250000  0.914395  0.205771  1
  Er  Er2  1  0.750000  0.414395  0.294229  1
  Er  Er3  1  0.750000  0.085605  0.794229  1
  Mn  Mn4  1  0.250000  0.410422  0.492956  1
  Mn  Mn5  1  0.250000  0.089578  0.992956  1
  Mn  Mn6  1  0.750000  0.589578  0.507044  1
  Mn  Mn7  1  0.750000  0.910422  0.007044  1
  Mn  Mn8  1  0.250000  0.213211  0.180828  1
  Mn  Mn9  1  0.250000  0.286789  0.680828  1
  Mn  Mn10  1  0.750000  0.786789  0.819172  1
  Mn  Mn11  1  0.750000  0.713211  0.319172  1
  Mn  Mn12  1  0.250000  0.882390  0.693530  1
  Mn  Mn13  1  0.250000  0.617610  0.193530  1
  Mn  Mn14  1  0.750000  0.117610  0.306470  1
  Mn  Mn15  1  0.750000  0.382390  0.806470  1
  Mn  Mn16  1  0.250000  0.465789  0.934963  1
  Mn  Mn17  1  0.250000  0.034211  0.434963  1
  Mn  Mn18  1  0.750000  0.534211  0.065037  1
  Mn  Mn19  1  0.750000  0.965789  0.565037  1
  Cr  Cr20  1  0.250000  0.708975  0.983251  1
  Cr  Cr21  1  0.250000  0.791025  0.483251  1
  Cr  Cr22  1  0.750000  0.291025  0.016749  1
  Cr  Cr23  1  0.750000  0.208975  0.516749  1
  P  P24  1  0.250000  0.411904  0.115563  1
  P  P25  1  0.250000  0.088096  0.615563  1
  P  P26  1  0.750000  0.588096  0.884437  1
  P  P27  1  0.750000  0.911904  0.384437  1
  P  P28  1  0.250000  0.264060  0.875333  1
  P  P29  1  0.250000  0.235940  0.375333  1
  P  P30  1  0.750000  0.735940  0.124667  1
  P  P31  1  0.750000  0.764060  0.624667  1
  P  P32  1  0.250000  0.594181  0.385012  1
  P  P33  1  0.250000  0.905819  0.885012  1
  P  P34  1  0.750000  0.405819  0.614988  1
  P  P35  1  0.750000  0.094181  0.114988  1
