# generated using pymatgen
data_Tb12Sm8Si13Rh3
_symmetry_space_group_name_H-M   'P 1'
_cell_length_a   7.40498300
_cell_length_b   8.01025840
_cell_length_c   14.83559500
_cell_angle_alpha   90.00000000
_cell_angle_beta   90.00000000
_cell_angle_gamma   90.11942324
_symmetry_Int_Tables_number   1
_chemical_formula_structural   Tb12Sm8Si13Rh3
_chemical_formula_sum   'Tb12 Sm8 Si13 Rh3'
_cell_volume   879.98367906
_cell_formula_units_Z   1
loop_
 _symmetry_equiv_pos_site_id
 _symmetry_equiv_pos_as_xyz
  1  'x, y, z'
loop_
 _atom_site_type_symbol
 _atom_site_label
 _atom_site_symmetry_multiplicity
 _atom_site_fract_x
 _atom_site_fract_y
 _atom_site_fract_z
 _atom_site_occupancy
  Tb  Tb0  1  0.157257  0.524695  0.750000  1
  Tb  Tb1  1  0.826109  0.488709  0.250000  1
  Tb  Tb2  1  0.323311  0.014292  0.250000  1
  Tb  Tb3  1  0.676279  0.983055  0.750000  1
  Tb  Tb4  1  0.316005  0.174597  0.627602  1
  Tb  Tb5  1  0.685182  0.830497  0.371834  1
  Tb  Tb6  1  0.186937  0.670239  0.371288  1
  Tb  Tb7  1  0.685182  0.830497  0.128166  1
  Tb  Tb8  1  0.829302  0.318635  0.625021  1
  Tb  Tb9  1  0.316005  0.174597  0.872398  1
  Tb  Tb10  1  0.829302  0.318635  0.874979  1
  Tb  Tb11  1  0.186937  0.670239  0.128712  1
  Sm  Sm12  1  0.009168  0.183066  0.094584  1
  Sm  Sm13  1  0.989934  0.819116  0.911002  1
  Sm  Sm14  1  0.487466  0.683243  0.906939  1
  Sm  Sm15  1  0.989934  0.819116  0.588998  1
  Sm  Sm16  1  0.510465  0.319201  0.095569  1
  Sm  Sm17  1  0.009168  0.183066  0.405416  1
  Sm  Sm18  1  0.510465  0.319201  0.404431  1
  Sm  Sm19  1  0.487466  0.683243  0.593061  1
  Si  Si20  1  0.529869  0.398554  0.750000  1
  Si  Si21  1  0.274313  0.868964  0.750000  1
  Si  Si22  1  0.725168  0.132945  0.250000  1
  Si  Si23  1  0.221801  0.370316  0.250000  1
  Si  Si24  1  0.767115  0.618320  0.750000  1
  Si  Si25  1  0.154453  0.471764  0.538683  1
  Si  Si26  1  0.847456  0.531750  0.463291  1
  Si  Si27  1  0.347163  0.971047  0.462676  1
  Si  Si28  1  0.847456  0.531750  0.036709  1
  Si  Si29  1  0.646718  0.031345  0.538669  1
  Si  Si30  1  0.154453  0.471764  0.961317  1
  Si  Si31  1  0.646718  0.031345  0.961331  1
  Si  Si32  1  0.347163  0.971047  0.037324  1
  Rh  Rh33  1  0.023081  0.090809  0.750000  1
  Rh  Rh34  1  0.976348  0.907809  0.250000  1
  Rh  Rh35  1  0.478847  0.592533  0.250000  1
