# generated using pymatgen
data_Rb8YHo3F20
_symmetry_space_group_name_H-M   'P 1'
_cell_length_a   6.96959148
_cell_length_b   7.46212400
_cell_length_c   11.55254680
_cell_angle_alpha   90.00000000
_cell_angle_beta   89.95744635
_cell_angle_gamma   90.00000000
_symmetry_Int_Tables_number   1
_chemical_formula_structural   Rb8YHo3F20
_chemical_formula_sum   'Rb8 Y1 Ho3 F20'
_cell_volume   600.82417813
_cell_formula_units_Z   1
loop_
 _symmetry_equiv_pos_site_id
 _symmetry_equiv_pos_as_xyz
  1  'x, y, z'
loop_
 _atom_site_type_symbol
 _atom_site_label
 _atom_site_symmetry_multiplicity
 _atom_site_fract_x
 _atom_site_fract_y
 _atom_site_fract_z
 _atom_site_occupancy
  Rb  Rb0  1  0.532184  0.498146  0.828320  1
  Rb  Rb1  1  0.467469  0.500963  0.171723  1
  Rb  Rb2  1  0.032460  0.501183  0.671090  1
  Rb  Rb3  1  0.467469  0.999037  0.171723  1
  Rb  Rb4  1  0.967614  0.498286  0.328893  1
  Rb  Rb5  1  0.532184  0.001854  0.828320  1
  Rb  Rb6  1  0.967614  0.001714  0.328893  1
  Rb  Rb7  1  0.032460  0.998817  0.671090  1
  Y  Y8  1  0.940914  0.750000  0.001148  1
  Ho  Ho9  1  0.558933  0.750000  0.500874  1
  Ho  Ho10  1  0.441120  0.250000  0.499140  1
  Ho  Ho11  1  0.059809  0.250000  0.998934  1
  F  F12  1  0.846279  0.750000  0.817430  1
  F  F13  1  0.152575  0.250000  0.181364  1
  F  F14  1  0.347681  0.250000  0.681270  1
  F  F15  1  0.652495  0.750000  0.318637  1
  F  F16  1  0.377326  0.750000  0.656479  1
  F  F17  1  0.622641  0.250000  0.343578  1
  F  F18  1  0.877485  0.250000  0.843636  1
  F  F19  1  0.124105  0.750000  0.157853  1
  F  F20  1  0.872399  0.750000  0.516043  1
  F  F21  1  0.127616  0.250000  0.483845  1
  F  F22  1  0.373513  0.250000  0.984148  1
  F  F23  1  0.624471  0.750000  0.015770  1
  F  F24  1  0.637810  0.033944  0.570742  1
  F  F25  1  0.362253  0.966107  0.429282  1
  F  F26  1  0.138969  0.967883  0.928547  1
  F  F27  1  0.362253  0.533893  0.429282  1
  F  F28  1  0.861560  0.035660  0.071328  1
  F  F29  1  0.637810  0.466056  0.570742  1
  F  F30  1  0.861560  0.464340  0.071328  1
  F  F31  1  0.138969  0.532117  0.928547  1
