# generated using pymatgen
data_Tb6Y9Lu5Sn16
_symmetry_space_group_name_H-M   'P 1'
_cell_length_a   7.99831990
_cell_length_b   8.15326323
_cell_length_c   15.44557300
_cell_angle_alpha   90.03166302
_cell_angle_beta   89.96040835
_cell_angle_gamma   90.06447975
_symmetry_Int_Tables_number   1
_chemical_formula_structural   Tb6Y9Lu5Sn16
_chemical_formula_sum   'Tb6 Y9 Lu5 Sn16'
_cell_volume   1007.24197005
_cell_formula_units_Z   1
loop_
 _symmetry_equiv_pos_site_id
 _symmetry_equiv_pos_as_xyz
  1  'x, y, z'
loop_
 _atom_site_type_symbol
 _atom_site_label
 _atom_site_symmetry_multiplicity
 _atom_site_fract_x
 _atom_site_fract_y
 _atom_site_fract_z
 _atom_site_occupancy
  Tb  Tb0  1  0.480883  0.679671  0.403651  1
  Tb  Tb1  1  0.980029  0.820390  0.096545  1
  Tb  Tb2  1  0.481310  0.680383  0.095100  1
  Tb  Tb3  1  0.980908  0.820663  0.403290  1
  Tb  Tb4  1  0.519229  0.320822  0.597433  1
  Tb  Tb5  1  0.018937  0.178460  0.903003  1
  Y  Y6  1  0.865243  0.662445  0.623248  1
  Y  Y7  1  0.634499  0.162150  0.377559  1
  Y  Y8  1  0.135591  0.337532  0.120986  1
  Y  Y9  1  0.634428  0.162939  0.122761  1
  Y  Y10  1  0.134135  0.337305  0.377589  1
  Y  Y11  1  0.365908  0.837609  0.622970  1
  Y  Y12  1  0.866066  0.662144  0.878032  1
  Y  Y13  1  0.518939  0.320185  0.903457  1
  Y  Y14  1  0.019974  0.178927  0.597458  1
  Lu  Lu15  1  0.364527  0.838493  0.876003  1
  Lu  Lu16  1  0.197450  0.503577  0.750807  1
  Lu  Lu17  1  0.696343  0.996337  0.750533  1
  Lu  Lu18  1  0.803618  0.496686  0.250076  1
  Lu  Lu19  1  0.303289  0.002921  0.249478  1
  Sn  Sn20  1  0.295275  0.035005  0.040516  1
  Sn  Sn21  1  0.794070  0.463612  0.457638  1
  Sn  Sn22  1  0.706389  0.963731  0.542855  1
  Sn  Sn23  1  0.208018  0.539979  0.956411  1
  Sn  Sn24  1  0.700987  0.962580  0.957098  1
  Sn  Sn25  1  0.205684  0.536227  0.543178  1
  Sn  Sn26  1  0.293881  0.036229  0.457256  1
  Sn  Sn27  1  0.793985  0.463462  0.042875  1
  Sn  Sn28  1  0.561384  0.618801  0.751056  1
  Sn  Sn29  1  0.062918  0.881961  0.751014  1
  Sn  Sn30  1  0.437744  0.383214  0.250107  1
  Sn  Sn31  1  0.938277  0.117289  0.249325  1
  Sn  Sn32  1  0.328819  0.149036  0.750658  1
  Sn  Sn33  1  0.828340  0.350047  0.750501  1
  Sn  Sn34  1  0.671474  0.849870  0.249866  1
  Sn  Sn35  1  0.171450  0.649320  0.249663  1
