# generated using pymatgen
data_HfNb5Fe2(BRu2)4
_symmetry_space_group_name_H-M   'P 1'
_cell_length_a   9.32473641
_cell_length_b   9.32473702
_cell_length_c   3.04103200
_cell_angle_alpha   90.00000000
_cell_angle_beta   90.00000000
_cell_angle_gamma   89.97925005
_symmetry_Int_Tables_number   1
_chemical_formula_structural   HfNb5Fe2(BRu2)4
_chemical_formula_sum   'Hf1 Nb5 Fe2 B4 Ru8'
_cell_volume   264.41988885
_cell_formula_units_Z   1
loop_
 _symmetry_equiv_pos_site_id
 _symmetry_equiv_pos_as_xyz
  1  'x, y, z'
loop_
 _atom_site_type_symbol
 _atom_site_label
 _atom_site_symmetry_multiplicity
 _atom_site_fract_x
 _atom_site_fract_y
 _atom_site_fract_z
 _atom_site_occupancy
  Hf  Hf0  1  0.826767  0.673233  0.000000  1
  Nb  Nb1  1  0.172351  0.327649  0.000000  1
  Nb  Nb2  1  0.327324  0.827604  0.000000  1
  Nb  Nb3  1  0.672396  0.172676  0.000000  1
  Nb  Nb4  1  0.500276  0.499867  0.000000  1
  Nb  Nb5  1  0.000133  0.999724  0.000000  1
  Fe  Fe6  1  0.499229  0.000771  0.500000  1
  Fe  Fe7  1  0.002617  0.497383  0.500000  1
  B  B8  1  0.611465  0.888535  0.000000  1
  B  B9  1  0.388137  0.111863  0.000000  1
  B  B10  1  0.112252  0.610728  0.000000  1
  B  B11  1  0.889272  0.387748  0.000000  1
  Ru  Ru12  1  0.564406  0.724365  0.500000  1
  Ru  Ru13  1  0.431751  0.277054  0.500000  1
  Ru  Ru14  1  0.070305  0.777225  0.500000  1
  Ru  Ru15  1  0.932504  0.222541  0.500000  1
  Ru  Ru16  1  0.277459  0.567496  0.500000  1
  Ru  Ru17  1  0.722775  0.429695  0.500000  1
  Ru  Ru18  1  0.222946  0.068249  0.500000  1
  Ru  Ru19  1  0.775635  0.935594  0.500000  1
