# generated using pymatgen
data_Ho2Fe2P7Ru9Pt
_symmetry_space_group_name_H-M   'P 1'
_cell_length_a   9.38829139
_cell_length_b   9.42495639
_cell_length_c   3.88497600
_cell_angle_alpha   90.00000000
_cell_angle_beta   90.00000000
_cell_angle_gamma   120.46676476
_symmetry_Int_Tables_number   1
_chemical_formula_structural   Ho2Fe2P7Ru9Pt
_chemical_formula_sum   'Ho2 Fe2 P7 Ru9 Pt1'
_cell_volume   296.29405110
_cell_formula_units_Z   1
loop_
 _symmetry_equiv_pos_site_id
 _symmetry_equiv_pos_as_xyz
  1  'x, y, z'
loop_
 _atom_site_type_symbol
 _atom_site_label
 _atom_site_symmetry_multiplicity
 _atom_site_fract_x
 _atom_site_fract_y
 _atom_site_fract_z
 _atom_site_occupancy
  Ho  Ho0  1  0.000113  0.999982  0.000000  1
  Ho  Ho1  1  0.332675  0.663721  0.500000  1
  Fe  Fe2  1  0.394326  0.222287  0.000000  1
  Fe  Fe3  1  0.827897  0.605259  0.000000  1
  P  P4  1  0.562625  0.910085  0.000000  1
  P  P5  1  0.364031  0.441535  0.000000  1
  P  P6  1  0.070516  0.627932  0.000000  1
  P  P7  1  0.951071  0.219390  0.500000  1
  P  P8  1  0.263462  0.061551  0.500000  1
  P  P9  1  0.785462  0.731598  0.500000  1
  P  P10  1  0.662153  0.340267  0.000000  1
  Ru  Ru11  1  0.605806  0.690446  0.000000  1
  Ru  Ru12  1  0.097900  0.401545  0.000000  1
  Ru  Ru13  1  0.774512  0.177308  0.000000  1
  Ru  Ru14  1  0.718556  0.943014  0.500000  1
  Ru  Ru15  1  0.228041  0.284748  0.500000  1
  Ru  Ru16  1  0.056636  0.776333  0.500000  1
  Ru  Ru17  1  0.535312  0.121094  0.500000  1
  Ru  Ru18  1  0.582116  0.451157  0.500000  1
  Ru  Ru19  1  0.879024  0.427837  0.500000  1
  Pt  Pt20  1  0.307768  0.902911  0.000000  1
