# generated using pymatgen
data_Gd12IrPdRh2
_symmetry_space_group_name_H-M   'P 1'
_cell_length_a   6.38489800
_cell_length_b   7.17236829
_cell_length_c   9.73235600
_cell_angle_alpha   90.00000000
_cell_angle_beta   90.00000000
_cell_angle_gamma   90.21024729
_symmetry_Int_Tables_number   1
_chemical_formula_structural   Gd12IrPdRh2
_chemical_formula_sum   'Gd12 Ir1 Pd1 Rh2'
_cell_volume   445.68868461
_cell_formula_units_Z   1
loop_
 _symmetry_equiv_pos_site_id
 _symmetry_equiv_pos_as_xyz
  1  'x, y, z'
loop_
 _atom_site_type_symbol
 _atom_site_label
 _atom_site_symmetry_multiplicity
 _atom_site_fract_x
 _atom_site_fract_y
 _atom_site_fract_z
 _atom_site_occupancy
  Gd  Gd0  1  0.334967  0.674886  0.061873  1
  Gd  Gd1  1  0.170231  0.183240  0.437928  1
  Gd  Gd2  1  0.669056  0.320806  0.562993  1
  Gd  Gd3  1  0.831665  0.823721  0.934748  1
  Gd  Gd4  1  0.669056  0.320806  0.937007  1
  Gd  Gd5  1  0.831665  0.823721  0.565252  1
  Gd  Gd6  1  0.334967  0.674886  0.438127  1
  Gd  Gd7  1  0.170231  0.183240  0.062072  1
  Gd  Gd8  1  0.856395  0.524144  0.250000  1
  Gd  Gd9  1  0.629827  0.034455  0.250000  1
  Gd  Gd10  1  0.143258  0.462856  0.750000  1
  Gd  Gd11  1  0.359723  0.968053  0.750000  1
  Ir  Ir12  1  0.438464  0.382004  0.250000  1
  Pd  Pd13  1  0.063089  0.886002  0.250000  1
  Rh  Rh14  1  0.939542  0.118827  0.750000  1
  Rh  Rh15  1  0.557866  0.618353  0.750000  1
