# generated using pymatgen
data_Y12CdCo4Pd
_symmetry_space_group_name_H-M   'P 1'
_cell_length_a   8.38674738
_cell_length_b   8.38674715
_cell_length_c   8.38674639
_cell_angle_alpha   107.52060817
_cell_angle_beta   110.18613392
_cell_angle_gamma   110.72482963
_symmetry_Int_Tables_number   1
_chemical_formula_structural   Y12CdCo4Pd
_chemical_formula_sum   'Y12 Cd1 Co4 Pd1'
_cell_volume   453.70405309
_cell_formula_units_Z   1
loop_
 _symmetry_equiv_pos_site_id
 _symmetry_equiv_pos_as_xyz
  1  'x, y, z'
loop_
 _atom_site_type_symbol
 _atom_site_label
 _atom_site_symmetry_multiplicity
 _atom_site_fract_x
 _atom_site_fract_y
 _atom_site_fract_z
 _atom_site_occupancy
  Y  Y0  1  0.699623  0.285025  0.984647  1
  Y  Y1  1  0.300377  0.714975  0.015353  1
  Y  Y2  1  0.699623  0.714975  0.414598  1
  Y  Y3  1  0.300377  0.285025  0.585402  1
  Y  Y4  1  0.803800  0.119354  0.315554  1
  Y  Y5  1  0.803800  0.488245  0.684446  1
  Y  Y6  1  0.196200  0.880646  0.684446  1
  Y  Y7  1  0.196200  0.511755  0.315554  1
  Y  Y8  1  0.607079  0.793242  0.813837  1
  Y  Y9  1  0.979407  0.793242  0.186163  1
  Y  Y10  1  0.020593  0.206758  0.813837  1
  Y  Y11  1  0.392921  0.206758  0.186163  1
  Cd  Cd12  1  0.500000  0.000000  0.500000  1
  Co  Co13  1  0.881951  0.500000  0.381951  1
  Co  Co14  1  0.118049  0.500000  0.618049  1
  Co  Co15  1  0.000000  0.111172  0.111172  1
  Co  Co16  1  0.000000  0.888828  0.888828  1
  Pd  Pd17  1  0.500000  0.500000  0.000000  1
