# generated using pymatgen
data_CaY(BC)4
_symmetry_space_group_name_H-M   'P 1'
_cell_length_a   5.35303400
_cell_length_b   5.35303400
_cell_length_c   3.64787900
_cell_angle_alpha   90.00000000
_cell_angle_beta   90.00000000
_cell_angle_gamma   90.00000000
_symmetry_Int_Tables_number   1
_chemical_formula_structural   CaY(BC)4
_chemical_formula_sum   'Ca1 Y1 B4 C4'
_cell_volume   104.52987427
_cell_formula_units_Z   1
loop_
 _symmetry_equiv_pos_site_id
 _symmetry_equiv_pos_as_xyz
  1  'x, y, z'
loop_
 _atom_site_type_symbol
 _atom_site_label
 _atom_site_symmetry_multiplicity
 _atom_site_fract_x
 _atom_site_fract_y
 _atom_site_fract_z
 _atom_site_occupancy
  Ca  Ca0  1  0.500000  0.500000  0.000000  1
  Y  Y1  1  0.000000  0.000000  0.000000  1
  B  B2  1  0.862149  0.362315  0.500000  1
  B  B3  1  0.137851  0.637685  0.500000  1
  B  B4  1  0.362315  0.137851  0.500000  1
  B  B5  1  0.637685  0.862149  0.500000  1
  C  C6  1  0.662586  0.159636  0.500000  1
  C  C7  1  0.337414  0.840364  0.500000  1
  C  C8  1  0.159636  0.337414  0.500000  1
  C  C9  1  0.840364  0.662586  0.500000  1
