# generated using pymatgen
data_Pr16MgAl(CdIr2)2
_symmetry_space_group_name_H-M   'P 1'
_cell_length_a   10.04398957
_cell_length_b   10.04374276
_cell_length_c   10.03623494
_cell_angle_alpha   59.88054488
_cell_angle_beta   59.90357751
_cell_angle_gamma   59.89650160
_symmetry_Int_Tables_number   1
_chemical_formula_structural   Pr16MgAl(CdIr2)2
_chemical_formula_sum   'Pr16 Mg1 Al1 Cd2 Ir4'
_cell_volume   714.17953367
_cell_formula_units_Z   1
loop_
 _symmetry_equiv_pos_site_id
 _symmetry_equiv_pos_as_xyz
  1  'x, y, z'
loop_
 _atom_site_type_symbol
 _atom_site_label
 _atom_site_symmetry_multiplicity
 _atom_site_fract_x
 _atom_site_fract_y
 _atom_site_fract_z
 _atom_site_occupancy
  Pr  Pr0  1  0.346667  0.346795  0.347914  1
  Pr  Pr1  1  0.350068  0.350004  0.952998  1
  Pr  Pr2  1  0.349596  0.954616  0.349994  1
  Pr  Pr3  1  0.954485  0.349602  0.350070  1
  Pr  Pr4  1  0.810629  0.189148  0.188329  1
  Pr  Pr5  1  0.192340  0.805753  0.805438  1
  Pr  Pr6  1  0.189214  0.810645  0.188226  1
  Pr  Pr7  1  0.805786  0.192279  0.805347  1
  Pr  Pr8  1  0.190271  0.190198  0.809197  1
  Pr  Pr9  1  0.807917  0.807832  0.189489  1
  Pr  Pr10  1  0.939184  0.561902  0.561471  1
  Pr  Pr11  1  0.560170  0.939523  0.938042  1
  Pr  Pr12  1  0.561840  0.939099  0.561572  1
  Pr  Pr13  1  0.939469  0.560277  0.937923  1
  Pr  Pr14  1  0.562155  0.562269  0.936272  1
  Pr  Pr15  1  0.939226  0.939174  0.560067  1
  Mg  Mg16  1  0.575329  0.575335  0.275304  1
  Al  Al17  1  0.580206  0.580216  0.581894  1
  Cd  Cd18  1  0.580267  0.262646  0.579345  1
  Cd  Cd19  1  0.262601  0.580270  0.579387  1
  Ir  Ir20  1  0.142195  0.142003  0.141382  1
  Ir  Ir21  1  0.142246  0.142239  0.575851  1
  Ir  Ir22  1  0.142215  0.575938  0.142262  1
  Ir  Ir23  1  0.575918  0.142234  0.142224  1
