# generated using pymatgen
data_Nd8Sc12Ga3Si13
_symmetry_space_group_name_H-M   'P 1'
_cell_length_a   7.26517555
_cell_length_b   7.54140386
_cell_length_c   14.34296402
_cell_angle_alpha   89.98025237
_cell_angle_beta   90.06552629
_cell_angle_gamma   90.08507234
_symmetry_Int_Tables_number   1
_chemical_formula_structural   Nd8Sc12Ga3Si13
_chemical_formula_sum   'Nd8 Sc12 Ga3 Si13'
_cell_volume   785.84416425
_cell_formula_units_Z   1
loop_
 _symmetry_equiv_pos_site_id
 _symmetry_equiv_pos_as_xyz
  1  'x, y, z'
loop_
 _atom_site_type_symbol
 _atom_site_label
 _atom_site_symmetry_multiplicity
 _atom_site_fract_x
 _atom_site_fract_y
 _atom_site_fract_z
 _atom_site_occupancy
  Nd  Nd0  1  0.012074  0.172240  0.401484  1
  Nd  Nd1  1  0.513710  0.326201  0.401066  1
  Nd  Nd2  1  0.488055  0.672467  0.899604  1
  Nd  Nd3  1  0.489523  0.675742  0.598617  1
  Nd  Nd4  1  0.986546  0.827926  0.598262  1
  Nd  Nd5  1  0.987862  0.827968  0.899609  1
  Nd  Nd6  1  0.510569  0.325990  0.099253  1
  Nd  Nd7  1  0.010816  0.173962  0.099321  1
  Sc  Sc8  1  0.332264  0.173968  0.626019  1
  Sc  Sc9  1  0.670015  0.824001  0.375147  1
  Sc  Sc10  1  0.661449  0.001715  0.749758  1
  Sc  Sc11  1  0.172196  0.677153  0.374503  1
  Sc  Sc12  1  0.829908  0.322201  0.873660  1
  Sc  Sc13  1  0.826453  0.323833  0.625042  1
  Sc  Sc14  1  0.838535  0.501118  0.251974  1
  Sc  Sc15  1  0.338447  0.998412  0.251625  1
  Sc  Sc16  1  0.330023  0.176500  0.873628  1
  Sc  Sc17  1  0.170552  0.674045  0.126321  1
  Sc  Sc18  1  0.670590  0.826185  0.126191  1
  Sc  Sc19  1  0.160504  0.497948  0.751400  1
  Ga  Ga20  1  0.155975  0.459898  0.539590  1
  Ga  Ga21  1  0.844686  0.540435  0.038907  1
  Ga  Ga22  1  0.344581  0.959744  0.039042  1
  Si  Si23  1  0.287315  0.880972  0.749371  1
  Si  Si24  1  0.466323  0.623934  0.250449  1
  Si  Si25  1  0.034233  0.124990  0.749787  1
  Si  Si26  1  0.533700  0.377061  0.749319  1
  Si  Si27  1  0.965900  0.876007  0.250542  1
  Si  Si28  1  0.712446  0.118625  0.250654  1
  Si  Si29  1  0.153685  0.460994  0.959882  1
  Si  Si30  1  0.651406  0.037595  0.538809  1
  Si  Si31  1  0.348463  0.962565  0.460802  1
  Si  Si32  1  0.846766  0.538840  0.460367  1
  Si  Si33  1  0.788530  0.618734  0.749697  1
  Si  Si34  1  0.212429  0.381005  0.250789  1
  Si  Si35  1  0.653471  0.039024  0.959508  1
