# generated using pymatgen
data_Eu2DyBeO5
_symmetry_space_group_name_H-M   'P 1'
_cell_length_a   6.50706100
_cell_length_b   7.09949400
_cell_length_c   9.46759200
_cell_angle_alpha   90.00000000
_cell_angle_beta   90.00000000
_cell_angle_gamma   90.00000000
_symmetry_Int_Tables_number   1
_chemical_formula_structural   Eu2DyBeO5
_chemical_formula_sum   'Eu8 Dy4 Be4 O20'
_cell_volume   437.37283780
_cell_formula_units_Z   4
loop_
 _symmetry_equiv_pos_site_id
 _symmetry_equiv_pos_as_xyz
  1  'x, y, z'
loop_
 _atom_site_type_symbol
 _atom_site_label
 _atom_site_symmetry_multiplicity
 _atom_site_fract_x
 _atom_site_fract_y
 _atom_site_fract_z
 _atom_site_occupancy
  Eu  Eu0  1  0.918017  0.520377  0.826097  1
  Eu  Eu1  1  0.418017  0.020377  0.673903  1
  Eu  Eu2  1  0.581983  0.979623  0.326097  1
  Eu  Eu3  1  0.081983  0.479623  0.173903  1
  Eu  Eu4  1  0.418017  0.479623  0.673903  1
  Eu  Eu5  1  0.918017  0.979623  0.826097  1
  Eu  Eu6  1  0.581983  0.520377  0.326097  1
  Eu  Eu7  1  0.081983  0.020377  0.173903  1
  Dy  Dy8  1  0.408655  0.750000  0.980069  1
  Dy  Dy9  1  0.091345  0.750000  0.480069  1
  Dy  Dy10  1  0.591345  0.250000  0.019931  1
  Dy  Dy11  1  0.908655  0.250000  0.519931  1
  Be  Be12  1  0.193823  0.250000  0.899499  1
  Be  Be13  1  0.806177  0.750000  0.100501  1
  Be  Be14  1  0.306177  0.250000  0.399499  1
  Be  Be15  1  0.693823  0.750000  0.600501  1
  O  O16  1  0.131010  0.250000  0.723382  1
  O  O17  1  0.314552  0.444468  0.932809  1
  O  O18  1  0.837795  0.250000  0.283383  1
  O  O19  1  0.662205  0.250000  0.783383  1
  O  O20  1  0.685448  0.944468  0.067191  1
  O  O21  1  0.314552  0.055532  0.932809  1
  O  O22  1  0.368990  0.250000  0.223382  1
  O  O23  1  0.477013  0.750000  0.509854  1
  O  O24  1  0.868990  0.750000  0.276618  1
  O  O25  1  0.337795  0.750000  0.216617  1
  O  O26  1  0.022987  0.750000  0.009854  1
  O  O27  1  0.814552  0.555532  0.567191  1
  O  O28  1  0.522987  0.250000  0.490146  1
  O  O29  1  0.162205  0.750000  0.716617  1
  O  O30  1  0.685448  0.555532  0.067191  1
  O  O31  1  0.185448  0.444468  0.432809  1
  O  O32  1  0.814552  0.944468  0.567191  1
  O  O33  1  0.631010  0.750000  0.776618  1
  O  O34  1  0.977013  0.250000  0.990146  1
  O  O35  1  0.185448  0.055532  0.432809  1
