# generated using pymatgen
data_PrLu(ZnSn)2
_symmetry_space_group_name_H-M   'P 1'
_cell_length_a   4.55111400
_cell_length_b   4.55111507
_cell_length_c   15.91853800
_cell_angle_alpha   90.00000000
_cell_angle_beta   90.00000000
_cell_angle_gamma   120.00000675
_symmetry_Int_Tables_number   1
_chemical_formula_structural   PrLu(ZnSn)2
_chemical_formula_sum   'Pr2 Lu2 Zn4 Sn4'
_cell_volume   285.54154916
_cell_formula_units_Z   2
loop_
 _symmetry_equiv_pos_site_id
 _symmetry_equiv_pos_as_xyz
  1  'x, y, z'
loop_
 _atom_site_type_symbol
 _atom_site_label
 _atom_site_symmetry_multiplicity
 _atom_site_fract_x
 _atom_site_fract_y
 _atom_site_fract_z
 _atom_site_occupancy
  Pr  Pr0  1  0.000000  0.000000  0.500000  1
  Pr  Pr1  1  0.000000  0.000000  0.000000  1
  Lu  Lu2  1  0.000000  0.000000  0.250000  1
  Lu  Lu3  1  0.000000  0.000000  0.750000  1
  Zn  Zn4  1  0.333333  0.666667  0.336358  1
  Zn  Zn5  1  0.666667  0.333333  0.663642  1
  Zn  Zn6  1  0.666667  0.333333  0.836358  1
  Zn  Zn7  1  0.333333  0.666667  0.163642  1
  Sn  Sn8  1  0.333333  0.666667  0.880530  1
  Sn  Sn9  1  0.666667  0.333333  0.119470  1
  Sn  Sn10  1  0.666667  0.333333  0.380530  1
  Sn  Sn11  1  0.333333  0.666667  0.619470  1
