# generated using pymatgen
data_LaThAs7Rh12
_symmetry_space_group_name_H-M   'P 1'
_cell_length_a   10.04314600
_cell_length_b   10.04314601
_cell_length_c   3.99199000
_cell_angle_alpha   90.00000000
_cell_angle_beta   90.00000000
_cell_angle_gamma   120.00000657
_symmetry_Int_Tables_number   1
_chemical_formula_structural   LaThAs7Rh12
_chemical_formula_sum   'La1 Th1 As7 Rh12'
_cell_volume   348.70614470
_cell_formula_units_Z   1
loop_
 _symmetry_equiv_pos_site_id
 _symmetry_equiv_pos_as_xyz
  1  'x, y, z'
loop_
 _atom_site_type_symbol
 _atom_site_label
 _atom_site_symmetry_multiplicity
 _atom_site_fract_x
 _atom_site_fract_y
 _atom_site_fract_z
 _atom_site_occupancy
  La  La0  1  0.333333  0.666667  0.252448  1
  Th  Th1  1  0.000000  0.000000  0.748475  1
  As  As2  1  0.666667  0.333333  0.517552  1
  As  As3  1  0.069090  0.619949  0.752242  1
  As  As4  1  0.380051  0.449142  0.752242  1
  As  As5  1  0.550858  0.930910  0.752242  1
  As  As6  1  0.267304  0.045269  0.249563  1
  As  As7  1  0.954731  0.222035  0.249563  1
  As  As8  1  0.777965  0.732696  0.249563  1
  Rh  Rh9  1  0.816108  0.597431  0.753731  1
  Rh  Rh10  1  0.402569  0.218677  0.753731  1
  Rh  Rh11  1  0.781323  0.183892  0.753731  1
  Rh  Rh12  1  0.522025  0.071649  0.249530  1
  Rh  Rh13  1  0.928351  0.450375  0.249530  1
  Rh  Rh14  1  0.549625  0.477975  0.249530  1
  Rh  Rh15  1  0.111279  0.395284  0.751543  1
  Rh  Rh16  1  0.604716  0.715994  0.751543  1
  Rh  Rh17  1  0.284006  0.888721  0.751543  1
  Rh  Rh18  1  0.216975  0.262373  0.250546  1
  Rh  Rh19  1  0.737627  0.954602  0.250546  1
  Rh  Rh20  1  0.045398  0.783025  0.250546  1
