# generated using pymatgen
data_Li8Ac7HoPb8
_symmetry_space_group_name_H-M   'P 1'
_cell_length_a   9.93742500
_cell_length_b   9.93742482
_cell_length_c   8.24257800
_cell_angle_alpha   90.00000000
_cell_angle_beta   90.00000000
_cell_angle_gamma   120.00000393
_symmetry_Int_Tables_number   1
_chemical_formula_structural   Li8Ac7HoPb8
_chemical_formula_sum   'Li8 Ac7 Ho1 Pb8'
_cell_volume   704.92254429
_cell_formula_units_Z   1
loop_
 _symmetry_equiv_pos_site_id
 _symmetry_equiv_pos_as_xyz
  1  'x, y, z'
loop_
 _atom_site_type_symbol
 _atom_site_label
 _atom_site_symmetry_multiplicity
 _atom_site_fract_x
 _atom_site_fract_y
 _atom_site_fract_z
 _atom_site_occupancy
  Li  Li0  1  0.165644  0.331289  0.283023  1
  Li  Li1  1  0.165644  0.834356  0.283023  1
  Li  Li2  1  0.668711  0.834356  0.283023  1
  Li  Li3  1  0.836556  0.673110  0.796678  1
  Li  Li4  1  0.836556  0.163444  0.796678  1
  Li  Li5  1  0.326890  0.163444  0.796678  1
  Li  Li6  1  0.333333  0.666667  0.669458  1
  Li  Li7  1  0.666667  0.333333  0.162907  1
  Ac  Ac8  1  0.513499  0.026997  0.494941  1
  Ac  Ac9  1  0.513499  0.486501  0.494941  1
  Ac  Ac10  1  0.973003  0.486501  0.494941  1
  Ac  Ac11  1  0.486348  0.972695  0.995217  1
  Ac  Ac12  1  0.486348  0.513652  0.995217  1
  Ac  Ac13  1  0.027305  0.513652  0.995217  1
  Ac  Ac14  1  0.000000  0.000000  0.500830  1
  Ho  Ho15  1  0.000000  0.000000  0.005353  1
  Pb  Pb16  1  0.164712  0.329426  0.730604  1
  Pb  Pb17  1  0.164712  0.835288  0.730604  1
  Pb  Pb18  1  0.670574  0.835288  0.730604  1
  Pb  Pb19  1  0.837965  0.675929  0.214693  1
  Pb  Pb20  1  0.837965  0.162035  0.214693  1
  Pb  Pb21  1  0.324071  0.162035  0.214693  1
  Pb  Pb22  1  0.333333  0.666667  0.282229  1
  Pb  Pb23  1  0.666667  0.333333  0.775725  1
