# generated using pymatgen
data_Ho2Er4TaO12
_symmetry_space_group_name_H-M   'P 1'
_cell_length_a   6.43366022
_cell_length_b   6.43248816
_cell_length_c   6.43205211
_cell_angle_alpha   98.82370834
_cell_angle_beta   98.81270443
_cell_angle_gamma   98.80916368
_symmetry_Int_Tables_number   1
_chemical_formula_structural   Ho2Er4TaO12
_chemical_formula_sum   'Ho2 Er4 Ta1 O12'
_cell_volume   255.64299275
_cell_formula_units_Z   1
loop_
 _symmetry_equiv_pos_site_id
 _symmetry_equiv_pos_as_xyz
  1  'x, y, z'
loop_
 _atom_site_type_symbol
 _atom_site_label
 _atom_site_symmetry_multiplicity
 _atom_site_fract_x
 _atom_site_fract_y
 _atom_site_fract_z
 _atom_site_occupancy
  Ho  Ho0  1  0.611155  0.139570  0.304178  1
  Ho  Ho1  1  0.860862  0.695773  0.388886  1
  Er  Er2  1  0.139383  0.304360  0.611459  1
  Er  Er3  1  0.388835  0.860931  0.696065  1
  Er  Er4  1  0.695538  0.388746  0.860283  1
  Er  Er5  1  0.304044  0.610947  0.138978  1
  Ta  Ta6  1  0.000025  0.000098  0.999875  1
  O  O7  1  0.074270  0.305125  0.958040  1
  O  O8  1  0.042671  0.926393  0.695388  1
  O  O9  1  0.413762  0.564960  0.821649  1
  O  O10  1  0.179293  0.585891  0.435386  1
  O  O11  1  0.695036  0.041995  0.925468  1
  O  O12  1  0.434754  0.178223  0.587162  1
  O  O13  1  0.563583  0.821290  0.414088  1
  O  O14  1  0.304492  0.957205  0.073671  1
  O  O15  1  0.822244  0.413540  0.565689  1
  O  O16  1  0.585548  0.435625  0.177301  1
  O  O17  1  0.958698  0.074394  0.305039  1
  O  O18  1  0.925808  0.694934  0.041393  1
