# generated using pymatgen
data_Tb15Th(CdPt)4
_symmetry_space_group_name_H-M   'P 1'
_cell_length_a   9.73585888
_cell_length_b   9.73585944
_cell_length_c   9.73585920
_cell_angle_alpha   60.36264796
_cell_angle_beta   60.36264365
_cell_angle_gamma   60.36265279
_symmetry_Int_Tables_number   1
_chemical_formula_structural   Tb15Th(CdPt)4
_chemical_formula_sum   'Tb15 Th1 Cd4 Pt4'
_cell_volume   657.89395016
_cell_formula_units_Z   1
loop_
 _symmetry_equiv_pos_site_id
 _symmetry_equiv_pos_as_xyz
  1  'x, y, z'
loop_
 _atom_site_type_symbol
 _atom_site_label
 _atom_site_symmetry_multiplicity
 _atom_site_fract_x
 _atom_site_fract_y
 _atom_site_fract_z
 _atom_site_occupancy
  Tb  Tb0  1  0.353419  0.353419  0.940033  1
  Tb  Tb1  1  0.353419  0.940033  0.353419  1
  Tb  Tb2  1  0.940033  0.353419  0.353419  1
  Tb  Tb3  1  0.811513  0.190129  0.190129  1
  Tb  Tb4  1  0.191517  0.810225  0.810225  1
  Tb  Tb5  1  0.190129  0.811513  0.190129  1
  Tb  Tb6  1  0.810225  0.191517  0.810225  1
  Tb  Tb7  1  0.190129  0.190129  0.811513  1
  Tb  Tb8  1  0.810225  0.810225  0.191517  1
  Tb  Tb9  1  0.937216  0.566521  0.566521  1
  Tb  Tb10  1  0.563658  0.936508  0.936508  1
  Tb  Tb11  1  0.566521  0.937216  0.566521  1
  Tb  Tb12  1  0.936508  0.563658  0.936508  1
  Tb  Tb13  1  0.566521  0.566521  0.937216  1
  Tb  Tb14  1  0.936508  0.936508  0.563658  1
  Th  Th15  1  0.348084  0.348084  0.348084  1
  Cd  Cd16  1  0.580932  0.580932  0.580932  1
  Cd  Cd17  1  0.582042  0.582042  0.254033  1
  Cd  Cd18  1  0.582042  0.254033  0.582042  1
  Cd  Cd19  1  0.254033  0.582042  0.582042  1
  Pt  Pt20  1  0.144078  0.144078  0.144078  1
  Pt  Pt21  1  0.140367  0.140367  0.570512  1
  Pt  Pt22  1  0.140367  0.570512  0.140367  1
  Pt  Pt23  1  0.570512  0.140367  0.140367  1
