# generated using pymatgen
data_Ca5Sm(RuO6)2
_symmetry_space_group_name_H-M   'P 1'
_cell_length_a   5.86576580
_cell_length_b   5.57293160
_cell_length_c   9.77620964
_cell_angle_alpha   55.52343681
_cell_angle_beta   89.47478565
_cell_angle_gamma   89.73284178
_symmetry_Int_Tables_number   1
_chemical_formula_structural   Ca5Sm(RuO6)2
_chemical_formula_sum   'Ca5 Sm1 Ru2 O12'
_cell_volume   263.43674883
_cell_formula_units_Z   1
loop_
 _symmetry_equiv_pos_site_id
 _symmetry_equiv_pos_as_xyz
  1  'x, y, z'
loop_
 _atom_site_type_symbol
 _atom_site_label
 _atom_site_symmetry_multiplicity
 _atom_site_fract_x
 _atom_site_fract_y
 _atom_site_fract_z
 _atom_site_occupancy
  Ca  Ca0  1  0.558878  0.763672  0.252460  1
  Ca  Ca1  1  0.938670  0.766817  0.753615  1
  Ca  Ca2  1  0.061980  0.234101  0.245130  1
  Ca  Ca3  1  0.995618  0.503183  0.495586  1
  Ca  Ca4  1  0.502564  0.495823  0.004243  1
  Sm  Sm5  1  0.432342  0.233629  0.747379  1
  Ru  Ru6  1  0.998539  0.001284  0.000322  1
  Ru  Ru7  1  0.500917  0.998238  0.499535  1
  O  O8  1  0.715322  0.905139  0.928574  1
  O  O9  1  0.283422  0.103274  0.063180  1
  O  O10  1  0.227132  0.101150  0.576986  1
  O  O11  1  0.779478  0.904943  0.428479  1
  O  O12  1  0.049173  0.348612  0.769899  1
  O  O13  1  0.947486  0.655510  0.223349  1
  O  O14  1  0.552353  0.646796  0.729815  1
  O  O15  1  0.444210  0.338832  0.276580  1
  O  O16  1  0.186244  0.784669  0.937199  1
  O  O17  1  0.823993  0.229451  0.056405  1
  O  O18  1  0.677510  0.228746  0.558382  1
  O  O19  1  0.324169  0.756131  0.452883  1
