# generated using pymatgen
data_Ti3Nb2Ga2C3
_symmetry_space_group_name_H-M   'P 1'
_cell_length_a   16.00665726
_cell_length_b   16.00665700
_cell_length_c   16.00665790
_cell_angle_alpha   11.18287102
_cell_angle_beta   11.18287504
_cell_angle_gamma   11.18287216
_symmetry_Int_Tables_number   1
_chemical_formula_structural   Ti3Nb2Ga2C3
_chemical_formula_sum   'Ti3 Nb2 Ga2 C3'
_cell_volume   134.01357409
_cell_formula_units_Z   1
loop_
 _symmetry_equiv_pos_site_id
 _symmetry_equiv_pos_as_xyz
  1  'x, y, z'
loop_
 _atom_site_type_symbol
 _atom_site_label
 _atom_site_symmetry_multiplicity
 _atom_site_fract_x
 _atom_site_fract_y
 _atom_site_fract_z
 _atom_site_occupancy
  Ti  Ti0  1  0.499433  0.499433  0.499433  1
  Ti  Ti1  1  0.692049  0.692049  0.692049  1
  Ti  Ti2  1  0.783139  0.783139  0.783139  1
  Nb  Nb3  1  0.217239  0.217239  0.217239  1
  Nb  Nb4  1  0.308380  0.308380  0.308380  1
  Ga  Ga5  1  0.404326  0.404326  0.404326  1
  Ga  Ga6  1  0.596071  0.596071  0.596071  1
  C  C7  1  0.138707  0.138707  0.138707  1
  C  C8  1  0.858805  0.858805  0.858805  1
  C  C9  1  0.001852  0.001852  0.001852  1
