# generated using pymatgen
data_CaPrErGa8Ag3
_symmetry_space_group_name_H-M   'P 1'
_cell_length_a   4.39890627
_cell_length_b   8.40873280
_cell_length_c   8.40873269
_cell_angle_alpha   70.52540090
_cell_angle_beta   74.83688228
_cell_angle_gamma   74.83688139
_symmetry_Int_Tables_number   1
_chemical_formula_structural   CaPrErGa8Ag3
_chemical_formula_sum   'Ca1 Pr1 Er1 Ga8 Ag3'
_cell_volume   277.78456130
_cell_formula_units_Z   1
loop_
 _symmetry_equiv_pos_site_id
 _symmetry_equiv_pos_as_xyz
  1  'x, y, z'
loop_
 _atom_site_type_symbol
 _atom_site_label
 _atom_site_symmetry_multiplicity
 _atom_site_fract_x
 _atom_site_fract_y
 _atom_site_fract_z
 _atom_site_occupancy
  Ca  Ca0  1  0.197868  0.802132  0.802132  1
  Pr  Pr1  1  0.500292  0.499708  0.499708  1
  Er  Er2  1  0.800270  0.199730  0.199730  1
  Ga  Ga3  1  0.357393  0.358017  0.927196  1
  Ga  Ga4  1  0.644670  0.636170  0.074491  1
  Ga  Ga5  1  0.357393  0.927196  0.358017  1
  Ga  Ga6  1  0.644670  0.074491  0.636170  1
  Ga  Ga7  1  0.161205  0.468802  0.208789  1
  Ga  Ga8  1  0.837887  0.528676  0.795548  1
  Ga  Ga9  1  0.161205  0.208789  0.468802  1
  Ga  Ga10  1  0.837887  0.795548  0.528676  1
  Ag  Ag11  1  0.499076  0.000924  0.000924  1
  Ag  Ag12  1  0.000093  0.804201  0.195614  1
  Ag  Ag13  1  0.000093  0.195614  0.804201  1
