# generated using pymatgen
data_Ac2Al14Rh3
_symmetry_space_group_name_H-M   'P 1'
_cell_length_a   7.00678416
_cell_length_b   7.00678526
_cell_length_c   7.00678400
_cell_angle_alpha   83.87244798
_cell_angle_beta   83.87245341
_cell_angle_gamma   83.87243822
_symmetry_Int_Tables_number   1
_chemical_formula_structural   Ac2Al14Rh3
_chemical_formula_sum   'Ac2 Al14 Rh3'
_cell_volume   338.49338719
_cell_formula_units_Z   1
loop_
 _symmetry_equiv_pos_site_id
 _symmetry_equiv_pos_as_xyz
  1  'x, y, z'
loop_
 _atom_site_type_symbol
 _atom_site_label
 _atom_site_symmetry_multiplicity
 _atom_site_fract_x
 _atom_site_fract_y
 _atom_site_fract_z
 _atom_site_occupancy
  Ac  Ac0  1  0.346099  0.346099  0.346099  1
  Ac  Ac1  1  0.653902  0.653902  0.653902  1
  Al  Al2  1  0.708550  0.291451  0.000000  1
  Al  Al3  1  0.291451  0.708550  0.000000  1
  Al  Al4  1  0.101965  0.101965  0.101965  1
  Al  Al5  1  0.659738  0.659738  0.145170  1
  Al  Al6  1  0.708550  0.000000  0.291451  1
  Al  Al7  1  0.000000  0.708550  0.291451  1
  Al  Al8  1  0.854831  0.340262  0.340261  1
  Al  Al9  1  0.340262  0.854831  0.340261  1
  Al  Al10  1  0.659738  0.145170  0.659739  1
  Al  Al11  1  0.145170  0.659738  0.659739  1
  Al  Al12  1  0.291451  0.000000  0.708550  1
  Al  Al13  1  0.000000  0.291451  0.708550  1
  Al  Al14  1  0.340262  0.340262  0.854830  1
  Al  Al15  1  0.898035  0.898035  0.898035  1
  Rh  Rh16  1  0.500001  0.000000  0.000000  1
  Rh  Rh17  1  0.000000  0.500001  0.000000  1
  Rh  Rh18  1  0.000000  0.000000  0.500000  1
