# generated using pymatgen
data_Tb11In9Co3Ru
_symmetry_space_group_name_H-M   'P 1'
_cell_length_a   3.70104000
_cell_length_b   13.01654222
_cell_length_c   13.05245064
_cell_angle_alpha   111.76125107
_cell_angle_beta   90.00000000
_cell_angle_gamma   90.00000000
_symmetry_Int_Tables_number   1
_chemical_formula_structural   Tb11In9Co3Ru
_chemical_formula_sum   'Tb11 In9 Co3 Ru1'
_cell_volume   583.98825073
_cell_formula_units_Z   1
loop_
 _symmetry_equiv_pos_site_id
 _symmetry_equiv_pos_as_xyz
  1  'x, y, z'
loop_
 _atom_site_type_symbol
 _atom_site_label
 _atom_site_symmetry_multiplicity
 _atom_site_fract_x
 _atom_site_fract_y
 _atom_site_fract_z
 _atom_site_occupancy
  Tb  Tb0  1  0.000000  0.916455  0.580388  1
  Tb  Tb1  1  0.000000  0.082666  0.419860  1
  Tb  Tb2  1  0.000000  0.580704  0.916214  1
  Tb  Tb3  1  0.000000  0.419065  0.080642  1
  Tb  Tb4  1  0.000000  0.161270  0.837891  1
  Tb  Tb5  1  0.000000  0.839698  0.161242  1
  Tb  Tb6  1  0.000000  0.375565  0.624830  1
  Tb  Tb7  1  0.000000  0.626418  0.377957  1
  Tb  Tb8  1  0.000000  0.685374  0.685688  1
  Tb  Tb9  1  0.000000  0.313355  0.315717  1
  Tb  Tb10  1  0.000000  0.999441  0.000139  1
  In  In11  1  0.500000  0.158964  0.630563  1
  In  In12  1  0.500000  0.841489  0.367667  1
  In  In13  1  0.500000  0.632166  0.158270  1
  In  In14  1  0.500000  0.368930  0.838042  1
  In  In15  1  0.500000  0.922016  0.779458  1
  In  In16  1  0.500000  0.077479  0.220969  1
  In  In17  1  0.500000  0.778485  0.920200  1
  In  In18  1  0.500000  0.220355  0.077892  1
  In  In19  1  0.500000  0.499539  0.502896  1
  Co  Co20  1  0.500000  0.751761  0.547546  1
  Co  Co21  1  0.500000  0.247069  0.450735  1
  Co  Co22  1  0.500000  0.549428  0.752723  1
  Ru  Ru23  1  0.500000  0.452306  0.252471  1
