# generated using pymatgen
data_PrTh3(CdPt2)2
_symmetry_space_group_name_H-M   'P 1'
_cell_length_a   7.99438790
_cell_length_b   7.99438862
_cell_length_c   3.81913300
_cell_angle_alpha   90.00000000
_cell_angle_beta   90.00000000
_cell_angle_gamma   88.84496771
_symmetry_Int_Tables_number   1
_chemical_formula_structural   PrTh3(CdPt2)2
_chemical_formula_sum   'Pr1 Th3 Cd2 Pt4'
_cell_volume   244.03212583
_cell_formula_units_Z   1
loop_
 _symmetry_equiv_pos_site_id
 _symmetry_equiv_pos_as_xyz
  1  'x, y, z'
loop_
 _atom_site_type_symbol
 _atom_site_label
 _atom_site_symmetry_multiplicity
 _atom_site_fract_x
 _atom_site_fract_y
 _atom_site_fract_z
 _atom_site_occupancy
  Pr  Pr0  1  0.673894  0.173894  0.500000  1
  Th  Th1  1  0.328635  0.828635  0.500000  1
  Th  Th2  1  0.826824  0.672046  0.500000  1
  Th  Th3  1  0.172046  0.326824  0.500000  1
  Cd  Cd4  1  0.996808  0.000317  0.000000  1
  Cd  Cd5  1  0.500317  0.496808  0.000000  1
  Pt  Pt6  1  0.362448  0.124767  0.000000  1
  Pt  Pt7  1  0.880488  0.380488  0.000000  1
  Pt  Pt8  1  0.133774  0.633774  0.000000  1
  Pt  Pt9  1  0.624767  0.862448  0.000000  1
