# generated using pymatgen
data_La2Si(Pd6Au)2
_symmetry_space_group_name_H-M   'P 1'
_cell_length_a   9.16390400
_cell_length_b   9.16390400
_cell_length_c   7.10231400
_cell_angle_alpha   90.00000000
_cell_angle_beta   90.00000000
_cell_angle_gamma   90.00000000
_symmetry_Int_Tables_number   1
_chemical_formula_structural   La2Si(Pd6Au)2
_chemical_formula_sum   'La4 Si2 Pd24 Au4'
_cell_volume   596.43199239
_cell_formula_units_Z   2
loop_
 _symmetry_equiv_pos_site_id
 _symmetry_equiv_pos_as_xyz
  1  'x, y, z'
loop_
 _atom_site_type_symbol
 _atom_site_label
 _atom_site_symmetry_multiplicity
 _atom_site_fract_x
 _atom_site_fract_y
 _atom_site_fract_z
 _atom_site_occupancy
  La  La0  1  0.500000  0.000000  0.931668  1
  La  La1  1  0.000000  0.500000  0.068332  1
  La  La2  1  0.000000  0.000000  0.500000  1
  La  La3  1  0.500000  0.500000  0.500000  1
  Si  Si4  1  0.500000  0.000000  0.444722  1
  Si  Si5  1  0.000000  0.500000  0.555278  1
  Pd  Pd6  1  0.336613  0.836613  0.611810  1
  Pd  Pd7  1  0.336613  0.163387  0.611810  1
  Pd  Pd8  1  0.663387  0.836613  0.611810  1
  Pd  Pd9  1  0.663387  0.163387  0.611810  1
  Pd  Pd10  1  0.163387  0.663387  0.388190  1
  Pd  Pd11  1  0.163387  0.336613  0.388190  1
  Pd  Pd12  1  0.836613  0.663387  0.388190  1
  Pd  Pd13  1  0.836613  0.336613  0.388190  1
  Pd  Pd14  1  0.500000  0.771042  0.258847  1
  Pd  Pd15  1  0.500000  0.228958  0.258847  1
  Pd  Pd16  1  0.271042  0.000000  0.258847  1
  Pd  Pd17  1  0.728958  0.000000  0.258847  1
  Pd  Pd18  1  0.000000  0.728958  0.741153  1
  Pd  Pd19  1  0.000000  0.271042  0.741153  1
  Pd  Pd20  1  0.228958  0.500000  0.741153  1
  Pd  Pd21  1  0.771042  0.500000  0.741153  1
  Pd  Pd22  1  0.500000  0.349943  0.852830  1
  Pd  Pd23  1  0.500000  0.650057  0.852830  1
  Pd  Pd24  1  0.849943  0.000000  0.852830  1
  Pd  Pd25  1  0.150057  0.000000  0.852830  1
  Pd  Pd26  1  0.000000  0.150057  0.147170  1
  Pd  Pd27  1  0.000000  0.849943  0.147170  1
  Pd  Pd28  1  0.650057  0.500000  0.147170  1
  Pd  Pd29  1  0.349943  0.500000  0.147170  1
  Au  Au30  1  0.250000  0.750000  0.000000  1
  Au  Au31  1  0.250000  0.250000  0.000000  1
  Au  Au32  1  0.750000  0.750000  0.000000  1
  Au  Au33  1  0.750000  0.250000  0.000000  1
