# generated using pymatgen
data_Er3Tm9(RuRh)2
_symmetry_space_group_name_H-M   'P 1'
_cell_length_a   6.27190585
_cell_length_b   7.20285885
_cell_length_c   9.05453100
_cell_angle_alpha   90.00000000
_cell_angle_beta   90.00000000
_cell_angle_gamma   90.11047892
_symmetry_Int_Tables_number   1
_chemical_formula_structural   Er3Tm9(RuRh)2
_chemical_formula_sum   'Er3 Tm9 Ru2 Rh2'
_cell_volume   409.04358602
_cell_formula_units_Z   1
loop_
 _symmetry_equiv_pos_site_id
 _symmetry_equiv_pos_as_xyz
  1  'x, y, z'
loop_
 _atom_site_type_symbol
 _atom_site_label
 _atom_site_symmetry_multiplicity
 _atom_site_fract_x
 _atom_site_fract_y
 _atom_site_fract_z
 _atom_site_occupancy
  Er  Er0  1  0.628318  0.036621  0.250000  1
  Er  Er1  1  0.371083  0.962983  0.750000  1
  Er  Er2  1  0.129079  0.462965  0.750000  1
  Tm  Tm3  1  0.871233  0.537014  0.250000  1
  Tm  Tm4  1  0.168836  0.176389  0.062561  1
  Tm  Tm5  1  0.830508  0.823480  0.937957  1
  Tm  Tm6  1  0.675308  0.320050  0.936482  1
  Tm  Tm7  1  0.830508  0.823480  0.562043  1
  Tm  Tm8  1  0.324118  0.680243  0.064614  1
  Tm  Tm9  1  0.168836  0.176389  0.437439  1
  Tm  Tm10  1  0.324118  0.680243  0.435386  1
  Tm  Tm11  1  0.675308  0.320050  0.563518  1
  Ru  Ru12  1  0.961197  0.115321  0.750000  1
  Ru  Ru13  1  0.038265  0.884250  0.250000  1
  Rh  Rh14  1  0.458903  0.388355  0.250000  1
  Rh  Rh15  1  0.544381  0.612167  0.750000  1
