# generated using pymatgen
data_Ho6Lu4In8IrPt3
_symmetry_space_group_name_H-M   'P 1'
_cell_length_a   3.60535400
_cell_length_b   8.09838207
_cell_length_c   18.07049603
_cell_angle_alpha   89.99561019
_cell_angle_beta   90.00000000
_cell_angle_gamma   90.00000000
_symmetry_Int_Tables_number   1
_chemical_formula_structural   Ho6Lu4In8IrPt3
_chemical_formula_sum   'Ho6 Lu4 In8 Ir1 Pt3'
_cell_volume   527.61392430
_cell_formula_units_Z   1
loop_
 _symmetry_equiv_pos_site_id
 _symmetry_equiv_pos_as_xyz
  1  'x, y, z'
loop_
 _atom_site_type_symbol
 _atom_site_label
 _atom_site_symmetry_multiplicity
 _atom_site_fract_x
 _atom_site_fract_y
 _atom_site_fract_z
 _atom_site_occupancy
  Ho  Ho0  1  0.000000  0.233928  0.221437  1
  Ho  Ho1  1  0.000000  0.760233  0.780688  1
  Ho  Ho2  1  0.000000  0.259754  0.720070  1
  Ho  Ho3  1  0.000000  0.749577  0.279881  1
  Ho  Ho4  1  0.000000  0.999452  0.000084  1
  Ho  Ho5  1  0.000000  0.500409  0.499250  1
  Lu  Lu6  1  0.000000  0.113759  0.411516  1
  Lu  Lu7  1  0.000000  0.883664  0.585391  1
  Lu  Lu8  1  0.000000  0.384614  0.914766  1
  Lu  Lu9  1  0.000000  0.615730  0.087211  1
  In  In10  1  0.500000  0.420759  0.351094  1
  In  In11  1  0.500000  0.579328  0.648484  1
  In  In12  1  0.500000  0.079807  0.851968  1
  In  In13  1  0.500000  0.923777  0.148804  1
  In  In14  1  0.500000  0.293962  0.064981  1
  In  In15  1  0.500000  0.705226  0.936189  1
  In  In16  1  0.500000  0.205178  0.564641  1
  In  In17  1  0.500000  0.795935  0.433591  1
  Ir  Ir18  1  0.500000  0.021510  0.304807  1
  Pt  Pt19  1  0.500000  0.975893  0.694610  1
  Pt  Pt20  1  0.500000  0.475857  0.805054  1
  Pt  Pt21  1  0.500000  0.521648  0.195484  1
