# generated using pymatgen
data_ThUPa2(Al3Ir)6
_symmetry_space_group_name_H-M   'P 1'
_cell_length_a   7.63471830
_cell_length_b   7.63752875
_cell_length_c   9.44088600
_cell_angle_alpha   90.00000000
_cell_angle_beta   90.00000000
_cell_angle_gamma   119.69322635
_symmetry_Int_Tables_number   1
_chemical_formula_structural   ThUPa2(Al3Ir)6
_chemical_formula_sum   'Th1 U1 Pa2 Al18 Ir6'
_cell_volume   478.21532802
_cell_formula_units_Z   1
loop_
 _symmetry_equiv_pos_site_id
 _symmetry_equiv_pos_as_xyz
  1  'x, y, z'
loop_
 _atom_site_type_symbol
 _atom_site_label
 _atom_site_symmetry_multiplicity
 _atom_site_fract_x
 _atom_site_fract_y
 _atom_site_fract_z
 _atom_site_occupancy
  Th  Th0  1  0.669288  0.995088  0.750000  1
  U  U1  1  0.328272  0.004656  0.250000  1
  Pa  Pa2  1  0.997784  0.671044  0.750000  1
  Pa  Pa3  1  0.002497  0.328844  0.250000  1
  Al  Al4  1  0.132726  0.129159  0.750000  1
  Al  Al5  1  0.872849  0.872034  0.250000  1
  Al  Al6  1  0.004801  0.337188  0.572420  1
  Al  Al7  1  0.000309  0.667631  0.424066  1
  Al  Al8  1  0.000309  0.667631  0.075934  1
  Al  Al9  1  0.333248  0.003611  0.929858  1
  Al  Al10  1  0.004801  0.337188  0.927580  1
  Al  Al11  1  0.662987  0.996229  0.078500  1
  Al  Al12  1  0.662987  0.996229  0.421500  1
  Al  Al13  1  0.333248  0.003611  0.570142  1
  Al  Al14  1  0.334163  0.334223  0.054629  1
  Al  Al15  1  0.665097  0.662675  0.949905  1
  Al  Al16  1  0.665097  0.662675  0.550095  1
  Al  Al17  1  0.334163  0.334223  0.445371  1
  Al  Al18  1  0.337588  0.542346  0.750000  1
  Al  Al19  1  0.659317  0.451899  0.250000  1
  Al  Al20  1  0.548091  0.342950  0.750000  1
  Al  Al21  1  0.450950  0.658758  0.250000  1
  Ir  Ir22  1  0.674495  0.328968  0.499590  1
  Ir  Ir23  1  0.327867  0.671868  0.501678  1
  Ir  Ir24  1  0.327867  0.671868  0.998322  1
  Ir  Ir25  1  0.674495  0.328968  0.000410  1
  Ir  Ir26  1  0.997351  0.999217  0.501903  1
  Ir  Ir27  1  0.997351  0.999217  0.998097  1
