# generated using pymatgen
data_Zr2TiCo5B2
_symmetry_space_group_name_H-M   'P 1'
_cell_length_a   8.70957200
_cell_length_b   8.70957200
_cell_length_c   3.13943200
_cell_angle_alpha   90.00000000
_cell_angle_beta   90.00000000
_cell_angle_gamma   90.00000000
_symmetry_Int_Tables_number   1
_chemical_formula_structural   Zr2TiCo5B2
_chemical_formula_sum   'Zr4 Ti2 Co10 B4'
_cell_volume   238.14677691
_cell_formula_units_Z   2
loop_
 _symmetry_equiv_pos_site_id
 _symmetry_equiv_pos_as_xyz
  1  'x, y, z'
loop_
 _atom_site_type_symbol
 _atom_site_label
 _atom_site_symmetry_multiplicity
 _atom_site_fract_x
 _atom_site_fract_y
 _atom_site_fract_z
 _atom_site_occupancy
  Zr  Zr0  1  0.823382  0.323382  0.000000  1
  Zr  Zr1  1  0.323382  0.176618  0.000000  1
  Zr  Zr2  1  0.676618  0.823382  0.000000  1
  Zr  Zr3  1  0.176618  0.676618  0.000000  1
  Ti  Ti4  1  0.000000  0.000000  0.000000  1
  Ti  Ti5  1  0.500000  0.500000  0.000000  1
  Co  Co6  1  0.500000  0.000000  0.500000  1
  Co  Co7  1  0.000000  0.500000  0.500000  1
  Co  Co8  1  0.069205  0.223275  0.500000  1
  Co  Co9  1  0.223275  0.930795  0.500000  1
  Co  Co10  1  0.776725  0.069205  0.500000  1
  Co  Co11  1  0.930795  0.776725  0.500000  1
  Co  Co12  1  0.430795  0.723275  0.500000  1
  Co  Co13  1  0.569205  0.276725  0.500000  1
  Co  Co14  1  0.723275  0.569205  0.500000  1
  Co  Co15  1  0.276725  0.430795  0.500000  1
  B  B16  1  0.617964  0.117964  0.000000  1
  B  B17  1  0.117964  0.382036  0.000000  1
  B  B18  1  0.882036  0.617964  0.000000  1
  B  B19  1  0.382036  0.882036  0.000000  1
