# generated using pymatgen
data_Ac5MnPtO12
_symmetry_space_group_name_H-M   'P 1'
_cell_length_a   7.30916564
_cell_length_b   7.30916464
_cell_length_c   7.81842800
_cell_angle_alpha   74.55544953
_cell_angle_beta   74.55545983
_cell_angle_gamma   50.28316814
_symmetry_Int_Tables_number   1
_chemical_formula_structural   Ac5MnPtO12
_chemical_formula_sum   'Ac5 Mn1 Pt1 O12'
_cell_volume   307.07602343
_cell_formula_units_Z   1
loop_
 _symmetry_equiv_pos_site_id
 _symmetry_equiv_pos_as_xyz
  1  'x, y, z'
loop_
 _atom_site_type_symbol
 _atom_site_label
 _atom_site_symmetry_multiplicity
 _atom_site_fract_x
 _atom_site_fract_y
 _atom_site_fract_z
 _atom_site_occupancy
  Ac  Ac0  1  0.314695  0.305116  0.354203  1
  Ac  Ac1  1  0.694884  0.685305  0.645797  1
  Ac  Ac2  1  0.693963  0.693867  0.162210  1
  Ac  Ac3  1  0.306133  0.306037  0.837790  1
  Ac  Ac4  1  0.000305  0.999695  0.500000  1
  Mn  Mn5  1  0.755862  0.244138  0.000000  1
  Pt  Pt6  1  0.242557  0.757443  0.000000  1
  O  O7  1  0.096883  0.597267  0.577456  1
  O  O8  1  0.989516  0.009191  0.164399  1
  O  O9  1  0.402733  0.903117  0.422544  1
  O  O10  1  0.506180  0.496065  0.163598  1
  O  O11  1  0.098262  0.588126  0.076289  1
  O  O12  1  0.907462  0.400458  0.420933  1
  O  O13  1  0.990809  0.010484  0.835601  1
  O  O14  1  0.599542  0.092537  0.579067  1
  O  O15  1  0.503935  0.493820  0.836402  1
  O  O16  1  0.590030  0.105628  0.074387  1
  O  O17  1  0.411874  0.901738  0.923711  1
  O  O18  1  0.894372  0.409970  0.925613  1
