# generated using pymatgen
data_Tm2Al20Os3Rh
_symmetry_space_group_name_H-M   'P 1'
_cell_length_a   6.84378971
_cell_length_b   6.83309971
_cell_length_c   9.11571989
_cell_angle_alpha   90.34571740
_cell_angle_beta   90.43199583
_cell_angle_gamma   96.56692280
_symmetry_Int_Tables_number   1
_chemical_formula_structural   Tm2Al20Os3Rh
_chemical_formula_sum   'Tm2 Al20 Os3 Rh1'
_cell_volume   423.47108621
_cell_formula_units_Z   1
loop_
 _symmetry_equiv_pos_site_id
 _symmetry_equiv_pos_as_xyz
  1  'x, y, z'
loop_
 _atom_site_type_symbol
 _atom_site_label
 _atom_site_symmetry_multiplicity
 _atom_site_fract_x
 _atom_site_fract_y
 _atom_site_fract_z
 _atom_site_occupancy
  Tm  Tm0  1  0.870555  0.132160  0.749084  1
  Tm  Tm1  1  0.129445  0.867840  0.250916  1
  Al  Al2  1  0.517849  0.780645  0.748120  1
  Al  Al3  1  0.782768  0.517941  0.249417  1
  Al  Al4  1  0.482151  0.219355  0.251880  1
  Al  Al5  1  0.217232  0.482059  0.750583  1
  Al  Al6  1  0.624285  0.378329  0.952199  1
  Al  Al7  1  0.375715  0.621671  0.047801  1
  Al  Al8  1  0.623798  0.376591  0.546225  1
  Al  Al9  1  0.376202  0.623409  0.453775  1
  Al  Al10  1  0.416943  0.148710  0.749857  1
  Al  Al11  1  0.147524  0.416139  0.250272  1
  Al  Al12  1  0.583057  0.851290  0.250143  1
  Al  Al13  1  0.852476  0.583861  0.749728  1
  Al  Al14  1  0.845210  0.153964  0.399013  1
  Al  Al15  1  0.154790  0.846036  0.600987  1
  Al  Al16  1  0.846168  0.155346  0.102669  1
  Al  Al17  1  0.153832  0.844654  0.897331  1
  Al  Al18  1  0.775968  0.775575  0.000472  1
  Al  Al19  1  0.777329  0.777229  0.499495  1
  Al  Al20  1  0.224032  0.224425  0.999528  1
  Al  Al21  1  0.222671  0.222771  0.500505  1
  Os  Os22  1  0.000000  0.500000  0.000000  1
  Os  Os23  1  0.500000  0.000000  0.500000  1
  Os  Os24  1  0.000000  0.500000  0.500000  1
  Rh  Rh25  1  0.500000  0.000000  0.000000  1
