# generated using pymatgen
data_Hf6Ga6FeNiPd4
_symmetry_space_group_name_H-M   'P 1'
_cell_length_a   7.21615100
_cell_length_b   7.21615068
_cell_length_c   6.66260500
_cell_angle_alpha   90.00000000
_cell_angle_beta   90.00000000
_cell_angle_gamma   119.99999689
_symmetry_Int_Tables_number   1
_chemical_formula_structural   Hf6Ga6FeNiPd4
_chemical_formula_sum   'Hf6 Ga6 Fe1 Ni1 Pd4'
_cell_volume   300.45948396
_cell_formula_units_Z   1
loop_
 _symmetry_equiv_pos_site_id
 _symmetry_equiv_pos_as_xyz
  1  'x, y, z'
loop_
 _atom_site_type_symbol
 _atom_site_label
 _atom_site_symmetry_multiplicity
 _atom_site_fract_x
 _atom_site_fract_y
 _atom_site_fract_z
 _atom_site_occupancy
  Hf  Hf0  1  0.743624  0.053869  0.995330  1
  Hf  Hf1  1  0.310244  0.256376  0.995330  1
  Hf  Hf2  1  0.946131  0.689756  0.995330  1
  Hf  Hf3  1  0.313742  0.258022  0.504433  1
  Hf  Hf4  1  0.741978  0.055720  0.504433  1
  Hf  Hf5  1  0.944280  0.686258  0.504433  1
  Ga  Ga6  1  0.608621  0.665999  0.749841  1
  Ga  Ga7  1  0.057378  0.391379  0.749841  1
  Ga  Ga8  1  0.334001  0.942622  0.749841  1
  Ga  Ga9  1  0.607752  0.665204  0.250112  1
  Ga  Ga10  1  0.057453  0.392248  0.250112  1
  Ga  Ga11  1  0.334796  0.942547  0.250112  1
  Fe  Fe12  1  0.000000  0.000000  0.748030  1
  Ni  Ni13  1  0.000000  0.000000  0.253382  1
  Pd  Pd14  1  0.333333  0.666667  0.999057  1
  Pd  Pd15  1  0.333333  0.666667  0.500761  1
  Pd  Pd16  1  0.666667  0.333333  0.753327  1
  Pd  Pd17  1  0.666667  0.333333  0.246295  1
