# generated using pymatgen
data_Rb2HfMg3As4
_symmetry_space_group_name_H-M   'P 1'
_cell_length_a   8.03836750
_cell_length_b   8.03836679
_cell_length_c   6.33851600
_cell_angle_alpha   90.00000000
_cell_angle_beta   90.00000000
_cell_angle_gamma   133.54660229
_symmetry_Int_Tables_number   1
_chemical_formula_structural   Rb2HfMg3As4
_chemical_formula_sum   'Rb2 Hf1 Mg3 As4'
_cell_volume   296.85884263
_cell_formula_units_Z   1
loop_
 _symmetry_equiv_pos_site_id
 _symmetry_equiv_pos_as_xyz
  1  'x, y, z'
loop_
 _atom_site_type_symbol
 _atom_site_label
 _atom_site_symmetry_multiplicity
 _atom_site_fract_x
 _atom_site_fract_y
 _atom_site_fract_z
 _atom_site_occupancy
  Rb  Rb0  1  0.500000  0.000000  0.252058  1
  Rb  Rb1  1  0.000000  0.500000  0.747942  1
  Hf  Hf2  1  0.000000  0.000000  0.000000  1
  Mg  Mg3  1  0.500000  0.500000  0.500000  1
  Mg  Mg4  1  0.500000  0.500000  0.000000  1
  Mg  Mg5  1  0.000000  0.000000  0.500000  1
  As  As6  1  0.658456  0.858735  0.758720  1
  As  As7  1  0.141265  0.341544  0.241280  1
  As  As8  1  0.858735  0.658456  0.241280  1
  As  As9  1  0.341544  0.141265  0.758720  1
