# generated using pymatgen
data_Tb3UGa12Ag
_symmetry_space_group_name_H-M   'P 1'
_cell_length_a   7.51618152
_cell_length_b   7.51618104
_cell_length_c   7.51618124
_cell_angle_alpha   109.35183744
_cell_angle_beta   109.35183939
_cell_angle_gamma   109.35183397
_symmetry_Int_Tables_number   1
_chemical_formula_structural   Tb3UGa12Ag
_chemical_formula_sum   'Tb3 U1 Ga12 Ag1'
_cell_volume   328.30289428
_cell_formula_units_Z   1
loop_
 _symmetry_equiv_pos_site_id
 _symmetry_equiv_pos_as_xyz
  1  'x, y, z'
loop_
 _atom_site_type_symbol
 _atom_site_label
 _atom_site_symmetry_multiplicity
 _atom_site_fract_x
 _atom_site_fract_y
 _atom_site_fract_z
 _atom_site_occupancy
  Tb  Tb0  1  0.000000  0.000000  0.500000  1
  Tb  Tb1  1  0.000000  0.500000  0.000000  1
  Tb  Tb2  1  0.500000  0.000000  0.000000  1
  U  U3  1  0.500000  0.500000  0.500000  1
  Ga  Ga4  1  0.500000  0.748594  0.251406  1
  Ga  Ga5  1  0.500000  0.251406  0.748594  1
  Ga  Ga6  1  0.251406  0.500000  0.748594  1
  Ga  Ga7  1  0.748594  0.500000  0.251406  1
  Ga  Ga8  1  0.748594  0.251406  0.500000  1
  Ga  Ga9  1  0.251406  0.748594  0.500000  1
  Ga  Ga10  1  0.003512  0.306211  0.306211  1
  Ga  Ga11  1  0.996488  0.693789  0.693789  1
  Ga  Ga12  1  0.306211  0.003512  0.306211  1
  Ga  Ga13  1  0.693789  0.996488  0.693789  1
  Ga  Ga14  1  0.306211  0.306211  0.003512  1
  Ga  Ga15  1  0.693789  0.693789  0.996488  1
  Ag  Ag16  1  0.000000  0.000000  0.000000  1
