# generated using pymatgen
data_Ta3Zn2GaIr3
_symmetry_space_group_name_H-M   'P 1'
_cell_length_a   7.46199592
_cell_length_b   7.45056203
_cell_length_c   2.92032800
_cell_angle_alpha   90.00000000
_cell_angle_beta   90.00000000
_cell_angle_gamma   119.94932278
_symmetry_Int_Tables_number   1
_chemical_formula_structural   Ta3Zn2GaIr3
_chemical_formula_sum   'Ta3 Zn2 Ga1 Ir3'
_cell_volume   140.67854096
_cell_formula_units_Z   1
loop_
 _symmetry_equiv_pos_site_id
 _symmetry_equiv_pos_as_xyz
  1  'x, y, z'
loop_
 _atom_site_type_symbol
 _atom_site_label
 _atom_site_symmetry_multiplicity
 _atom_site_fract_x
 _atom_site_fract_y
 _atom_site_fract_z
 _atom_site_occupancy
  Ta  Ta0  1  0.371860  0.004309  0.500001  1
  Ta  Ta1  1  0.000000  0.361400  0.500001  1
  Ta  Ta2  1  0.628140  0.632450  0.500001  1
  Zn  Zn3  1  0.704548  0.999545  0.000000  1
  Zn  Zn4  1  0.295452  0.294997  0.000000  1
  Ga  Ga5  1  0.000000  0.706670  0.000000  1
  Ir  Ir6  1  0.669253  0.336299  0.000000  1
  Ir  Ir7  1  0.330748  0.667046  0.000000  1
  Ir  Ir8  1  0.000000  0.997287  0.500001  1
