# generated using pymatgen
data_AlBi6(RuO9)2
_symmetry_space_group_name_H-M   'P 1'
_cell_length_a   9.15389700
_cell_length_b   9.15389708
_cell_length_c   5.20618500
_cell_angle_alpha   90.00000000
_cell_angle_beta   90.00000000
_cell_angle_gamma   119.99999899
_symmetry_Int_Tables_number   1
_chemical_formula_structural   AlBi6(RuO9)2
_chemical_formula_sum   'Al1 Bi6 Ru2 O18'
_cell_volume   377.80028356
_cell_formula_units_Z   1
loop_
 _symmetry_equiv_pos_site_id
 _symmetry_equiv_pos_as_xyz
  1  'x, y, z'
loop_
 _atom_site_type_symbol
 _atom_site_label
 _atom_site_symmetry_multiplicity
 _atom_site_fract_x
 _atom_site_fract_y
 _atom_site_fract_z
 _atom_site_occupancy
  Al  Al0  1  0.666667  0.333333  0.994987  1
  Bi  Bi1  1  0.980929  0.373594  0.500249  1
  Bi  Bi2  1  0.295086  0.287560  0.003786  1
  Bi  Bi3  1  0.992473  0.704914  0.003786  1
  Bi  Bi4  1  0.626406  0.607335  0.500249  1
  Bi  Bi5  1  0.392665  0.019071  0.500249  1
  Bi  Bi6  1  0.712440  0.007527  0.003786  1
  Ru  Ru7  1  0.000000  0.000000  0.510849  1
  Ru  Ru8  1  0.333333  0.666667  0.000284  1
  O  O9  1  0.077226  0.197235  0.715123  1
  O  O10  1  0.232335  0.468368  0.216110  1
  O  O11  1  0.135396  0.598792  0.786957  1
  O  O12  1  0.401208  0.536604  0.786957  1
  O  O13  1  0.236033  0.767665  0.216110  1
  O  O14  1  0.120007  0.922774  0.715123  1
  O  O15  1  0.531632  0.763967  0.216110  1
  O  O16  1  0.200236  0.076252  0.286553  1
  O  O17  1  0.463396  0.864604  0.786957  1
  O  O18  1  0.802765  0.879993  0.715123  1
  O  O19  1  0.466401  0.234295  0.779187  1
  O  O20  1  0.599576  0.137377  0.209993  1
  O  O21  1  0.537801  0.400424  0.209993  1
  O  O22  1  0.765705  0.232107  0.779187  1
  O  O23  1  0.923748  0.123983  0.286553  1
  O  O24  1  0.767893  0.533599  0.779187  1
  O  O25  1  0.862623  0.462199  0.209993  1
  O  O26  1  0.876017  0.799764  0.286553  1
