# generated using pymatgen
data_Tm16CdHg3Pt4
_symmetry_space_group_name_H-M   'P 1'
_cell_length_a   9.51939974
_cell_length_b   9.51961837
_cell_length_c   9.51961800
_cell_angle_alpha   60.00000127
_cell_angle_beta   59.99924156
_cell_angle_gamma   59.99924346
_symmetry_Int_Tables_number   1
_chemical_formula_structural   Tm16CdHg3Pt4
_chemical_formula_sum   'Tm16 Cd1 Hg3 Pt4'
_cell_volume   609.99834664
_cell_formula_units_Z   1
loop_
 _symmetry_equiv_pos_site_id
 _symmetry_equiv_pos_as_xyz
  1  'x, y, z'
loop_
 _atom_site_type_symbol
 _atom_site_label
 _atom_site_symmetry_multiplicity
 _atom_site_fract_x
 _atom_site_fract_y
 _atom_site_fract_z
 _atom_site_occupancy
  Tm  Tm0  1  0.355125  0.354084  0.354084  1
  Tm  Tm1  1  0.355125  0.354084  0.936708  1
  Tm  Tm2  1  0.355125  0.936708  0.354084  1
  Tm  Tm3  1  0.934085  0.355305  0.355305  1
  Tm  Tm4  1  0.810941  0.188930  0.188930  1
  Tm  Tm5  1  0.188054  0.811609  0.811609  1
  Tm  Tm6  1  0.188054  0.811609  0.188728  1
  Tm  Tm7  1  0.810941  0.188930  0.811199  1
  Tm  Tm8  1  0.188054  0.188728  0.811609  1
  Tm  Tm9  1  0.810941  0.811199  0.188930  1
  Tm  Tm10  1  0.933602  0.565410  0.565410  1
  Tm  Tm11  1  0.564739  0.935108  0.935108  1
  Tm  Tm12  1  0.564739  0.935108  0.565044  1
  Tm  Tm13  1  0.933602  0.565410  0.935579  1
  Tm  Tm14  1  0.564739  0.565044  0.935108  1
  Tm  Tm15  1  0.933602  0.935579  0.565410  1
  Cd  Cd16  1  0.253084  0.582305  0.582305  1
  Hg  Hg17  1  0.585359  0.587190  0.587190  1
  Hg  Hg18  1  0.585359  0.587190  0.240261  1
  Hg  Hg19  1  0.585359  0.240261  0.587190  1
  Pt  Pt20  1  0.143625  0.144117  0.144117  1
  Pt  Pt21  1  0.143625  0.144117  0.568142  1
  Pt  Pt22  1  0.143625  0.568142  0.144117  1
  Pt  Pt23  1  0.568498  0.143834  0.143834  1
