# generated using pymatgen
data_Er3Tm(Co3Si5)2
_symmetry_space_group_name_H-M   'P 1'
_cell_length_a   7.83700512
_cell_length_b   7.83617241
_cell_length_c   5.49204424
_cell_angle_alpha   70.81513926
_cell_angle_beta   70.81453162
_cell_angle_gamma   93.46702446
_symmetry_Int_Tables_number   1
_chemical_formula_structural   Er3Tm(Co3Si5)2
_chemical_formula_sum   'Er3 Tm1 Co6 Si10'
_cell_volume   295.44029182
_cell_formula_units_Z   1
loop_
 _symmetry_equiv_pos_site_id
 _symmetry_equiv_pos_as_xyz
  1  'x, y, z'
loop_
 _atom_site_type_symbol
 _atom_site_label
 _atom_site_symmetry_multiplicity
 _atom_site_fract_x
 _atom_site_fract_y
 _atom_site_fract_z
 _atom_site_occupancy
  Er  Er0  1  0.869987  0.597850  0.763177  1
  Er  Er1  1  0.402255  0.129732  0.737015  1
  Er  Er2  1  0.130340  0.402571  0.236723  1
  Tm  Tm3  1  0.597833  0.870014  0.262983  1
  Co  Co4  1  0.538926  0.262038  0.125441  1
  Co  Co5  1  0.996341  0.003572  0.250019  1
  Co  Co6  1  0.262209  0.538902  0.625332  1
  Co  Co7  1  0.461151  0.737787  0.874627  1
  Co  Co8  1  0.737660  0.461155  0.374590  1
  Co  Co9  1  0.003607  0.996362  0.750005  1
  Si  Si10  1  0.771224  0.228729  0.749967  1
  Si  Si11  1  0.228868  0.771279  0.249916  1
  Si  Si12  1  0.510906  0.489118  0.749873  1
  Si  Si13  1  0.488932  0.511113  0.250170  1
  Si  Si14  1  0.214569  0.785579  0.749892  1
  Si  Si15  1  0.785486  0.214409  0.250120  1
  Si  Si16  1  0.064462  0.262045  0.834403  1
  Si  Si17  1  0.262192  0.064436  0.334488  1
  Si  Si18  1  0.935348  0.737867  0.165546  1
  Si  Si19  1  0.737703  0.935445  0.665715  1
