# generated using pymatgen
data_TbCe2In3CuRh2
_symmetry_space_group_name_H-M   'P 1'
_cell_length_a   7.50950800
_cell_length_b   7.65854220
_cell_length_c   3.92865600
_cell_angle_alpha   90.00000000
_cell_angle_beta   90.00000000
_cell_angle_gamma   119.35833387
_symmetry_Int_Tables_number   1
_chemical_formula_structural   TbCe2In3CuRh2
_chemical_formula_sum   'Tb1 Ce2 In3 Cu1 Rh2'
_cell_volume   196.92649660
_cell_formula_units_Z   1
loop_
 _symmetry_equiv_pos_site_id
 _symmetry_equiv_pos_as_xyz
  1  'x, y, z'
loop_
 _atom_site_type_symbol
 _atom_site_label
 _atom_site_symmetry_multiplicity
 _atom_site_fract_x
 _atom_site_fract_y
 _atom_site_fract_z
 _atom_site_occupancy
  Tb  Tb0  1  0.411150  0.000000  0.500000  1
  Ce  Ce1  1  0.999496  0.418058  0.500000  1
  Ce  Ce2  1  0.581438  0.581942  0.500000  1
  In  In3  1  0.742457  0.000000  0.000000  1
  In  In4  1  0.007575  0.758187  0.000000  1
  In  In5  1  0.249388  0.241813  0.000000  1
  Cu  Cu6  1  0.994702  0.000000  0.500000  1
  Rh  Rh7  1  0.330969  0.648147  0.000000  1
  Rh  Rh8  1  0.682824  0.351853  0.000000  1
