# generated using pymatgen
data_Lu2Fe6Co6P7
_symmetry_space_group_name_H-M   'P 1'
_cell_length_a   3.59800700
_cell_length_b   8.92931422
_cell_length_c   8.93153502
_cell_angle_alpha   119.99490113
_cell_angle_beta   90.00000000
_cell_angle_gamma   90.00000000
_symmetry_Int_Tables_number   1
_chemical_formula_structural   Lu2Fe6Co6P7
_chemical_formula_sum   'Lu2 Fe6 Co6 P7'
_cell_volume   248.51874867
_cell_formula_units_Z   1
loop_
 _symmetry_equiv_pos_site_id
 _symmetry_equiv_pos_as_xyz
  1  'x, y, z'
loop_
 _atom_site_type_symbol
 _atom_site_label
 _atom_site_symmetry_multiplicity
 _atom_site_fract_x
 _atom_site_fract_y
 _atom_site_fract_z
 _atom_site_occupancy
  Lu  Lu0  1  0.000000  0.666829  0.333479  1
  Lu  Lu1  1  0.500000  0.333355  0.666471  1
  Fe  Fe2  1  0.000000  0.880111  0.725401  1
  Fe  Fe3  1  0.000000  0.275325  0.155208  1
  Fe  Fe4  1  0.000000  0.844429  0.120108  1
  Fe  Fe5  1  0.500000  0.128238  0.900182  1
  Fe  Fe6  1  0.500000  0.099037  0.226354  1
  Fe  Fe7  1  0.500000  0.772608  0.872349  1
  Co  Co8  1  0.000000  0.373143  0.938123  1
  Co  Co9  1  0.000000  0.061985  0.434989  1
  Co  Co10  1  0.000000  0.565229  0.626801  1
  Co  Co11  1  0.500000  0.948050  0.562823  1
  Co  Co12  1  0.500000  0.437137  0.385462  1
  Co  Co13  1  0.500000  0.614437  0.051740  1
  P  P14  1  0.000000  0.113083  0.705575  1
  P  P15  1  0.000000  0.294305  0.407509  1
  P  P16  1  0.000000  0.592338  0.886579  1
  P  P17  1  0.500000  0.711889  0.597246  1
  P  P18  1  0.500000  0.402986  0.114776  1
  P  P19  1  0.500000  0.885435  0.288279  1
  P  P20  1  0.000000  0.000051  0.000548  1
