# generated using pymatgen
data_YbDyY2(MnB4)4
_symmetry_space_group_name_H-M   'P 1'
_cell_length_a   5.91585451
_cell_length_b   11.43846703
_cell_length_c   3.39804800
_cell_angle_alpha   90.00000000
_cell_angle_beta   90.00000000
_cell_angle_gamma   90.01980347
_symmetry_Int_Tables_number   1
_chemical_formula_structural   YbDyY2(MnB4)4
_chemical_formula_sum   'Yb1 Dy1 Y2 Mn4 B16'
_cell_volume   229.94014074
_cell_formula_units_Z   1
loop_
 _symmetry_equiv_pos_site_id
 _symmetry_equiv_pos_as_xyz
  1  'x, y, z'
loop_
 _atom_site_type_symbol
 _atom_site_label
 _atom_site_symmetry_multiplicity
 _atom_site_fract_x
 _atom_site_fract_y
 _atom_site_fract_z
 _atom_site_occupancy
  Yb  Yb0  1  0.625286  0.349730  0.000000  1
  Dy  Dy1  1  0.874525  0.848981  0.000000  1
  Y  Y2  1  0.374904  0.649987  0.000000  1
  Y  Y3  1  0.126366  0.151397  0.000000  1
  Mn  Mn4  1  0.626979  0.082883  0.000000  1
  Mn  Mn5  1  0.373750  0.916522  0.000000  1
  Mn  Mn6  1  0.125614  0.418011  0.000000  1
  Mn  Mn7  1  0.874686  0.583023  0.000000  1
  B  B8  1  0.779779  0.184153  0.500000  1
  B  B9  1  0.219719  0.816399  0.500000  1
  B  B10  1  0.280940  0.316871  0.500000  1
  B  B11  1  0.719552  0.682939  0.500000  1
  B  B12  1  0.861786  0.032242  0.500000  1
  B  B13  1  0.138652  0.967567  0.500000  1
  B  B14  1  0.361948  0.467205  0.500000  1
  B  B15  1  0.638165  0.532078  0.500000  1
  B  B16  1  0.885932  0.453600  0.500000  1
  B  B17  1  0.111233  0.546086  0.500000  1
  B  B18  1  0.387994  0.046247  0.500000  1
  B  B19  1  0.611969  0.953336  0.500000  1
  B  B20  1  0.975016  0.309641  0.500000  1
  B  B21  1  0.024708  0.690642  0.500000  1
  B  B22  1  0.475381  0.191409  0.500000  1
  B  B23  1  0.525117  0.809049  0.500000  1
