# generated using pymatgen
data_Pr2YRh9
_symmetry_space_group_name_H-M   'P 1'
_cell_length_a   5.34117700
_cell_length_b   5.34117764
_cell_length_c   17.64075900
_cell_angle_alpha   90.00000000
_cell_angle_beta   90.00000000
_cell_angle_gamma   119.99998982
_symmetry_Int_Tables_number   1
_chemical_formula_structural   Pr2YRh9
_chemical_formula_sum   'Pr4 Y2 Rh18'
_cell_volume   435.83483164
_cell_formula_units_Z   2
loop_
 _symmetry_equiv_pos_site_id
 _symmetry_equiv_pos_as_xyz
  1  'x, y, z'
loop_
 _atom_site_type_symbol
 _atom_site_label
 _atom_site_symmetry_multiplicity
 _atom_site_fract_x
 _atom_site_fract_y
 _atom_site_fract_z
 _atom_site_occupancy
  Pr  Pr0  1  0.333333  0.666667  0.956852  1
  Pr  Pr1  1  0.666667  0.333333  0.043148  1
  Pr  Pr2  1  0.333333  0.666667  0.747526  1
  Pr  Pr3  1  0.666667  0.333333  0.252474  1
  Y  Y4  1  0.666667  0.333333  0.458974  1
  Y  Y5  1  0.333333  0.666667  0.541026  1
  Rh  Rh6  1  0.167554  0.832446  0.376236  1
  Rh  Rh7  1  0.167554  0.335107  0.376236  1
  Rh  Rh8  1  0.664893  0.832446  0.376236  1
  Rh  Rh9  1  0.832446  0.167554  0.623764  1
  Rh  Rh10  1  0.832446  0.664893  0.623764  1
  Rh  Rh11  1  0.335107  0.167554  0.623764  1
  Rh  Rh12  1  0.833530  0.166470  0.870400  1
  Rh  Rh13  1  0.833530  0.667061  0.870400  1
  Rh  Rh14  1  0.332939  0.166470  0.870400  1
  Rh  Rh15  1  0.166470  0.833530  0.129600  1
  Rh  Rh16  1  0.166470  0.332939  0.129600  1
  Rh  Rh17  1  0.667061  0.833530  0.129600  1
  Rh  Rh18  1  0.333333  0.666667  0.252296  1
  Rh  Rh19  1  0.666667  0.333333  0.747704  1
  Rh  Rh20  1  0.000000  0.000000  0.253067  1
  Rh  Rh21  1  0.000000  0.000000  0.746933  1
  Rh  Rh22  1  0.000000  0.000000  0.500000  1
  Rh  Rh23  1  0.000000  0.000000  0.000000  1
