# generated using pymatgen
data_Lu2Hf3(In2Pt)2
_symmetry_space_group_name_H-M   'P 1'
_cell_length_a   3.52440000
_cell_length_b   7.73638500
_cell_length_c   17.54307700
_cell_angle_alpha   90.00000000
_cell_angle_beta   90.00000000
_cell_angle_gamma   90.00000000
_symmetry_Int_Tables_number   1
_chemical_formula_structural   Lu2Hf3(In2Pt)2
_chemical_formula_sum   'Lu4 Hf6 In8 Pt4'
_cell_volume   478.33156009
_cell_formula_units_Z   2
loop_
 _symmetry_equiv_pos_site_id
 _symmetry_equiv_pos_as_xyz
  1  'x, y, z'
loop_
 _atom_site_type_symbol
 _atom_site_label
 _atom_site_symmetry_multiplicity
 _atom_site_fract_x
 _atom_site_fract_y
 _atom_site_fract_z
 _atom_site_occupancy
  Lu  Lu0  1  0.000000  0.248058  0.219678  1
  Lu  Lu1  1  0.000000  0.751942  0.780322  1
  Lu  Lu2  1  0.000000  0.251942  0.719678  1
  Lu  Lu3  1  0.000000  0.748058  0.280322  1
  Hf  Hf4  1  0.000000  0.127445  0.420029  1
  Hf  Hf5  1  0.000000  0.872555  0.579971  1
  Hf  Hf6  1  0.000000  0.372555  0.920029  1
  Hf  Hf7  1  0.000000  0.627445  0.079971  1
  Hf  Hf8  1  0.000000  0.000000  0.000000  1
  Hf  Hf9  1  0.000000  0.500000  0.500000  1
  In  In10  1  0.500000  0.427214  0.353301  1
  In  In11  1  0.500000  0.572786  0.646699  1
  In  In12  1  0.500000  0.072786  0.853301  1
  In  In13  1  0.500000  0.927214  0.146699  1
  In  In14  1  0.500000  0.296092  0.061337  1
  In  In15  1  0.500000  0.703908  0.938663  1
  In  In16  1  0.500000  0.203908  0.561337  1
  In  In17  1  0.500000  0.796092  0.438663  1
  Pt  Pt18  1  0.500000  0.037572  0.309382  1
  Pt  Pt19  1  0.500000  0.962428  0.690618  1
  Pt  Pt20  1  0.500000  0.462428  0.809382  1
  Pt  Pt21  1  0.500000  0.537572  0.190618  1
