# generated using pymatgen
data_Sc5Pa5(Sn3C)2
_symmetry_space_group_name_H-M   'P 1'
_cell_length_a   8.79701064
_cell_length_b   8.79701137
_cell_length_c   6.08717000
_cell_angle_alpha   90.00000000
_cell_angle_beta   90.00000000
_cell_angle_gamma   119.53026930
_symmetry_Int_Tables_number   1
_chemical_formula_structural   Sc5Pa5(Sn3C)2
_chemical_formula_sum   'Sc5 Pa5 Sn6 C2'
_cell_volume   409.87609314
_cell_formula_units_Z   1
loop_
 _symmetry_equiv_pos_site_id
 _symmetry_equiv_pos_as_xyz
  1  'x, y, z'
loop_
 _atom_site_type_symbol
 _atom_site_label
 _atom_site_symmetry_multiplicity
 _atom_site_fract_x
 _atom_site_fract_y
 _atom_site_fract_z
 _atom_site_occupancy
  Sc  Sc0  1  0.335106  0.672496  0.500746  1
  Sc  Sc1  1  0.672496  0.335106  0.500746  1
  Sc  Sc2  1  0.672496  0.335106  0.999254  1
  Sc  Sc3  1  0.335106  0.672496  0.999254  1
  Sc  Sc4  1  0.213179  0.213179  0.250000  1
  Pa  Pa5  1  0.218453  0.999419  0.750000  1
  Pa  Pa6  1  0.777485  0.998087  0.250000  1
  Pa  Pa7  1  0.999419  0.218453  0.750000  1
  Pa  Pa8  1  0.998087  0.777485  0.250000  1
  Pa  Pa9  1  0.777080  0.777080  0.750000  1
  Sn  Sn10  1  0.591167  0.002965  0.750000  1
  Sn  Sn11  1  0.406439  0.008394  0.250000  1
  Sn  Sn12  1  0.002965  0.591167  0.750000  1
  Sn  Sn13  1  0.008394  0.406439  0.250000  1
  Sn  Sn14  1  0.410124  0.410124  0.750000  1
  Sn  Sn15  1  0.583342  0.583342  0.250000  1
  C  C16  1  0.999331  0.999331  0.497545  1
  C  C17  1  0.999331  0.999331  0.002455  1
