# generated using pymatgen
data_BaU2Cl11
_symmetry_space_group_name_H-M   'P 1'
_cell_length_a   7.99798684
_cell_length_b   8.07352422
_cell_length_c   18.68193600
_cell_angle_alpha   78.45355848
_cell_angle_beta   79.10023247
_cell_angle_gamma   89.60308327
_symmetry_Int_Tables_number   1
_chemical_formula_structural   BaU2Cl11
_chemical_formula_sum   'Ba2 U4 Cl22'
_cell_volume   1159.99414981
_cell_formula_units_Z   2
loop_
 _symmetry_equiv_pos_site_id
 _symmetry_equiv_pos_as_xyz
  1  'x, y, z'
loop_
 _atom_site_type_symbol
 _atom_site_label
 _atom_site_symmetry_multiplicity
 _atom_site_fract_x
 _atom_site_fract_y
 _atom_site_fract_z
 _atom_site_occupancy
  Ba  Ba0  1  0.767184  0.782050  0.500998  1
  Ba  Ba1  1  0.232816  0.217950  0.499002  1
  U  U2  1  0.306964  0.804058  0.372082  1
  U  U3  1  0.693036  0.195942  0.627918  1
  U  U4  1  0.837610  0.332938  0.086645  1
  U  U5  1  0.162390  0.667062  0.913355  1
  Cl  Cl6  1  0.220969  0.781606  0.516338  1
  Cl  Cl7  1  0.779031  0.218394  0.483662  1
  Cl  Cl8  1  0.532220  0.030194  0.390030  1
  Cl  Cl9  1  0.467780  0.969806  0.609970  1
  Cl  Cl10  1  0.521435  0.561175  0.401250  1
  Cl  Cl11  1  0.478565  0.438825  0.598750  1
  Cl  Cl12  1  0.376952  0.837650  0.234500  1
  Cl  Cl13  1  0.623048  0.162350  0.765500  1
  Cl  Cl14  1  0.056935  0.569481  0.398482  1
  Cl  Cl15  1  0.943065  0.430519  0.601518  1
  Cl  Cl16  1  0.073459  0.040547  0.375897  1
  Cl  Cl17  1  0.926541  0.959453  0.624103  1
  Cl  Cl18  1  0.880030  0.042200  0.154068  1
  Cl  Cl19  1  0.119970  0.957800  0.845932  1
  Cl  Cl20  1  0.543824  0.363680  0.154474  1
  Cl  Cl21  1  0.456176  0.636320  0.845526  1
  Cl  Cl22  1  0.726957  0.221413  0.989566  1
  Cl  Cl23  1  0.273043  0.778587  0.010434  1
  Cl  Cl24  1  0.961749  0.458735  0.176853  1
  Cl  Cl25  1  0.038251  0.541265  0.823147  1
  Cl  Cl26  1  0.155404  0.350764  0.999956  1
  Cl  Cl27  1  0.844596  0.649236  0.000044  1
