# generated using pymatgen
data_Ca5Pr6Nd9Sn16
_symmetry_space_group_name_H-M   'P 1'
_cell_length_a   8.11930823
_cell_length_b   8.52522550
_cell_length_c   16.09602177
_cell_angle_alpha   89.95877585
_cell_angle_beta   89.61565716
_cell_angle_gamma   89.96638512
_symmetry_Int_Tables_number   1
_chemical_formula_structural   Ca5Pr6Nd9Sn16
_chemical_formula_sum   'Ca5 Pr6 Nd9 Sn16'
_cell_volume   1114.12391734
_cell_formula_units_Z   1
loop_
 _symmetry_equiv_pos_site_id
 _symmetry_equiv_pos_as_xyz
  1  'x, y, z'
loop_
 _atom_site_type_symbol
 _atom_site_label
 _atom_site_symmetry_multiplicity
 _atom_site_fract_x
 _atom_site_fract_y
 _atom_site_fract_z
 _atom_site_occupancy
  Ca  Ca0  1  0.334317  0.830148  0.876277  1
  Ca  Ca1  1  0.170759  0.498749  0.750052  1
  Ca  Ca2  1  0.669761  0.004727  0.750256  1
  Ca  Ca3  1  0.829838  0.503684  0.251024  1
  Ca  Ca4  1  0.329598  0.994510  0.250523  1
  Pr  Pr5  1  0.505169  0.681861  0.404727  1
  Pr  Pr6  1  0.005811  0.815703  0.095748  1
  Pr  Pr7  1  0.504344  0.681330  0.095330  1
  Pr  Pr8  1  0.003996  0.817844  0.404082  1
  Pr  Pr9  1  0.495492  0.315946  0.595490  1
  Pr  Pr10  1  0.994137  0.184008  0.903570  1
  Nd  Nd11  1  0.843599  0.671567  0.623777  1
  Nd  Nd12  1  0.656011  0.170143  0.375813  1
  Nd  Nd13  1  0.162766  0.326391  0.123924  1
  Nd  Nd14  1  0.663076  0.171922  0.124157  1
  Nd  Nd15  1  0.156571  0.328420  0.376143  1
  Nd  Nd16  1  0.345184  0.829137  0.624927  1
  Nd  Nd17  1  0.838287  0.674486  0.875043  1
  Nd  Nd18  1  0.492717  0.317045  0.903658  1
  Nd  Nd19  1  0.998130  0.183896  0.595849  1
  Sn  Sn20  1  0.327813  0.035517  0.038364  1
  Sn  Sn21  1  0.817685  0.458970  0.464006  1
  Sn  Sn22  1  0.685747  0.962363  0.537293  1
  Sn  Sn23  1  0.173762  0.534798  0.961067  1
  Sn  Sn24  1  0.672713  0.963549  0.962102  1
  Sn  Sn25  1  0.184481  0.540547  0.536644  1
  Sn  Sn26  1  0.316134  0.038982  0.464258  1
  Sn  Sn27  1  0.824256  0.462593  0.036947  1
  Sn  Sn28  1  0.539237  0.603760  0.750404  1
  Sn  Sn29  1  0.038985  0.895306  0.749177  1
  Sn  Sn30  1  0.461175  0.393723  0.249797  1
  Sn  Sn31  1  0.961454  0.105470  0.250238  1
  Sn  Sn32  1  0.296442  0.142669  0.750115  1
  Sn  Sn33  1  0.797709  0.361990  0.750316  1
  Sn  Sn34  1  0.701829  0.859460  0.249436  1
  Sn  Sn35  1  0.201013  0.638789  0.249464  1
