# generated using pymatgen
data_Hf5Sc(Al3Fe)8
_symmetry_space_group_name_H-M   'P 1'
_cell_length_a   8.47940410
_cell_length_b   8.47940391
_cell_length_c   9.06781100
_cell_angle_alpha   90.00000000
_cell_angle_beta   90.00000000
_cell_angle_gamma   119.98245345
_symmetry_Int_Tables_number   1
_chemical_formula_structural   Hf5Sc(Al3Fe)8
_chemical_formula_sum   'Hf5 Sc1 Al24 Fe8'
_cell_volume   564.72954324
_cell_formula_units_Z   1
loop_
 _symmetry_equiv_pos_site_id
 _symmetry_equiv_pos_as_xyz
  1  'x, y, z'
loop_
 _atom_site_type_symbol
 _atom_site_label
 _atom_site_symmetry_multiplicity
 _atom_site_fract_x
 _atom_site_fract_y
 _atom_site_fract_z
 _atom_site_occupancy
  Hf  Hf0  1  0.198010  0.801990  0.250000  1
  Hf  Hf1  1  0.392266  0.197350  0.750000  1
  Hf  Hf2  1  0.604370  0.802365  0.250000  1
  Hf  Hf3  1  0.802650  0.607734  0.750000  1
  Hf  Hf4  1  0.197635  0.395630  0.250000  1
  Sc  Sc5  1  0.802357  0.197643  0.750000  1
  Al  Al6  1  0.667099  0.332901  0.974787  1
  Al  Al7  1  0.333629  0.666371  0.023672  1
  Al  Al8  1  0.333629  0.666371  0.476328  1
  Al  Al9  1  0.667099  0.332901  0.525213  1
  Al  Al10  1  0.838698  0.161302  0.425697  1
  Al  Al11  1  0.161640  0.838360  0.575218  1
  Al  Al12  1  0.323258  0.161975  0.425021  1
  Al  Al13  1  0.161640  0.838360  0.924782  1
  Al  Al14  1  0.677086  0.838010  0.574653  1
  Al  Al15  1  0.838698  0.161302  0.074303  1
  Al  Al16  1  0.838025  0.676742  0.425021  1
  Al  Al17  1  0.677086  0.838010  0.925347  1
  Al  Al18  1  0.161990  0.322914  0.574653  1
  Al  Al19  1  0.323258  0.161975  0.074979  1
  Al  Al20  1  0.161990  0.322914  0.925347  1
  Al  Al21  1  0.838025  0.676742  0.074979  1
  Al  Al22  1  0.443437  0.556563  0.750000  1
  Al  Al23  1  0.556204  0.443796  0.250000  1
  Al  Al24  1  0.110252  0.554412  0.750000  1
  Al  Al25  1  0.887351  0.443508  0.250000  1
  Al  Al26  1  0.445588  0.889748  0.750000  1
  Al  Al27  1  0.556492  0.112649  0.250000  1
  Al  Al28  1  0.000104  0.999896  0.750000  1
  Al  Al29  1  0.000007  0.999993  0.250000  1
  Fe  Fe30  1  0.499910  0.500090  0.000646  1
  Fe  Fe31  1  0.001472  0.501810  0.001708  1
  Fe  Fe32  1  0.499910  0.500090  0.499354  1
  Fe  Fe33  1  0.498190  0.998528  0.001708  1
  Fe  Fe34  1  0.001472  0.501810  0.498292  1
  Fe  Fe35  1  0.498190  0.998528  0.498292  1
  Fe  Fe36  1  0.000643  0.999357  0.000415  1
  Fe  Fe37  1  0.000643  0.999357  0.499585  1
