# generated using pymatgen
data_CaMg(H3Cl)3
_symmetry_space_group_name_H-M   'P 1'
_cell_length_a   3.70930597
_cell_length_b   8.14486274
_cell_length_c   11.45356445
_cell_angle_alpha   56.78850049
_cell_angle_beta   102.15091749
_cell_angle_gamma   116.16719166
_symmetry_Int_Tables_number   1
_chemical_formula_structural   CaMg(H3Cl)3
_chemical_formula_sum   'Ca1 Mg1 H9 Cl3'
_cell_volume   259.61584972
_cell_formula_units_Z   1
loop_
 _symmetry_equiv_pos_site_id
 _symmetry_equiv_pos_as_xyz
  1  'x, y, z'
loop_
 _atom_site_type_symbol
 _atom_site_label
 _atom_site_symmetry_multiplicity
 _atom_site_fract_x
 _atom_site_fract_y
 _atom_site_fract_z
 _atom_site_occupancy
  Ca  Ca0  1  0.602613  0.517068  0.776488  1
  Mg  Mg1  1  0.509705  0.899445  0.824552  1
  H  H2  1  0.844526  0.154362  0.364772  1
  H  H3  1  0.963207  0.203356  0.299822  1
  H  H4  1  0.440612  0.608403  0.201732  1
  H  H5  1  0.215208  0.881117  0.331242  1
  H  H6  1  0.482081  0.135349  0.025694  1
  H  H7  1  0.025928  0.891317  0.861005  1
  H  H8  1  0.345023  0.084075  0.985478  1
  H  H9  1  0.535088  0.698659  0.215551  1
  H  H10  1  0.114708  0.770435  0.342564  1
  Cl  Cl11  1  0.208160  0.487872  0.970306  1
  Cl  Cl12  1  0.318047  0.845644  0.625357  1
  Cl  Cl13  1  0.846332  0.300481  0.711912  1
