# generated using pymatgen
data_YHo5ScCrO12
_symmetry_space_group_name_H-M   'P 1'
_cell_length_a   6.53865797
_cell_length_b   6.53735737
_cell_length_c   6.53787619
_cell_angle_alpha   92.67269368
_cell_angle_beta   92.65066319
_cell_angle_gamma   92.67504351
_symmetry_Int_Tables_number   1
_chemical_formula_structural   YHo5ScCrO12
_chemical_formula_sum   'Y1 Ho5 Sc1 Cr1 O12'
_cell_volume   278.52832686
_cell_formula_units_Z   1
loop_
 _symmetry_equiv_pos_site_id
 _symmetry_equiv_pos_as_xyz
  1  'x, y, z'
loop_
 _atom_site_type_symbol
 _atom_site_label
 _atom_site_symmetry_multiplicity
 _atom_site_fract_x
 _atom_site_fract_y
 _atom_site_fract_z
 _atom_site_occupancy
  Y  Y0  1  0.743038  0.927204  0.436479  1
  Ho  Ho1  1  0.927386  0.436694  0.743561  1
  Ho  Ho2  1  0.435972  0.743031  0.927138  1
  Ho  Ho3  1  0.256785  0.073138  0.563909  1
  Ho  Ho4  1  0.073127  0.563205  0.256868  1
  Ho  Ho5  1  0.563463  0.257131  0.072475  1
  Sc  Sc6  1  0.000448  0.000215  0.000047  1
  Cr  Cr7  1  0.499870  0.499879  0.499996  1
  O  O8  1  0.588590  0.461015  0.799817  1
  O  O9  1  0.459268  0.799044  0.589205  1
  O  O10  1  0.799885  0.586593  0.460987  1
  O  O11  1  0.411425  0.539088  0.200276  1
  O  O12  1  0.537629  0.201015  0.411038  1
  O  O13  1  0.200100  0.411422  0.538934  1
  O  O14  1  0.070181  0.914088  0.308089  1
  O  O15  1  0.914115  0.308526  0.069059  1
  O  O16  1  0.691524  0.931547  0.083725  1
  O  O17  1  0.085699  0.691515  0.931342  1
  O  O18  1  0.932740  0.086919  0.692754  1
  O  O19  1  0.308754  0.068731  0.914301  1
