# generated using pymatgen
data_NaMn6(PS8)2
_symmetry_space_group_name_H-M   'P 1'
_cell_length_a   6.68463956
_cell_length_b   6.68463990
_cell_length_c   13.32688381
_cell_angle_alpha   90.19260992
_cell_angle_beta   89.80738945
_cell_angle_gamma   119.99556359
_symmetry_Int_Tables_number   1
_chemical_formula_structural   NaMn6(PS8)2
_chemical_formula_sum   'Na1 Mn6 P2 S16'
_cell_volume   515.74068819
_cell_formula_units_Z   1
loop_
 _symmetry_equiv_pos_site_id
 _symmetry_equiv_pos_as_xyz
  1  'x, y, z'
loop_
 _atom_site_type_symbol
 _atom_site_label
 _atom_site_symmetry_multiplicity
 _atom_site_fract_x
 _atom_site_fract_y
 _atom_site_fract_z
 _atom_site_occupancy
  Na  Na0  1  0.000000  0.000000  0.000000  1
  Mn  Mn1  1  0.500768  0.001809  0.739985  1
  Mn  Mn2  1  0.499232  0.998191  0.260015  1
  Mn  Mn3  1  0.998191  0.499232  0.739985  1
  Mn  Mn4  1  0.001809  0.500768  0.260015  1
  Mn  Mn5  1  0.999321  0.000679  0.738627  1
  Mn  Mn6  1  0.000679  0.999321  0.261373  1
  P  P7  1  0.501735  0.498265  0.739223  1
  P  P8  1  0.498265  0.501735  0.260777  1
  S  S9  1  0.830218  0.663795  0.164328  1
  S  S10  1  0.827736  0.663051  0.644178  1
  S  S11  1  0.833728  0.166272  0.160559  1
  S  S12  1  0.832890  0.167110  0.641118  1
  S  S13  1  0.336622  0.663378  0.163788  1
  S  S14  1  0.336382  0.663618  0.645727  1
  S  S15  1  0.336205  0.169782  0.164328  1
  S  S16  1  0.336949  0.172264  0.644178  1
  S  S17  1  0.663795  0.830218  0.835672  1
  S  S18  1  0.663051  0.827736  0.355822  1
  S  S19  1  0.663378  0.336622  0.836212  1
  S  S20  1  0.663618  0.336382  0.354273  1
  S  S21  1  0.166272  0.833728  0.839441  1
  S  S22  1  0.167110  0.832890  0.358882  1
  S  S23  1  0.169782  0.336205  0.835672  1
  S  S24  1  0.172264  0.336949  0.355822  1
