# generated using pymatgen
data_Hf4SiAsRh10
_symmetry_space_group_name_H-M   'P 1'
_cell_length_a   4.04651300
_cell_length_b   5.59196712
_cell_length_c   10.87771523
_cell_angle_alpha   89.97648125
_cell_angle_beta   90.00000000
_cell_angle_gamma   90.00000000
_symmetry_Int_Tables_number   1
_chemical_formula_structural   Hf4SiAsRh10
_chemical_formula_sum   'Hf4 Si1 As1 Rh10'
_cell_volume   246.14056744
_cell_formula_units_Z   1
loop_
 _symmetry_equiv_pos_site_id
 _symmetry_equiv_pos_as_xyz
  1  'x, y, z'
loop_
 _atom_site_type_symbol
 _atom_site_label
 _atom_site_symmetry_multiplicity
 _atom_site_fract_x
 _atom_site_fract_y
 _atom_site_fract_z
 _atom_site_occupancy
  Hf  Hf0  1  0.500000  0.173410  0.643729  1
  Hf  Hf1  1  0.500000  0.826590  0.356271  1
  Hf  Hf2  1  0.500000  0.676515  0.860510  1
  Hf  Hf3  1  0.500000  0.323485  0.139490  1
  Si  Si4  1  0.000000  0.000000  0.000000  1
  As  As5  1  0.000000  0.500000  0.500000  1
  Rh  Rh6  1  0.500000  0.181146  0.897826  1
  Rh  Rh7  1  0.500000  0.818854  0.102174  1
  Rh  Rh8  1  0.500000  0.687294  0.605648  1
  Rh  Rh9  1  0.500000  0.312706  0.394352  1
  Rh  Rh10  1  0.000000  0.429528  0.743173  1
  Rh  Rh11  1  0.000000  0.570472  0.256827  1
  Rh  Rh12  1  0.000000  0.000000  0.500000  1
  Rh  Rh13  1  0.000000  0.500000  0.000000  1
  Rh  Rh14  1  0.000000  0.069964  0.239800  1
  Rh  Rh15  1  0.000000  0.930036  0.760200  1
