# generated using pymatgen
data_Tm12Fe2ReSn2
_symmetry_space_group_name_H-M   'P 1'
_cell_length_a   8.26694625
_cell_length_b   8.26694519
_cell_length_c   8.26694532
_cell_angle_alpha   108.95066358
_cell_angle_beta   108.95064784
_cell_angle_gamma   110.51744299
_symmetry_Int_Tables_number   1
_chemical_formula_structural   Tm12Fe2ReSn2
_chemical_formula_sum   'Tm12 Fe2 Re1 Sn2'
_cell_volume   434.81498602
_cell_formula_units_Z   1
loop_
 _symmetry_equiv_pos_site_id
 _symmetry_equiv_pos_as_xyz
  1  'x, y, z'
loop_
 _atom_site_type_symbol
 _atom_site_label
 _atom_site_symmetry_multiplicity
 _atom_site_fract_x
 _atom_site_fract_y
 _atom_site_fract_z
 _atom_site_occupancy
  Tm  Tm0  1  0.193493  0.431184  0.237691  1
  Tm  Tm1  1  0.806507  0.568816  0.762309  1
  Tm  Tm2  1  0.193493  0.955803  0.762309  1
  Tm  Tm3  1  0.955803  0.193493  0.762309  1
  Tm  Tm4  1  0.806507  0.044197  0.237691  1
  Tm  Tm5  1  0.044197  0.806507  0.237691  1
  Tm  Tm6  1  0.431184  0.193493  0.237691  1
  Tm  Tm7  1  0.568816  0.806507  0.762309  1
  Tm  Tm8  1  0.307727  0.307727  0.615454  1
  Tm  Tm9  1  0.692273  0.692273  0.384546  1
  Tm  Tm10  1  0.692273  0.307727  0.000000  1
  Tm  Tm11  1  0.307727  0.692273  0.000000  1
  Fe  Fe12  1  0.384398  0.384398  0.000000  1
  Fe  Fe13  1  0.615602  0.615602  0.000000  1
  Re  Re14  1  0.000000  0.000000  0.000000  1
  Sn  Sn15  1  0.000000  0.500000  0.500000  1
  Sn  Sn16  1  0.500000  0.000000  0.500000  1
