# generated using pymatgen
data_Nd7Y3(Sn3Br)2
_symmetry_space_group_name_H-M   'P 1'
_cell_length_a   9.43393000
_cell_length_b   9.43393083
_cell_length_c   6.76190500
_cell_angle_alpha   90.00000000
_cell_angle_beta   90.00000000
_cell_angle_gamma   119.99999708
_symmetry_Int_Tables_number   1
_chemical_formula_structural   Nd7Y3(Sn3Br)2
_chemical_formula_sum   'Nd7 Y3 Sn6 Br2'
_cell_volume   521.17676602
_cell_formula_units_Z   1
loop_
 _symmetry_equiv_pos_site_id
 _symmetry_equiv_pos_as_xyz
  1  'x, y, z'
loop_
 _atom_site_type_symbol
 _atom_site_label
 _atom_site_symmetry_multiplicity
 _atom_site_fract_x
 _atom_site_fract_y
 _atom_site_fract_z
 _atom_site_occupancy
  Nd  Nd0  1  0.267527  0.267552  0.749363  1
  Nd  Nd1  1  0.000026  0.732473  0.749363  1
  Nd  Nd2  1  0.732448  0.999974  0.749363  1
  Nd  Nd3  1  0.000026  0.267552  0.250637  1
  Nd  Nd4  1  0.732448  0.732473  0.250637  1
  Nd  Nd5  1  0.267527  0.999974  0.250637  1
  Nd  Nd6  1  0.666667  0.333333  0.000000  1
  Y  Y7  1  0.333333  0.666667  0.500000  1
  Y  Y8  1  0.666667  0.333333  0.500000  1
  Y  Y9  1  0.333333  0.666667  0.000000  1
  Sn  Sn10  1  0.609192  0.997685  0.251547  1
  Sn  Sn11  1  0.002315  0.390808  0.748453  1
  Sn  Sn12  1  0.388494  0.997685  0.748453  1
  Sn  Sn13  1  0.609192  0.611506  0.748453  1
  Sn  Sn14  1  0.002315  0.611506  0.251547  1
  Sn  Sn15  1  0.388494  0.390808  0.251547  1
  Br  Br16  1  0.000000  0.000000  0.000000  1
  Br  Br17  1  0.000000  0.000000  0.500000  1
