# generated using pymatgen
data_Dy4Sc4Tc3B24Ir
_symmetry_space_group_name_H-M   'P 1'
_cell_length_a   3.58016500
_cell_length_b   8.98914050
_cell_length_c   11.37961678
_cell_angle_alpha   90.04224423
_cell_angle_beta   90.00000000
_cell_angle_gamma   90.00000000
_symmetry_Int_Tables_number   1
_chemical_formula_structural   Dy4Sc4Tc3B24Ir
_chemical_formula_sum   'Dy4 Sc4 Tc3 B24 Ir1'
_cell_volume   366.22562598
_cell_formula_units_Z   1
loop_
 _symmetry_equiv_pos_site_id
 _symmetry_equiv_pos_as_xyz
  1  'x, y, z'
loop_
 _atom_site_type_symbol
 _atom_site_label
 _atom_site_symmetry_multiplicity
 _atom_site_fract_x
 _atom_site_fract_y
 _atom_site_fract_z
 _atom_site_occupancy
  Dy  Dy0  1  0.500000  0.317125  0.415654  1
  Dy  Dy1  1  0.500000  0.679907  0.590108  1
  Dy  Dy2  1  0.500000  0.178697  0.912516  1
  Dy  Dy3  1  0.500000  0.824160  0.082068  1
  Sc  Sc4  1  0.500000  0.440617  0.126997  1
  Sc  Sc5  1  0.500000  0.556187  0.870978  1
  Sc  Sc6  1  0.500000  0.055410  0.628861  1
  Sc  Sc7  1  0.500000  0.947173  0.371430  1
  Tc  Tc8  1  0.500000  0.140278  0.182597  1
  Tc  Tc9  1  0.500000  0.859877  0.818656  1
  Tc  Tc10  1  0.500000  0.360429  0.680233  1
  B  B11  1  0.000000  0.096404  0.473505  1
  B  B12  1  0.000000  0.901604  0.526315  1
  B  B13  1  0.000000  0.402932  0.973766  1
  B  B14  1  0.000000  0.597411  0.026978  1
  B  B15  1  0.000000  0.128674  0.317214  1
  B  B16  1  0.000000  0.871114  0.683428  1
  B  B17  1  0.000000  0.371774  0.816402  1
  B  B18  1  0.000000  0.628690  0.182164  1
  B  B19  1  0.000000  0.054386  0.067147  1
  B  B20  1  0.000000  0.946085  0.932258  1
  B  B21  1  0.000000  0.445667  0.567288  1
  B  B22  1  0.000000  0.554882  0.433521  1
  B  B23  1  0.000000  0.481442  0.285962  1
  B  B24  1  0.000000  0.519194  0.714124  1
  B  B25  1  0.000000  0.018970  0.785421  1
  B  B26  1  0.000000  0.981246  0.213929  1
  B  B27  1  0.000000  0.253336  0.081597  1
  B  B28  1  0.000000  0.746840  0.918420  1
  B  B29  1  0.000000  0.246079  0.581900  1
  B  B30  1  0.000000  0.753693  0.419346  1
  B  B31  1  0.000000  0.294273  0.235424  1
  B  B32  1  0.000000  0.705850  0.765459  1
  B  B33  1  0.000000  0.206047  0.734777  1
  B  B34  1  0.000000  0.793773  0.264782  1
  Ir  Ir35  1  0.500000  0.639773  0.318778  1
