# generated using pymatgen
data_TbGd7Lu2(SiB4)4
_symmetry_space_group_name_H-M   'P 1'
_cell_length_a   7.24200209
_cell_length_b   7.24187403
_cell_length_c   8.12659000
_cell_angle_alpha   90.00428206
_cell_angle_beta   89.99299382
_cell_angle_gamma   90.00628253
_symmetry_Int_Tables_number   1
_chemical_formula_structural   TbGd7Lu2(SiB4)4
_chemical_formula_sum   'Tb1 Gd7 Lu2 Si4 B16'
_cell_volume   426.20442521
_cell_formula_units_Z   1
loop_
 _symmetry_equiv_pos_site_id
 _symmetry_equiv_pos_as_xyz
  1  'x, y, z'
loop_
 _atom_site_type_symbol
 _atom_site_label
 _atom_site_symmetry_multiplicity
 _atom_site_fract_x
 _atom_site_fract_y
 _atom_site_fract_z
 _atom_site_occupancy
  Tb  Tb0  1  0.180431  0.319556  0.224618  1
  Gd  Gd1  1  0.680569  0.180659  0.226309  1
  Gd  Gd2  1  0.319526  0.819488  0.773975  1
  Gd  Gd3  1  0.319330  0.819419  0.226295  1
  Gd  Gd4  1  0.819497  0.680500  0.226065  1
  Gd  Gd5  1  0.819408  0.680607  0.774072  1
  Gd  Gd6  1  0.680486  0.180456  0.773959  1
  Gd  Gd7  1  0.180583  0.319444  0.773946  1
  Lu  Lu8  1  0.000129  0.999978  0.499904  1
  Lu  Lu9  1  0.499945  0.499901  0.499875  1
  Si  Si10  1  0.115967  0.615306  0.499624  1
  Si  Si11  1  0.884743  0.384095  0.499514  1
  Si  Si12  1  0.383952  0.115984  0.499912  1
  Si  Si13  1  0.615413  0.884519  0.499790  1
  B  B14  1  0.172399  0.039447  0.000075  1
  B  B15  1  0.827780  0.960776  0.000172  1
  B  B16  1  0.960868  0.172395  0.000041  1
  B  B17  1  0.327566  0.539197  0.000046  1
  B  B18  1  0.039371  0.827754  0.000194  1
  B  B19  1  0.672207  0.460684  0.000202  1
  B  B20  1  0.539169  0.672260  0.000174  1
  B  B21  1  0.460505  0.327644  0.000087  1
  B  B22  1  0.089860  0.589721  0.000237  1
  B  B23  1  0.910287  0.410145  0.000271  1
  B  B24  1  0.410073  0.089935  0.000014  1
  B  B25  1  0.589855  0.910150  0.999972  1
  B  B26  1  0.000141  0.000185  0.161129  1
  B  B27  1  0.000110  0.999890  0.839192  1
  B  B28  1  0.500029  0.500053  0.839201  1
  B  B29  1  0.499800  0.499850  0.161136  1
