# generated using pymatgen
data_LiLu9Cd3Pd
_symmetry_space_group_name_H-M   'P 1'
_cell_length_a   9.35287600
_cell_length_b   9.35287531
_cell_length_c   9.42569000
_cell_angle_alpha   90.00000000
_cell_angle_beta   90.00000000
_cell_angle_gamma   119.99999535
_symmetry_Int_Tables_number   1
_chemical_formula_structural   LiLu9Cd3Pd
_chemical_formula_sum   'Li2 Lu18 Cd6 Pd2'
_cell_volume   714.05904620
_cell_formula_units_Z   2
loop_
 _symmetry_equiv_pos_site_id
 _symmetry_equiv_pos_as_xyz
  1  'x, y, z'
loop_
 _atom_site_type_symbol
 _atom_site_label
 _atom_site_symmetry_multiplicity
 _atom_site_fract_x
 _atom_site_fract_y
 _atom_site_fract_z
 _atom_site_occupancy
  Li  Li0  1  0.000000  0.000000  0.000000  1
  Li  Li1  1  0.000000  0.000000  0.500000  1
  Lu  Lu2  1  0.205575  0.794425  0.943908  1
  Lu  Lu3  1  0.205575  0.411150  0.943908  1
  Lu  Lu4  1  0.588850  0.794425  0.943908  1
  Lu  Lu5  1  0.794425  0.205575  0.056092  1
  Lu  Lu6  1  0.794425  0.588850  0.056092  1
  Lu  Lu7  1  0.411150  0.205575  0.056092  1
  Lu  Lu8  1  0.794425  0.205575  0.443908  1
  Lu  Lu9  1  0.794425  0.588850  0.443908  1
  Lu  Lu10  1  0.411150  0.205575  0.443908  1
  Lu  Lu11  1  0.205575  0.794425  0.556092  1
  Lu  Lu12  1  0.205575  0.411150  0.556092  1
  Lu  Lu13  1  0.588850  0.794425  0.556092  1
  Lu  Lu14  1  0.543158  0.456842  0.750000  1
  Lu  Lu15  1  0.543158  0.086314  0.750000  1
  Lu  Lu16  1  0.913686  0.456842  0.750000  1
  Lu  Lu17  1  0.456842  0.543158  0.250000  1
  Lu  Lu18  1  0.456842  0.913686  0.250000  1
  Lu  Lu19  1  0.086314  0.543158  0.250000  1
  Cd  Cd20  1  0.891727  0.108273  0.750000  1
  Cd  Cd21  1  0.891727  0.783454  0.750000  1
  Cd  Cd22  1  0.216546  0.108273  0.750000  1
  Cd  Cd23  1  0.108273  0.891727  0.250000  1
  Cd  Cd24  1  0.108273  0.216546  0.250000  1
  Cd  Cd25  1  0.783454  0.891727  0.250000  1
  Pd  Pd26  1  0.333333  0.666667  0.750000  1
  Pd  Pd27  1  0.666667  0.333333  0.250000  1
