# generated using pymatgen
data_Er4Lu8In2Tc3
_symmetry_space_group_name_H-M   'P 1'
_cell_length_a   8.33485610
_cell_length_b   8.33485688
_cell_length_c   8.33485624
_cell_angle_alpha   108.75871941
_cell_angle_beta   108.75871928
_cell_angle_gamma   110.90581377
_symmetry_Int_Tables_number   1
_chemical_formula_structural   Er4Lu8In2Tc3
_chemical_formula_sum   'Er4 Lu8 In2 Tc3'
_cell_volume   445.52047854
_cell_formula_units_Z   1
loop_
 _symmetry_equiv_pos_site_id
 _symmetry_equiv_pos_as_xyz
  1  'x, y, z'
loop_
 _atom_site_type_symbol
 _atom_site_label
 _atom_site_symmetry_multiplicity
 _atom_site_fract_x
 _atom_site_fract_y
 _atom_site_fract_z
 _atom_site_occupancy
  Er  Er0  1  0.304434  0.304434  0.608868  1
  Er  Er1  1  0.695566  0.695566  0.391132  1
  Er  Er2  1  0.695566  0.304434  0.000000  1
  Er  Er3  1  0.304434  0.695566  0.000000  1
  Lu  Lu4  1  0.188802  0.427030  0.238228  1
  Lu  Lu5  1  0.811198  0.572970  0.761772  1
  Lu  Lu6  1  0.188802  0.950573  0.761772  1
  Lu  Lu7  1  0.950573  0.188802  0.761772  1
  Lu  Lu8  1  0.811198  0.049427  0.238228  1
  Lu  Lu9  1  0.049427  0.811198  0.238228  1
  Lu  Lu10  1  0.427030  0.188802  0.238228  1
  Lu  Lu11  1  0.572970  0.811198  0.761772  1
  In  In12  1  0.000000  0.500000  0.500000  1
  In  In13  1  0.500000  0.000000  0.500000  1
  Tc  Tc14  1  0.370247  0.370247  0.000000  1
  Tc  Tc15  1  0.629753  0.629753  0.000000  1
  Tc  Tc16  1  0.000000  0.000000  0.000000  1
