# generated using pymatgen
data_Hf16Fe4ReOs3
_symmetry_space_group_name_H-M   'P 1'
_cell_length_a   8.64015053
_cell_length_b   8.64015023
_cell_length_c   8.64015100
_cell_angle_alpha   59.94895243
_cell_angle_beta   59.94895356
_cell_angle_gamma   59.94895433
_symmetry_Int_Tables_number   1
_chemical_formula_structural   Hf16Fe4ReOs3
_chemical_formula_sum   'Hf16 Fe4 Re1 Os3'
_cell_volume   455.56028155
_cell_formula_units_Z   1
loop_
 _symmetry_equiv_pos_site_id
 _symmetry_equiv_pos_as_xyz
  1  'x, y, z'
loop_
 _atom_site_type_symbol
 _atom_site_label
 _atom_site_symmetry_multiplicity
 _atom_site_fract_x
 _atom_site_fract_y
 _atom_site_fract_z
 _atom_site_occupancy
  Hf  Hf0  1  0.687689  0.104057  0.104057  1
  Hf  Hf1  1  0.104057  0.687689  0.104057  1
  Hf  Hf2  1  0.104057  0.104057  0.687689  1
  Hf  Hf3  1  0.104989  0.104989  0.104989  1
  Hf  Hf4  1  0.313249  0.313249  0.685583  1
  Hf  Hf5  1  0.686713  0.686713  0.313163  1
  Hf  Hf6  1  0.313249  0.685583  0.313249  1
  Hf  Hf7  1  0.686713  0.313163  0.686713  1
  Hf  Hf8  1  0.685583  0.313249  0.313249  1
  Hf  Hf9  1  0.313163  0.686713  0.686713  1
  Hf  Hf10  1  0.951112  0.951112  0.548782  1
  Hf  Hf11  1  0.549357  0.549357  0.950881  1
  Hf  Hf12  1  0.951112  0.548782  0.951112  1
  Hf  Hf13  1  0.549357  0.950881  0.549357  1
  Hf  Hf14  1  0.548782  0.951112  0.951112  1
  Hf  Hf15  1  0.950881  0.549357  0.549357  1
  Fe  Fe16  1  0.326267  0.891715  0.891715  1
  Fe  Fe17  1  0.891715  0.326267  0.891715  1
  Fe  Fe18  1  0.891715  0.891715  0.326267  1
  Fe  Fe19  1  0.891028  0.891028  0.891028  1
  Re  Re20  1  0.332508  0.332508  0.332508  1
  Os  Os21  1  0.998328  0.334187  0.334187  1
  Os  Os22  1  0.334187  0.998328  0.334187  1
  Os  Os23  1  0.334187  0.334187  0.998328  1
