# generated using pymatgen
data_Ta8InRhS16
_symmetry_space_group_name_H-M   'P 1'
_cell_length_a   6.68622201
_cell_length_b   6.68522198
_cell_length_c   13.60098700
_cell_angle_alpha   89.94944254
_cell_angle_beta   90.00322203
_cell_angle_gamma   120.00199253
_symmetry_Int_Tables_number   1
_chemical_formula_structural   Ta8InRhS16
_chemical_formula_sum   'Ta8 In1 Rh1 S16'
_cell_volume   526.48833137
_cell_formula_units_Z   1
loop_
 _symmetry_equiv_pos_site_id
 _symmetry_equiv_pos_as_xyz
  1  'x, y, z'
loop_
 _atom_site_type_symbol
 _atom_site_label
 _atom_site_symmetry_multiplicity
 _atom_site_fract_x
 _atom_site_fract_y
 _atom_site_fract_z
 _atom_site_occupancy
  Ta  Ta0  1  0.504555  0.495584  0.778884  1
  Ta  Ta1  1  0.009186  0.504428  0.221119  1
  Ta  Ta2  1  0.495577  0.990930  0.221090  1
  Ta  Ta3  1  0.504423  0.009070  0.778910  1
  Ta  Ta4  1  0.990814  0.495572  0.778881  1
  Ta  Ta5  1  0.495445  0.504416  0.221116  1
  Ta  Ta6  1  0.999879  0.999955  0.775756  1
  Ta  Ta7  1  0.000121  0.000045  0.224244  1
  In  In8  1  0.000000  0.000000  0.500000  1
  Rh  Rh9  1  0.000000  0.000000  0.000000  1
  S  S10  1  0.831962  0.167711  0.336357  1
  S  S11  1  0.831986  0.663690  0.336366  1
  S  S12  1  0.336011  0.167700  0.336362  1
  S  S13  1  0.666615  0.833253  0.891776  1
  S  S14  1  0.168014  0.336310  0.663634  1
  S  S15  1  0.166504  0.833200  0.891776  1
  S  S16  1  0.166464  0.333055  0.891659  1
  S  S17  1  0.833496  0.166800  0.108224  1
  S  S18  1  0.333385  0.166747  0.108224  1
  S  S19  1  0.663989  0.832300  0.663638  1
  S  S20  1  0.333536  0.666906  0.104528  1
  S  S21  1  0.666653  0.333624  0.660807  1
  S  S22  1  0.666464  0.333094  0.895472  1
  S  S23  1  0.333347  0.666376  0.339193  1
  S  S24  1  0.833536  0.666945  0.108341  1
  S  S25  1  0.168038  0.832289  0.663643  1
