# generated using pymatgen
data_Ho6TlSi2
_symmetry_space_group_name_H-M   'P 1'
_cell_length_a   8.49191082
_cell_length_b   8.49191127
_cell_length_c   8.49191200
_cell_angle_alpha   112.47787546
_cell_angle_beta   110.98123475
_cell_angle_gamma   105.04699454
_symmetry_Int_Tables_number   1
_chemical_formula_structural   Ho6TlSi2
_chemical_formula_sum   'Ho12 Tl2 Si4'
_cell_volume   469.23152963
_cell_formula_units_Z   2
loop_
 _symmetry_equiv_pos_site_id
 _symmetry_equiv_pos_as_xyz
  1  'x, y, z'
loop_
 _atom_site_type_symbol
 _atom_site_label
 _atom_site_symmetry_multiplicity
 _atom_site_fract_x
 _atom_site_fract_y
 _atom_site_fract_z
 _atom_site_occupancy
  Ho  Ho0  1  0.319930  0.617195  0.297265  1
  Ho  Ho1  1  0.680070  0.382805  0.702735  1
  Ho  Ho2  1  0.319930  0.022664  0.702735  1
  Ho  Ho3  1  0.680070  0.977336  0.297265  1
  Ho  Ho4  1  0.186126  0.278440  0.464565  1
  Ho  Ho5  1  0.813874  0.721560  0.535435  1
  Ho  Ho6  1  0.186126  0.721560  0.907686  1
  Ho  Ho7  1  0.813874  0.278440  0.092314  1
  Ho  Ho8  1  0.443287  0.238125  0.205163  1
  Ho  Ho9  1  0.556713  0.761875  0.794837  1
  Ho  Ho10  1  0.032962  0.238125  0.794837  1
  Ho  Ho11  1  0.967038  0.761875  0.205163  1
  Tl  Tl12  1  0.500000  0.500000  0.000000  1
  Tl  Tl13  1  0.000000  0.000000  0.000000  1
  Si  Si14  1  0.115851  0.615851  0.500000  1
  Si  Si15  1  0.884149  0.384149  0.500000  1
  Si  Si16  1  0.369746  0.000000  0.369746  1
  Si  Si17  1  0.630254  0.000000  0.630254  1
