# generated using pymatgen
data_Pr16Tm3LuSn16
_symmetry_space_group_name_H-M   'P 1'
_cell_length_a   8.25938900
_cell_length_b   8.42023200
_cell_length_c   16.00699600
_cell_angle_alpha   90.00000000
_cell_angle_beta   90.00000000
_cell_angle_gamma   89.99791835
_symmetry_Int_Tables_number   1
_chemical_formula_structural   Pr16Tm3LuSn16
_chemical_formula_sum   'Pr16 Tm3 Lu1 Sn16'
_cell_volume   1113.22208818
_cell_formula_units_Z   1
loop_
 _symmetry_equiv_pos_site_id
 _symmetry_equiv_pos_as_xyz
  1  'x, y, z'
loop_
 _atom_site_type_symbol
 _atom_site_label
 _atom_site_symmetry_multiplicity
 _atom_site_fract_x
 _atom_site_fract_y
 _atom_site_fract_z
 _atom_site_occupancy
  Pr  Pr0  1  0.367408  0.837806  0.879309  1
  Pr  Pr1  1  0.867389  0.662186  0.620719  1
  Pr  Pr2  1  0.632506  0.162118  0.379296  1
  Pr  Pr3  1  0.132659  0.337760  0.120727  1
  Pr  Pr4  1  0.632506  0.162118  0.120704  1
  Pr  Pr5  1  0.132659  0.337760  0.379273  1
  Pr  Pr6  1  0.367408  0.837806  0.620691  1
  Pr  Pr7  1  0.867389  0.662186  0.879281  1
  Pr  Pr8  1  0.518694  0.318567  0.901321  1
  Pr  Pr9  1  0.018684  0.181445  0.598674  1
  Pr  Pr10  1  0.481291  0.681470  0.401332  1
  Pr  Pr11  1  0.981364  0.818594  0.098687  1
  Pr  Pr12  1  0.481291  0.681470  0.098668  1
  Pr  Pr13  1  0.981364  0.818594  0.401313  1
  Pr  Pr14  1  0.518694  0.318567  0.598679  1
  Pr  Pr15  1  0.018684  0.181445  0.901326  1
  Tm  Tm16  1  0.198878  0.501742  0.750000  1
  Tm  Tm17  1  0.698874  0.998275  0.750000  1
  Tm  Tm18  1  0.801124  0.498282  0.250000  1
  Lu  Lu19  1  0.300971  0.001707  0.250000  1
  Sn  Sn20  1  0.291710  0.033491  0.044907  1
  Sn  Sn21  1  0.791699  0.466518  0.455141  1
  Sn  Sn22  1  0.708299  0.966491  0.544840  1
  Sn  Sn23  1  0.208302  0.533496  0.955157  1
  Sn  Sn24  1  0.708299  0.966491  0.955160  1
  Sn  Sn25  1  0.208302  0.533496  0.544843  1
  Sn  Sn26  1  0.291710  0.033491  0.455093  1
  Sn  Sn27  1  0.791699  0.466518  0.044859  1
  Sn  Sn28  1  0.563117  0.616349  0.750000  1
  Sn  Sn29  1  0.063116  0.883633  0.750000  1
  Sn  Sn30  1  0.436855  0.383634  0.250000  1
  Sn  Sn31  1  0.937018  0.116354  0.250000  1
  Sn  Sn32  1  0.323573  0.147214  0.750000  1
  Sn  Sn33  1  0.823603  0.352773  0.750000  1
  Sn  Sn34  1  0.676457  0.852801  0.250000  1
  Sn  Sn35  1  0.176403  0.647353  0.250000  1
