# generated using pymatgen
data_Ti3Nb3(AlC2)2
_symmetry_space_group_name_H-M   'P 1'
_cell_length_a   3.10905000
_cell_length_b   3.10904976
_cell_length_c   18.81354800
_cell_angle_alpha   90.00000000
_cell_angle_beta   90.00000000
_cell_angle_gamma   120.00000260
_symmetry_Int_Tables_number   1
_chemical_formula_structural   Ti3Nb3(AlC2)2
_chemical_formula_sum   'Ti3 Nb3 Al2 C4'
_cell_volume   157.49134972
_cell_formula_units_Z   1
loop_
 _symmetry_equiv_pos_site_id
 _symmetry_equiv_pos_as_xyz
  1  'x, y, z'
loop_
 _atom_site_type_symbol
 _atom_site_label
 _atom_site_symmetry_multiplicity
 _atom_site_fract_x
 _atom_site_fract_y
 _atom_site_fract_z
 _atom_site_occupancy
  Ti  Ti0  1  0.666667  0.333333  0.373087  1
  Ti  Ti1  1  0.000000  0.000000  0.499463  1
  Ti  Ti2  1  0.000000  0.000000  0.000098  1
  Nb  Nb3  1  0.333333  0.666667  0.867605  1
  Nb  Nb4  1  0.333333  0.666667  0.629707  1
  Nb  Nb5  1  0.666667  0.333333  0.132733  1
  Al  Al6  1  0.000000  0.000000  0.749656  1
  Al  Al7  1  0.000000  0.000000  0.251966  1
  C  C8  1  0.333333  0.666667  0.429597  1
  C  C9  1  0.666667  0.333333  0.933014  1
  C  C10  1  0.333333  0.666667  0.067681  1
  C  C11  1  0.666667  0.333333  0.565392  1
