# generated using pymatgen
data_Eu(Sn3Rh2)2
_symmetry_space_group_name_H-M   'P 1'
_cell_length_a   6.97961257
_cell_length_b   6.97961266
_cell_length_c   6.97961320
_cell_angle_alpha   119.22686780
_cell_angle_beta   119.22687042
_cell_angle_gamma   91.34439706
_symmetry_Int_Tables_number   1
_chemical_formula_structural   Eu(Sn3Rh2)2
_chemical_formula_sum   'Eu1 Sn6 Rh4'
_cell_volume   243.16178321
_cell_formula_units_Z   1
loop_
 _symmetry_equiv_pos_site_id
 _symmetry_equiv_pos_as_xyz
  1  'x, y, z'
loop_
 _atom_site_type_symbol
 _atom_site_label
 _atom_site_symmetry_multiplicity
 _atom_site_fract_x
 _atom_site_fract_y
 _atom_site_fract_z
 _atom_site_occupancy
  Eu  Eu0  1  0.000000  0.000000  0.000000  1
  Sn  Sn1  1  0.470406  0.127204  0.000000  1
  Sn  Sn2  1  0.127204  0.470406  0.000000  1
  Sn  Sn3  1  0.872797  0.872797  0.343202  1
  Sn  Sn4  1  0.500000  0.000000  0.500000  1
  Sn  Sn5  1  0.000000  0.500000  0.500000  1
  Sn  Sn6  1  0.529594  0.529594  0.656797  1
  Rh  Rh7  1  0.758123  0.403109  0.000000  1
  Rh  Rh8  1  0.403109  0.758123  0.000000  1
  Rh  Rh9  1  0.596891  0.596891  0.355015  1
  Rh  Rh10  1  0.241876  0.241876  0.644985  1
