# generated using pymatgen
data_SmEu(SeO)2
_symmetry_space_group_name_H-M   'P 1'
_cell_length_a   7.67091728
_cell_length_b   7.67091874
_cell_length_c   5.92177600
_cell_angle_alpha   90.00000000
_cell_angle_beta   90.00000000
_cell_angle_gamma   134.49498199
_symmetry_Int_Tables_number   1
_chemical_formula_structural   SmEu(SeO)2
_chemical_formula_sum   'Sm2 Eu2 Se4 O4'
_cell_volume   248.55704975
_cell_formula_units_Z   2
loop_
 _symmetry_equiv_pos_site_id
 _symmetry_equiv_pos_as_xyz
  1  'x, y, z'
loop_
 _atom_site_type_symbol
 _atom_site_label
 _atom_site_symmetry_multiplicity
 _atom_site_fract_x
 _atom_site_fract_y
 _atom_site_fract_z
 _atom_site_occupancy
  Sm  Sm0  1  0.823628  0.176372  0.500000  1
  Sm  Sm1  1  0.676372  0.323628  0.000000  1
  Eu  Eu2  1  0.328129  0.671871  0.000000  1
  Eu  Eu3  1  0.171871  0.828129  0.500000  1
  Se  Se4  1  0.852486  0.851558  0.858060  1
  Se  Se5  1  0.351558  0.352486  0.641940  1
  Se  Se6  1  0.148442  0.147514  0.141940  1
  Se  Se7  1  0.647514  0.648442  0.358060  1
  O  O8  1  0.504145  0.004145  0.750000  1
  O  O9  1  0.995855  0.495855  0.250000  1
  O  O10  1  0.510794  0.010794  0.250000  1
  O  O11  1  0.989206  0.489206  0.750000  1
