# generated using pymatgen
data_Tb4Ga18RuPtRh4
_symmetry_space_group_name_H-M   'P 1'
_cell_length_a   7.62023886
_cell_length_b   7.62023731
_cell_length_c   9.56760038
_cell_angle_alpha   90.08212179
_cell_angle_beta   90.08211336
_cell_angle_gamma   120.06842660
_symmetry_Int_Tables_number   1
_chemical_formula_structural   Tb4Ga18RuPtRh4
_chemical_formula_sum   'Tb4 Ga18 Ru1 Pt1 Rh4'
_cell_volume   480.80512455
_cell_formula_units_Z   1
loop_
 _symmetry_equiv_pos_site_id
 _symmetry_equiv_pos_as_xyz
  1  'x, y, z'
loop_
 _atom_site_type_symbol
 _atom_site_label
 _atom_site_symmetry_multiplicity
 _atom_site_fract_x
 _atom_site_fract_y
 _atom_site_fract_z
 _atom_site_occupancy
  Tb  Tb0  1  0.996459  0.667823  0.249795  1
  Tb  Tb1  1  0.002625  0.331856  0.749989  1
  Tb  Tb2  1  0.668144  0.997375  0.250011  1
  Tb  Tb3  1  0.332177  0.003541  0.750205  1
  Ga  Ga4  1  0.127921  0.128225  0.253019  1
  Ga  Ga5  1  0.871775  0.872079  0.746981  1
  Ga  Ga6  1  0.998906  0.337368  0.080085  1
  Ga  Ga7  1  0.999340  0.661586  0.919862  1
  Ga  Ga8  1  0.000262  0.666003  0.578919  1
  Ga  Ga9  1  0.333997  0.999738  0.421081  1
  Ga  Ga10  1  0.999811  0.334136  0.421479  1
  Ga  Ga11  1  0.665864  0.000189  0.578521  1
  Ga  Ga12  1  0.662632  0.001094  0.919915  1
  Ga  Ga13  1  0.338414  0.000660  0.080138  1
  Ga  Ga14  1  0.333378  0.333494  0.563373  1
  Ga  Ga15  1  0.666506  0.666622  0.436627  1
  Ga  Ga16  1  0.662269  0.661135  0.064233  1
  Ga  Ga17  1  0.338865  0.337731  0.935767  1
  Ga  Ga18  1  0.337485  0.547037  0.250204  1
  Ga  Ga19  1  0.662330  0.452403  0.750445  1
  Ga  Ga20  1  0.547597  0.337670  0.249555  1
  Ga  Ga21  1  0.452963  0.662515  0.749796  1
  Ru  Ru22  1  0.671748  0.328252  0.000000  1
  Pt  Pt23  1  0.999841  0.000159  0.000000  1
  Rh  Rh24  1  0.328619  0.671381  0.000000  1
  Rh  Rh25  1  0.328730  0.671270  0.500000  1
  Rh  Rh26  1  0.671344  0.328656  0.500000  1
  Rh  Rh27  1  0.000000  0.000000  0.500000  1
