# generated using pymatgen
data_YHoAl9PdRh2
_symmetry_space_group_name_H-M   'P 1'
_cell_length_a   7.57754183
_cell_length_b   7.58040807
_cell_length_c   9.46211914
_cell_angle_alpha   90.02675174
_cell_angle_beta   90.04478672
_cell_angle_gamma   119.56366561
_symmetry_Int_Tables_number   1
_chemical_formula_structural   YHoAl9PdRh2
_chemical_formula_sum   'Y2 Ho2 Al18 Pd2 Rh4'
_cell_volume   472.75092971
_cell_formula_units_Z   2
loop_
 _symmetry_equiv_pos_site_id
 _symmetry_equiv_pos_as_xyz
  1  'x, y, z'
loop_
 _atom_site_type_symbol
 _atom_site_label
 _atom_site_symmetry_multiplicity
 _atom_site_fract_x
 _atom_site_fract_y
 _atom_site_fract_z
 _atom_site_occupancy
  Y  Y0  1  0.995198  0.669987  0.249437  1
  Y  Y1  1  0.004810  0.330011  0.750559  1
  Ho  Ho2  1  0.670012  0.995178  0.249283  1
  Ho  Ho3  1  0.329998  0.004820  0.750721  1
  Al  Al4  1  0.126027  0.126283  0.248978  1
  Al  Al5  1  0.873967  0.873714  0.751021  1
  Al  Al6  1  0.999182  0.334345  0.074720  1
  Al  Al7  1  0.000814  0.665652  0.925277  1
  Al  Al8  1  0.998861  0.669294  0.577913  1
  Al  Al9  1  0.331510  0.001533  0.422466  1
  Al  Al10  1  0.001143  0.330706  0.422092  1
  Al  Al11  1  0.668487  0.998469  0.577536  1
  Al  Al12  1  0.664949  0.000469  0.925652  1
  Al  Al13  1  0.335050  0.999533  0.074349  1
  Al  Al14  1  0.330957  0.330615  0.556915  1
  Al  Al15  1  0.669042  0.669379  0.443083  1
  Al  Al16  1  0.667860  0.668147  0.049300  1
  Al  Al17  1  0.332142  0.331859  0.950706  1
  Al  Al18  1  0.340697  0.547830  0.245990  1
  Al  Al19  1  0.659301  0.452172  0.754007  1
  Al  Al20  1  0.547336  0.339804  0.245987  1
  Al  Al21  1  0.452662  0.660195  0.754011  1
  Pd  Pd22  1  0.327723  0.672419  0.500001  1
  Pd  Pd23  1  0.672278  0.327584  0.499996  1
  Rh  Rh24  1  0.671977  0.327773  0.000020  1
  Rh  Rh25  1  0.328026  0.672232  0.999983  1
  Rh  Rh26  1  0.999998  0.000001  0.999999  1
  Rh  Rh27  1  0.999996  0.999996  0.499995  1
