# generated using pymatgen
data_Tm3Lu9TcOs3
_symmetry_space_group_name_H-M   'P 1'
_cell_length_a   7.34752969
_cell_length_b   8.81364900
_cell_length_c   6.16640748
_cell_angle_alpha   90.00000000
_cell_angle_beta   89.83812021
_cell_angle_gamma   90.00000000
_symmetry_Int_Tables_number   1
_chemical_formula_structural   Tm3Lu9TcOs3
_chemical_formula_sum   'Tm3 Lu9 Tc1 Os3'
_cell_volume   399.32599961
_cell_formula_units_Z   1
loop_
 _symmetry_equiv_pos_site_id
 _symmetry_equiv_pos_as_xyz
  1  'x, y, z'
loop_
 _atom_site_type_symbol
 _atom_site_label
 _atom_site_symmetry_multiplicity
 _atom_site_fract_x
 _atom_site_fract_y
 _atom_site_fract_z
 _atom_site_occupancy
  Tm  Tm0  1  0.039513  0.250000  0.625895  1
  Tm  Tm1  1  0.461530  0.750000  0.127429  1
  Tm  Tm2  1  0.538129  0.250000  0.876518  1
  Lu  Lu3  1  0.960183  0.750000  0.372355  1
  Lu  Lu4  1  0.173805  0.061769  0.162888  1
  Lu  Lu5  1  0.825598  0.938316  0.834760  1
  Lu  Lu6  1  0.325061  0.937578  0.662376  1
  Lu  Lu7  1  0.825598  0.561684  0.834760  1
  Lu  Lu8  1  0.675567  0.061975  0.337095  1
  Lu  Lu9  1  0.173805  0.438231  0.162888  1
  Lu  Lu10  1  0.675567  0.438025  0.337095  1
  Lu  Lu11  1  0.325061  0.562422  0.662376  1
  Tc  Tc12  1  0.381433  0.250000  0.462604  1
  Os  Os13  1  0.619964  0.750000  0.539757  1
  Os  Os14  1  0.118190  0.750000  0.962009  1
  Os  Os15  1  0.880993  0.250000  0.039191  1
