# generated using pymatgen
data_Eu2MgTaO6
_symmetry_space_group_name_H-M   'P 1'
_cell_length_a   5.60893848
_cell_length_b   5.60893761
_cell_length_c   5.60893755
_cell_angle_alpha   60.61720315
_cell_angle_beta   60.61720934
_cell_angle_gamma   60.61720027
_symmetry_Int_Tables_number   1
_chemical_formula_structural   Eu2MgTaO6
_chemical_formula_sum   'Eu2 Mg1 Ta1 O6'
_cell_volume   126.51391792
_cell_formula_units_Z   1
loop_
 _symmetry_equiv_pos_site_id
 _symmetry_equiv_pos_as_xyz
  1  'x, y, z'
loop_
 _atom_site_type_symbol
 _atom_site_label
 _atom_site_symmetry_multiplicity
 _atom_site_fract_x
 _atom_site_fract_y
 _atom_site_fract_z
 _atom_site_occupancy
  Eu  Eu0  1  0.250548  0.250548  0.250548  1
  Eu  Eu1  1  0.749452  0.749452  0.749452  1
  Mg  Mg2  1  0.500000  0.500000  0.500000  1
  Ta  Ta3  1  0.000000  0.000000  0.000000  1
  O  O4  1  0.758023  0.323692  0.165263  1
  O  O5  1  0.676308  0.834739  0.241977  1
  O  O6  1  0.165261  0.758024  0.323694  1
  O  O7  1  0.834740  0.241977  0.676307  1
  O  O8  1  0.323693  0.165261  0.758024  1
  O  O9  1  0.241977  0.676309  0.834738  1
