# generated using pymatgen
data_La3Tl5
_symmetry_space_group_name_H-M   'P 1'
_cell_length_a   6.77295700
_cell_length_b   6.77295764
_cell_length_c   10.81062900
_cell_angle_alpha   90.00000000
_cell_angle_beta   90.00000000
_cell_angle_gamma   102.53097591
_symmetry_Int_Tables_number   1
_chemical_formula_structural   La3Tl5
_chemical_formula_sum   'La6 Tl10'
_cell_volume   484.10217647
_cell_formula_units_Z   2
loop_
 _symmetry_equiv_pos_site_id
 _symmetry_equiv_pos_as_xyz
  1  'x, y, z'
loop_
 _atom_site_type_symbol
 _atom_site_label
 _atom_site_symmetry_multiplicity
 _atom_site_fract_x
 _atom_site_fract_y
 _atom_site_fract_z
 _atom_site_occupancy
  La  La0  1  0.203666  0.796334  0.500000  1
  La  La1  1  0.796334  0.203666  0.000000  1
  La  La2  1  0.796334  0.203666  0.500000  1
  La  La3  1  0.203666  0.796334  0.000000  1
  La  La4  1  0.368688  0.368688  0.750000  1
  La  La5  1  0.631312  0.631312  0.250000  1
  Tl  Tl6  1  0.988626  0.988626  0.750000  1
  Tl  Tl7  1  0.011375  0.011375  0.250000  1
  Tl  Tl8  1  0.071650  0.501020  0.250000  1
  Tl  Tl9  1  0.928349  0.498978  0.750000  1
  Tl  Tl10  1  0.498978  0.928349  0.750000  1
  Tl  Tl11  1  0.501020  0.071650  0.250000  1
  Tl  Tl12  1  0.307903  0.307903  0.045789  1
  Tl  Tl13  1  0.692096  0.692096  0.545789  1
  Tl  Tl14  1  0.692096  0.692096  0.954210  1
  Tl  Tl15  1  0.307903  0.307903  0.454210  1
