# generated using pymatgen
data_Cs4La3Sm(SiSe4)4
_symmetry_space_group_name_H-M   'P 1'
_cell_length_a   7.16446642
_cell_length_b   9.98723629
_cell_length_c   13.71595368
_cell_angle_alpha   71.25302196
_cell_angle_beta   89.80159116
_cell_angle_gamma   89.97724917
_symmetry_Int_Tables_number   1
_chemical_formula_structural   Cs4La3Sm(SiSe4)4
_chemical_formula_sum   'Cs4 La3 Sm1 Si4 Se16'
_cell_volume   929.34757085
_cell_formula_units_Z   1
loop_
 _symmetry_equiv_pos_site_id
 _symmetry_equiv_pos_as_xyz
  1  'x, y, z'
loop_
 _atom_site_type_symbol
 _atom_site_label
 _atom_site_symmetry_multiplicity
 _atom_site_fract_x
 _atom_site_fract_y
 _atom_site_fract_z
 _atom_site_occupancy
  Cs  Cs0  1  0.251547  0.435360  0.385754  1
  Cs  Cs1  1  0.755203  0.564571  0.116841  1
  Cs  Cs2  1  0.747490  0.564839  0.612638  1
  Cs  Cs3  1  0.246776  0.434932  0.886919  1
  La  La4  1  0.696616  0.046970  0.133885  1
  La  La5  1  0.803094  0.048146  0.633093  1
  La  La6  1  0.301518  0.949980  0.867378  1
  Sm  Sm7  1  0.192423  0.954494  0.365508  1
  Si  Si8  1  0.743852  0.166048  0.354328  1
  Si  Si9  1  0.242173  0.831787  0.149715  1
  Si  Si10  1  0.256804  0.832221  0.643223  1
  Si  Si11  1  0.756693  0.169899  0.852572  1
  Se  Se12  1  0.027811  0.202121  0.757230  1
  Se  Se13  1  0.783114  0.934084  0.451697  1
  Se  Se14  1  0.522921  0.210545  0.732271  1
  Se  Se15  1  0.729597  0.936013  0.950283  1
  Se  Se16  1  0.756107  0.314981  0.449133  1
  Se  Se17  1  0.972317  0.800014  0.245465  1
  Se  Se18  1  0.260217  0.683851  0.053918  1
  Se  Se19  1  0.231802  0.064506  0.543597  1
  Se  Se20  1  0.741892  0.316317  0.949294  1
  Se  Se21  1  0.470469  0.793232  0.272771  1
  Se  Se22  1  0.024816  0.788977  0.765993  1
  Se  Se23  1  0.241979  0.690223  0.543478  1
  Se  Se24  1  0.470146  0.194524  0.262346  1
  Se  Se25  1  0.976392  0.208814  0.232102  1
  Se  Se26  1  0.525656  0.798846  0.739490  1
  Se  Se27  1  0.270574  0.063705  0.049078  1
