# generated using pymatgen
data_Ho7Er9Ga6FeCo
_symmetry_space_group_name_H-M   'P 1'
_cell_length_a   9.92814801
_cell_length_b   9.92743567
_cell_length_c   6.90999101
_cell_angle_alpha   89.99670071
_cell_angle_beta   90.00380878
_cell_angle_gamma   120.00503795
_symmetry_Int_Tables_number   1
_chemical_formula_structural   Ho7Er9Ga6FeCo
_chemical_formula_sum   'Ho7 Er9 Ga6 Fe1 Co1'
_cell_volume   589.78182827
_cell_formula_units_Z   1
loop_
 _symmetry_equiv_pos_site_id
 _symmetry_equiv_pos_as_xyz
  1  'x, y, z'
loop_
 _atom_site_type_symbol
 _atom_site_label
 _atom_site_symmetry_multiplicity
 _atom_site_fract_x
 _atom_site_fract_y
 _atom_site_fract_z
 _atom_site_occupancy
  Ho  Ho0  1  0.074596  0.537304  0.208029  1
  Ho  Ho1  1  0.462706  0.925387  0.208029  1
  Ho  Ho2  1  0.536041  0.463947  0.707130  1
  Ho  Ho3  1  0.927838  0.463904  0.707227  1
  Ho  Ho4  1  0.536084  0.072165  0.707230  1
  Ho  Ho5  1  0.999959  0.000031  0.231788  1
  Ho  Ho6  1  0.000043  0.999945  0.732710  1
  Er  Er7  1  0.173100  0.826912  0.510438  1
  Er  Er8  1  0.653651  0.826743  0.510386  1
  Er  Er9  1  0.173244  0.346354  0.510407  1
  Er  Er10  1  0.826791  0.173207  0.011661  1
  Er  Er11  1  0.346493  0.173381  0.011747  1
  Er  Er12  1  0.826686  0.653503  0.011746  1
  Er  Er13  1  0.333438  0.666606  0.829916  1
  Er  Er14  1  0.666616  0.333365  0.329030  1
  Er  Er15  1  0.462646  0.537323  0.207847  1
  Ga  Ga16  1  0.163292  0.836720  0.958274  1
  Ga  Ga17  1  0.673388  0.836648  0.958330  1
  Ga  Ga18  1  0.163351  0.326616  0.958327  1
  Ga  Ga19  1  0.836133  0.163856  0.458096  1
  Ga  Ga20  1  0.327700  0.163850  0.458033  1
  Ga  Ga21  1  0.836145  0.672275  0.458036  1
  Fe  Fe22  1  0.333400  0.666610  0.445805  1
  Co  Co23  1  0.666657  0.333349  0.943822  1
