# generated using pymatgen
data_Rb2Co3Cl8
_symmetry_space_group_name_H-M   'P 1'
_cell_length_a   9.92532513
_cell_length_b   9.92532538
_cell_length_c   6.91662400
_cell_angle_alpha   83.95499023
_cell_angle_beta   83.95498428
_cell_angle_gamma   142.33702317
_symmetry_Int_Tables_number   1
_chemical_formula_structural   Rb2Co3Cl8
_chemical_formula_sum   'Rb2 Co3 Cl8'
_cell_volume   393.54795751
_cell_formula_units_Z   1
loop_
 _symmetry_equiv_pos_site_id
 _symmetry_equiv_pos_as_xyz
  1  'x, y, z'
loop_
 _atom_site_type_symbol
 _atom_site_label
 _atom_site_symmetry_multiplicity
 _atom_site_fract_x
 _atom_site_fract_y
 _atom_site_fract_z
 _atom_site_occupancy
  Rb  Rb0  1  0.643829  0.908380  0.533739  1
  Rb  Rb1  1  0.908380  0.643829  0.533739  1
  Co  Co2  1  0.005317  0.005317  0.023913  1
  Co  Co3  1  0.929129  0.318110  0.918553  1
  Co  Co4  1  0.318110  0.929129  0.918553  1
  Cl  Cl5  1  0.679135  0.679135  0.264605  1
  Cl  Cl6  1  0.995815  0.995815  0.707716  1
  Cl  Cl7  1  0.542397  0.949832  0.030452  1
  Cl  Cl8  1  0.949832  0.542397  0.030452  1
  Cl  Cl9  1  0.074101  0.453375  0.581365  1
  Cl  Cl10  1  0.453375  0.074101  0.581365  1
  Cl  Cl11  1  0.304240  0.110727  0.069950  1
  Cl  Cl12  1  0.110727  0.304240  0.069950  1
