# generated using pymatgen
data_Y4GaSb5Rh7
_symmetry_space_group_name_H-M   'P 1'
_cell_length_a   7.57968722
_cell_length_b   7.57968785
_cell_length_c   7.57968785
_cell_angle_alpha   109.04566693
_cell_angle_beta   109.68441234
_cell_angle_gamma   109.68441139
_symmetry_Int_Tables_number   1
_chemical_formula_structural   Y4GaSb5Rh7
_chemical_formula_sum   'Y4 Ga1 Sb5 Rh7'
_cell_volume   335.20780544
_cell_formula_units_Z   1
loop_
 _symmetry_equiv_pos_site_id
 _symmetry_equiv_pos_as_xyz
  1  'x, y, z'
loop_
 _atom_site_type_symbol
 _atom_site_label
 _atom_site_symmetry_multiplicity
 _atom_site_fract_x
 _atom_site_fract_y
 _atom_site_fract_z
 _atom_site_occupancy
  Y  Y0  1  0.517234  0.007560  0.007560  1
  Y  Y1  1  0.000000  0.490327  0.007560  1
  Y  Y2  1  0.000000  0.007560  0.490327  1
  Y  Y3  1  0.482766  0.490327  0.490327  1
  Ga  Ga4  1  0.000000  0.327991  0.327991  1
  Sb  Sb5  1  0.683816  0.998109  0.681925  1
  Sb  Sb6  1  0.683816  0.681925  0.998109  1
  Sb  Sb7  1  0.000000  0.679878  0.679878  1
  Sb  Sb8  1  0.316184  0.998109  0.314293  1
  Sb  Sb9  1  0.316184  0.314293  0.998109  1
  Rh  Rh10  1  0.000000  0.018048  0.018048  1
  Rh  Rh11  1  0.500000  0.749154  0.249154  1
  Rh  Rh12  1  0.751518  0.496891  0.248409  1
  Rh  Rh13  1  0.248482  0.745373  0.496891  1
  Rh  Rh14  1  0.248482  0.496891  0.745373  1
  Rh  Rh15  1  0.500000  0.249154  0.749154  1
  Rh  Rh16  1  0.751518  0.248409  0.496891  1
