# generated using pymatgen
data_DyHo15(ErSn4)4
_symmetry_space_group_name_H-M   'P 1'
_cell_length_a   7.99654483
_cell_length_b   8.13173336
_cell_length_c   15.38645004
_cell_angle_alpha   90.00336540
_cell_angle_beta   89.97800240
_cell_angle_gamma   89.98339433
_symmetry_Int_Tables_number   1
_chemical_formula_structural   DyHo15(ErSn4)4
_chemical_formula_sum   'Dy1 Ho15 Er4 Sn16'
_cell_volume   1000.51564962
_cell_formula_units_Z   1
loop_
 _symmetry_equiv_pos_site_id
 _symmetry_equiv_pos_as_xyz
  1  'x, y, z'
loop_
 _atom_site_type_symbol
 _atom_site_label
 _atom_site_symmetry_multiplicity
 _atom_site_fract_x
 _atom_site_fract_y
 _atom_site_fract_z
 _atom_site_occupancy
  Dy  Dy0  1  0.021185  0.179718  0.902654  1
  Ho  Ho1  1  0.367869  0.836123  0.877782  1
  Ho  Ho2  1  0.867932  0.663907  0.622104  1
  Ho  Ho3  1  0.632048  0.163837  0.377855  1
  Ho  Ho4  1  0.132225  0.336222  0.122215  1
  Ho  Ho5  1  0.632217  0.163829  0.122195  1
  Ho  Ho6  1  0.132065  0.336166  0.377860  1
  Ho  Ho7  1  0.367967  0.836103  0.622137  1
  Ho  Ho8  1  0.867893  0.663840  0.877806  1
  Ho  Ho9  1  0.521519  0.320409  0.902589  1
  Ho  Ho10  1  0.021614  0.179676  0.597470  1
  Ho  Ho11  1  0.478435  0.679648  0.402554  1
  Ho  Ho12  1  0.978528  0.820285  0.097451  1
  Ho  Ho13  1  0.478524  0.679660  0.097436  1
  Ho  Ho14  1  0.978428  0.820387  0.402569  1
  Ho  Ho15  1  0.521555  0.320395  0.597338  1
  Er  Er16  1  0.198278  0.503205  0.749916  1
  Er  Er17  1  0.698155  0.996790  0.749889  1
  Er  Er18  1  0.801771  0.496855  0.250048  1
  Er  Er19  1  0.301793  0.003147  0.250042  1
  Sn  Sn20  1  0.292795  0.035197  0.041902  1
  Sn  Sn21  1  0.792426  0.464465  0.458315  1
  Sn  Sn22  1  0.707614  0.964619  0.541690  1
  Sn  Sn23  1  0.207705  0.535884  0.958420  1
  Sn  Sn24  1  0.706940  0.963963  0.958424  1
  Sn  Sn25  1  0.207520  0.535477  0.541682  1
  Sn  Sn26  1  0.292482  0.035528  0.458338  1
  Sn  Sn27  1  0.792537  0.464465  0.041690  1
  Sn  Sn28  1  0.564931  0.618682  0.749973  1
  Sn  Sn29  1  0.065001  0.881210  0.749975  1
  Sn  Sn30  1  0.435034  0.381442  0.250014  1
  Sn  Sn31  1  0.935017  0.118615  0.250022  1
  Sn  Sn32  1  0.330551  0.148162  0.749905  1
  Sn  Sn33  1  0.830029  0.352025  0.749732  1
  Sn  Sn34  1  0.669732  0.851880  0.249990  1
  Sn  Sn35  1  0.169684  0.648182  0.250023  1
