# generated using pymatgen
data_Nd2Ho2Al17NiPd6
_symmetry_space_group_name_H-M   'P 1'
_cell_length_a   7.61567904
_cell_length_b   7.61567760
_cell_length_c   9.44823900
_cell_angle_alpha   90.00000000
_cell_angle_beta   90.00000000
_cell_angle_gamma   118.59823271
_symmetry_Int_Tables_number   1
_chemical_formula_structural   Nd2Ho2Al17NiPd6
_chemical_formula_sum   'Nd2 Ho2 Al17 Ni1 Pd6'
_cell_volume   481.12890776
_cell_formula_units_Z   1
loop_
 _symmetry_equiv_pos_site_id
 _symmetry_equiv_pos_as_xyz
  1  'x, y, z'
loop_
 _atom_site_type_symbol
 _atom_site_label
 _atom_site_symmetry_multiplicity
 _atom_site_fract_x
 _atom_site_fract_y
 _atom_site_fract_z
 _atom_site_occupancy
  Nd  Nd0  1  0.007875  0.326597  0.750000  1
  Nd  Nd1  1  0.326597  0.007875  0.750000  1
  Ho  Ho2  1  0.988989  0.675965  0.250000  1
  Ho  Ho3  1  0.675965  0.988989  0.250000  1
  Al  Al4  1  0.861517  0.861517  0.750000  1
  Al  Al5  1  0.004784  0.326685  0.092038  1
  Al  Al6  1  0.997903  0.661734  0.926732  1
  Al  Al7  1  0.997903  0.661734  0.573268  1
  Al  Al8  1  0.326685  0.004784  0.407962  1
  Al  Al9  1  0.004784  0.326685  0.407962  1
  Al  Al10  1  0.661734  0.997903  0.573268  1
  Al  Al11  1  0.661734  0.997903  0.926732  1
  Al  Al12  1  0.326685  0.004784  0.092038  1
  Al  Al13  1  0.329770  0.329770  0.527559  1
  Al  Al14  1  0.666593  0.666594  0.445696  1
  Al  Al15  1  0.666593  0.666594  0.054304  1
  Al  Al16  1  0.329770  0.329770  0.972441  1
  Al  Al17  1  0.340370  0.545795  0.250000  1
  Al  Al18  1  0.655494  0.450225  0.750000  1
  Al  Al19  1  0.545795  0.340370  0.250000  1
  Al  Al20  1  0.450225  0.655494  0.750000  1
  Ni  Ni21  1  0.176099  0.176099  0.250000  1
  Pd  Pd22  1  0.677469  0.328325  0.002365  1
  Pd  Pd23  1  0.328325  0.677469  0.002365  1
  Pd  Pd24  1  0.328325  0.677469  0.497635  1
  Pd  Pd25  1  0.677469  0.328325  0.497635  1
  Pd  Pd26  1  0.992274  0.992274  0.997543  1
  Pd  Pd27  1  0.992274  0.992274  0.502457  1
