# generated using pymatgen
data_Ce3Dy9Er4(CdRu)4
_symmetry_space_group_name_H-M   'P 1'
_cell_length_a   9.65579700
_cell_length_b   9.65579788
_cell_length_c   9.58865221
_cell_angle_alpha   59.87840262
_cell_angle_beta   59.87839620
_cell_angle_gamma   59.97025781
_symmetry_Int_Tables_number   1
_chemical_formula_structural   Ce3Dy9Er4(CdRu)4
_chemical_formula_sum   'Ce3 Dy9 Er4 Cd4 Ru4'
_cell_volume   630.84233098
_cell_formula_units_Z   1
loop_
 _symmetry_equiv_pos_site_id
 _symmetry_equiv_pos_as_xyz
  1  'x, y, z'
loop_
 _atom_site_type_symbol
 _atom_site_label
 _atom_site_symmetry_multiplicity
 _atom_site_fract_x
 _atom_site_fract_y
 _atom_site_fract_z
 _atom_site_occupancy
  Ce  Ce0  1  0.345600  0.967577  0.341741  1
  Ce  Ce1  1  0.967577  0.345600  0.341741  1
  Ce  Ce2  1  0.345688  0.345688  0.339644  1
  Dy  Dy3  1  0.562456  0.938015  0.562449  1
  Dy  Dy4  1  0.938015  0.562456  0.562449  1
  Dy  Dy5  1  0.188976  0.188976  0.811829  1
  Dy  Dy6  1  0.809731  0.188360  0.811990  1
  Dy  Dy7  1  0.188359  0.809732  0.811990  1
  Dy  Dy8  1  0.810439  0.810440  0.188443  1
  Dy  Dy9  1  0.189713  0.810434  0.189359  1
  Dy  Dy10  1  0.810434  0.189714  0.189360  1
  Dy  Dy11  1  0.349897  0.349897  0.949755  1
  Er  Er12  1  0.563325  0.563325  0.937839  1
  Er  Er13  1  0.935617  0.563069  0.937979  1
  Er  Er14  1  0.563069  0.935617  0.937979  1
  Er  Er15  1  0.938611  0.938611  0.561408  1
  Cd  Cd16  1  0.581274  0.581274  0.255497  1
  Cd  Cd17  1  0.581600  0.256995  0.580005  1
  Cd  Cd18  1  0.256995  0.581600  0.580005  1
  Cd  Cd19  1  0.580331  0.580331  0.580232  1
  Ru  Ru20  1  0.144489  0.144489  0.567338  1
  Ru  Ru21  1  0.140146  0.569001  0.154216  1
  Ru  Ru22  1  0.569001  0.140146  0.154216  1
  Ru  Ru23  1  0.138653  0.138653  0.152537  1
