# generated using pymatgen
data_La5Ga2Ir3
_symmetry_space_group_name_H-M   'P 1'
_cell_length_a   8.69335213
_cell_length_b   8.69335164
_cell_length_c   8.69335200
_cell_angle_alpha   109.47122146
_cell_angle_beta   109.47122034
_cell_angle_gamma   109.47121875
_symmetry_Int_Tables_number   1
_chemical_formula_structural   La5Ga2Ir3
_chemical_formula_sum   'La10 Ga4 Ir6'
_cell_volume   505.75466765
_cell_formula_units_Z   2
loop_
 _symmetry_equiv_pos_site_id
 _symmetry_equiv_pos_as_xyz
  1  'x, y, z'
loop_
 _atom_site_type_symbol
 _atom_site_label
 _atom_site_symmetry_multiplicity
 _atom_site_fract_x
 _atom_site_fract_y
 _atom_site_fract_z
 _atom_site_occupancy
  La  La0  1  0.250000  0.688083  0.438084  1
  La  La1  1  0.750000  0.811917  0.061917  1
  La  La2  1  0.438084  0.250000  0.688083  1
  La  La3  1  0.688083  0.438084  0.250000  1
  La  La4  1  0.061917  0.750000  0.811917  1
  La  La5  1  0.811917  0.061917  0.750000  1
  La  La6  1  0.217413  0.217413  0.217413  1
  La  La7  1  0.500001  0.000000  0.282587  1
  La  La8  1  0.282587  0.500001  0.000000  1
  La  La9  1  0.000000  0.282587  0.500001  1
  Ga  Ga10  1  0.500001  0.000000  0.899493  1
  Ga  Ga11  1  0.600507  0.600507  0.600507  1
  Ga  Ga12  1  0.899493  0.500001  0.000000  1
  Ga  Ga13  1  0.000000  0.899493  0.500001  1
  Ir  Ir14  1  0.250001  0.123213  0.873213  1
  Ir  Ir15  1  0.750000  0.376786  0.626786  1
  Ir  Ir16  1  0.873213  0.250001  0.123213  1
  Ir  Ir17  1  0.123213  0.873213  0.250001  1
  Ir  Ir18  1  0.626786  0.750000  0.376786  1
  Ir  Ir19  1  0.376786  0.626786  0.750000  1
