# generated using pymatgen
data_Nd4HoSn4
_symmetry_space_group_name_H-M   'P 1'
_cell_length_a   8.23469300
_cell_length_b   8.39412500
_cell_length_c   15.90167600
_cell_angle_alpha   90.00000000
_cell_angle_beta   90.00000000
_cell_angle_gamma   90.00000000
_symmetry_Int_Tables_number   1
_chemical_formula_structural   Nd4HoSn4
_chemical_formula_sum   'Nd16 Ho4 Sn16'
_cell_volume   1099.17222404
_cell_formula_units_Z   4
loop_
 _symmetry_equiv_pos_site_id
 _symmetry_equiv_pos_as_xyz
  1  'x, y, z'
loop_
 _atom_site_type_symbol
 _atom_site_label
 _atom_site_symmetry_multiplicity
 _atom_site_fract_x
 _atom_site_fract_y
 _atom_site_fract_z
 _atom_site_occupancy
  Nd  Nd0  1  0.017524  0.180917  0.401122  1
  Nd  Nd1  1  0.368381  0.836864  0.120586  1
  Nd  Nd2  1  0.131619  0.336864  0.620586  1
  Nd  Nd3  1  0.482476  0.680917  0.901122  1
  Nd  Nd4  1  0.868381  0.663136  0.120586  1
  Nd  Nd5  1  0.131619  0.336864  0.879414  1
  Nd  Nd6  1  0.482476  0.680917  0.598878  1
  Nd  Nd7  1  0.631619  0.163136  0.620586  1
  Nd  Nd8  1  0.868381  0.663136  0.379414  1
  Nd  Nd9  1  0.017524  0.180917  0.098878  1
  Nd  Nd10  1  0.982476  0.819083  0.901122  1
  Nd  Nd11  1  0.631619  0.163136  0.879414  1
  Nd  Nd12  1  0.517524  0.319083  0.098878  1
  Nd  Nd13  1  0.368381  0.836864  0.379414  1
  Nd  Nd14  1  0.982476  0.819083  0.598878  1
  Nd  Nd15  1  0.517524  0.319083  0.401122  1
  Ho  Ho16  1  0.199742  0.501895  0.250000  1
  Ho  Ho17  1  0.699742  0.998105  0.250000  1
  Ho  Ho18  1  0.300258  0.001895  0.750000  1
  Ho  Ho19  1  0.800258  0.498105  0.750000  1
  Sn  Sn20  1  0.791585  0.464495  0.543370  1
  Sn  Sn21  1  0.708415  0.964495  0.456630  1
  Sn  Sn22  1  0.676050  0.854711  0.750000  1
  Sn  Sn23  1  0.208415  0.535505  0.456630  1
  Sn  Sn24  1  0.291585  0.035505  0.956630  1
  Sn  Sn25  1  0.823950  0.354711  0.250000  1
  Sn  Sn26  1  0.791585  0.464495  0.956630  1
  Sn  Sn27  1  0.565394  0.616011  0.250000  1
  Sn  Sn28  1  0.208415  0.535505  0.043370  1
  Sn  Sn29  1  0.434606  0.383989  0.750000  1
  Sn  Sn30  1  0.176050  0.645289  0.750000  1
  Sn  Sn31  1  0.934606  0.116011  0.750000  1
  Sn  Sn32  1  0.291585  0.035505  0.543370  1
  Sn  Sn33  1  0.708415  0.964495  0.043370  1
  Sn  Sn34  1  0.323950  0.145289  0.250000  1
  Sn  Sn35  1  0.065394  0.883989  0.250000  1
