# generated using pymatgen
data_TbTm(Si7Ir3)2
_symmetry_space_group_name_H-M   'P 1'
_cell_length_a   8.04687353
_cell_length_b   8.04687221
_cell_length_c   8.04687300
_cell_angle_alpha   56.47274367
_cell_angle_beta   56.47274138
_cell_angle_gamma   56.47274249
_symmetry_Int_Tables_number   1
_chemical_formula_structural   TbTm(Si7Ir3)2
_chemical_formula_sum   'Tb1 Tm1 Si14 Ir6'
_cell_volume   338.39786973
_cell_formula_units_Z   1
loop_
 _symmetry_equiv_pos_site_id
 _symmetry_equiv_pos_as_xyz
  1  'x, y, z'
loop_
 _atom_site_type_symbol
 _atom_site_label
 _atom_site_symmetry_multiplicity
 _atom_site_fract_x
 _atom_site_fract_y
 _atom_site_fract_z
 _atom_site_occupancy
  Tb  Tb0  1  0.500000  0.500000  0.500000  1
  Tm  Tm1  1  0.000000  0.000000  0.000000  1
  Si  Si2  1  0.850641  0.063567  0.672920  1
  Si  Si3  1  0.672920  0.850641  0.063567  1
  Si  Si4  1  0.063567  0.672920  0.850641  1
  Si  Si5  1  0.649959  0.827711  0.435530  1
  Si  Si6  1  0.250063  0.250063  0.250063  1
  Si  Si7  1  0.749937  0.749937  0.749937  1
  Si  Si8  1  0.172289  0.564470  0.350041  1
  Si  Si9  1  0.564470  0.350041  0.172289  1
  Si  Si10  1  0.350041  0.172289  0.564470  1
  Si  Si11  1  0.936433  0.327080  0.149359  1
  Si  Si12  1  0.327080  0.149359  0.936433  1
  Si  Si13  1  0.149359  0.936433  0.327080  1
  Si  Si14  1  0.827711  0.435530  0.649959  1
  Si  Si15  1  0.435530  0.649959  0.827711  1
  Ir  Ir16  1  0.750937  0.070128  0.428396  1
  Ir  Ir17  1  0.428396  0.750937  0.070128  1
  Ir  Ir18  1  0.070128  0.428396  0.750937  1
  Ir  Ir19  1  0.249063  0.929872  0.571604  1
  Ir  Ir20  1  0.571604  0.249063  0.929872  1
  Ir  Ir21  1  0.929872  0.571604  0.249063  1
