# generated using pymatgen
data_Ho2Er18FeCo3Sb8
_symmetry_space_group_name_H-M   'P 1'
_cell_length_a   7.81016342
_cell_length_b   8.71574800
_cell_length_c   12.08032703
_cell_angle_alpha   90.00000000
_cell_angle_beta   90.12857265
_cell_angle_gamma   90.00000000
_symmetry_Int_Tables_number   1
_chemical_formula_structural   Ho2Er18FeCo3Sb8
_chemical_formula_sum   'Ho2 Er18 Fe1 Co3 Sb8'
_cell_volume   822.32289894
_cell_formula_units_Z   1
loop_
 _symmetry_equiv_pos_site_id
 _symmetry_equiv_pos_as_xyz
  1  'x, y, z'
loop_
 _atom_site_type_symbol
 _atom_site_label
 _atom_site_symmetry_multiplicity
 _atom_site_fract_x
 _atom_site_fract_y
 _atom_site_fract_z
 _atom_site_occupancy
  Ho  Ho0  1  0.377781  0.250000  0.692846  1
  Ho  Ho1  1  0.877636  0.750000  0.807376  1
  Er  Er2  1  0.158209  0.750000  0.205630  1
  Er  Er3  1  0.655104  0.250000  0.296344  1
  Er  Er4  1  0.844772  0.250000  0.797780  1
  Er  Er5  1  0.344503  0.750000  0.702729  1
  Er  Er6  1  0.453444  0.750000  0.997544  1
  Er  Er7  1  0.949727  0.250000  0.502907  1
  Er  Er8  1  0.545606  0.250000  0.002073  1
  Er  Er9  1  0.046871  0.750000  0.496918  1
  Er  Er10  1  0.622162  0.750000  0.306049  1
  Er  Er11  1  0.123233  0.250000  0.191851  1
  Er  Er12  1  0.822139  0.963799  0.065491  1
  Er  Er13  1  0.324927  0.032183  0.436660  1
  Er  Er14  1  0.177245  0.464410  0.934958  1
  Er  Er15  1  0.678403  0.539479  0.564946  1
  Er  Er16  1  0.177245  0.035590  0.934958  1
  Er  Er17  1  0.678403  0.960521  0.564946  1
  Er  Er18  1  0.822139  0.536201  0.065491  1
  Er  Er19  1  0.324927  0.467817  0.436660  1
  Fe  Fe20  1  0.427253  0.750000  0.487404  1
  Co  Co21  1  0.934631  0.250000  0.009741  1
  Co  Co22  1  0.567714  0.250000  0.509473  1
  Co  Co23  1  0.066597  0.750000  0.991379  1
  Sb  Sb24  1  0.929617  0.992913  0.326797  1
  Sb  Sb25  1  0.429420  0.008558  0.172238  1
  Sb  Sb26  1  0.069868  0.491465  0.672705  1
  Sb  Sb27  1  0.570759  0.507963  0.827183  1
  Sb  Sb28  1  0.069868  0.008535  0.672705  1
  Sb  Sb29  1  0.570759  0.992037  0.827183  1
  Sb  Sb30  1  0.929617  0.507087  0.326797  1
  Sb  Sb31  1  0.429420  0.491442  0.172238  1
