# generated using pymatgen
data_YbCdRh2O7
_symmetry_space_group_name_H-M   'P 1'
_cell_length_a   7.20637970
_cell_length_b   7.20637989
_cell_length_c   7.12418500
_cell_angle_alpha   60.37659524
_cell_angle_beta   60.37659438
_cell_angle_gamma   60.93974345
_symmetry_Int_Tables_number   1
_chemical_formula_structural   YbCdRh2O7
_chemical_formula_sum   'Yb2 Cd2 Rh4 O14'
_cell_volume   264.92825229
_cell_formula_units_Z   2
loop_
 _symmetry_equiv_pos_site_id
 _symmetry_equiv_pos_as_xyz
  1  'x, y, z'
loop_
 _atom_site_type_symbol
 _atom_site_label
 _atom_site_symmetry_multiplicity
 _atom_site_fract_x
 _atom_site_fract_y
 _atom_site_fract_z
 _atom_site_occupancy
  Yb  Yb0  1  0.125000  0.625000  0.125000  1
  Yb  Yb1  1  0.625000  0.125000  0.125000  1
  Cd  Cd2  1  0.125000  0.125000  0.125000  1
  Cd  Cd3  1  0.125000  0.125000  0.625000  1
  Rh  Rh4  1  0.625000  0.625000  0.625000  1
  Rh  Rh5  1  0.625000  0.625000  0.125000  1
  Rh  Rh6  1  0.125000  0.625000  0.625000  1
  Rh  Rh7  1  0.625000  0.125000  0.625000  1
  O  O8  1  0.240588  0.240588  0.259412  1
  O  O9  1  0.299533  0.698818  0.297110  1
  O  O10  1  0.947917  0.947917  0.552083  1
  O  O11  1  0.551182  0.950467  0.545461  1
  O  O12  1  0.707254  0.707254  0.292746  1
  O  O13  1  0.950467  0.551182  0.545461  1
  O  O14  1  0.698818  0.299533  0.704539  1
  O  O15  1  0.302083  0.302083  0.697917  1
  O  O16  1  0.698818  0.299533  0.297110  1
  O  O17  1  0.299533  0.698818  0.704539  1
  O  O18  1  0.950467  0.551182  0.952890  1
  O  O19  1  0.542746  0.542746  0.957254  1
  O  O20  1  0.009412  0.009412  0.990588  1
  O  O21  1  0.551182  0.950467  0.952890  1
