# generated using pymatgen
data_Er2CdNiAg
_symmetry_space_group_name_H-M   'P 1'
_cell_length_a   7.68449091
_cell_length_b   7.68449087
_cell_length_c   3.63816600
_cell_angle_alpha   90.00000000
_cell_angle_beta   90.00000000
_cell_angle_gamma   91.96494277
_symmetry_Int_Tables_number   1
_chemical_formula_structural   Er2CdNiAg
_chemical_formula_sum   'Er4 Cd2 Ni2 Ag2'
_cell_volume   214.71246988
_cell_formula_units_Z   2
loop_
 _symmetry_equiv_pos_site_id
 _symmetry_equiv_pos_as_xyz
  1  'x, y, z'
loop_
 _atom_site_type_symbol
 _atom_site_label
 _atom_site_symmetry_multiplicity
 _atom_site_fract_x
 _atom_site_fract_y
 _atom_site_fract_z
 _atom_site_occupancy
  Er  Er0  1  0.695906  0.195906  0.500000  1
  Er  Er1  1  0.304094  0.804094  0.500000  1
  Er  Er2  1  0.155728  0.344272  0.500000  1
  Er  Er3  1  0.844272  0.655728  0.500000  1
  Cd  Cd4  1  0.000000  0.000000  0.000000  1
  Cd  Cd5  1  0.500000  0.500000  0.000000  1
  Ni  Ni6  1  0.117630  0.617630  0.000000  1
  Ni  Ni7  1  0.882370  0.382370  0.000000  1
  Ag  Ag8  1  0.626839  0.873161  0.000000  1
  Ag  Ag9  1  0.373161  0.126839  0.000000  1
