# generated using pymatgen
data_BaGdSi2Ge2N7
_symmetry_space_group_name_H-M   'P 1'
_cell_length_a   6.27836677
_cell_length_b   6.24798120
_cell_length_c   10.12363650
_cell_angle_alpha   90.68985726
_cell_angle_beta   89.65674768
_cell_angle_gamma   119.84002124
_symmetry_Int_Tables_number   1
_chemical_formula_structural   BaGdSi2Ge2N7
_chemical_formula_sum   'Ba2 Gd2 Si4 Ge4 N14'
_cell_volume   344.44504506
_cell_formula_units_Z   2
loop_
 _symmetry_equiv_pos_site_id
 _symmetry_equiv_pos_as_xyz
  1  'x, y, z'
loop_
 _atom_site_type_symbol
 _atom_site_label
 _atom_site_symmetry_multiplicity
 _atom_site_fract_x
 _atom_site_fract_y
 _atom_site_fract_z
 _atom_site_occupancy
  Ba  Ba0  1  0.666675  0.334444  0.576594  1
  Ba  Ba1  1  0.333325  0.667770  0.076594  1
  Gd  Gd2  1  0.669469  0.335282  0.951462  1
  Gd  Gd3  1  0.330531  0.665813  0.451462  1
  Si  Si4  1  0.172148  0.827787  0.760409  1
  Si  Si5  1  0.827852  0.655640  0.260409  1
  Si  Si6  1  0.001319  0.995175  0.028574  1
  Si  Si7  1  0.998681  0.993857  0.528574  1
  Ge  Ge8  1  0.171587  0.344894  0.760085  1
  Ge  Ge9  1  0.828413  0.173307  0.260085  1
  Ge  Ge10  1  0.346448  0.174623  0.260422  1
  Ge  Ge11  1  0.653552  0.828175  0.760422  1
  N  N12  1  0.004939  0.990611  0.842143  1
  N  N13  1  0.995061  0.985672  0.342143  1
  N  N14  1  0.851905  0.700594  0.091363  1
  N  N15  1  0.148095  0.848690  0.591363  1
  N  N16  1  0.696980  0.848797  0.580042  1
  N  N17  1  0.303020  0.151817  0.080042  1
  N  N18  1  0.851797  0.150945  0.078825  1
  N  N19  1  0.148203  0.299150  0.578825  1
  N  N20  1  0.493360  0.505679  0.816624  1
  N  N21  1  0.979312  0.502091  0.313010  1
  N  N22  1  0.506640  0.012320  0.316624  1
  N  N23  1  0.476741  0.980416  0.813269  1
  N  N24  1  0.523259  0.503674  0.313269  1
  N  N25  1  0.020688  0.522778  0.813010  1
