# generated using pymatgen
data_Eu16MgCd3Ni4
_symmetry_space_group_name_H-M   'P 1'
_cell_length_a   10.11327373
_cell_length_b   10.21192200
_cell_length_c   10.21192400
_cell_angle_alpha   60.00000000
_cell_angle_beta   59.67680116
_cell_angle_gamma   59.67680101
_symmetry_Int_Tables_number   1
_chemical_formula_structural   Eu16MgCd3Ni4
_chemical_formula_sum   'Eu16 Mg1 Cd3 Ni4'
_cell_volume   742.08366020
_cell_formula_units_Z   1
loop_
 _symmetry_equiv_pos_site_id
 _symmetry_equiv_pos_as_xyz
  1  'x, y, z'
loop_
 _atom_site_type_symbol
 _atom_site_label
 _atom_site_symmetry_multiplicity
 _atom_site_fract_x
 _atom_site_fract_y
 _atom_site_fract_z
 _atom_site_occupancy
  Eu  Eu0  1  0.595879  0.595260  0.595260  1
  Eu  Eu1  1  0.595879  0.595260  0.213601  1
  Eu  Eu2  1  0.595879  0.213601  0.595260  1
  Eu  Eu3  1  0.209202  0.596932  0.596932  1
  Eu  Eu4  1  0.058220  0.441398  0.441398  1
  Eu  Eu5  1  0.440051  0.059998  0.059998  1
  Eu  Eu6  1  0.440051  0.059998  0.439953  1
  Eu  Eu7  1  0.058220  0.441398  0.058982  1
  Eu  Eu8  1  0.440051  0.439953  0.059998  1
  Eu  Eu9  1  0.058220  0.058982  0.441398  1
  Eu  Eu10  1  0.188566  0.810155  0.810155  1
  Eu  Eu11  1  0.809461  0.190205  0.190205  1
  Eu  Eu12  1  0.809461  0.190205  0.810129  1
  Eu  Eu13  1  0.188566  0.810155  0.191123  1
  Eu  Eu14  1  0.809461  0.810129  0.190205  1
  Eu  Eu15  1  0.188566  0.191123  0.810155  1
  Mg  Mg16  1  0.528824  0.823725  0.823725  1
  Cd  Cd17  1  0.829093  0.830056  0.830056  1
  Cd  Cd18  1  0.829093  0.830056  0.510794  1
  Cd  Cd19  1  0.829093  0.510794  0.830056  1
  Ni  Ni20  1  0.390164  0.391060  0.391060  1
  Ni  Ni21  1  0.390164  0.391060  0.827715  1
  Ni  Ni22  1  0.390164  0.827715  0.391060  1
  Ni  Ni23  1  0.827666  0.390778  0.390778  1
