# generated using pymatgen
data_Ca3C3O
_symmetry_space_group_name_H-M   'P 1'
_cell_length_a   3.68439330
_cell_length_b   3.68505859
_cell_length_c   7.66665865
_cell_angle_alpha   83.62204026
_cell_angle_beta   83.65907110
_cell_angle_gamma   89.27388690
_symmetry_Int_Tables_number   1
_chemical_formula_structural   Ca3C3O
_chemical_formula_sum   'Ca3 C3 O1'
_cell_volume   102.81467663
_cell_formula_units_Z   1
loop_
 _symmetry_equiv_pos_site_id
 _symmetry_equiv_pos_as_xyz
  1  'x, y, z'
loop_
 _atom_site_type_symbol
 _atom_site_label
 _atom_site_symmetry_multiplicity
 _atom_site_fract_x
 _atom_site_fract_y
 _atom_site_fract_z
 _atom_site_occupancy
  Ca  Ca0  1  0.865394  0.432110  0.145415  1
  Ca  Ca1  1  0.300765  0.866986  0.448906  1
  Ca  Ca2  1  0.424973  0.992152  0.842053  1
  C  C3  1  0.781820  0.348187  0.488801  1
  C  C4  1  0.862793  0.429532  0.645819  1
  C  C5  1  0.943420  0.510568  0.803027  1
  O  O6  1  0.359487  0.926036  0.145616  1
