# generated using pymatgen
data_Dy4AlCo
_symmetry_space_group_name_H-M   'P 1'
_cell_length_a   9.41646570
_cell_length_b   9.41646538
_cell_length_c   9.41646600
_cell_angle_alpha   60.00000484
_cell_angle_beta   60.00000597
_cell_angle_gamma   60.00000083
_symmetry_Int_Tables_number   1
_chemical_formula_structural   Dy4AlCo
_chemical_formula_sum   'Dy16 Al4 Co4'
_cell_volume   590.40336728
_cell_formula_units_Z   4
loop_
 _symmetry_equiv_pos_site_id
 _symmetry_equiv_pos_as_xyz
  1  'x, y, z'
loop_
 _atom_site_type_symbol
 _atom_site_label
 _atom_site_symmetry_multiplicity
 _atom_site_fract_x
 _atom_site_fract_y
 _atom_site_fract_z
 _atom_site_occupancy
  Dy  Dy0  1  0.808172  0.191828  0.191828  1
  Dy  Dy1  1  0.191828  0.808172  0.808172  1
  Dy  Dy2  1  0.191828  0.808172  0.191828  1
  Dy  Dy3  1  0.808172  0.191828  0.808172  1
  Dy  Dy4  1  0.191828  0.191828  0.808172  1
  Dy  Dy5  1  0.808172  0.808172  0.191828  1
  Dy  Dy6  1  0.937881  0.562119  0.562119  1
  Dy  Dy7  1  0.562119  0.937881  0.937881  1
  Dy  Dy8  1  0.562119  0.937881  0.562119  1
  Dy  Dy9  1  0.937881  0.562119  0.937881  1
  Dy  Dy10  1  0.562119  0.562119  0.937881  1
  Dy  Dy11  1  0.937881  0.937881  0.562119  1
  Dy  Dy12  1  0.348975  0.348975  0.348975  1
  Dy  Dy13  1  0.348975  0.348975  0.953075  1
  Dy  Dy14  1  0.348975  0.953075  0.348975  1
  Dy  Dy15  1  0.953075  0.348975  0.348975  1
  Al  Al16  1  0.576794  0.576794  0.576794  1
  Al  Al17  1  0.576794  0.576794  0.269617  1
  Al  Al18  1  0.576794  0.269617  0.576794  1
  Al  Al19  1  0.269617  0.576794  0.576794  1
  Co  Co20  1  0.140671  0.140671  0.140671  1
  Co  Co21  1  0.140671  0.140671  0.577986  1
  Co  Co22  1  0.140671  0.577986  0.140671  1
  Co  Co23  1  0.577986  0.140671  0.140671  1
