# generated using pymatgen
data_Li4GdUS6
_symmetry_space_group_name_H-M   'P 1'
_cell_length_a   6.69430456
_cell_length_b   6.70156416
_cell_length_c   6.48286550
_cell_angle_alpha   99.91358833
_cell_angle_beta   99.82759044
_cell_angle_gamma   120.01291334
_symmetry_Int_Tables_number   1
_chemical_formula_structural   Li4GdUS6
_chemical_formula_sum   'Li4 Gd1 U1 S6'
_cell_volume   236.56900830
_cell_formula_units_Z   1
loop_
 _symmetry_equiv_pos_site_id
 _symmetry_equiv_pos_as_xyz
  1  'x, y, z'
loop_
 _atom_site_type_symbol
 _atom_site_label
 _atom_site_symmetry_multiplicity
 _atom_site_fract_x
 _atom_site_fract_y
 _atom_site_fract_z
 _atom_site_occupancy
  Li  Li0  1  0.500119  0.501120  0.999745  1
  Li  Li1  1  0.002750  0.995938  0.499466  1
  Li  Li2  1  0.664378  0.335005  0.501550  1
  Li  Li3  1  0.335229  0.665851  0.499174  1
  Gd  Gd4  1  0.833961  0.167510  0.000216  1
  U  U5  1  0.166539  0.833151  0.999952  1
  S  S6  1  0.926687  0.594989  0.244209  1
  S  S7  1  0.569836  0.917291  0.250090  1
  S  S8  1  0.248550  0.235121  0.251495  1
  S  S9  1  0.763685  0.751795  0.749171  1
  S  S10  1  0.083952  0.431124  0.750143  1
  S  S11  1  0.404317  0.071108  0.754789  1
