# generated using pymatgen
data_Hf2Sc5U(Co4P3)4
_symmetry_space_group_name_H-M   'P 1'
_cell_length_a   12.09731072
_cell_length_b   12.11475143
_cell_length_c   3.65043800
_cell_angle_alpha   90.00000000
_cell_angle_beta   90.00000000
_cell_angle_gamma   120.40576380
_symmetry_Int_Tables_number   1
_chemical_formula_structural   Hf2Sc5U(Co4P3)4
_chemical_formula_sum   'Hf2 Sc5 U1 Co16 P12'
_cell_volume   461.41177320
_cell_formula_units_Z   1
loop_
 _symmetry_equiv_pos_site_id
 _symmetry_equiv_pos_as_xyz
  1  'x, y, z'
loop_
 _atom_site_type_symbol
 _atom_site_label
 _atom_site_symmetry_multiplicity
 _atom_site_fract_x
 _atom_site_fract_y
 _atom_site_fract_z
 _atom_site_occupancy
  Hf  Hf0  1  0.999899  0.555869  0.000000  1
  Hf  Hf1  1  0.183454  0.000948  0.500000  1
  Sc  Sc2  1  0.440216  0.439542  0.000000  1
  Sc  Sc3  1  0.000842  0.181326  0.500000  1
  Sc  Sc4  1  0.556157  0.998979  0.000000  1
  Sc  Sc5  1  0.334295  0.665764  0.000000  1
  Sc  Sc6  1  0.665420  0.332871  0.000000  1
  U  U7  1  0.827177  0.827801  0.500000  1
  Co  Co8  1  0.629254  0.823151  0.000000  1
  Co  Co9  1  0.368856  0.192111  0.000000  1
  Co  Co10  1  0.001823  0.721277  0.500000  1
  Co  Co11  1  0.277508  0.276808  0.500000  1
  Co  Co12  1  0.873841  0.356428  0.500000  1
  Co  Co13  1  0.720153  0.001385  0.500000  1
  Co  Co14  1  0.824073  0.630091  0.000000  1
  Co  Co15  1  0.179448  0.807009  0.000000  1
  Co  Co16  1  0.354678  0.873786  0.500000  1
  Co  Co17  1  0.125477  0.479753  0.500000  1
  Co  Co18  1  0.646104  0.520433  0.500000  1
  Co  Co19  1  0.994444  0.993809  0.000000  1
  Co  Co20  1  0.521381  0.646417  0.500000  1
  Co  Co21  1  0.477801  0.125465  0.500000  1
  Co  Co22  1  0.193572  0.370447  0.000000  1
  Co  Co23  1  0.805208  0.180434  0.000000  1
  P  P24  1  0.000744  0.346642  0.000000  1
  P  P25  1  0.825476  0.515793  0.500000  1
  P  P26  1  0.687940  0.173751  0.500000  1
  P  P27  1  0.172576  0.172840  0.000000  1
  P  P28  1  0.646961  0.647735  0.000000  1
  P  P29  1  0.823890  0.008088  0.000000  1
  P  P30  1  0.516243  0.826773  0.500000  1
  P  P31  1  0.175569  0.689213  0.500000  1
  P  P32  1  0.350390  0.001495  0.000000  1
  P  P33  1  0.482060  0.309258  0.500000  1
  P  P34  1  0.007495  0.824575  0.000000  1
  P  P35  1  0.309576  0.481935  0.500000  1
