# generated using pymatgen
data_Mn7Fe5(Mo3N)4
_symmetry_space_group_name_H-M   'P 1'
_cell_length_a   7.81851200
_cell_length_b   7.81851260
_cell_length_c   7.81851263
_cell_angle_alpha   60.03756356
_cell_angle_beta   60.03756320
_cell_angle_gamma   60.03756583
_symmetry_Int_Tables_number   1
_chemical_formula_structural   Mn7Fe5(Mo3N)4
_chemical_formula_sum   'Mn7 Fe5 Mo12 N4'
_cell_volume   338.24160296
_cell_formula_units_Z   1
loop_
 _symmetry_equiv_pos_site_id
 _symmetry_equiv_pos_as_xyz
  1  'x, y, z'
loop_
 _atom_site_type_symbol
 _atom_site_label
 _atom_site_symmetry_multiplicity
 _atom_site_fract_x
 _atom_site_fract_y
 _atom_site_fract_z
 _atom_site_occupancy
  Mn  Mn0  1  0.124306  0.625982  0.625982  1
  Mn  Mn1  1  0.625982  0.124306  0.625982  1
  Mn  Mn2  1  0.625982  0.625982  0.124306  1
  Mn  Mn3  1  0.624727  0.624727  0.624727  1
  Mn  Mn4  1  0.733085  0.421262  0.421262  1
  Mn  Mn5  1  0.421262  0.733085  0.421262  1
  Mn  Mn6  1  0.421262  0.421262  0.733085  1
  Fe  Fe7  1  0.420355  0.420355  0.420355  1
  Fe  Fe8  1  0.516920  0.827431  0.827431  1
  Fe  Fe9  1  0.827431  0.516920  0.827431  1
  Fe  Fe10  1  0.827431  0.827431  0.516920  1
  Fe  Fe11  1  0.827776  0.827776  0.827776  1
  Mo  Mo12  1  0.799559  0.799559  0.200584  1
  Mo  Mo13  1  0.201111  0.201111  0.799149  1
  Mo  Mo14  1  0.799559  0.200584  0.799559  1
  Mo  Mo15  1  0.201111  0.799149  0.201111  1
  Mo  Mo16  1  0.200584  0.799559  0.799559  1
  Mo  Mo17  1  0.799149  0.201111  0.201111  1
  Mo  Mo18  1  0.452030  0.452030  0.047974  1
  Mo  Mo19  1  0.049534  0.049534  0.450741  1
  Mo  Mo20  1  0.452030  0.047974  0.452030  1
  Mo  Mo21  1  0.049534  0.450741  0.049534  1
  Mo  Mo22  1  0.047974  0.452030  0.452030  1
  Mo  Mo23  1  0.450741  0.049534  0.049534  1
  N  N24  1  0.623830  0.125769  0.125769  1
  N  N25  1  0.125769  0.623830  0.125769  1
  N  N26  1  0.125769  0.125769  0.623830  1
  N  N27  1  0.125196  0.125196  0.125196  1
