# generated using pymatgen
data_LaHoP7Ru12
_symmetry_space_group_name_H-M   'P 1'
_cell_length_a   9.46513700
_cell_length_b   9.46513617
_cell_length_c   3.96784700
_cell_angle_alpha   90.00000000
_cell_angle_beta   90.00000000
_cell_angle_gamma   119.99999242
_symmetry_Int_Tables_number   1
_chemical_formula_structural   LaHoP7Ru12
_chemical_formula_sum   'La1 Ho1 P7 Ru12'
_cell_volume   307.85013830
_cell_formula_units_Z   1
loop_
 _symmetry_equiv_pos_site_id
 _symmetry_equiv_pos_as_xyz
  1  'x, y, z'
loop_
 _atom_site_type_symbol
 _atom_site_label
 _atom_site_symmetry_multiplicity
 _atom_site_fract_x
 _atom_site_fract_y
 _atom_site_fract_z
 _atom_site_occupancy
  La  La0  1  0.333333  0.666667  0.000000  1
  Ho  Ho1  1  0.666667  0.333333  0.500000  1
  P  P2  1  0.607032  0.718831  0.500000  1
  P  P3  1  0.000000  0.000000  0.000000  1
  P  P4  1  0.281169  0.888201  0.500000  1
  P  P5  1  0.111799  0.392968  0.500000  1
  P  P6  1  0.887421  0.571140  0.000000  1
  P  P7  1  0.428860  0.316280  0.000000  1
  P  P8  1  0.683720  0.112579  0.000000  1
  Ru  Ru9  1  0.559864  0.956535  0.500000  1
  Ru  Ru10  1  0.396671  0.440136  0.500000  1
  Ru  Ru11  1  0.914717  0.118712  0.500000  1
  Ru  Ru12  1  0.203995  0.085283  0.500000  1
  Ru  Ru13  1  0.881288  0.796005  0.500000  1
  Ru  Ru14  1  0.729017  0.892918  0.000000  1
  Ru  Ru15  1  0.107082  0.836098  0.000000  1
  Ru  Ru16  1  0.163902  0.270983  0.000000  1
  Ru  Ru17  1  0.421439  0.070242  0.000000  1
  Ru  Ru18  1  0.929758  0.351199  0.000000  1
  Ru  Ru19  1  0.648801  0.578561  0.000000  1
  Ru  Ru20  1  0.043465  0.603329  0.500000  1
