# generated using pymatgen
data_KAcGeS4
_symmetry_space_group_name_H-M   'P 1'
_cell_length_a   6.86308000
_cell_length_b   6.90280579
_cell_length_c   17.92106818
_cell_angle_alpha   73.33392306
_cell_angle_beta   90.00000000
_cell_angle_gamma   90.00000000
_symmetry_Int_Tables_number   1
_chemical_formula_structural   KAcGeS4
_chemical_formula_sum   'K4 Ac4 Ge4 S16'
_cell_volume   813.33732055
_cell_formula_units_Z   4
loop_
 _symmetry_equiv_pos_site_id
 _symmetry_equiv_pos_as_xyz
  1  'x, y, z'
loop_
 _atom_site_type_symbol
 _atom_site_label
 _atom_site_symmetry_multiplicity
 _atom_site_fract_x
 _atom_site_fract_y
 _atom_site_fract_z
 _atom_site_occupancy
  K  K0  1  0.253958  0.729690  0.034351  1
  K  K1  1  0.753958  0.270310  0.465649  1
  K  K2  1  0.746042  0.270310  0.965649  1
  K  K3  1  0.246042  0.729690  0.534351  1
  Ac  Ac4  1  0.270730  0.764470  0.277889  1
  Ac  Ac5  1  0.770730  0.235530  0.222111  1
  Ac  Ac6  1  0.729270  0.235530  0.722111  1
  Ac  Ac7  1  0.229270  0.764470  0.777889  1
  Ge  Ge8  1  0.743838  0.784298  0.156326  1
  Ge  Ge9  1  0.243838  0.215702  0.343674  1
  Ge  Ge10  1  0.256162  0.215702  0.843674  1
  Ge  Ge11  1  0.756162  0.784298  0.656326  1
  S  S12  1  0.510694  0.023827  0.358724  1
  S  S13  1  0.010694  0.976173  0.141276  1
  S  S14  1  0.489306  0.976173  0.641276  1
  S  S15  1  0.989306  0.023827  0.858724  1
  S  S16  1  0.740012  0.588385  0.078374  1
  S  S17  1  0.240012  0.411615  0.421626  1
  S  S18  1  0.259988  0.411615  0.921626  1
  S  S19  1  0.759988  0.588385  0.578374  1
  S  S20  1  0.003914  0.987714  0.365985  1
  S  S21  1  0.503914  0.012286  0.134015  1
  S  S22  1  0.996086  0.012286  0.634015  1
  S  S23  1  0.496086  0.987714  0.865985  1
  S  S24  1  0.706393  0.601393  0.281758  1
  S  S25  1  0.206393  0.398607  0.218242  1
  S  S26  1  0.293607  0.398607  0.718242  1
  S  S27  1  0.793607  0.601393  0.781758  1
