# generated using pymatgen
data_Nd17Tm3Bi7Pb9
_symmetry_space_group_name_H-M   'P 1'
_cell_length_a   8.42714376
_cell_length_b   16.14423285
_cell_length_c   8.50556500
_cell_angle_alpha   90.06717182
_cell_angle_beta   89.88238478
_cell_angle_gamma   90.02684756
_symmetry_Int_Tables_number   1
_chemical_formula_structural   Nd17Tm3Bi7Pb9
_chemical_formula_sum   'Nd17 Tm3 Bi7 Pb9'
_cell_volume   1157.17681173
_cell_formula_units_Z   1
loop_
 _symmetry_equiv_pos_site_id
 _symmetry_equiv_pos_as_xyz
  1  'x, y, z'
loop_
 _atom_site_type_symbol
 _atom_site_label
 _atom_site_symmetry_multiplicity
 _atom_site_fract_x
 _atom_site_fract_y
 _atom_site_fract_z
 _atom_site_occupancy
  Nd  Nd0  1  0.622825  0.620564  0.159067  1
  Nd  Nd1  1  0.123338  0.879279  0.340349  1
  Nd  Nd2  1  0.376724  0.121125  0.842118  1
  Nd  Nd3  1  0.879046  0.378140  0.657830  1
  Nd  Nd4  1  0.375182  0.379288  0.839298  1
  Nd  Nd5  1  0.876019  0.121963  0.659078  1
  Nd  Nd6  1  0.623458  0.879017  0.158973  1
  Nd  Nd7  1  0.123820  0.619913  0.342123  1
  Nd  Nd8  1  0.458943  0.603298  0.673286  1
  Nd  Nd9  1  0.961528  0.896662  0.823651  1
  Nd  Nd10  1  0.539543  0.103779  0.324896  1
  Nd  Nd11  1  0.039087  0.396238  0.176381  1
  Nd  Nd12  1  0.536526  0.396389  0.327145  1
  Nd  Nd13  1  0.039028  0.103375  0.175248  1
  Nd  Nd14  1  0.461051  0.896567  0.675620  1
  Nd  Nd15  1  0.963686  0.602578  0.822305  1
  Nd  Nd16  1  0.794404  0.750287  0.504012  1
  Tm  Tm17  1  0.292848  0.749943  0.997475  1
  Tm  Tm18  1  0.207066  0.251831  0.497332  1
  Tm  Tm19  1  0.706877  0.250293  0.002997  1
  Bi  Bi20  1  0.722503  0.451779  0.973464  1
  Bi  Bi21  1  0.221546  0.048191  0.526952  1
  Bi  Bi22  1  0.278639  0.952022  0.026428  1
  Bi  Bi23  1  0.777338  0.544778  0.471866  1
  Bi  Bi24  1  0.278852  0.547956  0.026448  1
  Bi  Bi25  1  0.777152  0.955131  0.472172  1
  Bi  Bi26  1  0.722073  0.048118  0.973606  1
  Pb  Pb27  1  0.221417  0.453153  0.528036  1
  Pb  Pb28  1  0.426745  0.750275  0.372175  1
  Pb  Pb29  1  0.931289  0.749520  0.123342  1
  Pb  Pb30  1  0.569475  0.249617  0.626149  1
  Pb  Pb31  1  0.070245  0.249584  0.874628  1
  Pb  Pb32  1  0.651123  0.749770  0.854136  1
  Pb  Pb33  1  0.157295  0.750339  0.651994  1
  Pb  Pb34  1  0.346512  0.249629  0.150827  1
  Pb  Pb35  1  0.846800  0.249612  0.348592  1
