# generated using pymatgen
data_YbHfBr6
_symmetry_space_group_name_H-M   'P 1'
_cell_length_a   8.04570455
_cell_length_b   8.04570554
_cell_length_c   8.04570568
_cell_angle_alpha   52.88946196
_cell_angle_beta   52.88946230
_cell_angle_gamma   52.88946096
_symmetry_Int_Tables_number   1
_chemical_formula_structural   YbHfBr6
_chemical_formula_sum   'Yb1 Hf1 Br6'
_cell_volume   306.87906571
_cell_formula_units_Z   1
loop_
 _symmetry_equiv_pos_site_id
 _symmetry_equiv_pos_as_xyz
  1  'x, y, z'
loop_
 _atom_site_type_symbol
 _atom_site_label
 _atom_site_symmetry_multiplicity
 _atom_site_fract_x
 _atom_site_fract_y
 _atom_site_fract_z
 _atom_site_occupancy
  Yb  Yb0  1  0.333371  0.333371  0.333371  1
  Hf  Hf1  1  0.666817  0.666817  0.666817  1
  Br  Br2  1  0.047173  0.454788  0.723345  1
  Br  Br3  1  0.305709  0.897109  0.571690  1
  Br  Br4  1  0.454788  0.723345  0.047173  1
  Br  Br5  1  0.571690  0.305709  0.897109  1
  Br  Br6  1  0.723345  0.047173  0.454788  1
  Br  Br7  1  0.897109  0.571690  0.305709  1
