# generated using pymatgen
data_Tb7SmSc12Ga13Si3
_symmetry_space_group_name_H-M   'P 1'
_cell_length_a   7.27784011
_cell_length_b   7.50213865
_cell_length_c   14.49670537
_cell_angle_alpha   90.02326979
_cell_angle_beta   90.01138098
_cell_angle_gamma   90.08787892
_symmetry_Int_Tables_number   1
_chemical_formula_structural   Tb7SmSc12Ga13Si3
_chemical_formula_sum   'Tb7 Sm1 Sc12 Ga13 Si3'
_cell_volume   791.50990439
_cell_formula_units_Z   1
loop_
 _symmetry_equiv_pos_site_id
 _symmetry_equiv_pos_as_xyz
  1  'x, y, z'
loop_
 _atom_site_type_symbol
 _atom_site_label
 _atom_site_symmetry_multiplicity
 _atom_site_fract_x
 _atom_site_fract_y
 _atom_site_fract_z
 _atom_site_occupancy
  Tb  Tb0  1  0.987578  0.822661  0.903636  1
  Tb  Tb1  1  0.489778  0.675797  0.903944  1
  Tb  Tb2  1  0.987550  0.822867  0.596173  1
  Tb  Tb3  1  0.511730  0.322895  0.097232  1
  Tb  Tb4  1  0.011979  0.177125  0.402356  1
  Tb  Tb5  1  0.511678  0.322665  0.402790  1
  Tb  Tb6  1  0.489571  0.675824  0.595942  1
  Sm  Sm7  1  0.011868  0.176454  0.097330  1
  Sc  Sc8  1  0.160699  0.503764  0.750033  1
  Sc  Sc9  1  0.838198  0.494297  0.250156  1
  Sc  Sc10  1  0.339008  0.006040  0.250166  1
  Sc  Sc11  1  0.663376  0.994444  0.749986  1
  Sc  Sc12  1  0.330422  0.174947  0.622872  1
  Sc  Sc13  1  0.669958  0.826973  0.377151  1
  Sc  Sc14  1  0.170010  0.672871  0.376705  1
  Sc  Sc15  1  0.669599  0.826804  0.123041  1
  Sc  Sc16  1  0.829463  0.327339  0.623323  1
  Sc  Sc17  1  0.330535  0.174831  0.877017  1
  Sc  Sc18  1  0.829300  0.327467  0.876499  1
  Sc  Sc19  1  0.170253  0.672619  0.123366  1
  Ga  Ga20  1  0.032736  0.119511  0.750030  1
  Ga  Ga21  1  0.966479  0.883978  0.250374  1
  Ga  Ga22  1  0.466926  0.615900  0.250027  1
  Ga  Ga23  1  0.533723  0.384652  0.750011  1
  Ga  Ga24  1  0.285240  0.873595  0.749964  1
  Ga  Ga25  1  0.158469  0.464320  0.540162  1
  Ga  Ga26  1  0.840827  0.535170  0.459028  1
  Ga  Ga27  1  0.340579  0.964266  0.459123  1
  Ga  Ga28  1  0.840532  0.536181  0.040750  1
  Ga  Ga29  1  0.659541  0.035632  0.540259  1
  Ga  Ga30  1  0.158736  0.464894  0.959553  1
  Ga  Ga31  1  0.659136  0.035666  0.959579  1
  Ga  Ga32  1  0.341413  0.963780  0.040666  1
  Si  Si33  1  0.713783  0.123646  0.250346  1
  Si  Si34  1  0.214767  0.376409  0.250394  1
  Si  Si35  1  0.784565  0.623714  0.750017  1
