# generated using pymatgen
data_ReHg3(SF3)2
_symmetry_space_group_name_H-M   'P 1'
_cell_length_a   7.75963457
_cell_length_b   7.75944451
_cell_length_c   5.15171004
_cell_angle_alpha   107.15186405
_cell_angle_beta   107.15532501
_cell_angle_gamma   54.83399901
_symmetry_Int_Tables_number   1
_chemical_formula_structural   ReHg3(SF3)2
_chemical_formula_sum   'Re1 Hg3 S2 F6'
_cell_volume   239.16814489
_cell_formula_units_Z   1
loop_
 _symmetry_equiv_pos_site_id
 _symmetry_equiv_pos_as_xyz
  1  'x, y, z'
loop_
 _atom_site_type_symbol
 _atom_site_label
 _atom_site_symmetry_multiplicity
 _atom_site_fract_x
 _atom_site_fract_y
 _atom_site_fract_z
 _atom_site_occupancy
  Re  Re0  1  0.000000  0.000000  0.499999  1
  Hg  Hg1  1  0.500000  0.500000  0.000000  1
  Hg  Hg2  1  0.500000  0.000000  0.499999  1
  Hg  Hg3  1  0.000000  0.500000  0.499999  1
  S  S4  1  0.685565  0.685585  0.171553  1
  S  S5  1  0.314435  0.314415  0.828447  1
  F  F6  1  0.710028  0.118891  0.278397  1
  F  F7  1  0.118894  0.710017  0.278448  1
  F  F8  1  0.095345  0.095337  0.283720  1
  F  F9  1  0.904655  0.904663  0.716280  1
  F  F10  1  0.881106  0.289983  0.721552  1
  F  F11  1  0.289972  0.881109  0.721603  1
