# generated using pymatgen
data_ScTi2(ZnPt2)3
_symmetry_space_group_name_H-M   'P 1'
_cell_length_a   4.03649000
_cell_length_b   7.55050200
_cell_length_c   12.11015600
_cell_angle_alpha   90.00000000
_cell_angle_beta   90.00014194
_cell_angle_gamma   90.00000000
_symmetry_Int_Tables_number   1
_chemical_formula_structural   ScTi2(ZnPt2)3
_chemical_formula_sum   'Sc2 Ti4 Zn6 Pt12'
_cell_volume   369.08759215
_cell_formula_units_Z   2
loop_
 _symmetry_equiv_pos_site_id
 _symmetry_equiv_pos_as_xyz
  1  'x, y, z'
loop_
 _atom_site_type_symbol
 _atom_site_label
 _atom_site_symmetry_multiplicity
 _atom_site_fract_x
 _atom_site_fract_y
 _atom_site_fract_z
 _atom_site_occupancy
  Sc  Sc0  1  0.999985  0.500000  0.665214  1
  Sc  Sc1  1  0.499986  0.000000  0.834740  1
  Ti  Ti2  1  0.000002  0.500000  0.001392  1
  Ti  Ti3  1  0.500006  0.000000  0.166777  1
  Ti  Ti4  1  0.000007  0.500000  0.333223  1
  Ti  Ti5  1  0.499999  0.000000  0.498628  1
  Zn  Zn6  1  0.999999  0.000000  0.003781  1
  Zn  Zn7  1  0.500010  0.500000  0.168291  1
  Zn  Zn8  1  0.000008  0.000000  0.331721  1
  Zn  Zn9  1  0.500000  0.500000  0.496216  1
  Zn  Zn10  1  0.999993  0.000000  0.664364  1
  Zn  Zn11  1  0.499993  0.500000  0.835626  1
  Pt  Pt12  1  0.500001  0.254900  0.004265  1
  Pt  Pt13  1  0.500001  0.745100  0.004265  1
  Pt  Pt14  1  0.000007  0.249597  0.167886  1
  Pt  Pt15  1  0.000007  0.750403  0.167886  1
  Pt  Pt16  1  0.500006  0.250331  0.332153  1
  Pt  Pt17  1  0.500006  0.749669  0.332153  1
  Pt  Pt18  1  0.000000  0.245045  0.495731  1
  Pt  Pt19  1  0.000000  0.754955  0.495731  1
  Pt  Pt20  1  0.499996  0.245203  0.663402  1
  Pt  Pt21  1  0.499996  0.754797  0.663402  1
  Pt  Pt22  1  0.999993  0.254749  0.836576  1
  Pt  Pt23  1  0.999993  0.745251  0.836576  1
