# generated using pymatgen
data_Ac2Nd2SiI5
_symmetry_space_group_name_H-M   'P 1'
_cell_length_a   10.27102960
_cell_length_b   10.27102965
_cell_length_c   9.56445936
_cell_angle_alpha   78.04233655
_cell_angle_beta   78.04233551
_cell_angle_gamma   25.16552727
_symmetry_Int_Tables_number   1
_chemical_formula_structural   Ac2Nd2SiI5
_chemical_formula_sum   'Ac2 Nd2 Si1 I5'
_cell_volume   419.27974494
_cell_formula_units_Z   1
loop_
 _symmetry_equiv_pos_site_id
 _symmetry_equiv_pos_as_xyz
  1  'x, y, z'
loop_
 _atom_site_type_symbol
 _atom_site_label
 _atom_site_symmetry_multiplicity
 _atom_site_fract_x
 _atom_site_fract_y
 _atom_site_fract_z
 _atom_site_occupancy
  Ac  Ac0  1  0.501962  0.501962  0.216478  1
  Ac  Ac1  1  0.498038  0.498038  0.783522  1
  Nd  Nd2  1  0.855441  0.855441  0.073535  1
  Nd  Nd3  1  0.144559  0.144559  0.926465  1
  Si  Si4  1  0.000000  0.000000  0.000000  1
  I  I5  1  0.676691  0.676691  0.150968  1
  I  I6  1  0.323309  0.323309  0.849032  1
  I  I7  1  0.669489  0.669489  0.679432  1
  I  I8  1  0.330511  0.330511  0.320568  1
  I  I9  1  0.000000  0.000000  0.500000  1
