# generated using pymatgen
data_Ho8Sc12Si15Pt
_symmetry_space_group_name_H-M   'P 1'
_cell_length_a   7.06483077
_cell_length_b   7.41582103
_cell_length_c   13.95711600
_cell_angle_alpha   90.00000000
_cell_angle_beta   90.00000000
_cell_angle_gamma   90.24762148
_symmetry_Int_Tables_number   1
_chemical_formula_structural   Ho8Sc12Si15Pt
_chemical_formula_sum   'Ho8 Sc12 Si15 Pt1'
_cell_volume   731.22770114
_cell_formula_units_Z   1
loop_
 _symmetry_equiv_pos_site_id
 _symmetry_equiv_pos_as_xyz
  1  'x, y, z'
loop_
 _atom_site_type_symbol
 _atom_site_label
 _atom_site_symmetry_multiplicity
 _atom_site_fract_x
 _atom_site_fract_y
 _atom_site_fract_z
 _atom_site_occupancy
  Ho  Ho0  1  0.011660  0.177717  0.096275  1
  Ho  Ho1  1  0.990325  0.821822  0.905250  1
  Ho  Ho2  1  0.488819  0.676404  0.904692  1
  Ho  Ho3  1  0.990325  0.821822  0.594750  1
  Ho  Ho4  1  0.511073  0.322740  0.096712  1
  Ho  Ho5  1  0.011660  0.177717  0.403725  1
  Ho  Ho6  1  0.511073  0.322740  0.403288  1
  Ho  Ho7  1  0.488819  0.676404  0.595308  1
  Sc  Sc8  1  0.158736  0.502778  0.750000  1
  Sc  Sc9  1  0.838013  0.496948  0.250000  1
  Sc  Sc10  1  0.338798  0.004576  0.250000  1
  Sc  Sc11  1  0.666306  0.999418  0.750000  1
  Sc  Sc12  1  0.324763  0.174593  0.624918  1
  Sc  Sc13  1  0.671195  0.825018  0.373681  1
  Sc  Sc14  1  0.170466  0.676856  0.373950  1
  Sc  Sc15  1  0.671195  0.825018  0.126319  1
  Sc  Sc16  1  0.830560  0.324050  0.624967  1
  Sc  Sc17  1  0.324763  0.174593  0.875082  1
  Sc  Sc18  1  0.830560  0.324050  0.875033  1
  Sc  Sc19  1  0.170466  0.676856  0.126050  1
  Si  Si20  1  0.969040  0.885486  0.250000  1
  Si  Si21  1  0.467719  0.614585  0.250000  1
  Si  Si22  1  0.531717  0.387805  0.750000  1
  Si  Si23  1  0.287622  0.868733  0.750000  1
  Si  Si24  1  0.713667  0.129975  0.250000  1
  Si  Si25  1  0.212849  0.371185  0.250000  1
  Si  Si26  1  0.780774  0.626625  0.750000  1
  Si  Si27  1  0.159693  0.466656  0.538110  1
  Si  Si28  1  0.841307  0.535505  0.460653  1
  Si  Si29  1  0.344359  0.965356  0.460701  1
  Si  Si30  1  0.841307  0.535505  0.039347  1
  Si  Si31  1  0.658986  0.033722  0.538587  1
  Si  Si32  1  0.159693  0.466656  0.961890  1
  Si  Si33  1  0.658986  0.033722  0.961413  1
  Si  Si34  1  0.344359  0.965356  0.039299  1
  Pt  Pt35  1  0.028347  0.111007  0.750000  1
