# generated using pymatgen
data_TbY7Ti12Si15P
_symmetry_space_group_name_H-M   'P 1'
_cell_length_a   7.04728227
_cell_length_b   7.05290701
_cell_length_c   12.96857200
_cell_angle_alpha   89.97059361
_cell_angle_beta   89.94604856
_cell_angle_gamma   89.94010074
_symmetry_Int_Tables_number   1
_chemical_formula_structural   TbY7Ti12Si15P
_chemical_formula_sum   'Tb1 Y7 Ti12 Si15 P1'
_cell_volume   644.58693067
_cell_formula_units_Z   1
loop_
 _symmetry_equiv_pos_site_id
 _symmetry_equiv_pos_as_xyz
  1  'x, y, z'
loop_
 _atom_site_type_symbol
 _atom_site_label
 _atom_site_symmetry_multiplicity
 _atom_site_fract_x
 _atom_site_fract_y
 _atom_site_fract_z
 _atom_site_occupancy
  Tb  Tb0  1  0.997341  0.659923  0.033026  1
  Y  Y1  1  0.340160  0.003086  0.467858  1
  Y  Y2  1  0.494174  0.844165  0.716802  1
  Y  Y3  1  0.502498  0.159398  0.216354  1
  Y  Y4  1  0.839899  0.497119  0.283576  1
  Y  Y5  1  0.159542  0.498219  0.782227  1
  Y  Y6  1  0.660315  0.995659  0.966657  1
  Y  Y7  1  0.003738  0.339370  0.534576  1
  Ti  Ti8  1  0.326066  0.326701  0.999356  1
  Ti  Ti9  1  0.172826  0.827186  0.249992  1
  Ti  Ti10  1  0.827686  0.172932  0.749449  1
  Ti  Ti11  1  0.672926  0.673016  0.500238  1
  Ti  Ti12  1  0.154319  0.010199  0.872787  1
  Ti  Ti13  1  0.491245  0.652845  0.125836  1
  Ti  Ti14  1  0.506638  0.344711  0.627490  1
  Ti  Ti15  1  0.654112  0.493685  0.873789  1
  Ti  Ti16  1  0.347297  0.507928  0.373910  1
  Ti  Ti17  1  0.847398  0.991578  0.376368  1
  Ti  Ti18  1  0.008307  0.152481  0.123713  1
  Ti  Ti19  1  0.994202  0.849371  0.624848  1
  Si  Si20  1  0.369263  0.702412  0.933727  1
  Si  Si21  1  0.629693  0.298274  0.435792  1
  Si  Si22  1  0.701996  0.370474  0.065035  1
  Si  Si23  1  0.298097  0.629711  0.565462  1
  Si  Si24  1  0.797324  0.870343  0.185009  1
  Si  Si25  1  0.130075  0.202171  0.315593  1
  Si  Si26  1  0.870799  0.796896  0.814746  1
  Si  Si27  1  0.290430  0.953205  0.063766  1
  Si  Si28  1  0.546322  0.790944  0.314883  1
  Si  Si29  1  0.459088  0.211254  0.817579  1
  Si  Si30  1  0.789433  0.547589  0.684747  1
  Si  Si31  1  0.209193  0.452894  0.185260  1
  Si  Si32  1  0.709595  0.045947  0.564547  1
  Si  Si33  1  0.953445  0.290139  0.935350  1
  Si  Si34  1  0.046686  0.709036  0.435751  1
  P  P35  1  0.197868  0.129138  0.683901  1
