# generated using pymatgen
data_Ca2LaPa5(AlRh)8
_symmetry_space_group_name_H-M   'P 1'
_cell_length_a   4.19081500
_cell_length_b   7.06538111
_cell_length_c   15.95203733
_cell_angle_alpha   89.83652832
_cell_angle_beta   90.00000000
_cell_angle_gamma   90.00000000
_symmetry_Int_Tables_number   1
_chemical_formula_structural   Ca2LaPa5(AlRh)8
_chemical_formula_sum   'Ca2 La1 Pa5 Al8 Rh8'
_cell_volume   472.33319920
_cell_formula_units_Z   1
loop_
 _symmetry_equiv_pos_site_id
 _symmetry_equiv_pos_as_xyz
  1  'x, y, z'
loop_
 _atom_site_type_symbol
 _atom_site_label
 _atom_site_symmetry_multiplicity
 _atom_site_fract_x
 _atom_site_fract_y
 _atom_site_fract_z
 _atom_site_occupancy
  Ca  Ca0  1  0.750000  0.347623  0.441152  1
  Ca  Ca1  1  0.250000  0.154553  0.939795  1
  La  La2  1  0.750000  0.846605  0.056945  1
  Pa  Pa3  1  0.250000  0.519585  0.777289  1
  Pa  Pa4  1  0.750000  0.473681  0.224125  1
  Pa  Pa5  1  0.750000  0.971940  0.281996  1
  Pa  Pa6  1  0.250000  0.026196  0.720709  1
  Pa  Pa7  1  0.250000  0.658756  0.560172  1
  Al  Al8  1  0.250000  0.643475  0.354674  1
  Al  Al9  1  0.750000  0.360322  0.648226  1
  Al  Al10  1  0.750000  0.853070  0.846703  1
  Al  Al11  1  0.250000  0.145153  0.152398  1
  Al  Al12  1  0.250000  0.505158  0.060950  1
  Al  Al13  1  0.750000  0.483573  0.937343  1
  Al  Al14  1  0.750000  0.002263  0.562452  1
  Al  Al15  1  0.250000  0.014495  0.440811  1
  Rh  Rh16  1  0.250000  0.755260  0.193556  1
  Rh  Rh17  1  0.750000  0.237042  0.806402  1
  Rh  Rh18  1  0.750000  0.738464  0.678608  1
  Rh  Rh19  1  0.250000  0.253874  0.310219  1
  Rh  Rh20  1  0.250000  0.703711  0.915749  1
  Rh  Rh21  1  0.750000  0.293148  0.081301  1
  Rh  Rh22  1  0.750000  0.785828  0.429997  1
  Rh  Rh23  1  0.250000  0.226220  0.578426  1
