# generated using pymatgen
data_Rb3Zr2CuTe10
_symmetry_space_group_name_H-M   'P 1'
_cell_length_a   10.02172774
_cell_length_b   11.14866551
_cell_length_c   11.28262350
_cell_angle_alpha   88.81319921
_cell_angle_beta   90.17568523
_cell_angle_gamma   78.51739549
_symmetry_Int_Tables_number   1
_chemical_formula_structural   Rb3Zr2CuTe10
_chemical_formula_sum   'Rb6 Zr4 Cu2 Te20'
_cell_volume   1235.06617368
_cell_formula_units_Z   2
loop_
 _symmetry_equiv_pos_site_id
 _symmetry_equiv_pos_as_xyz
  1  'x, y, z'
loop_
 _atom_site_type_symbol
 _atom_site_label
 _atom_site_symmetry_multiplicity
 _atom_site_fract_x
 _atom_site_fract_y
 _atom_site_fract_z
 _atom_site_occupancy
  Rb  Rb0  1  0.883968  0.891373  0.259365  1
  Rb  Rb1  1  0.116032  0.108627  0.740635  1
  Rb  Rb2  1  0.444190  0.767790  0.388545  1
  Rb  Rb3  1  0.555810  0.232210  0.611455  1
  Rb  Rb4  1  0.299739  0.627814  0.897079  1
  Rb  Rb5  1  0.700261  0.372186  0.102921  1
  Zr  Zr6  1  0.108879  0.376249  0.364006  1
  Zr  Zr7  1  0.891121  0.623751  0.635994  1
  Zr  Zr8  1  0.310130  0.158017  0.140941  1
  Zr  Zr9  1  0.689870  0.841983  0.859059  1
  Cu  Cu10  1  0.920017  0.373641  0.557525  1
  Cu  Cu11  1  0.079983  0.626359  0.442475  1
  Te  Te12  1  0.840816  0.559045  0.394430  1
  Te  Te13  1  0.159184  0.440955  0.605570  1
  Te  Te14  1  0.925461  0.201933  0.406728  1
  Te  Te15  1  0.074539  0.798067  0.593272  1
  Te  Te16  1  0.197394  0.591090  0.239893  1
  Te  Te17  1  0.802606  0.408910  0.760107  1
  Te  Te18  1  0.215306  0.113015  0.394334  1
  Te  Te19  1  0.784694  0.886985  0.605666  1
  Te  Te20  1  0.076446  0.363562  0.103629  1
  Te  Te21  1  0.923554  0.636438  0.896371  1
  Te  Te22  1  0.397674  0.356329  0.291267  1
  Te  Te23  1  0.602326  0.643671  0.708733  1
  Te  Te24  1  0.037534  0.121765  0.065343  1
  Te  Te25  1  0.962466  0.878235  0.934657  1
  Te  Te26  1  0.530370  0.087540  0.310818  1
  Te  Te27  1  0.469630  0.912460  0.689182  1
  Te  Te28  1  0.331806  0.908091  0.068853  1
  Te  Te29  1  0.668194  0.091909  0.931147  1
  Te  Te30  1  0.407562  0.251514  0.923192  1
  Te  Te31  1  0.592438  0.748486  0.076808  1
