# generated using pymatgen
data_MgNpReB6
_symmetry_space_group_name_H-M   'P 1'
_cell_length_a   3.60139300
_cell_length_b   8.90315000
_cell_length_c   11.26508800
_cell_angle_alpha   90.00000000
_cell_angle_beta   90.00000000
_cell_angle_gamma   90.00000000
_symmetry_Int_Tables_number   1
_chemical_formula_structural   MgNpReB6
_chemical_formula_sum   'Mg4 Np4 Re4 B24'
_cell_volume   361.20087623
_cell_formula_units_Z   4
loop_
 _symmetry_equiv_pos_site_id
 _symmetry_equiv_pos_as_xyz
  1  'x, y, z'
loop_
 _atom_site_type_symbol
 _atom_site_label
 _atom_site_symmetry_multiplicity
 _atom_site_fract_x
 _atom_site_fract_y
 _atom_site_fract_z
 _atom_site_occupancy
  Mg  Mg0  1  0.000000  0.945081  0.374115  1
  Mg  Mg1  1  0.000000  0.054919  0.625885  1
  Mg  Mg2  1  0.000000  0.445081  0.125885  1
  Mg  Mg3  1  0.000000  0.554919  0.874115  1
  Np  Np4  1  0.000000  0.321041  0.413235  1
  Np  Np5  1  0.000000  0.678959  0.586765  1
  Np  Np6  1  0.000000  0.821041  0.086765  1
  Np  Np7  1  0.000000  0.178959  0.913235  1
  Re  Re8  1  0.000000  0.639906  0.320022  1
  Re  Re9  1  0.000000  0.360094  0.679978  1
  Re  Re10  1  0.000000  0.139906  0.179978  1
  Re  Re11  1  0.000000  0.860094  0.820022  1
  B  B12  1  0.500000  0.553725  0.433853  1
  B  B13  1  0.500000  0.446275  0.566147  1
  B  B14  1  0.500000  0.053725  0.066147  1
  B  B15  1  0.500000  0.946275  0.933853  1
  B  B16  1  0.500000  0.754516  0.419797  1
  B  B17  1  0.500000  0.245484  0.580203  1
  B  B18  1  0.500000  0.254516  0.080203  1
  B  B19  1  0.500000  0.745484  0.919797  1
  B  B20  1  0.500000  0.793922  0.263158  1
  B  B21  1  0.500000  0.206078  0.736842  1
  B  B22  1  0.500000  0.293922  0.236842  1
  B  B23  1  0.500000  0.706078  0.763158  1
  B  B24  1  0.500000  0.628887  0.182070  1
  B  B25  1  0.500000  0.371113  0.817930  1
  B  B26  1  0.500000  0.128887  0.317930  1
  B  B27  1  0.500000  0.871113  0.682070  1
  B  B28  1  0.500000  0.979774  0.212482  1
  B  B29  1  0.500000  0.020226  0.787518  1
  B  B30  1  0.500000  0.479774  0.287518  1
  B  B31  1  0.500000  0.520226  0.712482  1
  B  B32  1  0.500000  0.594915  0.026556  1
  B  B33  1  0.500000  0.405085  0.973444  1
  B  B34  1  0.500000  0.094915  0.473444  1
  B  B35  1  0.500000  0.905085  0.526556  1
