# generated using pymatgen
data_YU2Pa(Al3Ir)6
_symmetry_space_group_name_H-M   'P 1'
_cell_length_a   7.60564852
_cell_length_b   7.59685509
_cell_length_c   9.39522500
_cell_angle_alpha   90.00000000
_cell_angle_beta   90.00000000
_cell_angle_gamma   119.49437607
_symmetry_Int_Tables_number   1
_chemical_formula_structural   YU2Pa(Al3Ir)6
_chemical_formula_sum   'Y1 U2 Pa1 Al18 Ir6'
_cell_volume   472.49603664
_cell_formula_units_Z   1
loop_
 _symmetry_equiv_pos_site_id
 _symmetry_equiv_pos_as_xyz
  1  'x, y, z'
loop_
 _atom_site_type_symbol
 _atom_site_label
 _atom_site_symmetry_multiplicity
 _atom_site_fract_x
 _atom_site_fract_y
 _atom_site_fract_z
 _atom_site_occupancy
  Y  Y0  1  0.670717  0.994984  0.750000  1
  U  U1  1  0.005315  0.328489  0.250000  1
  U  U2  1  0.329801  0.006472  0.250000  1
  Pa  Pa3  1  0.998126  0.671177  0.750000  1
  Al  Al4  1  0.128902  0.128101  0.750000  1
  Al  Al5  1  0.868520  0.870353  0.250000  1
  Al  Al6  1  0.001162  0.332458  0.574289  1
  Al  Al7  1  0.997343  0.663662  0.422318  1
  Al  Al8  1  0.997343  0.663662  0.077682  1
  Al  Al9  1  0.338154  0.004392  0.925735  1
  Al  Al10  1  0.001162  0.332458  0.925711  1
  Al  Al11  1  0.664431  0.998143  0.074244  1
  Al  Al12  1  0.664431  0.998143  0.425756  1
  Al  Al13  1  0.338154  0.004392  0.574265  1
  Al  Al14  1  0.334434  0.334626  0.054191  1
  Al  Al15  1  0.664581  0.666549  0.946007  1
  Al  Al16  1  0.664581  0.666549  0.553993  1
  Al  Al17  1  0.334434  0.334626  0.445809  1
  Al  Al18  1  0.340298  0.548107  0.750000  1
  Al  Al19  1  0.657642  0.450033  0.250000  1
  Al  Al20  1  0.548554  0.341204  0.750000  1
  Al  Al21  1  0.451312  0.660244  0.250000  1
  Ir  Ir22  1  0.674702  0.330015  0.500601  1
  Ir  Ir23  1  0.326038  0.673146  0.500914  1
  Ir  Ir24  1  0.326038  0.673146  0.999086  1
  Ir  Ir25  1  0.674702  0.330015  0.999399  1
  Ir  Ir26  1  0.999560  0.997428  0.500694  1
  Ir  Ir27  1  0.999560  0.997428  0.999306  1
