# generated using pymatgen
data_Dy8Ho4Ni4AgSn
_symmetry_space_group_name_H-M   'P 1'
_cell_length_a   8.36960909
_cell_length_b   8.37001093
_cell_length_c   8.36960627
_cell_angle_alpha   112.58455948
_cell_angle_beta   109.09974195
_cell_angle_gamma   106.78060016
_symmetry_Int_Tables_number   1
_chemical_formula_structural   Dy8Ho4Ni4AgSn
_chemical_formula_sum   'Dy8 Ho4 Ni4 Ag1 Sn1'
_cell_volume   450.18170649
_cell_formula_units_Z   1
loop_
 _symmetry_equiv_pos_site_id
 _symmetry_equiv_pos_as_xyz
  1  'x, y, z'
loop_
 _atom_site_type_symbol
 _atom_site_label
 _atom_site_symmetry_multiplicity
 _atom_site_fract_x
 _atom_site_fract_y
 _atom_site_fract_z
 _atom_site_occupancy
  Dy  Dy0  1  0.422815  0.223329  0.199410  1
  Dy  Dy1  1  0.577185  0.776671  0.800590  1
  Dy  Dy2  1  0.023920  0.223329  0.800516  1
  Dy  Dy3  1  0.976080  0.776671  0.199484  1
  Dy  Dy4  1  0.181257  0.294894  0.476083  1
  Dy  Dy5  1  0.818743  0.705106  0.523917  1
  Dy  Dy6  1  0.181190  0.705106  0.886365  1
  Dy  Dy7  1  0.818810  0.294894  0.113635  1
  Ho  Ho8  1  0.323471  0.630748  0.307278  1
  Ho  Ho9  1  0.676529  0.369252  0.692722  1
  Ho  Ho10  1  0.323649  0.016506  0.692857  1
  Ho  Ho11  1  0.676351  0.983494  0.307143  1
  Ni  Ni12  1  0.358970  0.000000  0.358970  1
  Ni  Ni13  1  0.641030  0.000000  0.641030  1
  Ni  Ni14  1  0.126229  0.626388  0.500159  1
  Ni  Ni15  1  0.873771  0.373612  0.499841  1
  Ag  Ag16  1  0.000000  0.000000  0.000000  1
  Sn  Sn17  1  0.500000  0.500000  0.000000  1
