# generated using pymatgen
data_CsRbNiSe16
_symmetry_space_group_name_H-M   'P 1'
_cell_length_a   12.81588900
_cell_length_b   12.81588900
_cell_length_c   7.20177400
_cell_angle_alpha   90.00000000
_cell_angle_beta   90.00000000
_cell_angle_gamma   90.00000000
_symmetry_Int_Tables_number   1
_chemical_formula_structural   CsRbNiSe16
_chemical_formula_sum   'Cs2 Rb2 Ni2 Se32'
_cell_volume   1182.86985239
_cell_formula_units_Z   2
loop_
 _symmetry_equiv_pos_site_id
 _symmetry_equiv_pos_as_xyz
  1  'x, y, z'
loop_
 _atom_site_type_symbol
 _atom_site_label
 _atom_site_symmetry_multiplicity
 _atom_site_fract_x
 _atom_site_fract_y
 _atom_site_fract_z
 _atom_site_occupancy
  Cs  Cs0  1  0.500000  0.000000  0.000000  1
  Cs  Cs1  1  0.000000  0.500000  0.000000  1
  Rb  Rb2  1  0.500000  0.500000  0.500000  1
  Rb  Rb3  1  0.000000  0.000000  0.500000  1
  Ni  Ni4  1  0.000000  0.000000  0.000000  1
  Ni  Ni5  1  0.500000  0.500000  0.000000  1
  Se  Se6  1  0.193189  0.422199  0.583574  1
  Se  Se7  1  0.806811  0.577801  0.583574  1
  Se  Se8  1  0.577801  0.193189  0.416426  1
  Se  Se9  1  0.422199  0.806811  0.416426  1
  Se  Se10  1  0.306811  0.922199  0.583574  1
  Se  Se11  1  0.077801  0.306811  0.416426  1
  Se  Se12  1  0.823266  0.967015  0.967496  1
  Se  Se13  1  0.032985  0.823266  0.032504  1
  Se  Se14  1  0.967015  0.176734  0.032504  1
  Se  Se15  1  0.176734  0.032985  0.967496  1
  Se  Se16  1  0.532985  0.676734  0.032504  1
  Se  Se17  1  0.467015  0.323266  0.032504  1
  Se  Se18  1  0.676734  0.467015  0.967496  1
  Se  Se19  1  0.323266  0.532985  0.967496  1
  Se  Se20  1  0.789450  0.203096  0.127694  1
  Se  Se21  1  0.796904  0.789450  0.872306  1
  Se  Se22  1  0.203096  0.210550  0.872306  1
  Se  Se23  1  0.210550  0.796904  0.127694  1
  Se  Se24  1  0.296904  0.710550  0.872306  1
  Se  Se25  1  0.703096  0.289450  0.872306  1
  Se  Se26  1  0.710550  0.703096  0.127694  1
  Se  Se27  1  0.289450  0.296904  0.127694  1
  Se  Se28  1  0.918315  0.306172  0.588750  1
  Se  Se29  1  0.693828  0.918315  0.411250  1
  Se  Se30  1  0.306172  0.081685  0.411250  1
  Se  Se31  1  0.081685  0.693828  0.588750  1
  Se  Se32  1  0.193828  0.581685  0.411250  1
  Se  Se33  1  0.806172  0.418315  0.411250  1
  Se  Se34  1  0.581685  0.806172  0.588750  1
  Se  Se35  1  0.418315  0.193828  0.588750  1
  Se  Se36  1  0.693189  0.077801  0.583574  1
  Se  Se37  1  0.922199  0.693189  0.416426  1
