# generated using pymatgen
data_Tb4Y6(InSb)3
_symmetry_space_group_name_H-M   'P 1'
_cell_length_a   6.56916400
_cell_length_b   9.00633212
_cell_length_c   9.00591800
_cell_angle_alpha   120.00152562
_cell_angle_beta   89.99996511
_cell_angle_gamma   90.00007470
_symmetry_Int_Tables_number   1
_chemical_formula_structural   Tb4Y6(InSb)3
_chemical_formula_sum   'Tb4 Y6 In3 Sb3'
_cell_volume   461.43444022
_cell_formula_units_Z   1
loop_
 _symmetry_equiv_pos_site_id
 _symmetry_equiv_pos_as_xyz
  1  'x, y, z'
loop_
 _atom_site_type_symbol
 _atom_site_label
 _atom_site_symmetry_multiplicity
 _atom_site_fract_x
 _atom_site_fract_y
 _atom_site_fract_z
 _atom_site_occupancy
  Tb  Tb0  1  0.501404  0.333347  0.666647  1
  Tb  Tb1  1  0.501404  0.666701  0.333353  1
  Tb  Tb2  1  0.998594  0.666702  0.333352  1
  Tb  Tb3  1  0.998594  0.333349  0.666648  1
  Y  Y4  1  0.750000  0.239205  0.000000  1
  Y  Y5  1  0.750001  0.760831  0.760807  1
  Y  Y6  1  0.750001  0.000024  0.239193  1
  Y  Y7  1  0.250000  0.760546  0.000000  1
  Y  Y8  1  0.250001  0.239428  0.239498  1
  Y  Y9  1  0.250001  0.999930  0.760502  1
  In  In10  1  0.750002  0.606398  0.000000  1
  In  In11  1  0.750000  0.393623  0.393680  1
  In  In12  1  0.750000  0.999941  0.606320  1
  Sb  Sb13  1  0.249998  0.393905  0.000000  1
  Sb  Sb14  1  0.250001  0.606084  0.606098  1
  Sb  Sb15  1  0.250001  0.999987  0.393902  1
