# generated using pymatgen
data_LuU(PS3)4
_symmetry_space_group_name_H-M   'P 1'
_cell_length_a   6.93764100
_cell_length_b   6.93764100
_cell_length_c   9.71501200
_cell_angle_alpha   90.00000000
_cell_angle_beta   90.00000000
_cell_angle_gamma   90.00000000
_symmetry_Int_Tables_number   1
_chemical_formula_structural   LuU(PS3)4
_chemical_formula_sum   'Lu1 U1 P4 S12'
_cell_volume   467.59190817
_cell_formula_units_Z   1
loop_
 _symmetry_equiv_pos_site_id
 _symmetry_equiv_pos_as_xyz
  1  'x, y, z'
loop_
 _atom_site_type_symbol
 _atom_site_label
 _atom_site_symmetry_multiplicity
 _atom_site_fract_x
 _atom_site_fract_y
 _atom_site_fract_z
 _atom_site_occupancy
  Lu  Lu0  1  0.000000  0.000000  0.750000  1
  U  U1  1  0.000000  0.000000  0.250000  1
  P  P2  1  0.058035  0.344420  0.502333  1
  P  P3  1  0.941965  0.655580  0.502333  1
  P  P4  1  0.344420  0.941965  0.997667  1
  P  P5  1  0.655580  0.058035  0.997667  1
  S  S6  1  0.211631  0.311904  0.674735  1
  S  S7  1  0.686617  0.208277  0.177353  1
  S  S8  1  0.167812  0.177835  0.006376  1
  S  S9  1  0.822165  0.167812  0.493624  1
  S  S10  1  0.177835  0.832188  0.493624  1
  S  S11  1  0.832188  0.822165  0.006376  1
  S  S12  1  0.208277  0.313383  0.322647  1
  S  S13  1  0.688096  0.211631  0.825265  1
  S  S14  1  0.311904  0.788369  0.825265  1
  S  S15  1  0.791723  0.686617  0.322647  1
  S  S16  1  0.788369  0.688096  0.674735  1
  S  S17  1  0.313383  0.791723  0.177353  1
