# generated using pymatgen
data_Pa8Si13Ir3
_symmetry_space_group_name_H-M   'P 1'
_cell_length_a   8.15722700
_cell_length_b   8.15722692
_cell_length_c   7.88995300
_cell_angle_alpha   90.00000000
_cell_angle_beta   90.00000000
_cell_angle_gamma   119.99999628
_symmetry_Int_Tables_number   1
_chemical_formula_structural   Pa8Si13Ir3
_chemical_formula_sum   'Pa8 Si13 Ir3'
_cell_volume   454.66356810
_cell_formula_units_Z   1
loop_
 _symmetry_equiv_pos_site_id
 _symmetry_equiv_pos_as_xyz
  1  'x, y, z'
loop_
 _atom_site_type_symbol
 _atom_site_label
 _atom_site_symmetry_multiplicity
 _atom_site_fract_x
 _atom_site_fract_y
 _atom_site_fract_z
 _atom_site_occupancy
  Pa  Pa0  1  0.500854  0.499146  0.746484  1
  Pa  Pa1  1  0.501261  0.498739  0.253694  1
  Pa  Pa2  1  0.998293  0.499146  0.746484  1
  Pa  Pa3  1  0.997476  0.498739  0.253694  1
  Pa  Pa4  1  0.500854  0.001707  0.746484  1
  Pa  Pa5  1  0.501261  0.002524  0.253694  1
  Pa  Pa6  1  0.000000  0.000000  0.749579  1
  Pa  Pa7  1  0.000000  0.000000  0.250405  1
  Si  Si8  1  0.835460  0.164540  0.999643  1
  Si  Si9  1  0.164382  0.835618  0.000254  1
  Si  Si10  1  0.329081  0.164540  0.999643  1
  Si  Si11  1  0.163859  0.836141  0.500513  1
  Si  Si12  1  0.671237  0.835618  0.000254  1
  Si  Si13  1  0.831503  0.168497  0.499647  1
  Si  Si14  1  0.835460  0.670919  0.999643  1
  Si  Si15  1  0.672282  0.836141  0.500513  1
  Si  Si16  1  0.164382  0.328763  0.000254  1
  Si  Si17  1  0.336994  0.168497  0.499647  1
  Si  Si18  1  0.163859  0.327718  0.500513  1
  Si  Si19  1  0.831503  0.663006  0.499647  1
  Si  Si20  1  0.666667  0.333333  0.500884  1
  Ir  Ir21  1  0.666667  0.333333  0.000224  1
  Ir  Ir22  1  0.333333  0.666667  0.000517  1
  Ir  Ir23  1  0.333333  0.666667  0.497689  1
