# generated using pymatgen
data_Dy2NiB8Ru7
_symmetry_space_group_name_H-M   'P 1'
_cell_length_a   9.19285238
_cell_length_b   7.45214701
_cell_length_c   7.45307074
_cell_angle_alpha   90.05560369
_cell_angle_beta   113.96195757
_cell_angle_gamma   114.50187447
_symmetry_Int_Tables_number   1
_chemical_formula_structural   Dy2NiB8Ru7
_chemical_formula_sum   'Dy4 Ni2 B16 Ru14'
_cell_volume   415.65884515
_cell_formula_units_Z   2
loop_
 _symmetry_equiv_pos_site_id
 _symmetry_equiv_pos_as_xyz
  1  'x, y, z'
loop_
 _atom_site_type_symbol
 _atom_site_label
 _atom_site_symmetry_multiplicity
 _atom_site_fract_x
 _atom_site_fract_y
 _atom_site_fract_z
 _atom_site_occupancy
  Dy  Dy0  1  0.749971  0.876398  0.123769  1
  Dy  Dy1  1  0.248587  0.625002  0.371614  1
  Dy  Dy2  1  0.747356  0.374621  0.629118  1
  Dy  Dy3  1  0.248112  0.117382  0.874852  1
  Ni  Ni4  1  0.878294  0.549614  0.040393  1
  Ni  Ni5  1  0.375468  0.837866  0.049585  1
  B  B6  1  0.916466  0.288633  0.074276  1
  B  B7  1  0.418199  0.567455  0.127304  1
  B  B8  1  0.087273  0.210592  0.151923  1
  B  B9  1  0.582361  0.153317  0.206160  1
  B  B10  1  0.405884  0.056159  0.282901  1
  B  B11  1  0.918322  0.628131  0.354535  1
  B  B12  1  0.587455  0.649004  0.375010  1
  B  B13  1  0.088319  0.878940  0.442960  1
  B  B14  1  0.910715  0.123774  0.558892  1
  B  B15  1  0.413096  0.349127  0.622939  1
  B  B16  1  0.087840  0.376039  0.656608  1
  B  B17  1  0.587477  0.938172  0.707892  1
  B  B18  1  0.416786  0.847743  0.789104  1
  B  B19  1  0.908110  0.787276  0.847559  1
  B  B20  1  0.586703  0.434762  0.875022  1
  B  B21  1  0.081298  0.706877  0.932865  1
  Ru  Ru22  1  0.115701  0.937926  0.163159  1
  Ru  Ru23  1  0.632294  0.464286  0.175911  1
  Ru  Ru24  1  0.373000  0.331004  0.317035  1
  Ru  Ru25  1  0.872870  0.325235  0.337090  1
  Ru  Ru26  1  0.620784  0.957142  0.437979  1
  Ru  Ru27  1  0.126935  0.179942  0.460178  1
  Ru  Ru28  1  0.873325  0.821667  0.539053  1
  Ru  Ru29  1  0.373869  0.038295  0.550951  1
  Ru  Ru30  1  0.132801  0.681185  0.674355  1
  Ru  Ru31  1  0.621130  0.665538  0.673678  1
  Ru  Ru32  1  0.375980  0.539978  0.827827  1
  Ru  Ru33  1  0.873258  0.055479  0.832046  1
  Ru  Ru34  1  0.632573  0.171305  0.949720  1
  Ru  Ru35  1  0.131390  0.454134  0.965746  1
