# generated using pymatgen
data_HfScVFe3
_symmetry_space_group_name_H-M   'P 1'
_cell_length_a   5.05124717
_cell_length_b   5.05124677
_cell_length_c   4.90052317
_cell_angle_alpha   58.97726504
_cell_angle_beta   58.97726568
_cell_angle_gamma   60.00000506
_symmetry_Int_Tables_number   1
_chemical_formula_structural   HfScVFe3
_chemical_formula_sum   'Hf1 Sc1 V1 Fe3'
_cell_volume   87.02322488
_cell_formula_units_Z   1
loop_
 _symmetry_equiv_pos_site_id
 _symmetry_equiv_pos_as_xyz
  1  'x, y, z'
loop_
 _atom_site_type_symbol
 _atom_site_label
 _atom_site_symmetry_multiplicity
 _atom_site_fract_x
 _atom_site_fract_y
 _atom_site_fract_z
 _atom_site_occupancy
  Hf  Hf0  1  0.999589  0.999589  0.001233  1
  Sc  Sc1  1  0.250728  0.250728  0.247816  1
  V  V2  1  0.625286  0.625286  0.124141  1
  Fe  Fe3  1  0.624523  0.125351  0.625603  1
  Fe  Fe4  1  0.125351  0.624523  0.625603  1
  Fe  Fe5  1  0.624523  0.624523  0.625603  1
