# generated using pymatgen
data_Th5SnBi3
_symmetry_space_group_name_H-M   'P 1'
_cell_length_a   9.78239600
_cell_length_b   9.78239511
_cell_length_c   6.67242300
_cell_angle_alpha   90.00000000
_cell_angle_beta   90.00000000
_cell_angle_gamma   119.99999623
_symmetry_Int_Tables_number   1
_chemical_formula_structural   Th5SnBi3
_chemical_formula_sum   'Th10 Sn2 Bi6'
_cell_volume   552.97393196
_cell_formula_units_Z   2
loop_
 _symmetry_equiv_pos_site_id
 _symmetry_equiv_pos_as_xyz
  1  'x, y, z'
loop_
 _atom_site_type_symbol
 _atom_site_label
 _atom_site_symmetry_multiplicity
 _atom_site_fract_x
 _atom_site_fract_y
 _atom_site_fract_z
 _atom_site_occupancy
  Th  Th0  1  0.000000  0.723382  0.750000  1
  Th  Th1  1  0.276618  0.276618  0.750000  1
  Th  Th2  1  0.333333  0.666667  0.500000  1
  Th  Th3  1  0.666667  0.333333  0.500000  1
  Th  Th4  1  0.723382  0.723382  0.250000  1
  Th  Th5  1  0.723382  0.000000  0.750000  1
  Th  Th6  1  0.000000  0.276618  0.250000  1
  Th  Th7  1  0.276618  0.000000  0.250000  1
  Th  Th8  1  0.333333  0.666667  0.000000  1
  Th  Th9  1  0.666667  0.333333  0.000000  1
  Sn  Sn10  1  0.000000  0.000000  0.000000  1
  Sn  Sn11  1  0.000000  0.000000  0.500000  1
  Bi  Bi12  1  0.617594  0.617594  0.750000  1
  Bi  Bi13  1  0.000000  0.382406  0.750000  1
  Bi  Bi14  1  0.382406  0.000000  0.750000  1
  Bi  Bi15  1  0.617594  0.000000  0.250000  1
  Bi  Bi16  1  0.382406  0.382406  0.250000  1
  Bi  Bi17  1  0.000000  0.617594  0.250000  1
