# generated using pymatgen
data_TbDy6Co6AgSn22
_symmetry_space_group_name_H-M   'P 1'
_cell_length_a   9.67849900
_cell_length_b   9.67849825
_cell_length_c   9.99962100
_cell_angle_alpha   90.00000000
_cell_angle_beta   90.00000000
_cell_angle_gamma   119.99999232
_symmetry_Int_Tables_number   1
_chemical_formula_structural   TbDy6Co6AgSn22
_chemical_formula_sum   'Tb1 Dy6 Co6 Ag1 Sn22'
_cell_volume   811.20419979
_cell_formula_units_Z   1
loop_
 _symmetry_equiv_pos_site_id
 _symmetry_equiv_pos_as_xyz
  1  'x, y, z'
loop_
 _atom_site_type_symbol
 _atom_site_label
 _atom_site_symmetry_multiplicity
 _atom_site_fract_x
 _atom_site_fract_y
 _atom_site_fract_z
 _atom_site_occupancy
  Tb  Tb0  1  0.000000  0.000000  0.000000  1
  Dy  Dy1  1  0.478890  0.521110  0.306277  1
  Dy  Dy2  1  0.521110  0.478890  0.693723  1
  Dy  Dy3  1  0.478890  0.957781  0.306277  1
  Dy  Dy4  1  0.521110  0.042219  0.693723  1
  Dy  Dy5  1  0.042219  0.521110  0.306277  1
  Dy  Dy6  1  0.957781  0.478890  0.693723  1
  Co  Co7  1  0.831920  0.168080  0.196725  1
  Co  Co8  1  0.168080  0.831920  0.803275  1
  Co  Co9  1  0.831920  0.663838  0.196725  1
  Co  Co10  1  0.168080  0.336162  0.803275  1
  Co  Co11  1  0.336162  0.168080  0.196725  1
  Co  Co12  1  0.663838  0.831920  0.803275  1
  Ag  Ag13  1  0.000000  0.000000  0.500000  1
  Sn  Sn14  1  0.345811  0.000000  0.000000  1
  Sn  Sn15  1  0.654189  0.000000  0.000000  1
  Sn  Sn16  1  0.000000  0.345811  0.000000  1
  Sn  Sn17  1  0.000000  0.654189  0.000000  1
  Sn  Sn18  1  0.654189  0.654189  0.000000  1
  Sn  Sn19  1  0.345811  0.345811  0.000000  1
  Sn  Sn20  1  0.333333  0.666667  0.818266  1
  Sn  Sn21  1  0.666667  0.333333  0.181734  1
  Sn  Sn22  1  0.783345  0.216655  0.453375  1
  Sn  Sn23  1  0.216655  0.783345  0.546625  1
  Sn  Sn24  1  0.783345  0.566691  0.453375  1
  Sn  Sn25  1  0.216655  0.433309  0.546625  1
  Sn  Sn26  1  0.433309  0.216655  0.453375  1
  Sn  Sn27  1  0.566691  0.783345  0.546625  1
  Sn  Sn28  1  0.333333  0.666667  0.117070  1
  Sn  Sn29  1  0.666667  0.333333  0.882930  1
  Sn  Sn30  1  0.113901  0.886099  0.276253  1
  Sn  Sn31  1  0.886099  0.113901  0.723747  1
  Sn  Sn32  1  0.113901  0.227804  0.276253  1
  Sn  Sn33  1  0.886099  0.772196  0.723747  1
  Sn  Sn34  1  0.772196  0.886099  0.276253  1
  Sn  Sn35  1  0.227804  0.113901  0.723747  1
