# generated using pymatgen
data_Ta3Mn2FeB3
_symmetry_space_group_name_H-M   'P 1'
_cell_length_a   6.10413525
_cell_length_b   6.10413525
_cell_length_c   3.10233500
_cell_angle_alpha   90.00000000
_cell_angle_beta   90.00000000
_cell_angle_gamma   120.16394809
_symmetry_Int_Tables_number   1
_chemical_formula_structural   Ta3Mn2FeB3
_chemical_formula_sum   'Ta3 Mn2 Fe1 B3'
_cell_volume   99.94193887
_cell_formula_units_Z   1
loop_
 _symmetry_equiv_pos_site_id
 _symmetry_equiv_pos_as_xyz
  1  'x, y, z'
loop_
 _atom_site_type_symbol
 _atom_site_label
 _atom_site_symmetry_multiplicity
 _atom_site_fract_x
 _atom_site_fract_y
 _atom_site_fract_z
 _atom_site_occupancy
  Ta  Ta0  1  0.409547  0.999182  0.500000  1
  Ta  Ta1  1  0.999182  0.409547  0.500000  1
  Ta  Ta2  1  0.589779  0.589779  0.500000  1
  Mn  Mn3  1  0.756541  0.999926  0.000000  1
  Mn  Mn4  1  0.999926  0.756541  0.000000  1
  Fe  Fe5  1  0.242544  0.242544  0.000000  1
  B  B6  1  0.333766  0.667083  0.000000  1
  B  B7  1  0.667083  0.333766  0.000000  1
  B  B8  1  0.001632  0.001632  0.500000  1
