# generated using pymatgen
data_YbDy2Tm(Ga2Ag)4
_symmetry_space_group_name_H-M   'P 1'
_cell_length_a   4.35206600
_cell_length_b   6.96105095
_cell_length_c   10.27442549
_cell_angle_alpha   90.34172737
_cell_angle_beta   90.00000000
_cell_angle_gamma   90.00000000
_symmetry_Int_Tables_number   1
_chemical_formula_structural   YbDy2Tm(Ga2Ag)4
_chemical_formula_sum   'Yb1 Dy2 Tm1 Ga8 Ag4'
_cell_volume   311.25770285
_cell_formula_units_Z   1
loop_
 _symmetry_equiv_pos_site_id
 _symmetry_equiv_pos_as_xyz
  1  'x, y, z'
loop_
 _atom_site_type_symbol
 _atom_site_label
 _atom_site_symmetry_multiplicity
 _atom_site_fract_x
 _atom_site_fract_y
 _atom_site_fract_z
 _atom_site_occupancy
  Yb  Yb0  1  0.250000  0.275576  0.671751  1
  Dy  Dy1  1  0.250000  0.778970  0.827263  1
  Dy  Dy2  1  0.750000  0.224001  0.172726  1
  Tm  Tm3  1  0.750000  0.722056  0.328278  1
  Ga  Ga4  1  0.250000  0.704755  0.535871  1
  Ga  Ga5  1  0.750000  0.298062  0.463932  1
  Ga  Ga6  1  0.750000  0.793519  0.038116  1
  Ga  Ga7  1  0.250000  0.201106  0.964203  1
  Ga  Ga8  1  0.250000  0.926927  0.154959  1
  Ga  Ga9  1  0.750000  0.071104  0.848529  1
  Ga  Ga10  1  0.750000  0.571821  0.651202  1
  Ga  Ga11  1  0.250000  0.429831  0.344976  1
  Ag  Ag12  1  0.250000  0.543574  0.097699  1
  Ag  Ag13  1  0.750000  0.456433  0.901535  1
  Ag  Ag14  1  0.750000  0.958336  0.597324  1
  Ag  Ag15  1  0.250000  0.043928  0.401633  1
