# generated using pymatgen
data_Nd4B4Pd11Pt5
_symmetry_space_group_name_H-M   'P 1'
_cell_length_a   6.15479818
_cell_length_b   5.51040100
_cell_length_c   11.82747500
_cell_angle_alpha   89.88577491
_cell_angle_beta   90.01389866
_cell_angle_gamma   90.00881004
_symmetry_Int_Tables_number   1
_chemical_formula_structural   Nd4B4Pd11Pt5
_chemical_formula_sum   'Nd4 B4 Pd11 Pt5'
_cell_volume   401.13280333
_cell_formula_units_Z   1
loop_
 _symmetry_equiv_pos_site_id
 _symmetry_equiv_pos_as_xyz
  1  'x, y, z'
loop_
 _atom_site_type_symbol
 _atom_site_label
 _atom_site_symmetry_multiplicity
 _atom_site_fract_x
 _atom_site_fract_y
 _atom_site_fract_z
 _atom_site_occupancy
  Nd  Nd0  1  0.194116  0.248064  0.343645  1
  Nd  Nd1  1  0.693480  0.249130  0.158019  1
  Nd  Nd2  1  0.805590  0.750142  0.656318  1
  Nd  Nd3  1  0.305303  0.751591  0.843173  1
  B  B4  1  0.096167  0.248819  0.951326  1
  B  B5  1  0.595393  0.246638  0.547265  1
  B  B6  1  0.903959  0.748118  0.048632  1
  B  B7  1  0.406084  0.755070  0.451465  1
  Pd  Pd8  1  0.118122  0.249986  0.765859  1
  Pd  Pd9  1  0.618873  0.253747  0.734157  1
  Pd  Pd10  1  0.882435  0.748722  0.234316  1
  Pd  Pd11  1  0.380809  0.752061  0.264559  1
  Pd  Pd12  1  0.442408  0.251856  0.944382  1
  Pd  Pd13  1  0.942641  0.249795  0.555934  1
  Pd  Pd14  1  0.557985  0.750677  0.054953  1
  Pd  Pd15  1  0.059491  0.748977  0.444682  1
  Pd  Pd16  1  0.164846  0.495154  0.094331  1
  Pd  Pd17  1  0.335968  0.503207  0.593196  1
  Pd  Pd18  1  0.834567  0.996286  0.905857  1
  Pt  Pt19  1  0.338331  0.998465  0.592911  1
  Pt  Pt20  1  0.841780  0.500574  0.910430  1
  Pt  Pt21  1  0.659347  0.499383  0.409432  1
  Pt  Pt22  1  0.158288  0.999706  0.088819  1
  Pt  Pt23  1  0.664018  0.003835  0.406337  1
