# generated using pymatgen
data_Hf2Zr4Al16Ni6Os
_symmetry_space_group_name_H-M   'P 1'
_cell_length_a   8.57572089
_cell_length_b   8.55251321
_cell_length_c   8.55251349
_cell_angle_alpha   60.18492579
_cell_angle_beta   59.91019335
_cell_angle_gamma   59.91020037
_symmetry_Int_Tables_number   1
_chemical_formula_structural   Hf2Zr4Al16Ni6Os
_chemical_formula_sum   'Hf2 Zr4 Al16 Ni6 Os1'
_cell_volume   443.56161073
_cell_formula_units_Z   1
loop_
 _symmetry_equiv_pos_site_id
 _symmetry_equiv_pos_as_xyz
  1  'x, y, z'
loop_
 _atom_site_type_symbol
 _atom_site_label
 _atom_site_symmetry_multiplicity
 _atom_site_fract_x
 _atom_site_fract_y
 _atom_site_fract_z
 _atom_site_occupancy
  Hf  Hf0  1  0.691703  0.692637  0.307363  1
  Hf  Hf1  1  0.308297  0.692637  0.307363  1
  Zr  Zr2  1  0.688834  0.312088  0.310244  1
  Zr  Zr3  1  0.304448  0.305330  0.694670  1
  Zr  Zr4  1  0.695552  0.305330  0.694670  1
  Zr  Zr5  1  0.311166  0.689756  0.687912  1
  Al  Al6  1  0.879783  0.880146  0.360289  1
  Al  Al7  1  0.879166  0.361034  0.880636  1
  Al  Al8  1  0.360669  0.878935  0.880018  1
  Al  Al9  1  0.880381  0.878935  0.880018  1
  Al  Al10  1  0.120834  0.119364  0.638966  1
  Al  Al11  1  0.120217  0.639711  0.119854  1
  Al  Al12  1  0.639331  0.119982  0.121065  1
  Al  Al13  1  0.119619  0.119982  0.121065  1
  Al  Al14  1  0.664747  0.666709  0.003796  1
  Al  Al15  1  0.665271  0.003275  0.666182  1
  Al  Al16  1  0.003608  0.665323  0.664645  1
  Al  Al17  1  0.666422  0.665323  0.664645  1
  Al  Al18  1  0.334729  0.333818  0.996725  1
  Al  Al19  1  0.335253  0.996204  0.333291  1
  Al  Al20  1  0.996392  0.335355  0.334677  1
  Al  Al21  1  0.333578  0.335355  0.334677  1
  Ni  Ni22  1  0.001047  0.999525  0.498996  1
  Ni  Ni23  1  0.500432  0.999525  0.498996  1
  Ni  Ni24  1  0.000000  0.502283  0.497717  1
  Ni  Ni25  1  0.499568  0.501004  0.000475  1
  Ni  Ni26  1  0.998953  0.501004  0.000475  1
  Ni  Ni27  1  0.500000  0.998807  0.001193  1
  Os  Os28  1  0.000000  0.000623  0.999377  1
