# generated using pymatgen
data_La2TbPrCoI5
_symmetry_space_group_name_H-M   'P 1'
_cell_length_a   9.87803157
_cell_length_b   9.87803153
_cell_length_c   9.29354905
_cell_angle_alpha   76.63043444
_cell_angle_beta   76.63043550
_cell_angle_gamma   25.27305205
_symmetry_Int_Tables_number   1
_chemical_formula_structural   La2TbPrCoI5
_chemical_formula_sum   'La2 Tb1 Pr1 Co1 I5'
_cell_volume   376.12481931
_cell_formula_units_Z   1
loop_
 _symmetry_equiv_pos_site_id
 _symmetry_equiv_pos_as_xyz
  1  'x, y, z'
loop_
 _atom_site_type_symbol
 _atom_site_label
 _atom_site_symmetry_multiplicity
 _atom_site_fract_x
 _atom_site_fract_y
 _atom_site_fract_z
 _atom_site_occupancy
  La  La0  1  0.867527  0.867527  0.071917  1
  La  La1  1  0.132471  0.132471  0.934944  1
  Tb  Tb2  1  0.500327  0.500327  0.208587  1
  Pr  Pr3  1  0.499360  0.499360  0.781132  1
  Co  Co4  1  0.999952  0.999952  0.002587  1
  I  I5  1  0.669590  0.669590  0.178642  1
  I  I6  1  0.326146  0.326146  0.828749  1
  I  I7  1  0.668458  0.668458  0.657475  1
  I  I8  1  0.335926  0.335926  0.346155  1
  I  I9  1  0.000243  0.000243  0.489812  1
