# generated using pymatgen
data_CaTh(ClO4)6
_symmetry_space_group_name_H-M   'P 1'
_cell_length_a   9.50450600
_cell_length_b   9.50450581
_cell_length_c   5.89898400
_cell_angle_alpha   90.00000000
_cell_angle_beta   90.00000000
_cell_angle_gamma   119.99999974
_symmetry_Int_Tables_number   1
_chemical_formula_structural   CaTh(ClO4)6
_chemical_formula_sum   'Ca1 Th1 Cl6 O24'
_cell_volume   461.49493674
_cell_formula_units_Z   1
loop_
 _symmetry_equiv_pos_site_id
 _symmetry_equiv_pos_as_xyz
  1  'x, y, z'
loop_
 _atom_site_type_symbol
 _atom_site_label
 _atom_site_symmetry_multiplicity
 _atom_site_fract_x
 _atom_site_fract_y
 _atom_site_fract_z
 _atom_site_occupancy
  Ca  Ca0  1  0.333333  0.666667  0.250000  1
  Th  Th1  1  0.666667  0.333333  0.750000  1
  Cl  Cl2  1  0.295530  0.910791  0.750000  1
  Cl  Cl3  1  0.707227  0.095336  0.250000  1
  Cl  Cl4  1  0.615262  0.704470  0.750000  1
  Cl  Cl5  1  0.388109  0.292773  0.250000  1
  Cl  Cl6  1  0.089209  0.384738  0.750000  1
  Cl  Cl7  1  0.904664  0.611891  0.250000  1
  O  O8  1  0.787397  0.803279  0.750000  1
  O  O9  1  0.960016  0.433580  0.750000  1
  O  O10  1  0.473565  0.039984  0.750000  1
  O  O11  1  0.196721  0.984118  0.750000  1
  O  O12  1  0.971049  0.782451  0.250000  1
  O  O13  1  0.460178  0.256744  0.450720  1
  O  O14  1  0.188145  0.455853  0.951055  1
  O  O15  1  0.536472  0.975925  0.250000  1
  O  O16  1  0.544147  0.732292  0.951055  1
  O  O17  1  0.024075  0.560547  0.250000  1
  O  O18  1  0.015882  0.212603  0.750000  1
  O  O19  1  0.267708  0.811855  0.548945  1
  O  O20  1  0.796565  0.539822  0.450720  1
  O  O21  1  0.460178  0.256744  0.049280  1
  O  O22  1  0.544147  0.732292  0.548945  1
  O  O23  1  0.267708  0.811855  0.951055  1
  O  O24  1  0.796565  0.539822  0.049280  1
  O  O25  1  0.566420  0.526435  0.750000  1
  O  O26  1  0.439453  0.463528  0.250000  1
  O  O27  1  0.188145  0.455853  0.548945  1
  O  O28  1  0.743256  0.203435  0.049280  1
  O  O29  1  0.217549  0.188598  0.250000  1
  O  O30  1  0.743256  0.203435  0.450720  1
  O  O31  1  0.811402  0.028951  0.250000  1
