# generated using pymatgen
data_Ti2Al2Ru3Pt
_symmetry_space_group_name_H-M   'P 1'
_cell_length_a   4.32766000
_cell_length_b   6.17106220
_cell_length_c   12.91964051
_cell_angle_alpha   90.07145536
_cell_angle_beta   90.00056180
_cell_angle_gamma   90.00016282
_symmetry_Int_Tables_number   1
_chemical_formula_structural   Ti2Al2Ru3Pt
_chemical_formula_sum   'Ti6 Al6 Ru9 Pt3'
_cell_volume   345.03499787
_cell_formula_units_Z   3
loop_
 _symmetry_equiv_pos_site_id
 _symmetry_equiv_pos_as_xyz
  1  'x, y, z'
loop_
 _atom_site_type_symbol
 _atom_site_label
 _atom_site_symmetry_multiplicity
 _atom_site_fract_x
 _atom_site_fract_y
 _atom_site_fract_z
 _atom_site_occupancy
  Ti  Ti0  1  0.000026  0.504364  0.993260  1
  Ti  Ti1  1  0.499848  0.989060  0.176548  1
  Ti  Ti2  1  0.999877  0.504087  0.341144  1
  Ti  Ti3  1  0.499998  0.000661  0.501329  1
  Ti  Ti4  1  0.000119  0.499499  0.664470  1
  Ti  Ti5  1  0.500147  0.999968  0.823069  1
  Al  Al6  1  0.000013  0.997955  0.997714  1
  Al  Al7  1  0.499842  0.504756  0.170745  1
  Al  Al8  1  0.999859  0.996326  0.337841  1
  Al  Al9  1  0.499992  0.500253  0.500821  1
  Al  Al10  1  0.000139  0.000167  0.665331  1
  Al  Al11  1  0.500163  0.500643  0.827434  1
  Ru  Ru12  1  0.999864  0.751771  0.163337  1
  Ru  Ru13  1  0.499870  0.250097  0.330378  1
  Ru  Ru14  1  0.499868  0.749728  0.331486  1
  Ru  Ru15  1  0.999994  0.250486  0.499050  1
  Ru  Ru16  1  0.999996  0.749632  0.500228  1
  Ru  Ru17  1  0.500100  0.249776  0.667563  1
  Ru  Ru18  1  0.500102  0.750397  0.667628  1
  Ru  Ru19  1  0.000150  0.249686  0.837472  1
  Ru  Ru20  1  0.000146  0.750181  0.836546  1
  Pt  Pt21  1  0.500024  0.250186  0.001423  1
  Pt  Pt22  1  0.500009  0.750115  0.000219  1
  Pt  Pt23  1  0.999856  0.250200  0.164967  1
