# generated using pymatgen
data_Er4Pa4Re(B8Mo)3
_symmetry_space_group_name_H-M   'P 1'
_cell_length_a   3.74157100
_cell_length_b   9.16166902
_cell_length_c   11.51888302
_cell_angle_alpha   89.99321809
_cell_angle_beta   90.00000000
_cell_angle_gamma   90.00000000
_symmetry_Int_Tables_number   1
_chemical_formula_structural   Er4Pa4Re(B8Mo)3
_chemical_formula_sum   'Er4 Pa4 Re1 B24 Mo3'
_cell_volume   394.85619262
_cell_formula_units_Z   1
loop_
 _symmetry_equiv_pos_site_id
 _symmetry_equiv_pos_as_xyz
  1  'x, y, z'
loop_
 _atom_site_type_symbol
 _atom_site_label
 _atom_site_symmetry_multiplicity
 _atom_site_fract_x
 _atom_site_fract_y
 _atom_site_fract_z
 _atom_site_occupancy
  Er  Er0  1  0.000000  0.945443  0.373950  1
  Er  Er1  1  0.000000  0.055189  0.626136  1
  Er  Er2  1  0.000000  0.445550  0.126231  1
  Er  Er3  1  0.000000  0.554344  0.873737  1
  Pa  Pa4  1  0.000000  0.322169  0.412894  1
  Pa  Pa5  1  0.000000  0.676899  0.585355  1
  Pa  Pa6  1  0.000000  0.822047  0.087858  1
  Pa  Pa7  1  0.000000  0.178914  0.913844  1
  Re  Re8  1  0.000000  0.861698  0.821837  1
  B  B9  1  0.500000  0.553386  0.433065  1
  B  B10  1  0.500000  0.446823  0.567019  1
  B  B11  1  0.500000  0.053071  0.066626  1
  B  B12  1  0.500000  0.946080  0.932322  1
  B  B13  1  0.500000  0.748875  0.420474  1
  B  B14  1  0.500000  0.251066  0.579696  1
  B  B15  1  0.500000  0.249140  0.079588  1
  B  B16  1  0.500000  0.751051  0.919646  1
  B  B17  1  0.500000  0.793320  0.264890  1
  B  B18  1  0.500000  0.206469  0.735146  1
  B  B19  1  0.500000  0.293071  0.235096  1
  B  B20  1  0.500000  0.707663  0.765583  1
  B  B21  1  0.500000  0.632727  0.184763  1
  B  B22  1  0.500000  0.367342  0.815429  1
  B  B23  1  0.500000  0.132332  0.315060  1
  B  B24  1  0.500000  0.867875  0.685377  1
  B  B25  1  0.500000  0.981781  0.212850  1
  B  B26  1  0.500000  0.016938  0.787097  1
  B  B27  1  0.500000  0.481990  0.287017  1
  B  B28  1  0.500000  0.518158  0.713094  1
  B  B29  1  0.500000  0.609780  0.029824  1
  B  B30  1  0.500000  0.390595  0.969580  1
  B  B31  1  0.500000  0.109284  0.469674  1
  B  B32  1  0.500000  0.890684  0.530942  1
  Mo  Mo33  1  0.000000  0.638801  0.321597  1
  Mo  Mo34  1  0.000000  0.361522  0.679025  1
  Mo  Mo35  1  0.000000  0.137926  0.177680  1
