# generated using pymatgen
data_PrInAg2(Ir2O7)2
_symmetry_space_group_name_H-M   'P 1'
_cell_length_a   7.24378466
_cell_length_b   7.27310344
_cell_length_c   7.21303100
_cell_angle_alpha   60.27284455
_cell_angle_beta   60.14033712
_cell_angle_gamma   60.82403132
_symmetry_Int_Tables_number   1
_chemical_formula_structural   PrInAg2(Ir2O7)2
_chemical_formula_sum   'Pr1 In1 Ag2 Ir4 O14'
_cell_volume   271.19701743
_cell_formula_units_Z   1
loop_
 _symmetry_equiv_pos_site_id
 _symmetry_equiv_pos_as_xyz
  1  'x, y, z'
loop_
 _atom_site_type_symbol
 _atom_site_label
 _atom_site_symmetry_multiplicity
 _atom_site_fract_x
 _atom_site_fract_y
 _atom_site_fract_z
 _atom_site_occupancy
  Pr  Pr0  1  0.125000  0.625000  0.125000  1
  In  In1  1  0.625000  0.125000  0.125000  1
  Ag  Ag2  1  0.125000  0.125000  0.625000  1
  Ag  Ag3  1  0.125000  0.125000  0.125000  1
  Ir  Ir4  1  0.625000  0.625000  0.625000  1
  Ir  Ir5  1  0.125000  0.625000  0.625000  1
  Ir  Ir6  1  0.625000  0.125000  0.625000  1
  Ir  Ir7  1  0.625000  0.625000  0.125000  1
  O  O8  1  0.950341  0.548132  0.547112  1
  O  O9  1  0.306589  0.303978  0.694716  1
  O  O10  1  0.950341  0.548132  0.954413  1
  O  O11  1  0.681282  0.301192  0.298287  1
  O  O12  1  0.550377  0.536125  0.956748  1
  O  O13  1  0.568718  0.948808  0.530761  1
  O  O14  1  0.568718  0.948808  0.951713  1
  O  O15  1  0.262440  0.224664  0.256448  1
  O  O16  1  0.299659  0.701868  0.702888  1
  O  O17  1  0.681282  0.301192  0.719239  1
  O  O18  1  0.987560  0.025336  0.993552  1
  O  O19  1  0.943411  0.946022  0.555284  1
  O  O20  1  0.299659  0.701868  0.295587  1
  O  O21  1  0.699623  0.713875  0.293252  1
