# generated using pymatgen
data_Er4TmGaSb2
_symmetry_space_group_name_H-M   'P 1'
_cell_length_a   8.74571300
_cell_length_b   8.75814607
_cell_length_c   6.35164400
_cell_angle_alpha   90.00000000
_cell_angle_beta   90.00000000
_cell_angle_gamma   119.95304731
_symmetry_Int_Tables_number   1
_chemical_formula_structural   Er4TmGaSb2
_chemical_formula_sum   'Er8 Tm2 Ga2 Sb4'
_cell_volume   421.53095048
_cell_formula_units_Z   2
loop_
 _symmetry_equiv_pos_site_id
 _symmetry_equiv_pos_as_xyz
  1  'x, y, z'
loop_
 _atom_site_type_symbol
 _atom_site_label
 _atom_site_symmetry_multiplicity
 _atom_site_fract_x
 _atom_site_fract_y
 _atom_site_fract_z
 _atom_site_occupancy
  Er  Er0  1  0.342702  0.685405  0.000000  1
  Er  Er1  1  0.657298  0.314595  0.500000  1
  Er  Er2  1  0.244536  0.000000  0.250000  1
  Er  Er3  1  0.755464  0.000000  0.750000  1
  Er  Er4  1  0.986422  0.231479  0.249999  1
  Er  Er5  1  0.754945  0.768521  0.250001  1
  Er  Er6  1  0.245055  0.231479  0.750001  1
  Er  Er7  1  0.013578  0.768521  0.749999  1
  Tm  Tm8  1  0.657150  0.314297  0.000000  1
  Tm  Tm9  1  0.342850  0.685703  0.500000  1
  Ga  Ga10  1  0.603390  0.000000  0.250000  1
  Ga  Ga11  1  0.396610  0.000000  0.750000  1
  Sb  Sb12  1  0.993770  0.605548  0.250006  1
  Sb  Sb13  1  0.388222  0.394452  0.249994  1
  Sb  Sb14  1  0.611778  0.605548  0.749994  1
  Sb  Sb15  1  0.006230  0.394452  0.750006  1
