# generated using pymatgen
data_Nd2Er3Ga3Si
_symmetry_space_group_name_H-M   'P 1'
_cell_length_a   7.50648200
_cell_length_b   15.16782800
_cell_length_c   7.92646200
_cell_angle_alpha   90.00000000
_cell_angle_beta   90.00000000
_cell_angle_gamma   90.00000000
_symmetry_Int_Tables_number   1
_chemical_formula_structural   Nd2Er3Ga3Si
_chemical_formula_sum   'Nd8 Er12 Ga12 Si4'
_cell_volume   902.48340477
_cell_formula_units_Z   4
loop_
 _symmetry_equiv_pos_site_id
 _symmetry_equiv_pos_as_xyz
  1  'x, y, z'
loop_
 _atom_site_type_symbol
 _atom_site_label
 _atom_site_symmetry_multiplicity
 _atom_site_fract_x
 _atom_site_fract_y
 _atom_site_fract_z
 _atom_site_occupancy
  Nd  Nd0  1  0.016873  0.094575  0.175509  1
  Nd  Nd1  1  0.016873  0.405425  0.175509  1
  Nd  Nd2  1  0.516873  0.094575  0.324491  1
  Nd  Nd3  1  0.516873  0.405425  0.324491  1
  Nd  Nd4  1  0.480370  0.598050  0.680769  1
  Nd  Nd5  1  0.480370  0.901950  0.680769  1
  Nd  Nd6  1  0.980371  0.598050  0.819231  1
  Nd  Nd7  1  0.980371  0.901950  0.819231  1
  Er  Er8  1  0.339421  0.250000  0.009220  1
  Er  Er9  1  0.323527  0.621651  0.173282  1
  Er  Er10  1  0.323527  0.878348  0.173282  1
  Er  Er11  1  0.823526  0.621651  0.326718  1
  Er  Er12  1  0.823526  0.878348  0.326718  1
  Er  Er13  1  0.839421  0.250000  0.490780  1
  Er  Er14  1  0.155938  0.750000  0.511888  1
  Er  Er15  1  0.176826  0.122848  0.677451  1
  Er  Er16  1  0.176826  0.377151  0.677451  1
  Er  Er17  1  0.676826  0.122848  0.822549  1
  Er  Er18  1  0.676826  0.377151  0.822549  1
  Er  Er19  1  0.655938  0.750000  0.988112  1
  Ga  Ga20  1  0.654203  0.541090  0.031087  1
  Ga  Ga21  1  0.654203  0.958910  0.031087  1
  Ga  Ga22  1  0.028530  0.750000  0.109022  1
  Ga  Ga23  1  0.732459  0.250000  0.120311  1
  Ga  Ga24  1  0.232458  0.250000  0.379689  1
  Ga  Ga25  1  0.528530  0.750000  0.390978  1
  Ga  Ga26  1  0.154203  0.541090  0.468914  1
  Ga  Ga27  1  0.154203  0.958910  0.468914  1
  Ga  Ga28  1  0.847998  0.040884  0.533291  1
  Ga  Ga29  1  0.847998  0.459115  0.533291  1
  Ga  Ga30  1  0.347997  0.040884  0.966708  1
  Ga  Ga31  1  0.347997  0.459115  0.966708  1
  Si  Si32  1  0.470574  0.250000  0.617127  1
  Si  Si33  1  0.773490  0.750000  0.619319  1
  Si  Si34  1  0.273490  0.750000  0.880681  1
  Si  Si35  1  0.970573  0.250000  0.882873  1
