# generated using pymatgen
data_Yb4Y3ScHg8
_symmetry_space_group_name_H-M   'P 1'
_cell_length_a   7.46446500
_cell_length_b   7.47058901
_cell_length_c   7.40683700
_cell_angle_alpha   89.99736169
_cell_angle_beta   89.99911728
_cell_angle_gamma   90.00007665
_symmetry_Int_Tables_number   1
_chemical_formula_structural   Yb4Y3ScHg8
_chemical_formula_sum   'Yb4 Y3 Sc1 Hg8'
_cell_volume   413.03448901
_cell_formula_units_Z   1
loop_
 _symmetry_equiv_pos_site_id
 _symmetry_equiv_pos_as_xyz
  1  'x, y, z'
loop_
 _atom_site_type_symbol
 _atom_site_label
 _atom_site_symmetry_multiplicity
 _atom_site_fract_x
 _atom_site_fract_y
 _atom_site_fract_z
 _atom_site_occupancy
  Yb  Yb0  1  0.749202  0.250006  0.000052  1
  Yb  Yb1  1  0.249419  0.750000  0.499944  1
  Yb  Yb2  1  0.750575  0.249998  0.500055  1
  Yb  Yb3  1  0.250617  0.749998  0.999952  1
  Y  Y4  1  0.749557  0.750009  0.000001  1
  Y  Y5  1  0.750463  0.749993  0.500010  1
  Y  Y6  1  0.249450  0.250006  0.500000  1
  Sc  Sc7  1  0.250370  0.249979  0.999958  1
  Hg  Hg8  1  0.003828  0.496312  0.244821  1
  Hg  Hg9  1  0.003838  0.003682  0.244836  1
  Hg  Hg10  1  0.496435  0.003712  0.246964  1
  Hg  Hg11  1  0.496452  0.496290  0.246961  1
  Hg  Hg12  1  0.496258  0.496396  0.753059  1
  Hg  Hg13  1  0.496270  0.003615  0.753073  1
  Hg  Hg14  1  0.003625  0.003793  0.755159  1
  Hg  Hg15  1  0.003640  0.496216  0.755153  1
