# generated using pymatgen
data_Ba2Ca(GaAs2)2
_symmetry_space_group_name_H-M   'P 1'
_cell_length_a   8.73679897
_cell_length_b   8.73679871
_cell_length_c   6.95658727
_cell_angle_alpha   91.08189994
_cell_angle_beta   91.08189655
_cell_angle_gamma   77.12014655
_symmetry_Int_Tables_number   1
_chemical_formula_structural   Ba2Ca(GaAs2)2
_chemical_formula_sum   'Ba4 Ca2 Ga4 As8'
_cell_volume   517.49652990
_cell_formula_units_Z   2
loop_
 _symmetry_equiv_pos_site_id
 _symmetry_equiv_pos_as_xyz
  1  'x, y, z'
loop_
 _atom_site_type_symbol
 _atom_site_label
 _atom_site_symmetry_multiplicity
 _atom_site_fract_x
 _atom_site_fract_y
 _atom_site_fract_z
 _atom_site_occupancy
  Ba  Ba0  1  0.743655  0.003969  0.958703  1
  Ba  Ba1  1  0.996031  0.256345  0.541297  1
  Ba  Ba2  1  0.256345  0.996031  0.041297  1
  Ba  Ba3  1  0.003969  0.743655  0.458703  1
  Ca  Ca4  1  0.595393  0.404607  0.250000  1
  Ca  Ca5  1  0.404607  0.595393  0.750000  1
  Ga  Ga6  1  0.578417  0.823269  0.419018  1
  Ga  Ga7  1  0.176731  0.421583  0.080982  1
  Ga  Ga8  1  0.421583  0.176731  0.580982  1
  Ga  Ga9  1  0.823269  0.578417  0.919018  1
  As  As10  1  0.699392  0.063706  0.463995  1
  As  As11  1  0.936294  0.300608  0.036005  1
  As  As12  1  0.300608  0.936294  0.536005  1
  As  As13  1  0.063706  0.699392  0.963995  1
  As  As14  1  0.572261  0.721526  0.076305  1
  As  As15  1  0.278474  0.427739  0.423695  1
  As  As16  1  0.427739  0.278474  0.923695  1
  As  As17  1  0.721526  0.572261  0.576305  1
