# generated using pymatgen
data_Er4Ga4PdPtRh2
_symmetry_space_group_name_H-M   'P 1'
_cell_length_a   4.37809000
_cell_length_b   6.82222750
_cell_length_c   7.69556795
_cell_angle_alpha   90.11799137
_cell_angle_beta   90.00000000
_cell_angle_gamma   90.00000000
_symmetry_Int_Tables_number   1
_chemical_formula_structural   Er4Ga4PdPtRh2
_chemical_formula_sum   'Er4 Ga4 Pd1 Pt1 Rh2'
_cell_volume   229.85324475
_cell_formula_units_Z   1
loop_
 _symmetry_equiv_pos_site_id
 _symmetry_equiv_pos_as_xyz
  1  'x, y, z'
loop_
 _atom_site_type_symbol
 _atom_site_label
 _atom_site_symmetry_multiplicity
 _atom_site_fract_x
 _atom_site_fract_y
 _atom_site_fract_z
 _atom_site_occupancy
  Er  Er0  1  0.250000  0.979160  0.307987  1
  Er  Er1  1  0.250000  0.480006  0.193026  1
  Er  Er2  1  0.750000  0.024060  0.685811  1
  Er  Er3  1  0.750000  0.528617  0.811987  1
  Ga  Ga4  1  0.250000  0.339747  0.568573  1
  Ga  Ga5  1  0.250000  0.836774  0.932539  1
  Ga  Ga6  1  0.750000  0.657007  0.426898  1
  Ga  Ga7  1  0.750000  0.157426  0.071824  1
  Pd  Pd8  1  0.250000  0.227791  0.892976  1
  Pt  Pt9  1  0.250000  0.731503  0.608250  1
  Rh  Rh10  1  0.750000  0.768807  0.106227  1
  Rh  Rh11  1  0.750000  0.269104  0.393902  1
