# generated using pymatgen
data_CeDyTlRh2
_symmetry_space_group_name_H-M   'P 1'
_cell_length_a   7.74858000
_cell_length_b   7.63360400
_cell_length_c   3.64616700
_cell_angle_alpha   90.00000000
_cell_angle_beta   90.00000000
_cell_angle_gamma   90.00000000
_symmetry_Int_Tables_number   1
_chemical_formula_structural   CeDyTlRh2
_chemical_formula_sum   'Ce2 Dy2 Tl2 Rh4'
_cell_volume   215.66928780
_cell_formula_units_Z   2
loop_
 _symmetry_equiv_pos_site_id
 _symmetry_equiv_pos_as_xyz
  1  'x, y, z'
loop_
 _atom_site_type_symbol
 _atom_site_label
 _atom_site_symmetry_multiplicity
 _atom_site_fract_x
 _atom_site_fract_y
 _atom_site_fract_z
 _atom_site_occupancy
  Ce  Ce0  1  0.328598  0.164962  0.500001  1
  Ce  Ce1  1  0.828598  0.335039  0.500001  1
  Dy  Dy2  1  0.168052  0.667326  0.500001  1
  Dy  Dy3  1  0.668052  0.832675  0.500001  1
  Tl  Tl4  1  0.995230  0.989595  0.000000  1
  Tl  Tl5  1  0.495230  0.510405  0.000000  1
  Rh  Rh6  1  0.640943  0.147887  0.000000  1
  Rh  Rh7  1  0.140945  0.352114  0.000000  1
  Rh  Rh8  1  0.867177  0.614109  0.000000  1
  Rh  Rh9  1  0.367177  0.885890  0.000000  1
