# generated using pymatgen
data_Nd4Ga5Ir4Pd5
_symmetry_space_group_name_H-M   'P 1'
_cell_length_a   12.62748342
_cell_length_b   12.61625468
_cell_length_c   12.61625468
_cell_angle_alpha   25.78599891
_cell_angle_beta   25.80629358
_cell_angle_gamma   25.80629341
_symmetry_Int_Tables_number   1
_chemical_formula_structural   Nd4Ga5Ir4Pd5
_chemical_formula_sum   'Nd4 Ga5 Ir4 Pd5'
_cell_volume   335.27742298
_cell_formula_units_Z   1
loop_
 _symmetry_equiv_pos_site_id
 _symmetry_equiv_pos_as_xyz
  1  'x, y, z'
loop_
 _atom_site_type_symbol
 _atom_site_label
 _atom_site_symmetry_multiplicity
 _atom_site_fract_x
 _atom_site_fract_y
 _atom_site_fract_z
 _atom_site_occupancy
  Nd  Nd0  1  0.954594  0.955799  0.955799  1
  Nd  Nd1  1  0.046205  0.046102  0.046102  1
  Nd  Nd2  1  0.861594  0.849202  0.849202  1
  Nd  Nd3  1  0.144961  0.144467  0.144467  1
  Ga  Ga4  1  0.490256  0.503450  0.503450  1
  Ga  Ga5  1  0.727714  0.718190  0.718190  1
  Ga  Ga6  1  0.278039  0.278880  0.278880  1
  Ga  Ga7  1  0.611363  0.612943  0.612943  1
  Ga  Ga8  1  0.379375  0.393107  0.393107  1
  Ir  Ir9  1  0.499980  0.499905  0.001897  1
  Ir  Ir10  1  0.999911  0.499554  0.499554  1
  Ir  Ir11  1  0.499980  0.001897  0.499905  1
  Ir  Ir12  1  0.106626  0.613066  0.613066  1
  Pd  Pd13  1  0.391017  0.891671  0.387034  1
  Pd  Pd14  1  0.391017  0.387034  0.891671  1
  Pd  Pd15  1  0.891452  0.387981  0.387981  1
  Pd  Pd16  1  0.612958  0.106203  0.610548  1
  Pd  Pd17  1  0.612958  0.610548  0.106203  1
