# generated using pymatgen
data_NdNp7H24
_symmetry_space_group_name_H-M   'P 1'
_cell_length_a   6.68898000
_cell_length_b   6.68898000
_cell_length_c   6.68898000
_cell_angle_alpha   90.00000000
_cell_angle_beta   90.00000000
_cell_angle_gamma   90.00000000
_symmetry_Int_Tables_number   1
_chemical_formula_structural   NdNp7H24
_chemical_formula_sum   'Nd1 Np7 H24'
_cell_volume   299.28137621
_cell_formula_units_Z   1
loop_
 _symmetry_equiv_pos_site_id
 _symmetry_equiv_pos_as_xyz
  1  'x, y, z'
loop_
 _atom_site_type_symbol
 _atom_site_label
 _atom_site_symmetry_multiplicity
 _atom_site_fract_x
 _atom_site_fract_y
 _atom_site_fract_z
 _atom_site_occupancy
  Nd  Nd0  1  0.500000  0.500000  0.500000  1
  Np  Np1  1  0.000000  0.000000  0.000000  1
  Np  Np2  1  0.249389  0.000000  0.500000  1
  Np  Np3  1  0.750611  0.000000  0.500000  1
  Np  Np4  1  0.000000  0.500000  0.249389  1
  Np  Np5  1  0.000000  0.500000  0.750611  1
  Np  Np6  1  0.500000  0.750611  0.000000  1
  Np  Np7  1  0.500000  0.249389  0.000000  1
  H  H8  1  0.000000  0.154804  0.303577  1
  H  H9  1  0.500000  0.187985  0.657660  1
  H  H10  1  0.500000  0.812015  0.342340  1
  H  H11  1  0.812015  0.657660  0.500000  1
  H  H12  1  0.187985  0.657660  0.500000  1
  H  H13  1  0.342340  0.500000  0.812015  1
  H  H14  1  0.657660  0.500000  0.812015  1
  H  H15  1  0.303577  0.000000  0.154804  1
  H  H16  1  0.154804  0.303577  0.000000  1
  H  H17  1  0.845196  0.696423  0.000000  1
  H  H18  1  0.303577  0.000000  0.845196  1
  H  H19  1  0.845196  0.303577  0.000000  1
  H  H20  1  0.696423  0.000000  0.154804  1
  H  H21  1  0.696423  0.000000  0.845196  1
  H  H22  1  0.154804  0.696423  0.000000  1
  H  H23  1  0.000000  0.845196  0.696423  1
  H  H24  1  0.000000  0.154804  0.696423  1
  H  H25  1  0.000000  0.845196  0.303577  1
  H  H26  1  0.657660  0.500000  0.187985  1
  H  H27  1  0.342340  0.500000  0.187985  1
  H  H28  1  0.812015  0.342340  0.500000  1
  H  H29  1  0.187985  0.342340  0.500000  1
  H  H30  1  0.500000  0.812015  0.657660  1
  H  H31  1  0.500000  0.187985  0.342340  1
