# generated using pymatgen
data_DyNp2Sc5(ReB6)4
_symmetry_space_group_name_H-M   'P 1'
_cell_length_a   3.57296900
_cell_length_b   8.97044069
_cell_length_c   11.31581222
_cell_angle_alpha   90.13615773
_cell_angle_beta   90.00000000
_cell_angle_gamma   90.00000000
_symmetry_Int_Tables_number   1
_chemical_formula_structural   DyNp2Sc5(ReB6)4
_chemical_formula_sum   'Dy1 Np2 Sc5 Re4 B24'
_cell_volume   362.68327830
_cell_formula_units_Z   1
loop_
 _symmetry_equiv_pos_site_id
 _symmetry_equiv_pos_as_xyz
  1  'x, y, z'
loop_
 _atom_site_type_symbol
 _atom_site_label
 _atom_site_symmetry_multiplicity
 _atom_site_fract_x
 _atom_site_fract_y
 _atom_site_fract_z
 _atom_site_occupancy
  Dy  Dy0  1  0.000000  0.821514  0.085327  1
  Np  Np1  1  0.000000  0.319539  0.413654  1
  Np  Np2  1  0.000000  0.680434  0.586709  1
  Sc  Sc3  1  0.000000  0.178761  0.914664  1
  Sc  Sc4  1  0.000000  0.945878  0.372300  1
  Sc  Sc5  1  0.000000  0.054675  0.628280  1
  Sc  Sc6  1  0.000000  0.443457  0.126382  1
  Sc  Sc7  1  0.000000  0.555154  0.872820  1
  Re  Re8  1  0.000000  0.637891  0.322104  1
  Re  Re9  1  0.000000  0.361130  0.679417  1
  Re  Re10  1  0.000000  0.142513  0.181297  1
  Re  Re11  1  0.000000  0.859421  0.817368  1
  B  B12  1  0.500000  0.553045  0.433635  1
  B  B13  1  0.500000  0.446600  0.567078  1
  B  B14  1  0.500000  0.055087  0.064898  1
  B  B15  1  0.500000  0.947531  0.933281  1
  B  B16  1  0.500000  0.753500  0.419704  1
  B  B17  1  0.500000  0.246407  0.581103  1
  B  B18  1  0.500000  0.252824  0.077619  1
  B  B19  1  0.500000  0.746940  0.919548  1
  B  B20  1  0.500000  0.794557  0.264827  1
  B  B21  1  0.500000  0.204913  0.737030  1
  B  B22  1  0.500000  0.295102  0.233723  1
  B  B23  1  0.500000  0.705034  0.765493  1
  B  B24  1  0.500000  0.628566  0.182776  1
  B  B25  1  0.500000  0.369378  0.818545  1
  B  B26  1  0.500000  0.130523  0.316602  1
  B  B27  1  0.500000  0.870241  0.683256  1
  B  B28  1  0.500000  0.981426  0.212863  1
  B  B29  1  0.500000  0.020943  0.787956  1
  B  B30  1  0.500000  0.480123  0.285328  1
  B  B31  1  0.500000  0.519213  0.715018  1
  B  B32  1  0.500000  0.596950  0.026690  1
  B  B33  1  0.500000  0.400571  0.972443  1
  B  B34  1  0.500000  0.099962  0.472633  1
  B  B35  1  0.500000  0.900196  0.527630  1
