# generated using pymatgen
data_Dy5HoCoTc
_symmetry_space_group_name_H-M   'P 1'
_cell_length_a   6.28682656
_cell_length_b   7.17763000
_cell_length_c   9.18390282
_cell_angle_alpha   90.00000000
_cell_angle_beta   89.95158175
_cell_angle_gamma   90.00000000
_symmetry_Int_Tables_number   1
_chemical_formula_structural   Dy5HoCoTc
_chemical_formula_sum   'Dy10 Ho2 Co2 Tc2'
_cell_volume   414.41901194
_cell_formula_units_Z   2
loop_
 _symmetry_equiv_pos_site_id
 _symmetry_equiv_pos_as_xyz
  1  'x, y, z'
loop_
 _atom_site_type_symbol
 _atom_site_label
 _atom_site_symmetry_multiplicity
 _atom_site_fract_x
 _atom_site_fract_y
 _atom_site_fract_z
 _atom_site_occupancy
  Dy  Dy0  1  0.668314  0.173606  0.063694  1
  Dy  Dy1  1  0.370889  0.546684  0.249947  1
  Dy  Dy2  1  0.143533  0.040203  0.250068  1
  Dy  Dy3  1  0.823347  0.681730  0.433348  1
  Dy  Dy4  1  0.323347  0.818270  0.933348  1
  Dy  Dy5  1  0.168314  0.326394  0.563694  1
  Dy  Dy6  1  0.668089  0.173490  0.436383  1
  Dy  Dy7  1  0.168089  0.326510  0.936383  1
  Dy  Dy8  1  0.870889  0.953316  0.749947  1
  Dy  Dy9  1  0.643533  0.459797  0.750068  1
  Ho  Ho10  1  0.323377  0.818303  0.566695  1
  Ho  Ho11  1  0.823377  0.681697  0.066695  1
  Co  Co12  1  0.540285  0.885531  0.250019  1
  Co  Co13  1  0.040285  0.614469  0.750019  1
  Tc  Tc14  1  0.962166  0.391640  0.249846  1
  Tc  Tc15  1  0.462166  0.108360  0.749846  1
