# generated using pymatgen
data_Ac3TcP6Ir5
_symmetry_space_group_name_H-M   'P 1'
_cell_length_a   6.81207422
_cell_length_b   6.81207498
_cell_length_c   7.26994919
_cell_angle_alpha   90.05663883
_cell_angle_beta   89.94336487
_cell_angle_gamma   119.42962259
_symmetry_Int_Tables_number   1
_chemical_formula_structural   Ac3TcP6Ir5
_chemical_formula_sum   'Ac3 Tc1 P6 Ir5'
_cell_volume   293.82452144
_cell_formula_units_Z   1
loop_
 _symmetry_equiv_pos_site_id
 _symmetry_equiv_pos_as_xyz
  1  'x, y, z'
loop_
 _atom_site_type_symbol
 _atom_site_label
 _atom_site_symmetry_multiplicity
 _atom_site_fract_x
 _atom_site_fract_y
 _atom_site_fract_z
 _atom_site_occupancy
  Ac  Ac0  1  0.398134  0.398134  0.500000  1
  Ac  Ac1  1  0.602888  0.000309  0.168595  1
  Ac  Ac2  1  0.000309  0.602888  0.831405  1
  Tc  Tc3  1  0.866665  0.866665  0.500000  1
  P  P4  1  0.875486  0.212835  0.542094  1
  P  P5  1  0.212835  0.875486  0.457906  1
  P  P6  1  0.128365  0.340469  0.123502  1
  P  P7  1  0.784052  0.662137  0.213262  1
  P  P8  1  0.340469  0.128365  0.876498  1
  P  P9  1  0.662137  0.784052  0.786738  1
  Ir  Ir10  1  0.127746  0.996148  0.164359  1
  Ir  Ir11  1  0.498491  0.498491  0.000000  1
  Ir  Ir12  1  0.998964  0.507314  0.332885  1
  Ir  Ir13  1  0.507314  0.998964  0.667115  1
  Ir  Ir14  1  0.996148  0.127746  0.835641  1
