# generated using pymatgen
data_La2NdEu5(MoO6)4
_symmetry_space_group_name_H-M   'P 1'
_cell_length_a   5.56085792
_cell_length_b   10.24291520
_cell_length_c   10.24291505
_cell_angle_alpha   68.43935855
_cell_angle_beta   75.01670558
_cell_angle_gamma   75.01671071
_symmetry_Int_Tables_number   1
_chemical_formula_structural   La2NdEu5(MoO6)4
_chemical_formula_sum   'La2 Nd1 Eu5 Mo4 O24'
_cell_volume   515.40300312
_cell_formula_units_Z   1
loop_
 _symmetry_equiv_pos_site_id
 _symmetry_equiv_pos_as_xyz
  1  'x, y, z'
loop_
 _atom_site_type_symbol
 _atom_site_label
 _atom_site_symmetry_multiplicity
 _atom_site_fract_x
 _atom_site_fract_y
 _atom_site_fract_z
 _atom_site_occupancy
  La  La0  1  0.250000  0.363961  0.636039  1
  La  La1  1  0.750000  0.634637  0.365363  1
  Nd  Nd2  1  0.250000  0.889394  0.110606  1
  Eu  Eu3  1  0.750000  0.109344  0.890656  1
  Eu  Eu4  1  0.383726  0.943969  0.712077  1
  Eu  Eu5  1  0.615417  0.057983  0.287563  1
  Eu  Eu6  1  0.116274  0.287923  0.056031  1
  Eu  Eu7  1  0.884583  0.712437  0.942017  1
  Mo  Mo8  1  0.057929  0.801576  0.507896  1
  Mo  Mo9  1  0.939616  0.198032  0.492377  1
  Mo  Mo10  1  0.442071  0.492104  0.198424  1
  Mo  Mo11  1  0.560384  0.507623  0.801968  1
  O  O12  1  0.077806  0.157334  0.691466  1
  O  O13  1  0.913960  0.840959  0.312230  1
  O  O14  1  0.422194  0.308534  0.842666  1
  O  O15  1  0.586040  0.687770  0.159041  1
  O  O16  1  0.358387  0.831803  0.381308  1
  O  O17  1  0.636827  0.169695  0.616704  1
  O  O18  1  0.141613  0.618692  0.168197  1
  O  O19  1  0.863173  0.383296  0.830305  1
  O  O20  1  0.133066  0.788612  0.675951  1
  O  O21  1  0.868435  0.211107  0.323379  1
  O  O22  1  0.366934  0.324049  0.211388  1
  O  O23  1  0.631565  0.676621  0.788893  1
  O  O24  1  0.239250  0.067409  0.477819  1
  O  O25  1  0.762216  0.934527  0.522961  1
  O  O26  1  0.260750  0.522181  0.932591  1
  O  O27  1  0.737784  0.477039  0.065473  1
  O  O28  1  0.017884  0.620024  0.544391  1
  O  O29  1  0.982864  0.378508  0.457013  1
  O  O30  1  0.482116  0.455609  0.379976  1
  O  O31  1  0.517136  0.542987  0.621492  1
  O  O32  1  0.574666  0.923515  0.891324  1
  O  O33  1  0.431242  0.076866  0.104800  1
  O  O34  1  0.925334  0.108676  0.076485  1
  O  O35  1  0.068758  0.895200  0.923134  1
