# generated using pymatgen
data_InTe24
_symmetry_space_group_name_H-M   'P 1'
_cell_length_a   8.66280900
_cell_length_b   8.66280854
_cell_length_c   13.41581800
_cell_angle_alpha   90.00000000
_cell_angle_beta   90.00000000
_cell_angle_gamma   119.99999029
_symmetry_Int_Tables_number   1
_chemical_formula_structural   InTe24
_chemical_formula_sum   'In1 Te24'
_cell_volume   871.89720876
_cell_formula_units_Z   1
loop_
 _symmetry_equiv_pos_site_id
 _symmetry_equiv_pos_as_xyz
  1  'x, y, z'
loop_
 _atom_site_type_symbol
 _atom_site_label
 _atom_site_symmetry_multiplicity
 _atom_site_fract_x
 _atom_site_fract_y
 _atom_site_fract_z
 _atom_site_occupancy
  In  In0  1  0.000000  0.000000  0.000000  1
  Te  Te1  1  0.501593  0.498407  0.730139  1
  Te  Te2  1  0.498407  0.501593  0.269861  1
  Te  Te3  1  0.501593  0.003185  0.730139  1
  Te  Te4  1  0.498407  0.996815  0.269861  1
  Te  Te5  1  0.996815  0.498407  0.730139  1
  Te  Te6  1  0.003185  0.501593  0.269861  1
  Te  Te7  1  0.000000  0.000000  0.717917  1
  Te  Te8  1  0.000000  0.000000  0.282083  1
  Te  Te9  1  0.832636  0.665271  0.135852  1
  Te  Te10  1  0.831560  0.663120  0.590167  1
  Te  Te11  1  0.832636  0.167364  0.135852  1
  Te  Te12  1  0.831560  0.168440  0.590167  1
  Te  Te13  1  0.333333  0.666667  0.134105  1
  Te  Te14  1  0.333333  0.666667  0.596155  1
  Te  Te15  1  0.334729  0.167364  0.135852  1
  Te  Te16  1  0.336880  0.168440  0.590167  1
  Te  Te17  1  0.665271  0.832636  0.864148  1
  Te  Te18  1  0.663120  0.831560  0.409833  1
  Te  Te19  1  0.666667  0.333333  0.865895  1
  Te  Te20  1  0.666667  0.333333  0.403845  1
  Te  Te21  1  0.167364  0.832636  0.864148  1
  Te  Te22  1  0.168440  0.831560  0.409833  1
  Te  Te23  1  0.167364  0.334729  0.864148  1
  Te  Te24  1  0.168440  0.336880  0.409833  1
