# generated using pymatgen
data_Tm16Al4RuPt3
_symmetry_space_group_name_H-M   'P 1'
_cell_length_a   9.44522440
_cell_length_b   9.44522410
_cell_length_c   9.44522504
_cell_angle_alpha   59.89419116
_cell_angle_beta   59.89419238
_cell_angle_gamma   59.89418932
_symmetry_Int_Tables_number   1
_chemical_formula_structural   Tm16Al4RuPt3
_chemical_formula_sum   'Tm16 Al4 Ru1 Pt3'
_cell_volume   594.39898726
_cell_formula_units_Z   1
loop_
 _symmetry_equiv_pos_site_id
 _symmetry_equiv_pos_as_xyz
  1  'x, y, z'
loop_
 _atom_site_type_symbol
 _atom_site_label
 _atom_site_symmetry_multiplicity
 _atom_site_fract_x
 _atom_site_fract_y
 _atom_site_fract_z
 _atom_site_occupancy
  Tm  Tm0  1  0.354506  0.354506  0.354506  1
  Tm  Tm1  1  0.352538  0.352538  0.938488  1
  Tm  Tm2  1  0.352538  0.938488  0.352538  1
  Tm  Tm3  1  0.938488  0.352538  0.352538  1
  Tm  Tm4  1  0.811909  0.191565  0.191565  1
  Tm  Tm5  1  0.193794  0.806743  0.806743  1
  Tm  Tm6  1  0.191565  0.811909  0.191565  1
  Tm  Tm7  1  0.806743  0.193794  0.806743  1
  Tm  Tm8  1  0.191565  0.191565  0.811909  1
  Tm  Tm9  1  0.806743  0.806743  0.193794  1
  Tm  Tm10  1  0.934936  0.564178  0.564178  1
  Tm  Tm11  1  0.560747  0.937277  0.937277  1
  Tm  Tm12  1  0.564178  0.934936  0.564178  1
  Tm  Tm13  1  0.937277  0.560747  0.937277  1
  Tm  Tm14  1  0.564178  0.564178  0.934936  1
  Tm  Tm15  1  0.937277  0.937277  0.560747  1
  Al  Al16  1  0.579007  0.579007  0.579007  1
  Al  Al17  1  0.578364  0.578364  0.265307  1
  Al  Al18  1  0.578364  0.265307  0.578364  1
  Al  Al19  1  0.265307  0.578364  0.578364  1
  Ru  Ru20  1  0.143042  0.143042  0.143042  1
  Pt  Pt21  1  0.143227  0.143227  0.570479  1
  Pt  Pt22  1  0.143227  0.570479  0.143227  1
  Pt  Pt23  1  0.570479  0.143227  0.143227  1
