# generated using pymatgen
data_HfSc2Ga2SiOs3
_symmetry_space_group_name_H-M   'P 1'
_cell_length_a   7.08636299
_cell_length_b   7.05947056
_cell_length_c   3.33950400
_cell_angle_alpha   90.00000000
_cell_angle_beta   90.00000000
_cell_angle_gamma   119.87453680
_symmetry_Int_Tables_number   1
_chemical_formula_structural   HfSc2Ga2SiOs3
_chemical_formula_sum   'Hf1 Sc2 Ga2 Si1 Os3'
_cell_volume   144.86243982
_cell_formula_units_Z   1
loop_
 _symmetry_equiv_pos_site_id
 _symmetry_equiv_pos_as_xyz
  1  'x, y, z'
loop_
 _atom_site_type_symbol
 _atom_site_label
 _atom_site_symmetry_multiplicity
 _atom_site_fract_x
 _atom_site_fract_y
 _atom_site_fract_z
 _atom_site_occupancy
  Hf  Hf0  1  0.000000  0.603811  0.500000  1
  Sc  Sc1  1  0.396203  0.396101  0.500000  1
  Sc  Sc2  1  0.603797  0.999898  0.500000  1
  Ga  Ga3  1  0.661190  0.329339  0.000000  1
  Ga  Ga4  1  0.338810  0.668151  0.000000  1
  Si  Si5  1  0.000000  0.003358  0.500000  1
  Os  Os6  1  0.754266  0.749346  0.000000  1
  Os  Os7  1  0.245734  0.995080  0.000000  1
  Os  Os8  1  0.000000  0.254916  0.000000  1
