# generated using pymatgen
data_CsH5Ir
_symmetry_space_group_name_H-M   'P 1'
_cell_length_a   11.43941800
_cell_length_b   7.59835600
_cell_length_c   4.74473700
_cell_angle_alpha   90.00000000
_cell_angle_beta   90.00000000
_cell_angle_gamma   90.00000000
_symmetry_Int_Tables_number   1
_chemical_formula_structural   CsH5Ir
_chemical_formula_sum   'Cs4 H20 Ir4'
_cell_volume   412.41619537
_cell_formula_units_Z   4
loop_
 _symmetry_equiv_pos_site_id
 _symmetry_equiv_pos_as_xyz
  1  'x, y, z'
loop_
 _atom_site_type_symbol
 _atom_site_label
 _atom_site_symmetry_multiplicity
 _atom_site_fract_x
 _atom_site_fract_y
 _atom_site_fract_z
 _atom_site_occupancy
  Cs  Cs0  1  0.674086  0.093721  0.270351  1
  Cs  Cs1  1  0.174086  0.406278  0.270351  1
  Cs  Cs2  1  0.825914  0.593721  0.770351  1
  Cs  Cs3  1  0.325914  0.906279  0.770351  1
  H  H4  1  0.324896  0.340809  0.769874  1
  H  H5  1  0.824896  0.159191  0.769874  1
  H  H6  1  0.046464  0.741766  0.505116  1
  H  H7  1  0.546464  0.758233  0.505116  1
  H  H8  1  0.583380  0.456710  0.987718  1
  H  H9  1  0.083379  0.043290  0.987718  1
  H  H10  1  0.416434  0.543959  0.042288  1
  H  H11  1  0.916434  0.956042  0.042288  1
  H  H12  1  0.951784  0.257027  0.525911  1
  H  H13  1  0.451784  0.242974  0.525911  1
  H  H14  1  0.175104  0.840809  0.269873  1
  H  H15  1  0.675104  0.659190  0.269873  1
  H  H16  1  0.453537  0.241766  0.005118  1
  H  H17  1  0.953537  0.258233  0.005118  1
  H  H18  1  0.916621  0.956709  0.487718  1
  H  H19  1  0.416621  0.543291  0.487718  1
  H  H20  1  0.083566  0.043958  0.542288  1
  H  H21  1  0.583566  0.456042  0.542288  1
  H  H22  1  0.548216  0.757027  0.025913  1
  H  H23  1  0.048216  0.742974  0.025913  1
  Ir  Ir24  1  0.537995  0.607975  0.265740  1
  Ir  Ir25  1  0.037995  0.892025  0.265740  1
  Ir  Ir26  1  0.962005  0.107974  0.765739  1
  Ir  Ir27  1  0.462005  0.392026  0.765739  1
