# generated using pymatgen
data_TbTmB6(Ir2Rh)3
_symmetry_space_group_name_H-M   'P 1'
_cell_length_a   5.61790130
_cell_length_b   5.62599802
_cell_length_c   8.64161600
_cell_angle_alpha   90.00000000
_cell_angle_beta   90.00000000
_cell_angle_gamma   119.87191509
_symmetry_Int_Tables_number   1
_chemical_formula_structural   TbTmB6(Ir2Rh)3
_chemical_formula_sum   'Tb1 Tm1 B6 Ir6 Rh3'
_cell_volume   236.84180367
_cell_formula_units_Z   1
loop_
 _symmetry_equiv_pos_site_id
 _symmetry_equiv_pos_as_xyz
  1  'x, y, z'
loop_
 _atom_site_type_symbol
 _atom_site_label
 _atom_site_symmetry_multiplicity
 _atom_site_fract_x
 _atom_site_fract_y
 _atom_site_fract_z
 _atom_site_occupancy
  Tb  Tb0  1  0.000000  0.000000  0.701431  1
  Tm  Tm1  1  0.000000  0.000000  0.299155  1
  B  B2  1  0.667106  0.332328  0.000157  1
  B  B3  1  0.332894  0.667672  0.000157  1
  B  B4  1  0.666678  0.333226  0.667673  1
  B  B5  1  0.333322  0.666774  0.667673  1
  B  B6  1  0.333744  0.667090  0.331819  1
  B  B7  1  0.666256  0.332910  0.331819  1
  Ir  Ir8  1  0.500000  0.000000  0.836662  1
  Ir  Ir9  1  0.000000  0.500000  0.836933  1
  Ir  Ir10  1  0.500000  0.000000  0.164138  1
  Ir  Ir11  1  0.500000  0.500000  0.499273  1
  Ir  Ir12  1  0.500000  0.000000  0.499497  1
  Ir  Ir13  1  0.000000  0.500000  0.498489  1
  Rh  Rh14  1  0.500000  0.500000  0.836988  1
  Rh  Rh15  1  0.500000  0.500000  0.163849  1
  Rh  Rh16  1  0.000000  0.500000  0.164287  1
