# generated using pymatgen
data_Sc4V3Os5
_symmetry_space_group_name_H-M   'P 1'
_cell_length_a   5.11861479
_cell_length_b   5.22131934
_cell_length_c   8.65386800
_cell_angle_alpha   90.00000000
_cell_angle_beta   90.00000000
_cell_angle_gamma   120.66599422
_symmetry_Int_Tables_number   1
_chemical_formula_structural   Sc4V3Os5
_chemical_formula_sum   'Sc4 V3 Os5'
_cell_volume   198.93891962
_cell_formula_units_Z   1
loop_
 _symmetry_equiv_pos_site_id
 _symmetry_equiv_pos_as_xyz
  1  'x, y, z'
loop_
 _atom_site_type_symbol
 _atom_site_label
 _atom_site_symmetry_multiplicity
 _atom_site_fract_x
 _atom_site_fract_y
 _atom_site_fract_z
 _atom_site_occupancy
  Sc  Sc0  1  0.335680  0.667841  0.435048  1
  Sc  Sc1  1  0.663675  0.331837  0.558338  1
  Sc  Sc2  1  0.663675  0.331837  0.941662  1
  Sc  Sc3  1  0.335680  0.667841  0.064952  1
  V  V4  1  0.174682  0.338238  0.750000  1
  V  V5  1  0.174682  0.836443  0.750000  1
  V  V6  1  0.338653  0.169327  0.250000  1
  Os  Os7  1  0.830442  0.657953  0.250000  1
  Os  Os8  1  0.641271  0.820635  0.750000  1
  Os  Os9  1  0.005559  0.002779  0.995252  1
  Os  Os10  1  0.830442  0.172490  0.250000  1
  Os  Os11  1  0.005559  0.002779  0.504748  1
