# generated using pymatgen
data_K4Ba(GeS3)2
_symmetry_space_group_name_H-M   'P 1'
_cell_length_a   7.37537007
_cell_length_b   7.37537019
_cell_length_c   8.54587104
_cell_angle_alpha   81.58654646
_cell_angle_beta   81.58655225
_cell_angle_gamma   119.63876385
_symmetry_Int_Tables_number   1
_chemical_formula_structural   K4Ba(GeS3)2
_chemical_formula_sum   'K4 Ba1 Ge2 S6'
_cell_volume   386.54877529
_cell_formula_units_Z   1
loop_
 _symmetry_equiv_pos_site_id
 _symmetry_equiv_pos_as_xyz
  1  'x, y, z'
loop_
 _atom_site_type_symbol
 _atom_site_label
 _atom_site_symmetry_multiplicity
 _atom_site_fract_x
 _atom_site_fract_y
 _atom_site_fract_z
 _atom_site_occupancy
  K  K0  1  0.821298  0.178702  0.000000  1
  K  K1  1  0.175242  0.824758  0.000000  1
  K  K2  1  0.504042  0.495958  0.000000  1
  K  K3  1  0.666207  0.333793  0.500000  1
  Ba  Ba4  1  0.334897  0.665103  0.500000  1
  Ge  Ge5  1  0.049051  0.049747  0.348258  1
  Ge  Ge6  1  0.950253  0.950949  0.651742  1
  S  S7  1  0.088440  0.375566  0.262966  1
  S  S8  1  0.364930  0.067950  0.264214  1
  S  S9  1  0.932050  0.635070  0.735786  1
  S  S10  1  0.624434  0.911560  0.737034  1
  S  S11  1  0.784713  0.795558  0.261458  1
  S  S12  1  0.204442  0.215287  0.738542  1
