# generated using pymatgen
data_Dy4Ga20Ni11
_symmetry_space_group_name_H-M   'P 1'
_cell_length_a   4.08072775
_cell_length_b   10.58038626
_cell_length_c   12.98697686
_cell_angle_alpha   80.53333764
_cell_angle_beta   80.81413169
_cell_angle_gamma   78.69022537
_symmetry_Int_Tables_number   1
_chemical_formula_structural   Dy4Ga20Ni11
_chemical_formula_sum   'Dy4 Ga20 Ni11'
_cell_volume   537.62114339
_cell_formula_units_Z   1
loop_
 _symmetry_equiv_pos_site_id
 _symmetry_equiv_pos_as_xyz
  1  'x, y, z'
loop_
 _atom_site_type_symbol
 _atom_site_label
 _atom_site_symmetry_multiplicity
 _atom_site_fract_x
 _atom_site_fract_y
 _atom_site_fract_z
 _atom_site_occupancy
  Dy  Dy0  1  0.121155  0.096523  0.665009  1
  Dy  Dy1  1  0.231322  0.366303  0.177866  1
  Dy  Dy2  1  0.773241  0.633887  0.821144  1
  Dy  Dy3  1  0.883348  0.903638  0.334358  1
  Ga  Ga4  1  0.067879  0.666520  0.202355  1
  Ga  Ga5  1  0.299120  0.901695  0.502977  1
  Ga  Ga6  1  0.609142  0.792751  0.002450  1
  Ga  Ga7  1  0.248849  0.797179  0.704616  1
  Ga  Ga8  1  0.891078  0.670415  0.548261  1
  Ga  Ga9  1  0.756319  0.202795  0.294701  1
  Ga  Ga10  1  0.633408  0.941012  0.801345  1
  Ga  Ga11  1  0.706192  0.098004  0.496610  1
  Ga  Ga12  1  0.397239  0.207477  0.996774  1
  Ga  Ga13  1  0.937335  0.333689  0.796788  1
  Ga  Ga14  1  0.462159  0.703637  0.377398  1
  Ga  Ga15  1  0.995681  0.921451  0.090549  1
  Ga  Ga16  1  0.802894  0.400203  0.003204  1
  Ga  Ga17  1  0.542046  0.296448  0.621839  1
  Ga  Ga18  1  0.010850  0.078682  0.908827  1
  Ga  Ga19  1  0.202359  0.600222  0.995794  1
  Ga  Ga20  1  0.114276  0.329529  0.450465  1
  Ga  Ga21  1  0.371476  0.059254  0.197809  1
  Ga  Ga22  1  0.614022  0.471156  0.307201  1
  Ga  Ga23  1  0.389807  0.529104  0.691679  1
  Ni  Ni24  1  0.139063  0.839472  0.895088  1
  Ni  Ni25  1  0.506128  0.183257  0.812057  1
  Ni  Ni26  1  0.866487  0.160957  0.104273  1
  Ni  Ni27  1  0.974558  0.436560  0.612623  1
  Ni  Ni28  1  0.502299  0.500011  0.499549  1
  Ni  Ni29  1  0.653844  0.580257  0.114827  1
  Ni  Ni30  1  0.028963  0.563324  0.386547  1
  Ni  Ni31  1  0.351080  0.419860  0.884353  1
  Ni  Ni32  1  0.251955  0.119162  0.386279  1
  Ni  Ni33  1  0.499998  0.817031  0.187169  1
  Ni  Ni34  1  0.753235  0.880461  0.612856  1
