# generated using pymatgen
data_Dy2GaNi7B2
_symmetry_space_group_name_H-M   'P 1'
_cell_length_a   5.07810200
_cell_length_b   5.06745766
_cell_length_c   6.89473800
_cell_angle_alpha   90.00000000
_cell_angle_beta   90.00000000
_cell_angle_gamma   120.06950931
_symmetry_Int_Tables_number   1
_chemical_formula_structural   Dy2GaNi7B2
_chemical_formula_sum   'Dy2 Ga1 Ni7 B2'
_cell_volume   153.54487742
_cell_formula_units_Z   1
loop_
 _symmetry_equiv_pos_site_id
 _symmetry_equiv_pos_as_xyz
  1  'x, y, z'
loop_
 _atom_site_type_symbol
 _atom_site_label
 _atom_site_symmetry_multiplicity
 _atom_site_fract_x
 _atom_site_fract_y
 _atom_site_fract_z
 _atom_site_occupancy
  Dy  Dy0  1  0.500034  0.000068  0.000000  1
  Dy  Dy1  1  0.499991  0.999982  0.500000  1
  Ga  Ga2  1  0.833510  0.667020  0.000000  1
  Ni  Ni3  1  0.166515  0.333031  0.000000  1
  Ni  Ni4  1  0.000804  0.001609  0.704633  1
  Ni  Ni5  1  0.498366  0.499185  0.704762  1
  Ni  Ni6  1  0.000819  0.499185  0.704762  1
  Ni  Ni7  1  0.000804  0.001609  0.295367  1
  Ni  Ni8  1  0.498366  0.499185  0.295238  1
  Ni  Ni9  1  0.000819  0.499185  0.295238  1
  B  B10  1  0.833206  0.666411  0.500000  1
  B  B11  1  0.166766  0.333532  0.500000  1
