# generated using pymatgen
data_Nd3Er2In3Br
_symmetry_space_group_name_H-M   'P 1'
_cell_length_a   9.42727700
_cell_length_b   9.42727653
_cell_length_c   6.73770400
_cell_angle_alpha   90.00000000
_cell_angle_beta   90.00000000
_cell_angle_gamma   119.99992052
_symmetry_Int_Tables_number   1
_chemical_formula_structural   Nd3Er2In3Br
_chemical_formula_sum   'Nd6 Er4 In6 Br2'
_cell_volume   518.57959185
_cell_formula_units_Z   2
loop_
 _symmetry_equiv_pos_site_id
 _symmetry_equiv_pos_as_xyz
  1  'x, y, z'
loop_
 _atom_site_type_symbol
 _atom_site_label
 _atom_site_symmetry_multiplicity
 _atom_site_fract_x
 _atom_site_fract_y
 _atom_site_fract_z
 _atom_site_occupancy
  Nd  Nd0  1  0.731624  0.731621  0.250000  1
  Nd  Nd1  1  0.999999  0.731627  0.750000  1
  Nd  Nd2  1  0.731619  0.999995  0.750000  1
  Nd  Nd3  1  0.268376  0.268379  0.750000  1
  Nd  Nd4  1  0.000001  0.268373  0.250000  1
  Nd  Nd5  1  0.268381  0.000005  0.250000  1
  Er  Er6  1  0.333327  0.666659  0.500000  1
  Er  Er7  1  0.666673  0.333341  0.500000  1
  Er  Er8  1  0.333327  0.666659  0.000000  1
  Er  Er9  1  0.666673  0.333341  0.000000  1
  In  In10  1  0.395214  0.999999  0.750000  1
  In  In11  1  0.999996  0.604780  0.250000  1
  In  In12  1  0.604786  0.000001  0.250000  1
  In  In13  1  0.000004  0.395220  0.750000  1
  In  In14  1  0.395211  0.395214  0.250000  1
  In  In15  1  0.604789  0.604786  0.750000  1
  Br  Br16  1  0.000000  0.000000  0.500000  1
  Br  Br17  1  0.000000  0.000000  0.000000  1
