# generated using pymatgen
data_SrLi3As2Pd
_symmetry_space_group_name_H-M   'P 1'
_cell_length_a   8.50855697
_cell_length_b   8.50855701
_cell_length_c   8.50855700
_cell_angle_alpha   29.57385843
_cell_angle_beta   29.57385844
_cell_angle_gamma   29.57386236
_symmetry_Int_Tables_number   1
_chemical_formula_structural   SrLi3As2Pd
_chemical_formula_sum   'Sr1 Li3 As2 Pd1'
_cell_volume   132.82376118
_cell_formula_units_Z   1
loop_
 _symmetry_equiv_pos_site_id
 _symmetry_equiv_pos_as_xyz
  1  'x, y, z'
loop_
 _atom_site_type_symbol
 _atom_site_label
 _atom_site_symmetry_multiplicity
 _atom_site_fract_x
 _atom_site_fract_y
 _atom_site_fract_z
 _atom_site_occupancy
  Sr  Sr0  1  0.998080  0.998080  0.998080  1
  Li  Li1  1  0.142975  0.142975  0.142975  1
  Li  Li2  1  0.559665  0.559665  0.559665  1
  Li  Li3  1  0.863312  0.863312  0.863312  1
  As  As4  1  0.754678  0.754678  0.754678  1
  As  As5  1  0.248080  0.248080  0.248080  1
  Pd  Pd6  1  0.433211  0.433211  0.433211  1
