# generated using pymatgen
data_Yb3Tm(Rh2O7)2
_symmetry_space_group_name_H-M   'P 1'
_cell_length_a   7.17386817
_cell_length_b   7.17386820
_cell_length_c   7.17386700
_cell_angle_alpha   60.14386150
_cell_angle_beta   60.14386352
_cell_angle_gamma   60.14386156
_symmetry_Int_Tables_number   1
_chemical_formula_structural   Yb3Tm(Rh2O7)2
_chemical_formula_sum   'Yb3 Tm1 Rh4 O14'
_cell_volume   261.91360763
_cell_formula_units_Z   1
loop_
 _symmetry_equiv_pos_site_id
 _symmetry_equiv_pos_as_xyz
  1  'x, y, z'
loop_
 _atom_site_type_symbol
 _atom_site_label
 _atom_site_symmetry_multiplicity
 _atom_site_fract_x
 _atom_site_fract_y
 _atom_site_fract_z
 _atom_site_occupancy
  Yb  Yb0  1  0.625000  0.625000  0.125000  1
  Yb  Yb1  1  0.625000  0.125000  0.625000  1
  Yb  Yb2  1  0.125000  0.625000  0.625000  1
  Tm  Tm3  1  0.625000  0.625000  0.625000  1
  Rh  Rh4  1  0.125000  0.125000  0.125000  1
  Rh  Rh5  1  0.625000  0.125000  0.125000  1
  Rh  Rh6  1  0.125000  0.625000  0.125000  1
  Rh  Rh7  1  0.125000  0.125000  0.625000  1
  O  O8  1  0.037018  0.455536  0.455536  1
  O  O9  1  0.794464  0.794464  0.212982  1
  O  O10  1  0.794426  0.204486  0.204486  1
  O  O11  1  0.455536  0.037018  0.455536  1
  O  O12  1  0.045514  0.045514  0.455574  1
  O  O13  1  0.045514  0.455574  0.045514  1
  O  O14  1  0.746359  0.746359  0.746359  1
  O  O15  1  0.503641  0.503641  0.503641  1
  O  O16  1  0.794464  0.212982  0.794464  1
  O  O17  1  0.204486  0.794426  0.204486  1
  O  O18  1  0.204486  0.204486  0.794426  1
  O  O19  1  0.455574  0.045514  0.045514  1
  O  O20  1  0.455536  0.455536  0.037018  1
  O  O21  1  0.212982  0.794464  0.794464  1
