# generated using pymatgen
data_Lu3ZrSc2FeTe2
_symmetry_space_group_name_H-M   'P 1'
_cell_length_a   7.90884014
_cell_length_b   7.96992078
_cell_length_c   3.86786800
_cell_angle_alpha   90.00000000
_cell_angle_beta   90.00000000
_cell_angle_gamma   120.25580529
_symmetry_Int_Tables_number   1
_chemical_formula_structural   Lu3ZrSc2FeTe2
_chemical_formula_sum   'Lu3 Zr1 Sc2 Fe1 Te2'
_cell_volume   210.59295160
_cell_formula_units_Z   1
loop_
 _symmetry_equiv_pos_site_id
 _symmetry_equiv_pos_as_xyz
  1  'x, y, z'
loop_
 _atom_site_type_symbol
 _atom_site_label
 _atom_site_symmetry_multiplicity
 _atom_site_fract_x
 _atom_site_fract_y
 _atom_site_fract_z
 _atom_site_occupancy
  Lu  Lu0  1  0.000000  0.603995  0.000000  1
  Lu  Lu1  1  0.617833  0.998598  0.000000  1
  Lu  Lu2  1  0.382167  0.380764  0.000000  1
  Zr  Zr3  1  0.000000  0.232536  0.500000  1
  Sc  Sc4  1  0.775930  0.768774  0.500000  1
  Sc  Sc5  1  0.224070  0.992844  0.500000  1
  Fe  Fe6  1  0.000000  0.025217  0.000000  1
  Te  Te7  1  0.663603  0.330437  0.500000  1
  Te  Te8  1  0.336397  0.666836  0.500000  1
