# generated using pymatgen
data_Tb6Pb5
_symmetry_space_group_name_H-M   'P 1'
_cell_length_a   11.82550134
_cell_length_b   11.82550126
_cell_length_c   11.82550102
_cell_angle_alpha   146.93935286
_cell_angle_beta   132.85415415
_cell_angle_gamma   58.78652644
_symmetry_Int_Tables_number   1
_chemical_formula_structural   Tb6Pb5
_chemical_formula_sum   'Tb12 Pb10'
_cell_volume   655.77958519
_cell_formula_units_Z   2
loop_
 _symmetry_equiv_pos_site_id
 _symmetry_equiv_pos_as_xyz
  1  'x, y, z'
loop_
 _atom_site_type_symbol
 _atom_site_label
 _atom_site_symmetry_multiplicity
 _atom_site_fract_x
 _atom_site_fract_y
 _atom_site_fract_z
 _atom_site_occupancy
  Tb  Tb0  1  0.696907  0.946907  0.250000  1
  Tb  Tb1  1  0.248493  0.637154  0.611338  1
  Tb  Tb2  1  0.679728  0.941396  0.738331  1
  Tb  Tb3  1  0.025816  0.137154  0.888662  1
  Tb  Tb4  1  0.974184  0.862846  0.111338  1
  Tb  Tb5  1  0.796935  0.558604  0.238331  1
  Tb  Tb6  1  0.203065  0.441396  0.761669  1
  Tb  Tb7  1  0.303093  0.053093  0.750000  1
  Tb  Tb8  1  0.320272  0.058604  0.261669  1
  Tb  Tb9  1  0.303093  0.553093  0.250000  1
  Tb  Tb10  1  0.751507  0.362846  0.388662  1
  Tb  Tb11  1  0.696907  0.446907  0.750000  1
  Pb  Pb12  1  0.480931  0.574674  0.906257  1
  Pb  Pb13  1  0.598213  0.794674  0.803538  1
  Pb  Pb14  1  0.668417  0.074674  0.593743  1
  Pb  Pb15  1  0.000000  0.750000  0.750000  1
  Pb  Pb16  1  0.991136  0.294674  0.696462  1
  Pb  Pb17  1  0.519069  0.425326  0.093743  1
  Pb  Pb18  1  0.008864  0.705326  0.303538  1
  Pb  Pb19  1  0.401787  0.205326  0.196462  1
  Pb  Pb20  1  0.331583  0.925326  0.406257  1
  Pb  Pb21  1  0.000000  0.250000  0.250000  1
