# generated using pymatgen
data_Li4CaHo3Si8
_symmetry_space_group_name_H-M   'P 1'
_cell_length_a   3.78477900
_cell_length_b   7.72205662
_cell_length_c   10.23342297
_cell_angle_alpha   89.60205474
_cell_angle_beta   90.00000000
_cell_angle_gamma   90.00000000
_symmetry_Int_Tables_number   1
_chemical_formula_structural   Li4CaHo3Si8
_chemical_formula_sum   'Li4 Ca1 Ho3 Si8'
_cell_volume   299.07764806
_cell_formula_units_Z   1
loop_
 _symmetry_equiv_pos_site_id
 _symmetry_equiv_pos_as_xyz
  1  'x, y, z'
loop_
 _atom_site_type_symbol
 _atom_site_label
 _atom_site_symmetry_multiplicity
 _atom_site_fract_x
 _atom_site_fract_y
 _atom_site_fract_z
 _atom_site_occupancy
  Li  Li0  1  0.250000  0.997049  0.392565  1
  Li  Li1  1  0.750000  0.009902  0.609536  1
  Li  Li2  1  0.250000  0.489133  0.109977  1
  Li  Li3  1  0.750000  0.508773  0.892656  1
  Ca  Ca4  1  0.750000  0.362945  0.364326  1
  Ho  Ho5  1  0.250000  0.131152  0.862885  1
  Ho  Ho6  1  0.750000  0.865559  0.133953  1
  Ho  Ho7  1  0.250000  0.633953  0.635545  1
  Si  Si8  1  0.750000  0.260535  0.061735  1
  Si  Si9  1  0.250000  0.733224  0.933660  1
  Si  Si10  1  0.750000  0.773214  0.433639  1
  Si  Si11  1  0.250000  0.235990  0.572009  1
  Si  Si12  1  0.750000  0.839228  0.818241  1
  Si  Si13  1  0.250000  0.152685  0.173349  1
  Si  Si14  1  0.750000  0.341325  0.684803  1
  Si  Si15  1  0.250000  0.665334  0.321122  1
