# generated using pymatgen
data_Pr16Y4Si15Hg
_symmetry_space_group_name_H-M   'P 1'
_cell_length_a   7.87159225
_cell_length_b   7.85280724
_cell_length_c   15.37042955
_cell_angle_alpha   89.99703261
_cell_angle_beta   89.60742212
_cell_angle_gamma   89.97174834
_symmetry_Int_Tables_number   1
_chemical_formula_structural   Pr16Y4Si15Hg
_chemical_formula_sum   'Pr16 Y4 Si15 Hg1'
_cell_volume   950.08679911
_cell_formula_units_Z   1
loop_
 _symmetry_equiv_pos_site_id
 _symmetry_equiv_pos_as_xyz
  1  'x, y, z'
loop_
 _atom_site_type_symbol
 _atom_site_label
 _atom_site_symmetry_multiplicity
 _atom_site_fract_x
 _atom_site_fract_y
 _atom_site_fract_z
 _atom_site_occupancy
  Pr  Pr0  1  0.375768  0.014867  0.446798  1
  Pr  Pr1  1  0.490237  0.873104  0.696421  1
  Pr  Pr2  1  0.512875  0.120212  0.195702  1
  Pr  Pr3  1  0.880168  0.487069  0.303570  1
  Pr  Pr4  1  0.117272  0.521527  0.805642  1
  Pr  Pr5  1  0.623476  0.985112  0.947936  1
  Pr  Pr6  1  0.006987  0.383414  0.549468  1
  Pr  Pr7  1  0.987825  0.622728  0.055498  1
  Pr  Pr8  1  0.125863  0.974167  0.881734  1
  Pr  Pr9  1  0.525174  0.626141  0.128909  1
  Pr  Pr10  1  0.479800  0.378701  0.627488  1
  Pr  Pr11  1  0.625689  0.525979  0.873458  1
  Pr  Pr12  1  0.375847  0.476461  0.370223  1
  Pr  Pr13  1  0.874737  0.024455  0.377768  1
  Pr  Pr14  1  0.976716  0.126407  0.122142  1
  Pr  Pr15  1  0.016946  0.864979  0.618854  1
  Y  Y16  1  0.308618  0.308330  0.999697  1
  Y  Y17  1  0.191685  0.809576  0.249869  1
  Y  Y18  1  0.799926  0.189854  0.751773  1
  Y  Y19  1  0.690994  0.689986  0.498824  1
  Si  Si20  1  0.328297  0.687590  0.959226  1
  Si  Si21  1  0.668878  0.310895  0.457038  1
  Si  Si22  1  0.689972  0.329074  0.042548  1
  Si  Si23  1  0.312787  0.672273  0.540274  1
  Si  Si24  1  0.813468  0.827804  0.208977  1
  Si  Si25  1  0.173055  0.187893  0.292162  1
  Si  Si26  1  0.829591  0.812917  0.791803  1
  Si  Si27  1  0.285396  0.920615  0.064378  1
  Si  Si28  1  0.580774  0.785913  0.314011  1
  Si  Si29  1  0.434366  0.211441  0.818436  1
  Si  Si30  1  0.784202  0.579406  0.687197  1
  Si  Si31  1  0.214811  0.420672  0.186422  1
  Si  Si32  1  0.712659  0.079887  0.562662  1
  Si  Si33  1  0.921463  0.286973  0.936749  1
  Si  Si34  1  0.080809  0.714787  0.435194  1
  Hg  Hg35  1  0.182868  0.168792  0.701149  1
