# generated using pymatgen
data_Ho6Tm10MgIn3Ni4
_symmetry_space_group_name_H-M   'P 1'
_cell_length_a   9.51257271
_cell_length_b   9.48356186
_cell_length_c   9.48356200
_cell_angle_alpha   60.00000648
_cell_angle_beta   60.10083981
_cell_angle_gamma   60.10084438
_symmetry_Int_Tables_number   1
_chemical_formula_structural   Ho6Tm10MgIn3Ni4
_chemical_formula_sum   'Ho6 Tm10 Mg1 In3 Ni4'
_cell_volume   605.87951196
_cell_formula_units_Z   1
loop_
 _symmetry_equiv_pos_site_id
 _symmetry_equiv_pos_as_xyz
  1  'x, y, z'
loop_
 _atom_site_type_symbol
 _atom_site_label
 _atom_site_symmetry_multiplicity
 _atom_site_fract_x
 _atom_site_fract_y
 _atom_site_fract_z
 _atom_site_occupancy
  Ho  Ho0  1  0.936544  0.563792  0.563791  1
  Ho  Ho1  1  0.563533  0.937142  0.937141  1
  Ho  Ho2  1  0.563534  0.937142  0.562183  1
  Ho  Ho3  1  0.936544  0.563792  0.935874  1
  Ho  Ho4  1  0.563533  0.562184  0.937141  1
  Ho  Ho5  1  0.936544  0.935875  0.563791  1
  Tm  Tm6  1  0.347651  0.346124  0.346124  1
  Tm  Tm7  1  0.347651  0.346124  0.960100  1
  Tm  Tm8  1  0.347651  0.960100  0.346124  1
  Tm  Tm9  1  0.956400  0.347867  0.347867  1
  Tm  Tm10  1  0.810758  0.188478  0.188478  1
  Tm  Tm11  1  0.185539  0.813813  0.813813  1
  Tm  Tm12  1  0.185539  0.813813  0.186833  1
  Tm  Tm13  1  0.810758  0.188478  0.812285  1
  Tm  Tm14  1  0.185539  0.186833  0.813813  1
  Tm  Tm15  1  0.810758  0.812285  0.188478  1
  Mg  Mg16  1  0.266949  0.577684  0.577684  1
  In  In17  1  0.581986  0.582747  0.582747  1
  In  In18  1  0.581986  0.582747  0.252520  1
  In  In19  1  0.581986  0.252520  0.582747  1
  Ni  Ni20  1  0.141486  0.142097  0.142097  1
  Ni  Ni21  1  0.141486  0.142097  0.574319  1
  Ni  Ni22  1  0.141486  0.574319  0.142097  1
  Ni  Ni23  1  0.574156  0.141947  0.141947  1
