# generated using pymatgen
data_YHoIrPdO7
_symmetry_space_group_name_H-M   'P 1'
_cell_length_a   7.24654184
_cell_length_b   7.28530558
_cell_length_c   7.24654093
_cell_angle_alpha   59.82288405
_cell_angle_beta   59.60783306
_cell_angle_gamma   59.82287586
_symmetry_Int_Tables_number   1
_chemical_formula_structural   YHoIrPdO7
_chemical_formula_sum   'Y2 Ho2 Ir2 Pd2 O14'
_cell_volume   268.98596435
_cell_formula_units_Z   2
loop_
 _symmetry_equiv_pos_site_id
 _symmetry_equiv_pos_as_xyz
  1  'x, y, z'
loop_
 _atom_site_type_symbol
 _atom_site_label
 _atom_site_symmetry_multiplicity
 _atom_site_fract_x
 _atom_site_fract_y
 _atom_site_fract_z
 _atom_site_occupancy
  Y  Y0  1  0.125000  0.625000  0.125000  1
  Y  Y1  1  0.125000  0.125000  0.125000  1
  Ho  Ho2  1  0.625000  0.125000  0.125000  1
  Ho  Ho3  1  0.125000  0.125000  0.625000  1
  Ir  Ir4  1  0.625000  0.125000  0.625000  1
  Ir  Ir5  1  0.625000  0.625000  0.625000  1
  Pd  Pd6  1  0.125000  0.625000  0.625000  1
  Pd  Pd7  1  0.625000  0.625000  0.125000  1
  O  O8  1  0.710581  0.718597  0.289207  1
  O  O9  1  0.289207  0.281615  0.710581  1
  O  O10  1  0.710029  0.289971  0.710029  1
  O  O11  1  0.281677  0.718323  0.281677  1
  O  O12  1  0.289207  0.718597  0.710581  1
  O  O13  1  0.710581  0.281615  0.289207  1
  O  O14  1  0.539419  0.531403  0.960793  1
  O  O15  1  0.960793  0.968385  0.539419  1
  O  O16  1  0.539971  0.960029  0.539971  1
  O  O17  1  0.968323  0.531677  0.968323  1
  O  O18  1  0.960793  0.531403  0.539419  1
  O  O19  1  0.539419  0.968385  0.960793  1
  O  O20  1  0.251652  0.248348  0.251652  1
  O  O21  1  0.998348  0.001652  0.998348  1
