# generated using pymatgen
data_Dy4YPb3S
_symmetry_space_group_name_H-M   'P 1'
_cell_length_a   9.13493301
_cell_length_b   9.13489761
_cell_length_c   6.70954300
_cell_angle_alpha   89.99989371
_cell_angle_beta   90.00005976
_cell_angle_gamma   119.99987929
_symmetry_Int_Tables_number   1
_chemical_formula_structural   Dy4YPb3S
_chemical_formula_sum   'Dy8 Y2 Pb6 S2'
_cell_volume   484.87874974
_cell_formula_units_Z   2
loop_
 _symmetry_equiv_pos_site_id
 _symmetry_equiv_pos_as_xyz
  1  'x, y, z'
loop_
 _atom_site_type_symbol
 _atom_site_label
 _atom_site_symmetry_multiplicity
 _atom_site_fract_x
 _atom_site_fract_y
 _atom_site_fract_z
 _atom_site_occupancy
  Dy  Dy0  1  0.757355  0.757357  0.749848  1
  Dy  Dy1  1  0.242645  0.000002  0.749848  1
  Dy  Dy2  1  0.000000  0.242642  0.749847  1
  Dy  Dy3  1  0.242645  0.242643  0.250152  1
  Dy  Dy4  1  0.757355  0.999998  0.250152  1
  Dy  Dy5  1  0.000000  0.757358  0.250153  1
  Dy  Dy6  1  0.333328  0.666665  0.500000  1
  Dy  Dy7  1  0.666672  0.333335  0.500000  1
  Y  Y8  1  0.666665  0.333332  0.000000  1
  Y  Y9  1  0.333335  0.666668  0.000000  1
  Pb  Pb10  1  0.396976  0.396975  0.750659  1
  Pb  Pb11  1  0.603024  0.999999  0.750659  1
  Pb  Pb12  1  0.000000  0.603036  0.750665  1
  Pb  Pb13  1  0.603024  0.603025  0.249341  1
  Pb  Pb14  1  0.396976  0.000001  0.249341  1
  Pb  Pb15  1  0.000000  0.396964  0.249335  1
  S  S16  1  0.000000  0.000000  0.000000  1
  S  S17  1  0.000000  0.000000  0.500000  1
