# generated using pymatgen
data_Zr2Mn3V
_symmetry_space_group_name_H-M   'P 1'
_cell_length_a   4.96348017
_cell_length_b   5.11703566
_cell_length_c   5.11703600
_cell_angle_alpha   59.99999779
_cell_angle_beta   58.97122036
_cell_angle_gamma   58.97122386
_symmetry_Int_Tables_number   1
_chemical_formula_structural   Zr2Mn3V
_chemical_formula_sum   'Zr2 Mn3 V1'
_cell_volume   90.44341056
_cell_formula_units_Z   1
loop_
 _symmetry_equiv_pos_site_id
 _symmetry_equiv_pos_as_xyz
  1  'x, y, z'
loop_
 _atom_site_type_symbol
 _atom_site_label
 _atom_site_symmetry_multiplicity
 _atom_site_fract_x
 _atom_site_fract_y
 _atom_site_fract_z
 _atom_site_occupancy
  Zr  Zr0  1  0.749283  0.750239  0.750239  1
  Zr  Zr1  1  0.500717  0.499761  0.499761  1
  Mn  Mn2  1  0.125000  0.625000  0.125000  1
  Mn  Mn3  1  0.125000  0.125000  0.625000  1
  Mn  Mn4  1  0.125000  0.125000  0.125000  1
  V  V5  1  0.625000  0.125000  0.125000  1
