# generated using pymatgen
data_Ti9Al8Mo3(PtC)4
_symmetry_space_group_name_H-M   'P 1'
_cell_length_a   8.20221805
_cell_length_b   8.21928323
_cell_length_c   8.21950474
_cell_angle_alpha   59.86180073
_cell_angle_beta   60.06775980
_cell_angle_gamma   59.90366999
_symmetry_Int_Tables_number   1
_chemical_formula_structural   Ti9Al8Mo3(PtC)4
_chemical_formula_sum   'Ti9 Al8 Mo3 Pt4 C4'
_cell_volume   391.33154830
_cell_formula_units_Z   1
loop_
 _symmetry_equiv_pos_site_id
 _symmetry_equiv_pos_as_xyz
  1  'x, y, z'
loop_
 _atom_site_type_symbol
 _atom_site_label
 _atom_site_symmetry_multiplicity
 _atom_site_fract_x
 _atom_site_fract_y
 _atom_site_fract_z
 _atom_site_occupancy
  Ti  Ti0  1  0.682472  0.682472  0.317528  1
  Ti  Ti1  1  0.683555  0.317194  0.683456  1
  Ti  Ti2  1  0.317194  0.683555  0.315794  1
  Ti  Ti3  1  0.566071  0.935883  0.562128  1
  Ti  Ti4  1  0.568021  0.932017  0.934712  1
  Ti  Ti5  1  0.932017  0.568021  0.565250  1
  Ti  Ti6  1  0.935883  0.566071  0.935918  1
  Ti  Ti7  1  0.317095  0.317095  0.682905  1
  Ti  Ti8  1  0.561916  0.561916  0.938084  1
  Al  Al9  1  0.912884  0.256851  0.917158  1
  Al  Al10  1  0.334927  0.339323  0.991537  1
  Al  Al11  1  0.991209  0.332348  0.335807  1
  Al  Al12  1  0.339323  0.334927  0.334212  1
  Al  Al13  1  0.256851  0.912884  0.913109  1
  Al  Al14  1  0.918553  0.914285  0.909834  1
  Al  Al15  1  0.914285  0.918553  0.257330  1
  Al  Al16  1  0.332348  0.991209  0.340636  1
  Mo  Mo17  1  0.931967  0.931967  0.568033  1
  Mo  Mo18  1  0.684118  0.316478  0.315386  1
  Mo  Mo19  1  0.316478  0.684118  0.684019  1
  Pt  Pt20  1  0.121717  0.624857  0.129835  1
  Pt  Pt21  1  0.124634  0.131039  0.624206  1
  Pt  Pt22  1  0.624857  0.121717  0.123591  1
  Pt  Pt23  1  0.131039  0.124634  0.120121  1
  C  C24  1  0.623099  0.126422  0.626156  1
  C  C25  1  0.624913  0.626153  0.123262  1
  C  C26  1  0.126422  0.623099  0.624323  1
  C  C27  1  0.626153  0.624913  0.625672  1
