# generated using pymatgen
data_Zr5Sc3(Co4Si7)2
_symmetry_space_group_name_H-M   'P 1'
_cell_length_a   9.50762143
_cell_length_b   9.50762059
_cell_length_c   9.51631371
_cell_angle_alpha   94.07331305
_cell_angle_beta   94.07331304
_cell_angle_gamma   149.07094612
_symmetry_Int_Tables_number   1
_chemical_formula_structural   Zr5Sc3(Co4Si7)2
_chemical_formula_sum   'Zr5 Sc3 Co8 Si14'
_cell_volume   426.15826203
_cell_formula_units_Z   1
loop_
 _symmetry_equiv_pos_site_id
 _symmetry_equiv_pos_as_xyz
  1  'x, y, z'
loop_
 _atom_site_type_symbol
 _atom_site_label
 _atom_site_symmetry_multiplicity
 _atom_site_fract_x
 _atom_site_fract_y
 _atom_site_fract_z
 _atom_site_occupancy
  Zr  Zr0  1  0.137816  0.862184  0.000000  1
  Zr  Zr1  1  0.499594  0.302769  0.802363  1
  Zr  Zr2  1  0.500270  0.697172  0.197442  1
  Zr  Zr3  1  0.697231  0.500406  0.197637  1
  Zr  Zr4  1  0.302828  0.499730  0.802558  1
  Sc  Sc5  1  0.138800  0.139066  0.277867  1
  Sc  Sc6  1  0.860934  0.861200  0.722133  1
  Sc  Sc7  1  0.861571  0.138429  0.000000  1
  Co  Co8  1  0.397226  0.897233  0.794786  1
  Co  Co9  1  0.102767  0.602774  0.205214  1
  Co  Co10  1  0.102734  0.897266  0.500000  1
  Co  Co11  1  0.397354  0.602646  0.500000  1
  Co  Co12  1  0.602734  0.397266  0.500000  1
  Co  Co13  1  0.897354  0.102646  0.500000  1
  Co  Co14  1  0.897553  0.397560  0.794786  1
  Co  Co15  1  0.602440  0.102447  0.205214  1
  Si  Si16  1  0.500170  0.091499  0.591669  1
  Si  Si17  1  0.500155  0.908470  0.408625  1
  Si  Si18  1  0.908501  0.499830  0.408331  1
  Si  Si19  1  0.091530  0.499845  0.591375  1
  Si  Si20  1  0.748515  0.748290  0.000000  1
  Si  Si21  1  0.251710  0.251485  0.000000  1
  Si  Si22  1  0.288627  0.288885  0.577512  1
  Si  Si23  1  0.711115  0.711373  0.422488  1
  Si  Si24  1  0.711569  0.288431  0.000000  1
  Si  Si25  1  0.288995  0.711005  0.000000  1
  Si  Si26  1  0.000159  0.302151  0.302310  1
  Si  Si27  1  0.999589  0.697690  0.697278  1
  Si  Si28  1  0.697849  0.999841  0.697690  1
  Si  Si29  1  0.302310  0.000411  0.302722  1
