# generated using pymatgen
data_Ba5(TcO5)2
_symmetry_space_group_name_H-M   'P 1'
_cell_length_a   6.11133935
_cell_length_b   6.11133900
_cell_length_c   18.00624100
_cell_angle_alpha   90.00000000
_cell_angle_beta   90.00000000
_cell_angle_gamma   120.51349613
_symmetry_Int_Tables_number   1
_chemical_formula_structural   Ba5(TcO5)2
_chemical_formula_sum   'Ba10 Tc4 O20'
_cell_volume   579.36992462
_cell_formula_units_Z   2
loop_
 _symmetry_equiv_pos_site_id
 _symmetry_equiv_pos_as_xyz
  1  'x, y, z'
loop_
 _atom_site_type_symbol
 _atom_site_label
 _atom_site_symmetry_multiplicity
 _atom_site_fract_x
 _atom_site_fract_y
 _atom_site_fract_z
 _atom_site_occupancy
  Ba  Ba0  1  0.832145  0.167855  0.750342  1
  Ba  Ba1  1  0.814642  0.185358  0.984243  1
  Ba  Ba2  1  0.500447  0.499553  0.865588  1
  Ba  Ba3  1  0.498213  0.501787  0.634796  1
  Ba  Ba4  1  0.499553  0.500447  0.365588  1
  Ba  Ba5  1  0.501787  0.498213  0.134796  1
  Ba  Ba6  1  0.847418  0.152582  0.516301  1
  Ba  Ba7  1  0.185358  0.814642  0.484243  1
  Ba  Ba8  1  0.167855  0.832145  0.250342  1
  Ba  Ba9  1  0.152582  0.847418  0.016301  1
  Tc  Tc10  1  0.831445  0.168555  0.324520  1
  Tc  Tc11  1  0.835615  0.164385  0.175474  1
  Tc  Tc12  1  0.168555  0.831445  0.824520  1
  Tc  Tc13  1  0.164385  0.835615  0.675474  1
  O  O14  1  0.567704  0.432296  0.000028  1
  O  O15  1  0.974077  0.477942  0.380969  1
  O  O16  1  0.002653  0.469368  0.117291  1
  O  O17  1  0.683831  0.316169  0.246966  1
  O  O18  1  0.134406  0.316559  0.251556  1
  O  O19  1  0.522058  0.025923  0.380969  1
  O  O20  1  0.530632  0.997347  0.117291  1
  O  O21  1  0.683441  0.865594  0.251556  1
  O  O22  1  0.981668  0.018332  0.384460  1
  O  O23  1  0.991543  0.008457  0.119932  1
  O  O24  1  0.008457  0.991543  0.619932  1
  O  O25  1  0.018332  0.981668  0.884460  1
  O  O26  1  0.316559  0.134406  0.751556  1
  O  O27  1  0.477942  0.974077  0.880969  1
  O  O28  1  0.865594  0.683441  0.751556  1
  O  O29  1  0.469368  0.002653  0.617291  1
  O  O30  1  0.316169  0.683831  0.746966  1
  O  O31  1  0.025923  0.522058  0.880969  1
  O  O32  1  0.997347  0.530632  0.617291  1
  O  O33  1  0.432296  0.567704  0.500028  1
