# generated using pymatgen
data_Zr2Sc(Cu2Si)2
_symmetry_space_group_name_H-M   'P 1'
_cell_length_a   6.38430056
_cell_length_b   6.39202436
_cell_length_c   3.95406700
_cell_angle_alpha   90.00000000
_cell_angle_beta   90.00000000
_cell_angle_gamma   120.04003469
_symmetry_Int_Tables_number   1
_chemical_formula_structural   Zr2Sc(Cu2Si)2
_chemical_formula_sum   'Zr2 Sc1 Cu4 Si2'
_cell_volume   139.68541373
_cell_formula_units_Z   1
loop_
 _symmetry_equiv_pos_site_id
 _symmetry_equiv_pos_as_xyz
  1  'x, y, z'
loop_
 _atom_site_type_symbol
 _atom_site_label
 _atom_site_symmetry_multiplicity
 _atom_site_fract_x
 _atom_site_fract_y
 _atom_site_fract_z
 _atom_site_occupancy
  Zr  Zr0  1  0.412135  0.412363  0.500000  1
  Zr  Zr1  1  0.587865  0.000228  0.500000  1
  Sc  Sc2  1  0.000000  0.589905  0.500000  1
  Cu  Cu3  1  0.000000  0.996827  0.500000  1
  Cu  Cu4  1  0.246410  0.999494  0.000000  1
  Cu  Cu5  1  0.753590  0.753084  0.000000  1
  Cu  Cu6  1  0.000000  0.247236  0.000000  1
  Si  Si7  1  0.665376  0.333119  0.000000  1
  Si  Si8  1  0.334624  0.667745  0.000000  1
