# generated using pymatgen
data_Lu4Mg3ZnPt4
_symmetry_space_group_name_H-M   'P 1'
_cell_length_a   4.18897200
_cell_length_b   6.86984373
_cell_length_c   8.41079547
_cell_angle_alpha   89.07621155
_cell_angle_beta   90.00000000
_cell_angle_gamma   90.00000000
_symmetry_Int_Tables_number   1
_chemical_formula_structural   Lu4Mg3ZnPt4
_chemical_formula_sum   'Lu4 Mg3 Zn1 Pt4'
_cell_volume   242.01090560
_cell_formula_units_Z   1
loop_
 _symmetry_equiv_pos_site_id
 _symmetry_equiv_pos_as_xyz
  1  'x, y, z'
loop_
 _atom_site_type_symbol
 _atom_site_label
 _atom_site_symmetry_multiplicity
 _atom_site_fract_x
 _atom_site_fract_y
 _atom_site_fract_z
 _atom_site_occupancy
  Lu  Lu0  1  0.250000  0.536444  0.169926  1
  Lu  Lu1  1  0.750000  0.449621  0.831576  1
  Lu  Lu2  1  0.750000  0.961777  0.679036  1
  Lu  Lu3  1  0.250000  0.044406  0.319421  1
  Mg  Mg4  1  0.250000  0.634272  0.559633  1
  Mg  Mg5  1  0.750000  0.364773  0.441659  1
  Mg  Mg6  1  0.750000  0.872061  0.054327  1
  Zn  Zn7  1  0.250000  0.135325  0.942166  1
  Pt  Pt8  1  0.250000  0.745816  0.870333  1
  Pt  Pt9  1  0.750000  0.255158  0.131329  1
  Pt  Pt10  1  0.750000  0.759349  0.371067  1
  Pt  Pt11  1  0.250000  0.240997  0.629527  1
