# generated using pymatgen
data_Tb4PrNd(Co3P2)6
_symmetry_space_group_name_H-M   'P 1'
_cell_length_a   3.73437000
_cell_length_b   10.57507600
_cell_length_c   12.24024200
_cell_angle_alpha   90.00000000
_cell_angle_beta   90.00000000
_cell_angle_gamma   90.00000000
_symmetry_Int_Tables_number   1
_chemical_formula_structural   Tb4PrNd(Co3P2)6
_chemical_formula_sum   'Tb4 Pr1 Nd1 Co18 P12'
_cell_volume   483.38241480
_cell_formula_units_Z   1
loop_
 _symmetry_equiv_pos_site_id
 _symmetry_equiv_pos_as_xyz
  1  'x, y, z'
loop_
 _atom_site_type_symbol
 _atom_site_label
 _atom_site_symmetry_multiplicity
 _atom_site_fract_x
 _atom_site_fract_y
 _atom_site_fract_z
 _atom_site_occupancy
  Tb  Tb0  1  0.500000  0.817408  0.204932  1
  Tb  Tb1  1  0.500000  0.182592  0.204932  1
  Tb  Tb2  1  0.000000  0.682502  0.794977  1
  Tb  Tb3  1  0.000000  0.317498  0.794977  1
  Pr  Pr4  1  0.500000  0.000000  0.477191  1
  Nd  Nd5  1  0.000000  0.500000  0.522657  1
  Co  Co6  1  0.500000  0.500000  0.156761  1
  Co  Co7  1  0.000000  0.000000  0.843280  1
  Co  Co8  1  0.500000  0.500000  0.706527  1
  Co  Co9  1  0.000000  0.000000  0.293113  1
  Co  Co10  1  0.000000  0.500000  0.986733  1
  Co  Co11  1  0.500000  0.000000  0.013289  1
  Co  Co12  1  0.500000  0.333380  0.995159  1
  Co  Co13  1  0.500000  0.666620  0.995159  1
  Co  Co14  1  0.000000  0.166568  0.004869  1
  Co  Co15  1  0.000000  0.833432  0.004869  1
  Co  Co16  1  0.500000  0.296999  0.429058  1
  Co  Co17  1  0.500000  0.703001  0.429058  1
  Co  Co18  1  0.000000  0.203496  0.571037  1
  Co  Co19  1  0.000000  0.796504  0.571037  1
  Co  Co20  1  0.500000  0.880052  0.712701  1
  Co  Co21  1  0.500000  0.119948  0.712701  1
  Co  Co22  1  0.000000  0.619855  0.287436  1
  Co  Co23  1  0.000000  0.380145  0.287436  1
  P  P24  1  0.500000  0.500000  0.884455  1
  P  P25  1  0.000000  0.000000  0.115452  1
  P  P26  1  0.500000  0.500000  0.339454  1
  P  P27  1  0.000000  0.000000  0.661077  1
  P  P28  1  0.500000  0.307119  0.617208  1
  P  P29  1  0.500000  0.692881  0.617208  1
  P  P30  1  0.000000  0.193440  0.382611  1
  P  P31  1  0.000000  0.806560  0.382611  1
  P  P32  1  0.500000  0.847158  0.894545  1
  P  P33  1  0.500000  0.152842  0.894545  1
  P  P34  1  0.000000  0.652840  0.105473  1
  P  P35  1  0.000000  0.347160  0.105473  1
