# generated using pymatgen
data_Tb6Pr4Si5Hg
_symmetry_space_group_name_H-M   'P 1'
_cell_length_a   7.63186878
_cell_length_b   7.63186795
_cell_length_c   9.03856664
_cell_angle_alpha   114.97251418
_cell_angle_beta   114.97252412
_cell_angle_gamma   90.00000580
_symmetry_Int_Tables_number   1
_chemical_formula_structural   Tb6Pr4Si5Hg
_chemical_formula_sum   'Tb6 Pr4 Si5 Hg1'
_cell_volume   422.32135715
_cell_formula_units_Z   1
loop_
 _symmetry_equiv_pos_site_id
 _symmetry_equiv_pos_as_xyz
  1  'x, y, z'
loop_
 _atom_site_type_symbol
 _atom_site_label
 _atom_site_symmetry_multiplicity
 _atom_site_fract_x
 _atom_site_fract_y
 _atom_site_fract_z
 _atom_site_occupancy
  Tb  Tb0  1  0.525535  0.525535  0.051069  1
  Tb  Tb1  1  0.995108  0.995108  0.990215  1
  Tb  Tb2  1  0.977411  0.821903  0.280233  1
  Tb  Tb3  1  0.302822  0.458330  0.280233  1
  Tb  Tb4  1  0.821903  0.302822  0.280233  1
  Tb  Tb5  1  0.458330  0.977411  0.280233  1
  Pr  Pr6  1  0.041634  0.191364  0.713756  1
  Pr  Pr7  1  0.672123  0.522392  0.713756  1
  Pr  Pr8  1  0.191364  0.672123  0.713756  1
  Pr  Pr9  1  0.522392  0.041634  0.713756  1
  Si  Si10  1  0.229843  0.229843  0.459685  1
  Si  Si11  1  0.623926  0.883319  0.007570  1
  Si  Si12  1  0.383643  0.124250  0.007570  1
  Si  Si13  1  0.883319  0.383643  0.007570  1
  Si  Si14  1  0.124250  0.623926  0.007570  1
  Hg  Hg15  1  0.746397  0.746397  0.492793  1
