# generated using pymatgen
data_Zr4Al4Re3Ni
_symmetry_space_group_name_H-M   'P 1'
_cell_length_a   5.23614242
_cell_length_b   5.23614258
_cell_length_c   8.64139400
_cell_angle_alpha   90.00000000
_cell_angle_beta   90.00000000
_cell_angle_gamma   119.11943154
_symmetry_Int_Tables_number   1
_chemical_formula_structural   Zr4Al4Re3Ni
_chemical_formula_sum   'Zr4 Al4 Re3 Ni1'
_cell_volume   206.97740781
_cell_formula_units_Z   1
loop_
 _symmetry_equiv_pos_site_id
 _symmetry_equiv_pos_as_xyz
  1  'x, y, z'
loop_
 _atom_site_type_symbol
 _atom_site_label
 _atom_site_symmetry_multiplicity
 _atom_site_fract_x
 _atom_site_fract_y
 _atom_site_fract_z
 _atom_site_occupancy
  Zr  Zr0  1  0.333943  0.666057  0.190195  1
  Zr  Zr1  1  0.666109  0.333891  0.317714  1
  Zr  Zr2  1  0.666109  0.333891  0.682286  1
  Zr  Zr3  1  0.333943  0.666057  0.809805  1
  Al  Al4  1  0.991557  0.008443  0.241077  1
  Al  Al5  1  0.991557  0.008443  0.758923  1
  Al  Al6  1  0.836380  0.644681  0.000000  1
  Al  Al7  1  0.355319  0.163620  0.000000  1
  Re  Re8  1  0.165615  0.341838  0.500000  1
  Re  Re9  1  0.658162  0.834385  0.500000  1
  Re  Re10  1  0.164254  0.835746  0.500000  1
  Ni  Ni11  1  0.837002  0.162998  0.000000  1
