# generated using pymatgen
data_YHo3Co4(P3Ir4)4
_symmetry_space_group_name_H-M   'P 1'
_cell_length_a   3.93034700
_cell_length_b   10.71649000
_cell_length_c   12.38620200
_cell_angle_alpha   90.00228209
_cell_angle_beta   90.00000000
_cell_angle_gamma   90.00000000
_symmetry_Int_Tables_number   1
_chemical_formula_structural   YHo3Co4(P3Ir4)4
_chemical_formula_sum   'Y1 Ho3 Co4 P12 Ir16'
_cell_volume   521.70093619
_cell_formula_units_Z   1
loop_
 _symmetry_equiv_pos_site_id
 _symmetry_equiv_pos_as_xyz
  1  'x, y, z'
loop_
 _atom_site_type_symbol
 _atom_site_label
 _atom_site_symmetry_multiplicity
 _atom_site_fract_x
 _atom_site_fract_y
 _atom_site_fract_z
 _atom_site_occupancy
  Y  Y0  1  0.250000  0.585556  0.709666  1
  Ho  Ho1  1  0.250000  0.914489  0.209706  1
  Ho  Ho2  1  0.750000  0.414305  0.290426  1
  Ho  Ho3  1  0.750000  0.085545  0.790232  1
  Co  Co4  1  0.250000  0.461243  0.934324  1
  Co  Co5  1  0.250000  0.038047  0.433847  1
  Co  Co6  1  0.750000  0.538604  0.066333  1
  Co  Co7  1  0.750000  0.962310  0.566010  1
  P  P8  1  0.250000  0.426108  0.105950  1
  P  P9  1  0.250000  0.074059  0.605476  1
  P  P10  1  0.750000  0.573836  0.894611  1
  P  P11  1  0.750000  0.926117  0.394418  1
  P  P12  1  0.250000  0.270851  0.871225  1
  P  P13  1  0.250000  0.228749  0.371361  1
  P  P14  1  0.750000  0.729167  0.128694  1
  P  P15  1  0.750000  0.771488  0.628220  1
  P  P16  1  0.250000  0.594345  0.384929  1
  P  P17  1  0.250000  0.905273  0.884620  1
  P  P18  1  0.750000  0.405343  0.615117  1
  P  P19  1  0.750000  0.094531  0.115268  1
  Ir  Ir20  1  0.250000  0.721242  0.981420  1
  Ir  Ir21  1  0.250000  0.778737  0.480736  1
  Ir  Ir22  1  0.750000  0.278817  0.019183  1
  Ir  Ir23  1  0.750000  0.221321  0.518839  1
  Ir  Ir24  1  0.250000  0.407464  0.477788  1
  Ir  Ir25  1  0.250000  0.092179  0.977763  1
  Ir  Ir26  1  0.750000  0.592235  0.521242  1
  Ir  Ir27  1  0.750000  0.907822  0.022190  1
  Ir  Ir28  1  0.250000  0.231940  0.179953  1
  Ir  Ir29  1  0.250000  0.268038  0.679655  1
  Ir  Ir30  1  0.750000  0.768538  0.820469  1
  Ir  Ir31  1  0.750000  0.732292  0.319958  1
  Ir  Ir32  1  0.250000  0.886653  0.698846  1
  Ir  Ir33  1  0.250000  0.613546  0.199378  1
  Ir  Ir34  1  0.750000  0.113533  0.300933  1
  Ir  Ir35  1  0.750000  0.385680  0.801213  1
