# generated using pymatgen
data_Hf6Ti4Ga12Ir3Rh4
_symmetry_space_group_name_H-M   'P 1'
_cell_length_a   8.77104182
_cell_length_b   8.76538525
_cell_length_c   8.76766901
_cell_angle_alpha   60.01875035
_cell_angle_beta   59.98728453
_cell_angle_gamma   59.97865668
_symmetry_Int_Tables_number   1
_chemical_formula_structural   Hf6Ti4Ga12Ir3Rh4
_chemical_formula_sum   'Hf6 Ti4 Ga12 Ir3 Rh4'
_cell_volume   476.58566083
_cell_formula_units_Z   1
loop_
 _symmetry_equiv_pos_site_id
 _symmetry_equiv_pos_as_xyz
  1  'x, y, z'
loop_
 _atom_site_type_symbol
 _atom_site_label
 _atom_site_symmetry_multiplicity
 _atom_site_fract_x
 _atom_site_fract_y
 _atom_site_fract_z
 _atom_site_occupancy
  Hf  Hf0  1  0.690903  0.691811  0.309005  1
  Hf  Hf1  1  0.308281  0.691811  0.309005  1
  Hf  Hf2  1  0.691643  0.307663  0.309050  1
  Hf  Hf3  1  0.309180  0.308507  0.690644  1
  Hf  Hf4  1  0.691669  0.308507  0.690644  1
  Hf  Hf5  1  0.308389  0.692566  0.690656  1
  Ti  Ti6  1  0.877884  0.879403  0.364829  1
  Ti  Ti7  1  0.878746  0.363533  0.878975  1
  Ti  Ti8  1  0.364123  0.878952  0.877678  1
  Ti  Ti9  1  0.879248  0.878952  0.877678  1
  Ga  Ga10  1  0.119492  0.120523  0.640492  1
  Ga  Ga11  1  0.119947  0.640299  0.119807  1
  Ga  Ga12  1  0.640350  0.120353  0.119103  1
  Ga  Ga13  1  0.120193  0.120353  0.119103  1
  Ga  Ga14  1  0.658718  0.658717  0.023847  1
  Ga  Ga15  1  0.657738  0.023612  0.660912  1
  Ga  Ga16  1  0.023693  0.656436  0.660028  1
  Ga  Ga17  1  0.659843  0.656436  0.660028  1
  Ga  Ga18  1  0.341169  0.341514  0.976148  1
  Ga  Ga19  1  0.341481  0.977503  0.339535  1
  Ga  Ga20  1  0.976792  0.342410  0.340198  1
  Ga  Ga21  1  0.340601  0.342410  0.340198  1
  Ir  Ir22  1  0.999980  0.000030  0.000011  1
  Ir  Ir23  1  0.997454  0.997225  0.502869  1
  Ir  Ir24  1  0.502452  0.997225  0.502869  1
  Rh  Rh25  1  0.998071  0.501556  0.502302  1
  Rh  Rh26  1  0.502170  0.501909  0.998050  1
  Rh  Rh27  1  0.997870  0.501909  0.998050  1
  Rh  Rh28  1  0.501923  0.997873  0.998282  1
