# generated using pymatgen
data_Sn3Pb4WO13
_symmetry_space_group_name_H-M   'P 1'
_cell_length_a   7.65142831
_cell_length_b   7.65142879
_cell_length_c   7.65142829
_cell_angle_alpha   59.36611156
_cell_angle_beta   59.36610666
_cell_angle_gamma   59.36611765
_symmetry_Int_Tables_number   1
_chemical_formula_structural   Sn3Pb4WO13
_chemical_formula_sum   'Sn3 Pb4 W1 O13'
_cell_volume   312.17702569
_cell_formula_units_Z   1
loop_
 _symmetry_equiv_pos_site_id
 _symmetry_equiv_pos_as_xyz
  1  'x, y, z'
loop_
 _atom_site_type_symbol
 _atom_site_label
 _atom_site_symmetry_multiplicity
 _atom_site_fract_x
 _atom_site_fract_y
 _atom_site_fract_z
 _atom_site_occupancy
  Sn  Sn0  1  0.999597  0.500481  0.500481  1
  Sn  Sn1  1  0.500481  0.500481  0.999597  1
  Sn  Sn2  1  0.500481  0.999597  0.500481  1
  Pb  Pb3  1  0.499756  0.000489  0.000489  1
  Pb  Pb4  1  0.000489  0.000489  0.499756  1
  Pb  Pb5  1  0.000489  0.499756  0.000489  1
  Pb  Pb6  1  0.000594  0.000594  0.000594  1
  W  W7  1  0.500527  0.500527  0.500527  1
  O  O8  1  0.169876  0.574730  0.169876  1
  O  O9  1  0.567532  0.193964  0.567532  1
  O  O10  1  0.169876  0.169876  0.574730  1
  O  O11  1  0.567532  0.567532  0.193964  1
  O  O12  1  0.574730  0.169876  0.169876  1
  O  O13  1  0.193964  0.567532  0.567532  1
  O  O14  1  0.827866  0.427786  0.827866  1
  O  O15  1  0.434494  0.804302  0.434494  1
  O  O16  1  0.827866  0.827866  0.427786  1
  O  O17  1  0.434494  0.434494  0.804302  1
  O  O18  1  0.427786  0.827866  0.827866  1
  O  O19  1  0.804302  0.434494  0.434494  1
  O  O20  1  0.872269  0.872269  0.872269  1
