# generated using pymatgen
data_EuGa4O7
_symmetry_space_group_name_H-M   'P 1'
_cell_length_a   8.27555013
_cell_length_b   8.27587113
_cell_length_c   5.77306726
_cell_angle_alpha   77.34958719
_cell_angle_beta   77.34996835
_cell_angle_gamma   68.33009173
_symmetry_Int_Tables_number   1
_chemical_formula_structural   EuGa4O7
_chemical_formula_sum   'Eu2 Ga8 O14'
_cell_volume   354.33551108
_cell_formula_units_Z   2
loop_
 _symmetry_equiv_pos_site_id
 _symmetry_equiv_pos_as_xyz
  1  'x, y, z'
loop_
 _atom_site_type_symbol
 _atom_site_label
 _atom_site_symmetry_multiplicity
 _atom_site_fract_x
 _atom_site_fract_y
 _atom_site_fract_z
 _atom_site_occupancy
  Eu  Eu0  1  0.310945  0.689040  0.249996  1
  Eu  Eu1  1  0.689055  0.310960  0.750004  1
  Ga  Ga2  1  0.819633  0.941808  0.259759  1
  Ga  Ga3  1  0.941809  0.819635  0.759760  1
  Ga  Ga4  1  0.756035  0.579426  0.199585  1
  Ga  Ga5  1  0.579422  0.756027  0.699581  1
  Ga  Ga6  1  0.420578  0.243973  0.300419  1
  Ga  Ga7  1  0.243965  0.420574  0.800415  1
  Ga  Ga8  1  0.058191  0.180365  0.240240  1
  Ga  Ga9  1  0.180367  0.058192  0.740241  1
  O  O10  1  0.874179  0.746935  0.094590  1
  O  O11  1  0.746931  0.874172  0.594584  1
  O  O12  1  0.564863  0.664569  0.439378  1
  O  O13  1  0.872829  0.361238  0.359617  1
  O  O14  1  0.664578  0.564861  0.939375  1
  O  O15  1  0.361236  0.872823  0.859624  1
  O  O16  1  0.037284  0.962720  0.250000  1
  O  O17  1  0.962716  0.037280  0.750000  1
  O  O18  1  0.638764  0.127177  0.140376  1
  O  O19  1  0.335422  0.435139  0.060625  1
  O  O20  1  0.127171  0.638762  0.640383  1
  O  O21  1  0.435137  0.335431  0.560622  1
  O  O22  1  0.253069  0.125828  0.405416  1
  O  O23  1  0.125821  0.253065  0.905410  1
