# generated using pymatgen
data_Tb5Tm(RuBr3)2
_symmetry_space_group_name_H-M   'P 1'
_cell_length_a   4.10223400
_cell_length_b   8.60491531
_cell_length_c   11.90617370
_cell_angle_alpha   87.88819758
_cell_angle_beta   90.00000000
_cell_angle_gamma   90.00000000
_symmetry_Int_Tables_number   1
_chemical_formula_structural   Tb5Tm(RuBr3)2
_chemical_formula_sum   'Tb5 Tm1 Ru2 Br6'
_cell_volume   419.99505961
_cell_formula_units_Z   1
loop_
 _symmetry_equiv_pos_site_id
 _symmetry_equiv_pos_as_xyz
  1  'x, y, z'
loop_
 _atom_site_type_symbol
 _atom_site_label
 _atom_site_symmetry_multiplicity
 _atom_site_fract_x
 _atom_site_fract_y
 _atom_site_fract_z
 _atom_site_occupancy
  Tb  Tb0  1  0.250000  0.276009  0.394794  1
  Tb  Tb1  1  0.750000  0.723731  0.604177  1
  Tb  Tb2  1  0.250000  0.863527  0.364094  1
  Tb  Tb3  1  0.750000  0.136338  0.635471  1
  Tb  Tb4  1  0.250000  0.892900  0.827590  1
  Tm  Tm5  1  0.750000  0.107532  0.176890  1
  Ru  Ru6  1  0.250000  0.939774  0.596634  1
  Ru  Ru7  1  0.750000  0.059980  0.403243  1
  Br  Br8  1  0.250000  0.429526  0.629355  1
  Br  Br9  1  0.750000  0.570367  0.367801  1
  Br  Br10  1  0.250000  0.883399  0.102430  1
  Br  Br11  1  0.750000  0.123525  0.898612  1
  Br  Br12  1  0.250000  0.337068  0.138238  1
  Br  Br13  1  0.750000  0.656324  0.860672  1
