# generated using pymatgen
data_Tb2Y6Hf7Si16Mo5
_symmetry_space_group_name_H-M   'P 1'
_cell_length_a   7.14106422
_cell_length_b   7.13453864
_cell_length_c   13.08516635
_cell_angle_alpha   89.78534446
_cell_angle_beta   89.98610316
_cell_angle_gamma   90.09692656
_symmetry_Int_Tables_number   1
_chemical_formula_structural   Tb2Y6Hf7Si16Mo5
_chemical_formula_sum   'Tb2 Y6 Hf7 Si16 Mo5'
_cell_volume   666.66000120
_cell_formula_units_Z   1
loop_
 _symmetry_equiv_pos_site_id
 _symmetry_equiv_pos_as_xyz
  1  'x, y, z'
loop_
 _atom_site_type_symbol
 _atom_site_label
 _atom_site_symmetry_multiplicity
 _atom_site_fract_x
 _atom_site_fract_y
 _atom_site_fract_z
 _atom_site_occupancy
  Tb  Tb0  1  0.345097  0.999541  0.784137  1
  Tb  Tb1  1  0.655738  0.000974  0.284259  1
  Y  Y2  1  0.999071  0.344768  0.218694  1
  Y  Y3  1  0.001473  0.657005  0.713981  1
  Y  Y4  1  0.154946  0.500272  0.465628  1
  Y  Y5  1  0.499384  0.845160  0.036053  1
  Y  Y6  1  0.844351  0.501666  0.965665  1
  Y  Y7  1  0.499487  0.154807  0.532146  1
  Hf  Hf8  1  0.852834  0.006624  0.874503  1
  Hf  Hf9  1  0.504871  0.648441  0.621052  1
  Hf  Hf10  1  0.353123  0.492670  0.876021  1
  Hf  Hf11  1  0.491447  0.349320  0.125842  1
  Hf  Hf12  1  0.647452  0.510509  0.377036  1
  Hf  Hf13  1  0.993803  0.147453  0.625885  1
  Hf  Hf14  1  0.004261  0.852043  0.124431  1
  Si  Si15  1  0.361306  0.289175  0.320588  1
  Si  Si16  1  0.638793  0.702072  0.815299  1
  Si  Si17  1  0.199593  0.863961  0.560901  1
  Si  Si18  1  0.139291  0.796546  0.932889  1
  Si  Si19  1  0.797755  0.140280  0.066991  1
  Si  Si20  1  0.870674  0.196983  0.430432  1
  Si  Si21  1  0.299584  0.360429  0.682741  1
  Si  Si22  1  0.702735  0.638218  0.183666  1
  Si  Si23  1  0.293503  0.046139  0.189404  1
  Si  Si24  1  0.705344  0.949052  0.683550  1
  Si  Si25  1  0.438911  0.797527  0.430667  1
  Si  Si26  1  0.204326  0.550147  0.066535  1
  Si  Si27  1  0.550601  0.204049  0.934528  1
  Si  Si28  1  0.794590  0.446410  0.566509  1
  Si  Si29  1  0.050544  0.296209  0.816458  1
  Si  Si30  1  0.956539  0.714818  0.317815  1
  Mo  Mo31  1  0.173835  0.174046  0.002035  1
  Mo  Mo32  1  0.827273  0.827183  0.499114  1
  Mo  Mo33  1  0.323152  0.674596  0.250181  1
  Mo  Mo34  1  0.676516  0.325214  0.750015  1
  Mo  Mo35  1  0.147799  0.995693  0.374349  1
