# generated using pymatgen
data_KLi2(P3Pd10)2
_symmetry_space_group_name_H-M   'P 1'
_cell_length_a   8.61887587
_cell_length_b   8.61887480
_cell_length_c   8.61887600
_cell_angle_alpha   60.00000309
_cell_angle_beta   60.00000719
_cell_angle_gamma   60.00000290
_symmetry_Int_Tables_number   1
_chemical_formula_structural   KLi2(P3Pd10)2
_chemical_formula_sum   'K1 Li2 P6 Pd20'
_cell_volume   452.72750089
_cell_formula_units_Z   1
loop_
 _symmetry_equiv_pos_site_id
 _symmetry_equiv_pos_as_xyz
  1  'x, y, z'
loop_
 _atom_site_type_symbol
 _atom_site_label
 _atom_site_symmetry_multiplicity
 _atom_site_fract_x
 _atom_site_fract_y
 _atom_site_fract_z
 _atom_site_occupancy
  K  K0  1  0.250000  0.250000  0.250000  1
  Li  Li1  1  0.750000  0.750000  0.750000  1
  Li  Li2  1  0.000000  0.000000  0.000000  1
  P  P3  1  0.736392  0.263608  0.263608  1
  P  P4  1  0.263608  0.736392  0.736392  1
  P  P5  1  0.263608  0.736392  0.263608  1
  P  P6  1  0.736392  0.263608  0.736392  1
  P  P7  1  0.263608  0.263608  0.736392  1
  P  P8  1  0.736392  0.736392  0.263608  1
  Pd  Pd9  1  0.390257  0.390257  0.390257  1
  Pd  Pd10  1  0.619925  0.619925  0.619925  1
  Pd  Pd11  1  0.390257  0.390257  0.829229  1
  Pd  Pd12  1  0.390257  0.829229  0.390257  1
  Pd  Pd13  1  0.619925  0.619925  0.140225  1
  Pd  Pd14  1  0.619925  0.140225  0.619925  1
  Pd  Pd15  1  0.829229  0.390257  0.390257  1
  Pd  Pd16  1  0.140225  0.619925  0.619925  1
  Pd  Pd17  1  0.345194  0.996997  0.996997  1
  Pd  Pd18  1  0.660812  0.996997  0.996997  1
  Pd  Pd19  1  0.996997  0.345194  0.660812  1
  Pd  Pd20  1  0.996997  0.660812  0.345194  1
  Pd  Pd21  1  0.996997  0.345194  0.996997  1
  Pd  Pd22  1  0.660812  0.996997  0.345194  1
  Pd  Pd23  1  0.996997  0.660812  0.996997  1
  Pd  Pd24  1  0.345194  0.996997  0.660812  1
  Pd  Pd25  1  0.996997  0.996997  0.345194  1
  Pd  Pd26  1  0.996997  0.996997  0.660812  1
  Pd  Pd27  1  0.660812  0.345194  0.996997  1
  Pd  Pd28  1  0.345194  0.660812  0.996997  1
