# generated using pymatgen
data_HoTh7(Si3Os)4
_symmetry_space_group_name_H-M   'P 1'
_cell_length_a   8.27992700
_cell_length_b   8.27992751
_cell_length_c   8.28776400
_cell_angle_alpha   90.00000000
_cell_angle_beta   90.00000000
_cell_angle_gamma   119.99999397
_symmetry_Int_Tables_number   1
_chemical_formula_structural   HoTh7(Si3Os)4
_chemical_formula_sum   'Ho1 Th7 Si12 Os4'
_cell_volume   492.06341481
_cell_formula_units_Z   1
loop_
 _symmetry_equiv_pos_site_id
 _symmetry_equiv_pos_as_xyz
  1  'x, y, z'
loop_
 _atom_site_type_symbol
 _atom_site_label
 _atom_site_symmetry_multiplicity
 _atom_site_fract_x
 _atom_site_fract_y
 _atom_site_fract_z
 _atom_site_occupancy
  Ho  Ho0  1  0.000000  0.000000  0.750000  1
  Th  Th1  1  0.500154  0.000306  0.250000  1
  Th  Th2  1  0.499884  0.999770  0.750000  1
  Th  Th3  1  0.999694  0.499846  0.250000  1
  Th  Th4  1  0.000230  0.500116  0.750000  1
  Th  Th5  1  0.500154  0.499846  0.250000  1
  Th  Th6  1  0.499884  0.500116  0.750000  1
  Th  Th7  1  0.000000  0.000000  0.250000  1
  Si  Si8  1  0.165296  0.330590  0.998616  1
  Si  Si9  1  0.834669  0.669339  0.998256  1
  Si  Si10  1  0.669410  0.834704  0.998616  1
  Si  Si11  1  0.834669  0.669339  0.501744  1
  Si  Si12  1  0.330661  0.165331  0.998256  1
  Si  Si13  1  0.165296  0.330590  0.501384  1
  Si  Si14  1  0.165296  0.834704  0.998616  1
  Si  Si15  1  0.330661  0.165331  0.501744  1
  Si  Si16  1  0.834669  0.165331  0.998256  1
  Si  Si17  1  0.669410  0.834704  0.501384  1
  Si  Si18  1  0.834669  0.165331  0.501744  1
  Si  Si19  1  0.165296  0.834704  0.501384  1
  Os  Os20  1  0.333333  0.666667  0.997507  1
  Os  Os21  1  0.666667  0.333333  0.997361  1
  Os  Os22  1  0.666667  0.333333  0.502639  1
  Os  Os23  1  0.333333  0.666667  0.502493  1
