# generated using pymatgen
data_Sm7PaTiPd24
_symmetry_space_group_name_H-M   'P 1'
_cell_length_a   8.45288632
_cell_length_b   8.45288632
_cell_length_c   8.45288632
_cell_angle_alpha   89.82663066
_cell_angle_beta   89.82663066
_cell_angle_gamma   89.82663066
_symmetry_Int_Tables_number   1
_chemical_formula_structural   Sm7PaTiPd24
_chemical_formula_sum   'Sm7 Pa1 Ti1 Pd24'
_cell_volume   603.96132934
_cell_formula_units_Z   1
loop_
 _symmetry_equiv_pos_site_id
 _symmetry_equiv_pos_as_xyz
  1  'x, y, z'
loop_
 _atom_site_type_symbol
 _atom_site_label
 _atom_site_symmetry_multiplicity
 _atom_site_fract_x
 _atom_site_fract_y
 _atom_site_fract_z
 _atom_site_occupancy
  Sm  Sm0  1  0.748227  0.748227  0.748227  1
  Sm  Sm1  1  0.748760  0.748760  0.251298  1
  Sm  Sm2  1  0.748760  0.251298  0.748760  1
  Sm  Sm3  1  0.250865  0.250865  0.750573  1
  Sm  Sm4  1  0.250865  0.750573  0.250865  1
  Sm  Sm5  1  0.251298  0.748760  0.748760  1
  Sm  Sm6  1  0.750573  0.250865  0.250865  1
  Pa  Pa7  1  0.249932  0.249932  0.249932  1
  Ti  Ti8  1  0.000401  0.000401  0.000401  1
  Pd  Pd9  1  0.261948  0.497439  0.005940  1
  Pd  Pd10  1  0.738248  0.499235  0.000264  1
  Pd  Pd11  1  0.005940  0.261948  0.497439  1
  Pd  Pd12  1  0.497439  0.261948  0.005940  1
  Pd  Pd13  1  0.000264  0.738248  0.499235  1
  Pd  Pd14  1  0.499235  0.738248  0.000264  1
  Pd  Pd15  1  0.497439  0.005940  0.261948  1
  Pd  Pd16  1  0.261948  0.005940  0.497439  1
  Pd  Pd17  1  0.499235  0.000264  0.738248  1
  Pd  Pd18  1  0.738248  0.000264  0.499235  1
  Pd  Pd19  1  0.005940  0.497439  0.261948  1
  Pd  Pd20  1  0.000264  0.499235  0.738248  1
  Pd  Pd21  1  0.253583  0.495988  0.495988  1
  Pd  Pd22  1  0.747078  0.499117  0.499117  1
  Pd  Pd23  1  0.495988  0.253583  0.495988  1
  Pd  Pd24  1  0.499117  0.747078  0.499117  1
  Pd  Pd25  1  0.495988  0.495988  0.253583  1
  Pd  Pd26  1  0.499117  0.499117  0.747078  1
  Pd  Pd27  1  0.297632  0.002946  0.002946  1
  Pd  Pd28  1  0.700927  0.999427  0.999427  1
  Pd  Pd29  1  0.002946  0.297632  0.002946  1
  Pd  Pd30  1  0.999427  0.700927  0.999427  1
  Pd  Pd31  1  0.002946  0.002946  0.297632  1
  Pd  Pd32  1  0.999427  0.999427  0.700927  1
