# generated using pymatgen
data_Er4Ga21Pd10
_symmetry_space_group_name_H-M   'P 1'
_cell_length_a   11.03838741
_cell_length_b   11.03838797
_cell_length_c   16.13027757
_cell_angle_alpha   55.76271786
_cell_angle_beta   124.23728434
_cell_angle_gamma   157.85578192
_symmetry_Int_Tables_number   1
_chemical_formula_structural   Er4Ga21Pd10
_chemical_formula_sum   'Er4 Ga21 Pd10'
_cell_volume   607.00781371
_cell_formula_units_Z   1
loop_
 _symmetry_equiv_pos_site_id
 _symmetry_equiv_pos_as_xyz
  1  'x, y, z'
loop_
 _atom_site_type_symbol
 _atom_site_label
 _atom_site_symmetry_multiplicity
 _atom_site_fract_x
 _atom_site_fract_y
 _atom_site_fract_z
 _atom_site_occupancy
  Er  Er0  1  0.229130  0.770869  0.322652  1
  Er  Er1  1  0.770870  0.229129  0.677349  1
  Er  Er2  1  0.877845  0.122154  0.164483  1
  Er  Er3  1  0.122154  0.877845  0.835518  1
  Ga  Ga4  1  0.602210  0.397789  0.497895  1
  Ga  Ga5  1  0.397790  0.602209  0.502106  1
  Ga  Ga6  1  0.616717  0.383282  0.204175  1
  Ga  Ga7  1  0.383282  0.616717  0.795825  1
  Ga  Ga8  1  0.749377  0.250622  0.206197  1
  Ga  Ga9  1  0.250622  0.749377  0.793804  1
  Ga  Ga10  1  0.993711  0.006288  0.409675  1
  Ga  Ga11  1  0.006288  0.993711  0.590326  1
  Ga  Ga12  1  0.371767  0.628232  0.303931  1
  Ga  Ga13  1  0.628232  0.371767  0.696068  1
  Ga  Ga14  1  0.064486  0.935513  0.295897  1
  Ga  Ga15  1  0.935514  0.064485  0.704103  1
  Ga  Ga16  1  0.455871  0.544128  0.127516  1
  Ga  Ga17  1  0.544128  0.455871  0.872483  1
  Ga  Ga18  1  0.117588  0.882411  0.054226  1
  Ga  Ga19  1  0.882412  0.117587  0.945775  1
  Ga  Ga20  1  0.499999  0.499999  0.000000  1
  Ga  Ga21  1  0.699693  0.300306  0.000784  1
  Ga  Ga22  1  0.300305  0.699694  0.999216  1
  Ga  Ga23  1  0.200681  0.799318  0.503311  1
  Ga  Ga24  1  0.799318  0.200681  0.496690  1
  Pd  Pd25  1  0.025013  0.974986  0.109375  1
  Pd  Pd26  1  0.974986  0.025013  0.890625  1
  Pd  Pd27  1  0.654387  0.345612  0.388081  1
  Pd  Pd28  1  0.345611  0.654388  0.611918  1
  Pd  Pd29  1  0.251585  0.748414  0.115982  1
  Pd  Pd30  1  0.748414  0.251585  0.884018  1
  Pd  Pd31  1  0.866151  0.133848  0.396982  1
  Pd  Pd32  1  0.133847  0.866152  0.603018  1
  Pd  Pd33  1  0.494959  0.505040  0.312806  1
  Pd  Pd34  1  0.505041  0.494958  0.687194  1
