# generated using pymatgen
data_Ba8Sb5Au
_symmetry_space_group_name_H-M   'P 1'
_cell_length_a   9.14646998
_cell_length_b   9.14647049
_cell_length_c   9.14647045
_cell_angle_alpha   109.50729766
_cell_angle_beta   109.45318573
_cell_angle_gamma   109.45318751
_symmetry_Int_Tables_number   1
_chemical_formula_structural   Ba8Sb5Au
_chemical_formula_sum   'Ba8 Sb5 Au1'
_cell_volume   589.03154113
_cell_formula_units_Z   1
loop_
 _symmetry_equiv_pos_site_id
 _symmetry_equiv_pos_as_xyz
  1  'x, y, z'
loop_
 _atom_site_type_symbol
 _atom_site_label
 _atom_site_symmetry_multiplicity
 _atom_site_fract_x
 _atom_site_fract_y
 _atom_site_fract_z
 _atom_site_occupancy
  Ba  Ba0  1  0.347462  0.493475  0.996416  1
  Ba  Ba1  1  0.863303  0.491804  0.997199  1
  Ba  Ba2  1  0.152538  0.148953  0.146014  1
  Ba  Ba3  1  0.494604  0.002801  0.366104  1
  Ba  Ba4  1  0.005395  0.371499  0.508195  1
  Ba  Ba5  1  0.002939  0.853986  0.506524  1
  Ba  Ba6  1  0.636696  0.633895  0.628500  1
  Ba  Ba7  1  0.497061  0.003584  0.851047  1
  Sb  Sb8  1  0.626080  0.374972  0.244721  1
  Sb  Sb9  1  0.250000  0.624999  0.375000  1
  Sb  Sb10  1  0.369750  0.251110  0.625027  1
  Sb  Sb11  1  0.873919  0.118640  0.748890  1
  Sb  Sb12  1  0.130250  0.755279  0.881360  1
  Au  Au13  1  0.750000  0.875000  0.125000  1
