# generated using pymatgen
data_PmGaCu2Si
_symmetry_space_group_name_H-M   'P 1'
_cell_length_a   5.81311406
_cell_length_b   5.81311497
_cell_length_c   5.81311400
_cell_angle_alpha   137.39874779
_cell_angle_beta   137.39875758
_cell_angle_gamma   61.82508458
_symmetry_Int_Tables_number   1
_chemical_formula_structural   PmGaCu2Si
_chemical_formula_sum   'Pm1 Ga1 Cu2 Si1'
_cell_volume   88.95866426
_cell_formula_units_Z   1
loop_
 _symmetry_equiv_pos_site_id
 _symmetry_equiv_pos_as_xyz
  1  'x, y, z'
loop_
 _atom_site_type_symbol
 _atom_site_label
 _atom_site_symmetry_multiplicity
 _atom_site_fract_x
 _atom_site_fract_y
 _atom_site_fract_z
 _atom_site_occupancy
  Pm  Pm0  1  0.002162  0.002162  0.000000  1
  Ga  Ga1  1  0.379405  0.379405  0.000000  1
  Cu  Cu2  1  0.745149  0.245149  0.500000  1
  Cu  Cu3  1  0.245149  0.745149  0.500000  1
  Si  Si4  1  0.628135  0.628135  0.000000  1
