# generated using pymatgen
data_Dy2Ho7Sc(SiB4)4
_symmetry_space_group_name_H-M   'P 1'
_cell_length_a   7.18222801
_cell_length_b   7.18137501
_cell_length_c   7.98581200
_cell_angle_alpha   90.00000000
_cell_angle_beta   90.00000000
_cell_angle_gamma   89.99505369
_symmetry_Int_Tables_number   1
_chemical_formula_structural   Dy2Ho7Sc(SiB4)4
_chemical_formula_sum   'Dy2 Ho7 Sc1 Si4 B16'
_cell_volume   411.89438753
_cell_formula_units_Z   1
loop_
 _symmetry_equiv_pos_site_id
 _symmetry_equiv_pos_as_xyz
  1  'x, y, z'
loop_
 _atom_site_type_symbol
 _atom_site_label
 _atom_site_symmetry_multiplicity
 _atom_site_fract_x
 _atom_site_fract_y
 _atom_site_fract_z
 _atom_site_occupancy
  Dy  Dy0  1  0.179515  0.319108  0.773208  1
  Dy  Dy1  1  0.179515  0.319108  0.226792  1
  Ho  Ho2  1  0.680994  0.179581  0.225656  1
  Ho  Ho3  1  0.319060  0.820369  0.774364  1
  Ho  Ho4  1  0.319060  0.820369  0.225636  1
  Ho  Ho5  1  0.820476  0.680912  0.225808  1
  Ho  Ho6  1  0.820476  0.680912  0.774192  1
  Ho  Ho7  1  0.680994  0.179581  0.774344  1
  Ho  Ho8  1  0.500266  0.500193  0.500000  1
  Sc  Sc9  1  0.999816  0.999704  0.500000  1
  Si  Si10  1  0.110421  0.622714  0.500000  1
  Si  Si11  1  0.888763  0.377937  0.500000  1
  Si  Si12  1  0.378099  0.110266  0.500000  1
  Si  Si13  1  0.622541  0.889108  0.500000  1
  B  B14  1  0.172918  0.038739  0.000000  1
  B  B15  1  0.826842  0.960906  0.000000  1
  B  B16  1  0.960763  0.172885  0.000000  1
  B  B17  1  0.327418  0.539542  0.000000  1
  B  B18  1  0.038902  0.826877  0.000000  1
  B  B19  1  0.672850  0.460813  0.000000  1
  B  B20  1  0.539384  0.672881  0.000000  1
  B  B21  1  0.460985  0.327375  0.000000  1
  B  B22  1  0.089558  0.589671  0.000000  1
  B  B23  1  0.910197  0.410579  0.000000  1
  B  B24  1  0.410630  0.089468  0.000000  1
  B  B25  1  0.589401  0.910508  0.000000  1
  B  B26  1  0.999796  0.999733  0.165313  1
  B  B27  1  0.999796  0.999733  0.834687  1
  B  B28  1  0.500282  0.500214  0.835585  1
  B  B29  1  0.500282  0.500214  0.164415  1
