# generated using pymatgen
data_Li12POsN8
_symmetry_space_group_name_H-M   'P 1'
_cell_length_a   6.50647600
_cell_length_b   6.50647600
_cell_length_c   4.87823200
_cell_angle_alpha   90.00000000
_cell_angle_beta   90.00000000
_cell_angle_gamma   90.00000000
_symmetry_Int_Tables_number   1
_chemical_formula_structural   Li12POsN8
_chemical_formula_sum   'Li12 P1 Os1 N8'
_cell_volume   206.51619518
_cell_formula_units_Z   1
loop_
 _symmetry_equiv_pos_site_id
 _symmetry_equiv_pos_as_xyz
  1  'x, y, z'
loop_
 _atom_site_type_symbol
 _atom_site_label
 _atom_site_symmetry_multiplicity
 _atom_site_fract_x
 _atom_site_fract_y
 _atom_site_fract_z
 _atom_site_occupancy
  Li  Li0  1  0.500000  0.000000  0.595008  1
  Li  Li1  1  0.000000  0.500000  0.875392  1
  Li  Li2  1  0.000000  0.500000  0.404992  1
  Li  Li3  1  0.500000  0.000000  0.124608  1
  Li  Li4  1  0.225321  0.225321  0.500000  1
  Li  Li5  1  0.774679  0.774679  0.500000  1
  Li  Li6  1  0.700409  0.700409  0.000000  1
  Li  Li7  1  0.299591  0.299591  0.000000  1
  Li  Li8  1  0.225321  0.774679  0.500000  1
  Li  Li9  1  0.774679  0.225321  0.500000  1
  Li  Li10  1  0.700409  0.299591  0.000000  1
  Li  Li11  1  0.299591  0.700409  0.000000  1
  P  P12  1  0.500000  0.500000  0.500000  1
  Os  Os13  1  0.000000  0.000000  0.000000  1
  N  N14  1  0.500000  0.277017  0.317898  1
  N  N15  1  0.500000  0.722983  0.317898  1
  N  N16  1  0.000000  0.752733  0.186035  1
  N  N17  1  0.000000  0.247267  0.186035  1
  N  N18  1  0.277017  0.500000  0.682102  1
  N  N19  1  0.722983  0.500000  0.682102  1
  N  N20  1  0.752733  0.000000  0.813965  1
  N  N21  1  0.247267  0.000000  0.813965  1
