# generated using pymatgen
data_HoFeH5
_symmetry_space_group_name_H-M   'P 1'
_cell_length_a   4.21299400
_cell_length_b   4.55082500
_cell_length_c   11.16530100
_cell_angle_alpha   90.00000000
_cell_angle_beta   90.00000000
_cell_angle_gamma   90.00000000
_symmetry_Int_Tables_number   1
_chemical_formula_structural   HoFeH5
_chemical_formula_sum   'Ho4 Fe4 H20'
_cell_volume   214.06783231
_cell_formula_units_Z   4
loop_
 _symmetry_equiv_pos_site_id
 _symmetry_equiv_pos_as_xyz
  1  'x, y, z'
loop_
 _atom_site_type_symbol
 _atom_site_label
 _atom_site_symmetry_multiplicity
 _atom_site_fract_x
 _atom_site_fract_y
 _atom_site_fract_z
 _atom_site_occupancy
  Ho  Ho0  1  0.276972  0.162020  0.649437  1
  Ho  Ho1  1  0.776972  0.337980  0.350563  1
  Ho  Ho2  1  0.223028  0.837980  0.149437  1
  Ho  Ho3  1  0.723028  0.662020  0.850563  1
  Fe  Fe4  1  0.317586  0.162796  0.911890  1
  Fe  Fe5  1  0.817586  0.337204  0.088110  1
  Fe  Fe6  1  0.182414  0.837204  0.411890  1
  Fe  Fe7  1  0.682414  0.662796  0.588110  1
  H  H8  1  0.536036  0.403606  0.516863  1
  H  H9  1  0.036036  0.096394  0.483137  1
  H  H10  1  0.963964  0.596394  0.016863  1
  H  H11  1  0.463964  0.903606  0.983137  1
  H  H12  1  0.164701  0.933061  0.823486  1
  H  H13  1  0.664701  0.566939  0.176514  1
  H  H14  1  0.335299  0.066939  0.323486  1
  H  H15  1  0.835299  0.433061  0.676514  1
  H  H16  1  0.205962  0.435572  0.831098  1
  H  H17  1  0.705962  0.064428  0.168902  1
  H  H18  1  0.294038  0.564428  0.331098  1
  H  H19  1  0.794038  0.935572  0.668902  1
  H  H20  1  0.612578  0.156601  0.827683  1
  H  H21  1  0.112578  0.343399  0.172317  1
  H  H22  1  0.887422  0.843399  0.327683  1
  H  H23  1  0.387422  0.656601  0.672317  1
  H  H24  1  0.991559  0.095822  0.996465  1
  H  H25  1  0.491559  0.404178  0.003535  1
  H  H26  1  0.508441  0.904178  0.496465  1
  H  H27  1  0.008441  0.595822  0.503535  1
