# generated using pymatgen
data_Zr12Al9Au3N4
_symmetry_space_group_name_H-M   'P 1'
_cell_length_a   8.72117691
_cell_length_b   8.70950524
_cell_length_c   8.70950500
_cell_angle_alpha   59.99999713
_cell_angle_beta   60.04425833
_cell_angle_gamma   60.04425268
_symmetry_Int_Tables_number   1
_chemical_formula_structural   Zr12Al9Au3N4
_chemical_formula_sum   'Zr12 Al9 Au3 N4'
_cell_volume   468.09848152
_cell_formula_units_Z   1
loop_
 _symmetry_equiv_pos_site_id
 _symmetry_equiv_pos_as_xyz
  1  'x, y, z'
loop_
 _atom_site_type_symbol
 _atom_site_label
 _atom_site_symmetry_multiplicity
 _atom_site_fract_x
 _atom_site_fract_y
 _atom_site_fract_z
 _atom_site_occupancy
  Zr  Zr0  1  0.817177  0.182314  0.182314  1
  Zr  Zr1  1  0.181492  0.817405  0.183697  1
  Zr  Zr2  1  0.817177  0.818197  0.182314  1
  Zr  Zr3  1  0.181492  0.817405  0.817405  1
  Zr  Zr4  1  0.817177  0.182314  0.818197  1
  Zr  Zr5  1  0.181492  0.183697  0.817405  1
  Zr  Zr6  1  0.432823  0.067686  0.067686  1
  Zr  Zr7  1  0.068508  0.432595  0.066303  1
  Zr  Zr8  1  0.432823  0.431803  0.067686  1
  Zr  Zr9  1  0.068508  0.432595  0.432595  1
  Zr  Zr10  1  0.432823  0.067686  0.431803  1
  Zr  Zr11  1  0.068508  0.066303  0.432595  1
  Al  Al12  1  0.419194  0.414816  0.751173  1
  Al  Al13  1  0.419194  0.414816  0.414816  1
  Al  Al14  1  0.749198  0.416933  0.416933  1
  Al  Al15  1  0.419194  0.751173  0.414816  1
  Al  Al16  1  0.830806  0.835184  0.498827  1
  Al  Al17  1  0.830806  0.835184  0.835184  1
  Al  Al18  1  0.500802  0.833067  0.833067  1
  Al  Al19  1  0.830806  0.498827  0.835184  1
  Al  Al20  1  0.125000  0.625000  0.625000  1
  Au  Au21  1  0.625000  0.625000  0.125000  1
  Au  Au22  1  0.625000  0.625000  0.625000  1
  Au  Au23  1  0.625000  0.125000  0.625000  1
  N  N24  1  0.125000  0.125000  0.625000  1
  N  N25  1  0.125000  0.125000  0.125000  1
  N  N26  1  0.625000  0.125000  0.125000  1
  N  N27  1  0.125000  0.625000  0.125000  1
