# generated using pymatgen
data_NdHo3Er(FeB3)2
_symmetry_space_group_name_H-M   'P 1'
_cell_length_a   8.26686811
_cell_length_b   8.26686897
_cell_length_c   8.26686781
_cell_angle_alpha   38.18558381
_cell_angle_beta   38.18558829
_cell_angle_gamma   38.18557713
_symmetry_Int_Tables_number   1
_chemical_formula_structural   NdHo3Er(FeB3)2
_chemical_formula_sum   'Nd1 Ho3 Er1 Fe2 B6'
_cell_volume   193.88718395
_cell_formula_units_Z   1
loop_
 _symmetry_equiv_pos_site_id
 _symmetry_equiv_pos_as_xyz
  1  'x, y, z'
loop_
 _atom_site_type_symbol
 _atom_site_label
 _atom_site_symmetry_multiplicity
 _atom_site_fract_x
 _atom_site_fract_y
 _atom_site_fract_z
 _atom_site_occupancy
  Nd  Nd0  1  0.999930  0.999930  0.999930  1
  Ho  Ho1  1  0.582722  0.582722  0.582722  1
  Ho  Ho2  1  0.417286  0.417286  0.417286  1
  Ho  Ho3  1  0.749890  0.749890  0.749890  1
  Er  Er4  1  0.249834  0.249834  0.249834  1
  Fe  Fe5  1  0.883513  0.883513  0.883513  1
  Fe  Fe6  1  0.116513  0.116513  0.116513  1
  B  B7  1  0.499878  0.832426  0.167852  1
  B  B8  1  0.167852  0.499878  0.832426  1
  B  B9  1  0.832426  0.167852  0.499878  1
  B  B10  1  0.499878  0.167852  0.832426  1
  B  B11  1  0.832426  0.499878  0.167852  1
  B  B12  1  0.167852  0.832426  0.499878  1
