# generated using pymatgen
data_Yb3Hf5(Si4Mo3)4
_symmetry_space_group_name_H-M   'P 1'
_cell_length_a   6.63544083
_cell_length_b   6.79996673
_cell_length_c   12.77937292
_cell_angle_alpha   90.23066760
_cell_angle_beta   89.90467639
_cell_angle_gamma   90.13494804
_symmetry_Int_Tables_number   1
_chemical_formula_structural   Yb3Hf5(Si4Mo3)4
_chemical_formula_sum   'Yb3 Hf5 Si16 Mo12'
_cell_volume   576.60817316
_cell_formula_units_Z   1
loop_
 _symmetry_equiv_pos_site_id
 _symmetry_equiv_pos_as_xyz
  1  'x, y, z'
loop_
 _atom_site_type_symbol
 _atom_site_label
 _atom_site_symmetry_multiplicity
 _atom_site_fract_x
 _atom_site_fract_y
 _atom_site_fract_z
 _atom_site_occupancy
  Yb  Yb0  1  0.994962  0.162900  0.089184  1
  Yb  Yb1  1  0.002966  0.835212  0.911117  1
  Yb  Yb2  1  0.503305  0.666479  0.908787  1
  Hf  Hf3  1  0.002971  0.831409  0.593033  1
  Hf  Hf4  1  0.494415  0.329331  0.098029  1
  Hf  Hf5  1  0.994985  0.169376  0.406880  1
  Hf  Hf6  1  0.494599  0.331020  0.407608  1
  Hf  Hf7  1  0.503627  0.669369  0.592992  1
  Si  Si8  1  0.035676  0.127708  0.748145  1
  Si  Si9  1  0.966890  0.871528  0.251051  1
  Si  Si10  1  0.465691  0.627158  0.251157  1
  Si  Si11  1  0.535292  0.375392  0.746335  1
  Si  Si12  1  0.301305  0.863367  0.749174  1
  Si  Si13  1  0.698162  0.138053  0.251079  1
  Si  Si14  1  0.197782  0.361487  0.251549  1
  Si  Si15  1  0.802085  0.638235  0.749209  1
  Si  Si16  1  0.168647  0.458505  0.541730  1
  Si  Si17  1  0.831903  0.542036  0.457228  1
  Si  Si18  1  0.332777  0.958145  0.457351  1
  Si  Si19  1  0.834926  0.536828  0.048766  1
  Si  Si20  1  0.666914  0.041199  0.540793  1
  Si  Si21  1  0.161740  0.458965  0.954237  1
  Si  Si22  1  0.656026  0.044711  0.954699  1
  Si  Si23  1  0.344046  0.961858  0.048499  1
  Mo  Mo24  1  0.167155  0.504932  0.743513  1
  Mo  Mo25  1  0.831488  0.492633  0.254548  1
  Mo  Mo26  1  0.334439  0.010331  0.253734  1
  Mo  Mo27  1  0.666804  0.997055  0.742821  1
  Mo  Mo28  1  0.331939  0.161766  0.621101  1
  Mo  Mo29  1  0.668826  0.839066  0.377156  1
  Mo  Mo30  1  0.169213  0.660560  0.378599  1
  Mo  Mo31  1  0.667899  0.834649  0.127999  1
  Mo  Mo32  1  0.833315  0.336357  0.619734  1
  Mo  Mo33  1  0.335177  0.170935  0.872928  1
  Mo  Mo34  1  0.831742  0.332309  0.870984  1
  Mo  Mo35  1  0.170313  0.659132  0.128255  1
