# generated using pymatgen
data_Ti3Al3PdRu5
_symmetry_space_group_name_H-M   'P 1'
_cell_length_a   4.31752700
_cell_length_b   6.15732500
_cell_length_c   12.87314100
_cell_angle_alpha   90.00013190
_cell_angle_beta   89.99992013
_cell_angle_gamma   89.99981405
_symmetry_Int_Tables_number   1
_chemical_formula_structural   Ti3Al3PdRu5
_chemical_formula_sum   'Ti6 Al6 Pd2 Ru10'
_cell_volume   342.22494761
_cell_formula_units_Z   2
loop_
 _symmetry_equiv_pos_site_id
 _symmetry_equiv_pos_as_xyz
  1  'x, y, z'
loop_
 _atom_site_type_symbol
 _atom_site_label
 _atom_site_symmetry_multiplicity
 _atom_site_fract_x
 _atom_site_fract_y
 _atom_site_fract_z
 _atom_site_occupancy
  Ti  Ti0  1  0.000024  0.999999  0.009335  1
  Ti  Ti1  1  0.500130  0.500000  0.167419  1
  Ti  Ti2  1  0.000145  0.000001  0.333339  1
  Ti  Ti3  1  0.499998  0.499999  0.499247  1
  Ti  Ti4  1  0.999876  0.000000  0.657327  1
  Ti  Ti5  1  0.499848  0.500000  0.833334  1
  Al  Al6  1  0.000007  0.500000  0.004041  1
  Al  Al7  1  0.500131  0.000000  0.166636  1
  Al  Al8  1  0.000163  0.500000  0.333331  1
  Al  Al9  1  0.499994  0.000000  0.500031  1
  Al  Al10  1  0.999872  0.500001  0.662633  1
  Al  Al11  1  0.499833  0.000000  0.833331  1
  Pd  Pd12  1  0.999862  0.250316  0.833326  1
  Pd  Pd13  1  0.999862  0.749683  0.833327  1
  Ru  Ru14  1  0.500010  0.249641  0.996423  1
  Ru  Ru15  1  0.500008  0.750359  0.996422  1
  Ru  Ru16  1  0.000125  0.249630  0.165850  1
  Ru  Ru17  1  0.000123  0.750371  0.165850  1
  Ru  Ru18  1  0.500138  0.249350  0.333341  1
  Ru  Ru19  1  0.500138  0.750650  0.333341  1
  Ru  Ru20  1  0.999998  0.249637  0.500822  1
  Ru  Ru21  1  0.999998  0.750363  0.500821  1
  Ru  Ru22  1  0.499860  0.249650  0.670236  1
  Ru  Ru23  1  0.499862  0.750351  0.670236  1
