# generated using pymatgen
data_Yb16Zr4(Ir3Pd)3
_symmetry_space_group_name_H-M   'P 1'
_cell_length_a   6.25105600
_cell_length_b   10.88519400
_cell_length_c   10.88519400
_cell_angle_alpha   90.00000000
_cell_angle_beta   90.00000000
_cell_angle_gamma   90.00000000
_symmetry_Int_Tables_number   1
_chemical_formula_structural   Yb16Zr4(Ir3Pd)3
_chemical_formula_sum   'Yb16 Zr4 Ir9 Pd3'
_cell_volume   740.67167536
_cell_formula_units_Z   1
loop_
 _symmetry_equiv_pos_site_id
 _symmetry_equiv_pos_as_xyz
  1  'x, y, z'
loop_
 _atom_site_type_symbol
 _atom_site_label
 _atom_site_symmetry_multiplicity
 _atom_site_fract_x
 _atom_site_fract_y
 _atom_site_fract_z
 _atom_site_occupancy
  Yb  Yb0  1  0.358251  0.834807  0.535124  1
  Yb  Yb1  1  0.857927  0.664751  0.534424  1
  Yb  Yb2  1  0.857927  0.835249  0.965576  1
  Yb  Yb3  1  0.358251  0.665193  0.964876  1
  Yb  Yb4  1  0.857927  0.534424  0.835249  1
  Yb  Yb5  1  0.358251  0.964876  0.834807  1
  Yb  Yb6  1  0.358251  0.535124  0.665193  1
  Yb  Yb7  1  0.857927  0.965576  0.664751  1
  Yb  Yb8  1  0.633286  0.167036  0.460614  1
  Yb  Yb9  1  0.146732  0.332475  0.462169  1
  Yb  Yb10  1  0.146732  0.167525  0.037832  1
  Yb  Yb11  1  0.633286  0.332964  0.039387  1
  Yb  Yb12  1  0.146732  0.462169  0.167525  1
  Yb  Yb13  1  0.633286  0.039387  0.167036  1
  Yb  Yb14  1  0.633286  0.460614  0.332964  1
  Yb  Yb15  1  0.146732  0.037832  0.332475  1
  Zr  Zr16  1  0.501240  0.750000  0.250000  1
  Zr  Zr17  1  0.001390  0.750000  0.250000  1
  Zr  Zr18  1  0.001390  0.250000  0.750000  1
  Zr  Zr19  1  0.501240  0.250000  0.750000  1
  Ir  Ir20  1  0.251004  0.888436  0.108442  1
  Ir  Ir21  1  0.751250  0.609754  0.111042  1
  Ir  Ir22  1  0.751250  0.890246  0.388958  1
  Ir  Ir23  1  0.251004  0.611564  0.391558  1
  Ir  Ir24  1  0.751250  0.111042  0.890246  1
  Ir  Ir25  1  0.251004  0.391558  0.888436  1
  Ir  Ir26  1  0.251004  0.108442  0.611564  1
  Ir  Ir27  1  0.751250  0.388958  0.609754  1
  Ir  Ir28  1  0.387901  0.250000  0.250000  1
  Pd  Pd29  1  0.110774  0.750000  0.750000  1
  Pd  Pd30  1  0.612282  0.750000  0.750000  1
  Pd  Pd31  1  0.889980  0.250000  0.250000  1
