# generated using pymatgen
data_Rb5In3Sb4
_symmetry_space_group_name_H-M   'P 1'
_cell_length_a   12.86525500
_cell_length_b   17.78639776
_cell_length_c   19.03236600
_cell_angle_alpha   62.77409556
_cell_angle_beta   90.00000000
_cell_angle_gamma   90.00000000
_symmetry_Int_Tables_number   1
_chemical_formula_structural   Rb5In3Sb4
_chemical_formula_sum   'Rb40 In24 Sb32'
_cell_volume   3872.60616457
_cell_formula_units_Z   8
loop_
 _symmetry_equiv_pos_site_id
 _symmetry_equiv_pos_as_xyz
  1  'x, y, z'
loop_
 _atom_site_type_symbol
 _atom_site_label
 _atom_site_symmetry_multiplicity
 _atom_site_fract_x
 _atom_site_fract_y
 _atom_site_fract_z
 _atom_site_occupancy
  Rb  Rb0  1  0.364983  0.789293  0.402354  1
  Rb  Rb1  1  0.634096  0.444036  0.136749  1
  Rb  Rb2  1  0.134096  0.555964  0.363251  1
  Rb  Rb3  1  0.411979  0.251971  0.311101  1
  Rb  Rb4  1  0.381302  0.203490  0.108475  1
  Rb  Rb5  1  0.856598  0.641896  0.037748  1
  Rb  Rb6  1  0.873201  0.759774  0.789380  1
  Rb  Rb7  1  0.618698  0.796510  0.891525  1
  Rb  Rb8  1  0.881302  0.796510  0.391525  1
  Rb  Rb9  1  0.338718  0.750457  0.186507  1
  Rb  Rb10  1  0.865904  0.444036  0.636749  1
  Rb  Rb11  1  0.127502  0.100122  0.462059  1
  Rb  Rb12  1  0.627502  0.899878  0.037941  1
  Rb  Rb13  1  0.373201  0.240226  0.710620  1
  Rb  Rb14  1  0.143402  0.358104  0.962252  1
  Rb  Rb15  1  0.624215  0.077787  0.466009  1
  Rb  Rb16  1  0.396700  0.640550  0.034836  1
  Rb  Rb17  1  0.118698  0.203490  0.608475  1
  Rb  Rb18  1  0.124215  0.922213  0.033991  1
  Rb  Rb19  1  0.838718  0.249543  0.313493  1
  Rb  Rb20  1  0.588021  0.748029  0.688899  1
  Rb  Rb21  1  0.661282  0.249543  0.813493  1
  Rb  Rb22  1  0.643402  0.641896  0.537748  1
  Rb  Rb23  1  0.603300  0.359450  0.965164  1
  Rb  Rb24  1  0.161282  0.750457  0.686507  1
  Rb  Rb25  1  0.875785  0.077787  0.966009  1
  Rb  Rb26  1  0.911979  0.748029  0.188899  1
  Rb  Rb27  1  0.126799  0.240226  0.210620  1
  Rb  Rb28  1  0.375785  0.922213  0.533991  1
  Rb  Rb29  1  0.372498  0.100122  0.962059  1
  Rb  Rb30  1  0.103300  0.640550  0.534836  1
  Rb  Rb31  1  0.135017  0.789293  0.902354  1
  Rb  Rb32  1  0.635017  0.210707  0.597646  1
  Rb  Rb33  1  0.896700  0.359450  0.465164  1
  Rb  Rb34  1  0.365904  0.555964  0.863251  1
  Rb  Rb35  1  0.872498  0.899878  0.537941  1
  Rb  Rb36  1  0.356598  0.358104  0.462252  1
  Rb  Rb37  1  0.864983  0.210707  0.097646  1
  Rb  Rb38  1  0.626799  0.759774  0.289380  1
  Rb  Rb39  1  0.088021  0.251971  0.811101  1
  In  In40  1  0.995121  0.996004  0.200176  1
  In  In41  1  0.504879  0.996004  0.700176  1
  In  In42  1  0.004879  0.003996  0.799824  1
  In  In43  1  0.495121  0.003996  0.299824  1
  In  In44  1  0.124922  0.906259  0.405134  1
  In  In45  1  0.624922  0.093741  0.094866  1
  In  In46  1  0.873323  0.495402  0.946884  1
  In  In47  1  0.770608  0.531546  0.276439  1
  In  In48  1  0.027540  0.521595  0.773075  1
  In  In49  1  0.375078  0.906259  0.905134  1
  In  In50  1  0.972460  0.478405  0.226925  1
  In  In51  1  0.229392  0.468454  0.723561  1
  In  In52  1  0.729392  0.531546  0.776439  1
  In  In53  1  0.747876  0.006326  0.801568  1
  In  In54  1  0.252124  0.993674  0.198432  1
  In  In55  1  0.270608  0.468454  0.223561  1
  In  In56  1  0.373323  0.504598  0.553116  1
  In  In57  1  0.626677  0.495402  0.446884  1
  In  In58  1  0.247876  0.993674  0.698432  1
  In  In59  1  0.875078  0.093741  0.594866  1
  In  In60  1  0.126677  0.504598  0.053116  1
  In  In61  1  0.527540  0.478405  0.726925  1
  In  In62  1  0.472460  0.521595  0.273075  1
  In  In63  1  0.752124  0.006326  0.301568  1
  Sb  Sb64  1  0.128713  0.618982  0.130672  1
  Sb  Sb65  1  0.825502  0.582823  0.401044  1
  Sb  Sb66  1  0.881827  0.647423  0.657971  1
  Sb  Sb67  1  0.432993  0.596318  0.386170  1
  Sb  Sb68  1  0.623517  0.161495  0.228292  1
  Sb  Sb69  1  0.462577  0.951818  0.173732  1
  Sb  Sb70  1  0.932993  0.403682  0.113830  1
  Sb  Sb71  1  0.325502  0.417177  0.098956  1
  Sb  Sb72  1  0.371287  0.618982  0.630672  1
  Sb  Sb73  1  0.567007  0.403682  0.613830  1
  Sb  Sb74  1  0.628713  0.381018  0.369328  1
  Sb  Sb75  1  0.376483  0.838505  0.771708  1
  Sb  Sb76  1  0.118173  0.352577  0.342029  1
  Sb  Sb77  1  0.123517  0.838505  0.271708  1
  Sb  Sb78  1  0.174498  0.417177  0.598956  1
  Sb  Sb79  1  0.876483  0.161495  0.728292  1
  Sb  Sb80  1  0.037423  0.951818  0.673732  1
  Sb  Sb81  1  0.378310  0.115886  0.567407  1
  Sb  Sb82  1  0.785342  0.951332  0.177604  1
  Sb  Sb83  1  0.962577  0.048182  0.326268  1
  Sb  Sb84  1  0.878310  0.884114  0.932593  1
  Sb  Sb85  1  0.871287  0.381018  0.869328  1
  Sb  Sb86  1  0.618173  0.647423  0.157971  1
  Sb  Sb87  1  0.067007  0.596318  0.886170  1
  Sb  Sb88  1  0.121690  0.115886  0.067407  1
  Sb  Sb89  1  0.714658  0.951332  0.677604  1
  Sb  Sb90  1  0.214658  0.048668  0.822396  1
  Sb  Sb91  1  0.285342  0.048668  0.322396  1
  Sb  Sb92  1  0.381827  0.352577  0.842029  1
  Sb  Sb93  1  0.621690  0.884114  0.432593  1
  Sb  Sb94  1  0.537423  0.048182  0.826268  1
  Sb  Sb95  1  0.674498  0.582823  0.901044  1
