# generated using pymatgen
data_La3Ho4Er3C4I15
_symmetry_space_group_name_H-M   'P 1'
_cell_length_a   9.69700130
_cell_length_b   10.46854417
_cell_length_c   11.63320219
_cell_angle_alpha   93.18174070
_cell_angle_beta   114.17580374
_cell_angle_gamma   109.45361691
_symmetry_Int_Tables_number   1
_chemical_formula_structural   La3Ho4Er3C4I15
_chemical_formula_sum   'La3 Ho4 Er3 C4 I15'
_cell_volume   990.24750469
_cell_formula_units_Z   1
loop_
 _symmetry_equiv_pos_site_id
 _symmetry_equiv_pos_as_xyz
  1  'x, y, z'
loop_
 _atom_site_type_symbol
 _atom_site_label
 _atom_site_symmetry_multiplicity
 _atom_site_fract_x
 _atom_site_fract_y
 _atom_site_fract_z
 _atom_site_occupancy
  La  La0  1  0.705181  0.568386  0.044576  1
  La  La1  1  0.293448  0.433121  0.955453  1
  La  La2  1  0.665234  0.254589  0.836177  1
  Ho  Ho3  1  0.589597  0.542474  0.335564  1
  Ho  Ho4  1  0.352252  0.742074  0.162166  1
  Ho  Ho5  1  0.764654  0.871520  0.251019  1
  Ho  Ho6  1  0.525606  0.186939  0.097556  1
  Er  Er7  1  0.240403  0.128053  0.752379  1
  Er  Er8  1  0.406524  0.457018  0.664347  1
  Er  Er9  1  0.473357  0.814083  0.902273  1
  C  C10  1  0.482097  0.296453  0.937945  1
  C  C11  1  0.517246  0.706087  0.061888  1
  C  C12  1  0.453372  0.361426  0.831915  1
  C  C13  1  0.544932  0.638917  0.167322  1
  I  I14  1  0.219834  0.909375  0.940914  1
  I  I15  1  0.116251  0.195399  0.483550  1
  I  I16  1  0.168975  0.568009  0.698279  1
  I  I17  1  0.392055  0.962651  0.653590  1
  I  I18  1  0.694926  0.738303  0.809316  1
  I  I19  1  0.300370  0.261126  0.188182  1
  I  I20  1  0.829724  0.431671  0.302162  1
  I  I21  1  0.882697  0.803220  0.519389  1
  I  I22  1  0.357181  0.626968  0.405402  1
  I  I23  1  0.050603  0.844753  0.226370  1
  I  I24  1  0.783555  0.086444  0.069277  1
  I  I25  1  0.636754  0.381903  0.582793  1
  I  I26  1  0.951131  0.154035  0.774416  1
  I  I27  1  0.590335  0.022657  0.339020  1
  I  I28  1  0.011702  0.512348  0.006757  1
