# generated using pymatgen
data_KAc(WO4)2
_symmetry_space_group_name_H-M   'P 1'
_cell_length_a   8.00299168
_cell_length_b   8.00299240
_cell_length_c   7.63638893
_cell_angle_alpha   62.47076150
_cell_angle_beta   62.47075414
_cell_angle_gamma   89.31114266
_symmetry_Int_Tables_number   1
_chemical_formula_structural   KAc(WO4)2
_chemical_formula_sum   'K2 Ac2 W4 O16'
_cell_volume   371.75438219
_cell_formula_units_Z   2
loop_
 _symmetry_equiv_pos_site_id
 _symmetry_equiv_pos_as_xyz
  1  'x, y, z'
loop_
 _atom_site_type_symbol
 _atom_site_label
 _atom_site_symmetry_multiplicity
 _atom_site_fract_x
 _atom_site_fract_y
 _atom_site_fract_z
 _atom_site_occupancy
  K  K0  1  0.716652  0.283348  0.250000  1
  K  K1  1  0.283348  0.716652  0.750000  1
  Ac  Ac2  1  0.723659  0.276341  0.750000  1
  Ac  Ac3  1  0.276341  0.723659  0.250000  1
  W  W4  1  0.186141  0.193541  0.786006  1
  W  W5  1  0.193541  0.186141  0.286006  1
  W  W6  1  0.806459  0.813859  0.713994  1
  W  W7  1  0.813859  0.806459  0.213994  1
  O  O8  1  0.444707  0.268151  0.684165  1
  O  O9  1  0.731849  0.555293  0.815835  1
  O  O10  1  0.555293  0.731849  0.315835  1
  O  O11  1  0.268151  0.444707  0.184165  1
  O  O12  1  0.124964  0.427018  0.647647  1
  O  O13  1  0.572982  0.875036  0.852353  1
  O  O14  1  0.875036  0.572982  0.352353  1
  O  O15  1  0.427018  0.124964  0.147647  1
  O  O16  1  0.130239  0.234646  0.060406  1
  O  O17  1  0.765354  0.869761  0.439594  1
  O  O18  1  0.869761  0.765354  0.939594  1
  O  O19  1  0.234646  0.130239  0.560406  1
  O  O20  1  0.087769  0.875193  0.479329  1
  O  O21  1  0.124807  0.912231  0.020671  1
  O  O22  1  0.912231  0.124807  0.520671  1
  O  O23  1  0.875193  0.087769  0.979329  1
