# generated using pymatgen
data_LiNpN2
_symmetry_space_group_name_H-M   'P 1'
_cell_length_a   22.18057801
_cell_length_b   4.31680000
_cell_length_c   4.31845301
_cell_angle_alpha   90.00190969
_cell_angle_beta   89.99852367
_cell_angle_gamma   90.00209505
_symmetry_Int_Tables_number   1
_chemical_formula_structural   LiNpN2
_chemical_formula_sum   'Li8 Np8 N16'
_cell_volume   413.48807165
_cell_formula_units_Z   8
loop_
 _symmetry_equiv_pos_site_id
 _symmetry_equiv_pos_as_xyz
  1  'x, y, z'
loop_
 _atom_site_type_symbol
 _atom_site_label
 _atom_site_symmetry_multiplicity
 _atom_site_fract_x
 _atom_site_fract_y
 _atom_site_fract_z
 _atom_site_occupancy
  Li  Li0  1  0.187067  0.997758  0.745507  1
  Li  Li1  1  0.812933  0.002242  0.254493  1
  Li  Li2  1  0.312889  0.997747  0.245496  1
  Li  Li3  1  0.687111  0.002253  0.754504  1
  Li  Li4  1  0.062565  0.498609  0.748682  1
  Li  Li5  1  0.937435  0.501391  0.251318  1
  Li  Li6  1  0.437337  0.498607  0.248686  1
  Li  Li7  1  0.562663  0.501393  0.751314  1
  Np  Np8  1  0.437525  0.998613  0.749225  1
  Np  Np9  1  0.562475  0.001387  0.250775  1
  Np  Np10  1  0.062465  0.998599  0.249225  1
  Np  Np11  1  0.937535  0.001401  0.750775  1
  Np  Np12  1  0.312482  0.498057  0.745817  1
  Np  Np13  1  0.687518  0.501943  0.254183  1
  Np  Np14  1  0.187487  0.498080  0.245830  1
  Np  Np15  1  0.812513  0.501920  0.754170  1
  N  N16  1  0.332893  0.997917  0.745790  1
  N  N17  1  0.667107  0.002083  0.254210  1
  N  N18  1  0.167027  0.997932  0.245786  1
  N  N19  1  0.832973  0.002068  0.754214  1
  N  N20  1  0.417245  0.498482  0.748616  1
  N  N21  1  0.582755  0.501518  0.251384  1
  N  N22  1  0.082669  0.498472  0.248622  1
  N  N23  1  0.917331  0.501528  0.751378  1
  N  N24  1  0.042269  0.998869  0.749200  1
  N  N25  1  0.957731  0.001131  0.250800  1
  N  N26  1  0.457716  0.998873  0.249206  1
  N  N27  1  0.542284  0.001127  0.750794  1
  N  N28  1  0.207686  0.497833  0.745432  1
  N  N29  1  0.792314  0.502167  0.254568  1
  N  N30  1  0.292331  0.497826  0.245436  1
  N  N31  1  0.707669  0.502174  0.754564  1
