# generated using pymatgen
data_LiEr4Tc5Ge8
_symmetry_space_group_name_H-M   'P 1'
_cell_length_a   6.91067632
_cell_length_b   6.92694657
_cell_length_c   6.94952188
_cell_angle_alpha   69.75695064
_cell_angle_beta   89.97301169
_cell_angle_gamma   89.95861348
_symmetry_Int_Tables_number   1
_chemical_formula_structural   LiEr4Tc5Ge8
_chemical_formula_sum   'Li1 Er4 Tc5 Ge8'
_cell_volume   312.12463089
_cell_formula_units_Z   1
loop_
 _symmetry_equiv_pos_site_id
 _symmetry_equiv_pos_as_xyz
  1  'x, y, z'
loop_
 _atom_site_type_symbol
 _atom_site_label
 _atom_site_symmetry_multiplicity
 _atom_site_fract_x
 _atom_site_fract_y
 _atom_site_fract_z
 _atom_site_occupancy
  Li  Li0  1  0.353736  0.750940  0.254634  1
  Er  Er1  1  0.671793  0.442251  0.197149  1
  Er  Er2  1  0.169353  0.056503  0.805589  1
  Er  Er3  1  0.325653  0.552651  0.806751  1
  Er  Er4  1  0.827863  0.944616  0.189259  1
  Tc  Tc5  1  0.504357  0.996335  0.498264  1
  Tc  Tc6  1  0.995078  0.504025  0.500619  1
  Tc  Tc7  1  0.149092  0.243578  0.231404  1
  Tc  Tc8  1  0.646382  0.243953  0.758051  1
  Tc  Tc9  1  0.858770  0.764012  0.766035  1
  Ge  Ge10  1  0.449554  0.142002  0.096931  1
  Ge  Ge11  1  0.940138  0.372137  0.898184  1
  Ge  Ge12  1  0.547564  0.861216  0.895586  1
  Ge  Ge13  1  0.058319  0.627986  0.103616  1
  Ge  Ge14  1  0.861272  0.135754  0.506708  1
  Ge  Ge15  1  0.353799  0.365462  0.481531  1
  Ge  Ge16  1  0.140130  0.863921  0.488779  1
  Ge  Ge17  1  0.647146  0.632659  0.520906  1
