# generated using pymatgen
data_Dy5YNbCo17P12
_symmetry_space_group_name_H-M   'P 1'
_cell_length_a   3.69953500
_cell_length_b   10.56019800
_cell_length_c   12.26128600
_cell_angle_alpha   90.00000000
_cell_angle_beta   90.00000000
_cell_angle_gamma   90.00000000
_symmetry_Int_Tables_number   1
_chemical_formula_structural   Dy5YNbCo17P12
_chemical_formula_sum   'Dy5 Y1 Nb1 Co17 P12'
_cell_volume   479.02174026
_cell_formula_units_Z   1
loop_
 _symmetry_equiv_pos_site_id
 _symmetry_equiv_pos_as_xyz
  1  'x, y, z'
loop_
 _atom_site_type_symbol
 _atom_site_label
 _atom_site_symmetry_multiplicity
 _atom_site_fract_x
 _atom_site_fract_y
 _atom_site_fract_z
 _atom_site_occupancy
  Dy  Dy0  1  0.000000  0.500000  0.527138  1
  Dy  Dy1  1  0.500000  0.819559  0.207011  1
  Dy  Dy2  1  0.500000  0.180441  0.207011  1
  Dy  Dy3  1  0.000000  0.682957  0.795991  1
  Dy  Dy4  1  0.000000  0.317043  0.795991  1
  Y  Y5  1  0.500000  0.000000  0.478034  1
  Nb  Nb6  1  0.500000  0.500000  0.154705  1
  Co  Co7  1  0.000000  0.000000  0.838838  1
  Co  Co8  1  0.500000  0.500000  0.702107  1
  Co  Co9  1  0.000000  0.000000  0.296183  1
  Co  Co10  1  0.000000  0.500000  0.984067  1
  Co  Co11  1  0.500000  0.000000  0.014129  1
  Co  Co12  1  0.500000  0.329656  0.989345  1
  Co  Co13  1  0.500000  0.670344  0.989345  1
  Co  Co14  1  0.000000  0.163658  0.003782  1
  Co  Co15  1  0.000000  0.836342  0.003782  1
  Co  Co16  1  0.500000  0.295209  0.432967  1
  Co  Co17  1  0.500000  0.704791  0.432967  1
  Co  Co18  1  0.000000  0.202924  0.569815  1
  Co  Co19  1  0.000000  0.797076  0.569815  1
  Co  Co20  1  0.500000  0.879766  0.708385  1
  Co  Co21  1  0.500000  0.120234  0.708385  1
  Co  Co22  1  0.000000  0.622637  0.294695  1
  Co  Co23  1  0.000000  0.377363  0.294695  1
  P  P24  1  0.500000  0.500000  0.880878  1
  P  P25  1  0.000000  0.000000  0.116885  1
  P  P26  1  0.500000  0.500000  0.355838  1
  P  P27  1  0.000000  0.000000  0.656150  1
  P  P28  1  0.500000  0.309552  0.617195  1
  P  P29  1  0.500000  0.690448  0.617195  1
  P  P30  1  0.000000  0.188594  0.385656  1
  P  P31  1  0.000000  0.811406  0.385656  1
  P  P32  1  0.500000  0.851271  0.890114  1
  P  P33  1  0.500000  0.148729  0.890114  1
  P  P34  1  0.000000  0.660993  0.102567  1
  P  P35  1  0.000000  0.339007  0.102567  1
