# generated using pymatgen
data_YbCe(Si7Ir3)2
_symmetry_space_group_name_H-M   'P 1'
_cell_length_a   8.05176461
_cell_length_b   8.05176547
_cell_length_c   8.05176510
_cell_angle_alpha   56.72543331
_cell_angle_beta   56.72543144
_cell_angle_gamma   56.72543578
_symmetry_Int_Tables_number   1
_chemical_formula_structural   YbCe(Si7Ir3)2
_chemical_formula_sum   'Yb1 Ce1 Si14 Ir6'
_cell_volume   341.20523547
_cell_formula_units_Z   1
loop_
 _symmetry_equiv_pos_site_id
 _symmetry_equiv_pos_as_xyz
  1  'x, y, z'
loop_
 _atom_site_type_symbol
 _atom_site_label
 _atom_site_symmetry_multiplicity
 _atom_site_fract_x
 _atom_site_fract_y
 _atom_site_fract_z
 _atom_site_occupancy
  Yb  Yb0  1  0.000000  0.000000  0.000000  1
  Ce  Ce1  1  0.500000  0.500000  0.500000  1
  Si  Si2  1  0.064648  0.853236  0.673590  1
  Si  Si3  1  0.673590  0.064648  0.853236  1
  Si  Si4  1  0.853236  0.673590  0.064648  1
  Si  Si5  1  0.171494  0.347525  0.566469  1
  Si  Si6  1  0.566469  0.171494  0.347525  1
  Si  Si7  1  0.347525  0.566469  0.171494  1
  Si  Si8  1  0.935352  0.146764  0.326410  1
  Si  Si9  1  0.326410  0.935352  0.146764  1
  Si  Si10  1  0.146764  0.326410  0.935352  1
  Si  Si11  1  0.828506  0.652475  0.433531  1
  Si  Si12  1  0.433531  0.828506  0.652475  1
  Si  Si13  1  0.652475  0.433531  0.828506  1
  Si  Si14  1  0.749939  0.749939  0.749939  1
  Si  Si15  1  0.250061  0.250061  0.250061  1
  Ir  Ir16  1  0.071259  0.748265  0.432449  1
  Ir  Ir17  1  0.432449  0.071259  0.748265  1
  Ir  Ir18  1  0.748265  0.432449  0.071259  1
  Ir  Ir19  1  0.928741  0.251735  0.567551  1
  Ir  Ir20  1  0.567551  0.928741  0.251735  1
  Ir  Ir21  1  0.251735  0.567551  0.928741  1
