# generated using pymatgen
data_PrSm5(P2Rh3)6
_symmetry_space_group_name_H-M   'P 1'
_cell_length_a   3.95306200
_cell_length_b   11.27537000
_cell_length_c   12.87964100
_cell_angle_alpha   90.00000000
_cell_angle_beta   90.00000000
_cell_angle_gamma   90.00000000
_symmetry_Int_Tables_number   1
_chemical_formula_structural   PrSm5(P2Rh3)6
_chemical_formula_sum   'Pr1 Sm5 P12 Rh18'
_cell_volume   574.07440704
_cell_formula_units_Z   1
loop_
 _symmetry_equiv_pos_site_id
 _symmetry_equiv_pos_as_xyz
  1  'x, y, z'
loop_
 _atom_site_type_symbol
 _atom_site_label
 _atom_site_symmetry_multiplicity
 _atom_site_fract_x
 _atom_site_fract_y
 _atom_site_fract_z
 _atom_site_occupancy
  Pr  Pr0  1  0.000000  0.500000  0.520975  1
  Sm  Sm1  1  0.500000  0.000000  0.479452  1
  Sm  Sm2  1  0.500000  0.814996  0.204544  1
  Sm  Sm3  1  0.500000  0.185004  0.204544  1
  Sm  Sm4  1  0.000000  0.685411  0.795667  1
  Sm  Sm5  1  0.000000  0.314589  0.795667  1
  P  P6  1  0.500000  0.500000  0.880425  1
  P  P7  1  0.000000  0.000000  0.120218  1
  P  P8  1  0.500000  0.500000  0.346923  1
  P  P9  1  0.000000  0.000000  0.650901  1
  P  P10  1  0.500000  0.312477  0.618437  1
  P  P11  1  0.500000  0.687523  0.618437  1
  P  P12  1  0.000000  0.185981  0.382303  1
  P  P13  1  0.000000  0.814019  0.382303  1
  P  P14  1  0.500000  0.847294  0.893539  1
  P  P15  1  0.500000  0.152706  0.893539  1
  P  P16  1  0.000000  0.653129  0.106338  1
  P  P17  1  0.000000  0.346871  0.106338  1
  Rh  Rh18  1  0.500000  0.500000  0.167858  1
  Rh  Rh19  1  0.000000  0.000000  0.830871  1
  Rh  Rh20  1  0.500000  0.500000  0.703369  1
  Rh  Rh21  1  0.000000  0.000000  0.298235  1
  Rh  Rh22  1  0.000000  0.500000  0.980738  1
  Rh  Rh23  1  0.500000  0.000000  0.019637  1
  Rh  Rh24  1  0.500000  0.334296  0.994676  1
  Rh  Rh25  1  0.500000  0.665704  0.994676  1
  Rh  Rh26  1  0.000000  0.165349  0.005121  1
  Rh  Rh27  1  0.000000  0.834651  0.005121  1
  Rh  Rh28  1  0.500000  0.291506  0.430241  1
  Rh  Rh29  1  0.500000  0.708494  0.430241  1
  Rh  Rh30  1  0.000000  0.205171  0.569616  1
  Rh  Rh31  1  0.000000  0.794829  0.569616  1
  Rh  Rh32  1  0.500000  0.874443  0.711341  1
  Rh  Rh33  1  0.500000  0.125557  0.711341  1
  Rh  Rh34  1  0.000000  0.626050  0.288374  1
  Rh  Rh35  1  0.000000  0.373950  0.288374  1
