# generated using pymatgen
data_YHo2Hf(Al3Ir)6
_symmetry_space_group_name_H-M   'P 1'
_cell_length_a   7.53921074
_cell_length_b   7.52990014
_cell_length_c   9.39275800
_cell_angle_alpha   90.00000000
_cell_angle_beta   90.00000000
_cell_angle_gamma   119.62745024
_symmetry_Int_Tables_number   1
_chemical_formula_structural   YHo2Hf(Al3Ir)6
_chemical_formula_sum   'Y1 Ho2 Hf1 Al18 Ir6'
_cell_volume   463.50777183
_cell_formula_units_Z   1
loop_
 _symmetry_equiv_pos_site_id
 _symmetry_equiv_pos_as_xyz
  1  'x, y, z'
loop_
 _atom_site_type_symbol
 _atom_site_label
 _atom_site_symmetry_multiplicity
 _atom_site_fract_x
 _atom_site_fract_y
 _atom_site_fract_z
 _atom_site_occupancy
  Y  Y0  1  0.994595  0.672777  0.250000  1
  Ho  Ho1  1  0.670932  0.993653  0.250000  1
  Ho  Ho2  1  0.328576  0.004218  0.750000  1
  Hf  Hf3  1  0.002385  0.326455  0.750000  1
  Al  Al4  1  0.128977  0.130459  0.250000  1
  Al  Al5  1  0.873756  0.876312  0.750000  1
  Al  Al6  1  0.000723  0.335026  0.070560  1
  Al  Al7  1  0.999848  0.661979  0.920440  1
  Al  Al8  1  0.999848  0.661979  0.579560  1
  Al  Al9  1  0.335578  0.001813  0.425873  1
  Al  Al10  1  0.000723  0.335026  0.429440  1
  Al  Al11  1  0.667302  0.001830  0.579455  1
  Al  Al12  1  0.667302  0.001830  0.920545  1
  Al  Al13  1  0.335578  0.001813  0.074127  1
  Al  Al14  1  0.331266  0.333322  0.557082  1
  Al  Al15  1  0.666454  0.666485  0.449282  1
  Al  Al16  1  0.666454  0.666485  0.050718  1
  Al  Al17  1  0.331266  0.333322  0.942918  1
  Al  Al18  1  0.339718  0.548171  0.250000  1
  Al  Al19  1  0.663822  0.450323  0.750000  1
  Al  Al20  1  0.548854  0.339847  0.250000  1
  Al  Al21  1  0.444866  0.655411  0.750000  1
  Ir  Ir22  1  0.672469  0.327597  0.998217  1
  Ir  Ir23  1  0.327385  0.671597  0.998899  1
  Ir  Ir24  1  0.327385  0.671597  0.501101  1
  Ir  Ir25  1  0.672469  0.327597  0.501783  1
  Ir  Ir26  1  0.000734  0.001539  0.998566  1
  Ir  Ir27  1  0.000734  0.001539  0.501434  1
