# generated using pymatgen
data_Dy3Sc3FeTe2
_symmetry_space_group_name_H-M   'P 1'
_cell_length_a   7.93262300
_cell_length_b   7.93262358
_cell_length_c   4.00847000
_cell_angle_alpha   90.00000000
_cell_angle_beta   90.00000000
_cell_angle_gamma   119.99999339
_symmetry_Int_Tables_number   1
_chemical_formula_structural   Dy3Sc3FeTe2
_chemical_formula_sum   'Dy3 Sc3 Fe1 Te2'
_cell_volume   218.44542819
_cell_formula_units_Z   1
loop_
 _symmetry_equiv_pos_site_id
 _symmetry_equiv_pos_as_xyz
  1  'x, y, z'
loop_
 _atom_site_type_symbol
 _atom_site_label
 _atom_site_symmetry_multiplicity
 _atom_site_fract_x
 _atom_site_fract_y
 _atom_site_fract_z
 _atom_site_occupancy
  Dy  Dy0  1  0.611773  0.000000  0.000000  1
  Dy  Dy1  1  0.388227  0.388227  0.000000  1
  Dy  Dy2  1  0.000000  0.611773  0.000000  1
  Sc  Sc3  1  0.225092  0.000000  0.500000  1
  Sc  Sc4  1  0.774908  0.774908  0.500000  1
  Sc  Sc5  1  0.000000  0.225092  0.500000  1
  Fe  Fe6  1  0.000000  0.000000  0.000000  1
  Te  Te7  1  0.333333  0.666667  0.500000  1
  Te  Te8  1  0.666667  0.333333  0.500000  1
