# generated using pymatgen
data_Dy2Si7Pt11Rh
_symmetry_space_group_name_H-M   'P 1'
_cell_length_a   9.92742876
_cell_length_b   9.93773177
_cell_length_c   3.94090483
_cell_angle_alpha   89.85840397
_cell_angle_beta   90.18923994
_cell_angle_gamma   119.99235878
_symmetry_Int_Tables_number   1
_chemical_formula_structural   Dy2Si7Pt11Rh
_chemical_formula_sum   'Dy2 Si7 Pt11 Rh1'
_cell_volume   336.72975958
_cell_formula_units_Z   1
loop_
 _symmetry_equiv_pos_site_id
 _symmetry_equiv_pos_as_xyz
  1  'x, y, z'
loop_
 _atom_site_type_symbol
 _atom_site_label
 _atom_site_symmetry_multiplicity
 _atom_site_fract_x
 _atom_site_fract_y
 _atom_site_fract_z
 _atom_site_occupancy
  Dy  Dy0  1  0.333300  0.666707  0.750919  1
  Dy  Dy1  1  0.667520  0.332122  0.248744  1
  Si  Si2  1  0.998610  0.002640  0.496325  1
  Si  Si3  1  0.404264  0.287855  0.748152  1
  Si  Si4  1  0.715882  0.116419  0.750279  1
  Si  Si5  1  0.883480  0.595454  0.748250  1
  Si  Si6  1  0.595825  0.712623  0.251844  1
  Si  Si7  1  0.287840  0.883388  0.250970  1
  Si  Si8  1  0.111792  0.399943  0.251864  1
  Pt  Pt9  1  0.455853  0.075106  0.749349  1
  Pt  Pt10  1  0.927287  0.379585  0.750493  1
  Pt  Pt11  1  0.619779  0.545702  0.749163  1
  Pt  Pt12  1  0.546318  0.926346  0.250005  1
  Pt  Pt13  1  0.073450  0.619370  0.249535  1
  Pt  Pt14  1  0.379061  0.454520  0.248917  1
  Pt  Pt15  1  0.146707  0.262761  0.755867  1
  Pt  Pt16  1  0.739657  0.885388  0.756292  1
  Pt  Pt17  1  0.114192  0.854142  0.753744  1
  Pt  Pt18  1  0.854004  0.739729  0.243374  1
  Pt  Pt19  1  0.261293  0.114547  0.243893  1
  Rh  Rh20  1  0.883885  0.145653  0.252019  1
