# generated using pymatgen
data_Ta4Be2B4Ir3Ru7
_symmetry_space_group_name_H-M   'P 1'
_cell_length_a   9.27901819
_cell_length_b   9.17253225
_cell_length_c   2.94209800
_cell_angle_alpha   90.00000000
_cell_angle_beta   90.00000000
_cell_angle_gamma   90.10959932
_symmetry_Int_Tables_number   1
_chemical_formula_structural   Ta4Be2B4Ir3Ru7
_chemical_formula_sum   'Ta4 Be2 B4 Ir3 Ru7'
_cell_volume   250.40766219
_cell_formula_units_Z   1
loop_
 _symmetry_equiv_pos_site_id
 _symmetry_equiv_pos_as_xyz
  1  'x, y, z'
loop_
 _atom_site_type_symbol
 _atom_site_label
 _atom_site_symmetry_multiplicity
 _atom_site_fract_x
 _atom_site_fract_y
 _atom_site_fract_z
 _atom_site_occupancy
  Ta  Ta0  1  0.821688  0.674984  0.000000  1
  Ta  Ta1  1  0.172867  0.321858  0.000000  1
  Ta  Ta2  1  0.322586  0.824346  0.000000  1
  Ta  Ta3  1  0.681922  0.176720  0.000000  1
  Be  Be4  1  0.500599  0.499722  0.000000  1
  Be  Be5  1  0.999887  0.001914  0.000000  1
  B  B6  1  0.630259  0.877167  0.000000  1
  B  B7  1  0.369971  0.122961  0.000000  1
  B  B8  1  0.129240  0.623086  0.000000  1
  B  B9  1  0.871949  0.373001  0.000000  1
  Ir  Ir10  1  0.564872  0.707735  0.500000  1
  Ir  Ir11  1  0.433425  0.292400  0.500000  1
  Ir  Ir12  1  0.065443  0.793346  0.500000  1
  Ru  Ru13  1  0.933697  0.209261  0.500000  1
  Ru  Ru14  1  0.291070  0.566507  0.500000  1
  Ru  Ru15  1  0.708485  0.433862  0.500000  1
  Ru  Ru16  1  0.209133  0.066468  0.500000  1
  Ru  Ru17  1  0.791768  0.932312  0.500000  1
  Ru  Ru18  1  0.501560  0.001035  0.500000  1
  Ru  Ru19  1  0.999579  0.501316  0.500000  1
