# generated using pymatgen
data_Y2Mn6P7Ir6
_symmetry_space_group_name_H-M   'P 1'
_cell_length_a   9.40331100
_cell_length_b   9.40331057
_cell_length_c   3.85365600
_cell_angle_alpha   90.00000000
_cell_angle_beta   90.00000000
_cell_angle_gamma   119.99999799
_symmetry_Int_Tables_number   1
_chemical_formula_structural   Y2Mn6P7Ir6
_chemical_formula_sum   'Y2 Mn6 P7 Ir6'
_cell_volume   295.09725182
_cell_formula_units_Z   1
loop_
 _symmetry_equiv_pos_site_id
 _symmetry_equiv_pos_as_xyz
  1  'x, y, z'
loop_
 _atom_site_type_symbol
 _atom_site_label
 _atom_site_symmetry_multiplicity
 _atom_site_fract_x
 _atom_site_fract_y
 _atom_site_fract_z
 _atom_site_occupancy
  Y  Y0  1  0.000000  0.000000  0.000000  1
  Y  Y1  1  0.333333  0.666667  0.500000  1
  Mn  Mn2  1  0.777808  0.174977  0.000000  1
  Mn  Mn3  1  0.397168  0.222192  0.000000  1
  Mn  Mn4  1  0.825023  0.602832  0.000000  1
  Mn  Mn5  1  0.547483  0.118935  0.500000  1
  Mn  Mn6  1  0.571451  0.452517  0.500000  1
  Mn  Mn7  1  0.881065  0.428549  0.500000  1
  P  P8  1  0.555389  0.924160  0.000000  1
  P  P9  1  0.368771  0.444611  0.000000  1
  P  P10  1  0.075840  0.631229  0.000000  1
  P  P11  1  0.946306  0.216169  0.500000  1
  P  P12  1  0.269863  0.053694  0.500000  1
  P  P13  1  0.783831  0.730137  0.500000  1
  P  P14  1  0.666667  0.333333  0.000000  1
  Ir  Ir15  1  0.303448  0.906730  0.000000  1
  Ir  Ir16  1  0.603282  0.696552  0.000000  1
  Ir  Ir17  1  0.093270  0.396718  0.000000  1
  Ir  Ir18  1  0.722013  0.948089  0.500000  1
  Ir  Ir19  1  0.226077  0.277987  0.500000  1
  Ir  Ir20  1  0.051911  0.773923  0.500000  1
