# generated using pymatgen
data_Ho5Ta3Co16(SiP3)3
_symmetry_space_group_name_H-M   'P 1'
_cell_length_a   12.29307000
_cell_length_b   12.29306921
_cell_length_c   3.71714600
_cell_angle_alpha   90.00000000
_cell_angle_beta   90.00000000
_cell_angle_gamma   120.00000678
_symmetry_Int_Tables_number   1
_chemical_formula_structural   Ho5Ta3Co16(SiP3)3
_chemical_formula_sum   'Ho5 Ta3 Co16 Si3 P9'
_cell_volume   486.47542124
_cell_formula_units_Z   1
loop_
 _symmetry_equiv_pos_site_id
 _symmetry_equiv_pos_as_xyz
  1  'x, y, z'
loop_
 _atom_site_type_symbol
 _atom_site_label
 _atom_site_symmetry_multiplicity
 _atom_site_fract_x
 _atom_site_fract_y
 _atom_site_fract_z
 _atom_site_occupancy
  Ho  Ho0  1  0.666667  0.333333  0.000000  1
  Ho  Ho1  1  0.333333  0.666667  0.000000  1
  Ho  Ho2  1  0.817526  0.816020  0.500000  1
  Ho  Ho3  1  0.183980  0.001507  0.500000  1
  Ho  Ho4  1  0.998493  0.182474  0.500000  1
  Ta  Ta5  1  0.439727  0.442813  0.000000  1
  Ta  Ta6  1  0.557187  0.996914  0.000000  1
  Ta  Ta7  1  0.003086  0.560273  0.000000  1
  Co  Co8  1  0.881847  0.356657  0.500000  1
  Co  Co9  1  0.643343  0.525189  0.500000  1
  Co  Co10  1  0.474811  0.118153  0.500000  1
  Co  Co11  1  0.355741  0.871660  0.500000  1
  Co  Co12  1  0.515919  0.644259  0.500000  1
  Co  Co13  1  0.128340  0.484081  0.500000  1
  Co  Co14  1  0.804487  0.174634  0.000000  1
  Co  Co15  1  0.825366  0.629852  0.000000  1
  Co  Co16  1  0.370148  0.195513  0.000000  1
  Co  Co17  1  0.179475  0.804477  0.000000  1
  Co  Co18  1  0.625001  0.820525  0.000000  1
  Co  Co19  1  0.195523  0.374999  0.000000  1
  Co  Co20  1  0.276202  0.280925  0.500000  1
  Co  Co21  1  0.719075  0.995277  0.500000  1
  Co  Co22  1  0.004723  0.723798  0.500000  1
  Co  Co23  1  0.000000  0.000000  0.000000  1
  Si  Si24  1  0.690037  0.168951  0.500000  1
  Si  Si25  1  0.831049  0.521085  0.500000  1
  Si  Si26  1  0.478915  0.309963  0.500000  1
  P  P27  1  0.169679  0.690224  0.500000  1
  P  P28  1  0.520544  0.830321  0.500000  1
  P  P29  1  0.309776  0.479456  0.500000  1
  P  P30  1  0.177753  0.179319  0.000000  1
  P  P31  1  0.820681  0.998434  0.000000  1
  P  P32  1  0.001566  0.822247  0.000000  1
  P  P33  1  0.645370  0.644264  0.000000  1
  P  P34  1  0.355736  0.001106  0.000000  1
  P  P35  1  0.998894  0.354630  0.000000  1
