# generated using pymatgen
data_LiSc18Si16Tc
_symmetry_space_group_name_H-M   'P 1'
_cell_length_a   6.80071065
_cell_length_b   7.16304688
_cell_length_c   13.57380400
_cell_angle_alpha   90.00000000
_cell_angle_beta   90.00000000
_cell_angle_gamma   89.95492308
_symmetry_Int_Tables_number   1
_chemical_formula_structural   LiSc18Si16Tc
_chemical_formula_sum   'Li1 Sc18 Si16 Tc1'
_cell_volume   661.23149418
_cell_formula_units_Z   1
loop_
 _symmetry_equiv_pos_site_id
 _symmetry_equiv_pos_as_xyz
  1  'x, y, z'
loop_
 _atom_site_type_symbol
 _atom_site_label
 _atom_site_symmetry_multiplicity
 _atom_site_fract_x
 _atom_site_fract_y
 _atom_site_fract_z
 _atom_site_occupancy
  Li  Li0  1  0.843259  0.009495  0.250000  1
  Sc  Sc1  1  0.346857  0.493093  0.250000  1
  Sc  Sc2  1  0.652995  0.509851  0.750000  1
  Sc  Sc3  1  0.990451  0.686512  0.598954  1
  Sc  Sc4  1  0.011719  0.311865  0.406002  1
  Sc  Sc5  1  0.517182  0.177706  0.405061  1
  Sc  Sc6  1  0.011719  0.311865  0.093998  1
  Sc  Sc7  1  0.487972  0.823581  0.595695  1
  Sc  Sc8  1  0.990451  0.686512  0.901046  1
  Sc  Sc9  1  0.487972  0.823581  0.904305  1
  Sc  Sc10  1  0.517182  0.177706  0.094939  1
  Sc  Sc11  1  0.325566  0.323303  0.627209  1
  Sc  Sc12  1  0.676394  0.678750  0.373149  1
  Sc  Sc13  1  0.168785  0.829529  0.375495  1
  Sc  Sc14  1  0.676394  0.678750  0.126851  1
  Sc  Sc15  1  0.824472  0.171848  0.628666  1
  Sc  Sc16  1  0.325566  0.323303  0.872791  1
  Sc  Sc17  1  0.824472  0.171848  0.871334  1
  Sc  Sc18  1  0.168785  0.829529  0.124505  1
  Si  Si19  1  0.026075  0.396113  0.750000  1
  Si  Si20  1  0.976822  0.593061  0.250000  1
  Si  Si21  1  0.474094  0.899804  0.250000  1
  Si  Si22  1  0.514213  0.091432  0.750000  1
  Si  Si23  1  0.280796  0.652248  0.750000  1
  Si  Si24  1  0.720910  0.362208  0.250000  1
  Si  Si25  1  0.220027  0.134961  0.250000  1
  Si  Si26  1  0.792076  0.863879  0.750000  1
  Si  Si27  1  0.157743  0.028689  0.547967  1
  Si  Si28  1  0.837118  0.963935  0.466957  1
  Si  Si29  1  0.340799  0.532053  0.461775  1
  Si  Si30  1  0.837118  0.963935  0.033043  1
  Si  Si31  1  0.662487  0.469177  0.538222  1
  Si  Si32  1  0.157743  0.028689  0.952033  1
  Si  Si33  1  0.662487  0.469177  0.961778  1
  Si  Si34  1  0.340799  0.532053  0.038225  1
  Tc  Tc35  1  0.150501  0.999953  0.750000  1
