# generated using pymatgen
data_HoZr(Si7Ir3)2
_symmetry_space_group_name_H-M   'P 1'
_cell_length_a   8.01610772
_cell_length_b   8.01610831
_cell_length_c   8.01610715
_cell_angle_alpha   56.65199097
_cell_angle_beta   56.65197844
_cell_angle_gamma   56.65198369
_symmetry_Int_Tables_number   1
_chemical_formula_structural   HoZr(Si7Ir3)2
_chemical_formula_sum   'Ho1 Zr1 Si14 Ir6'
_cell_volume   336.06455482
_cell_formula_units_Z   1
loop_
 _symmetry_equiv_pos_site_id
 _symmetry_equiv_pos_as_xyz
  1  'x, y, z'
loop_
 _atom_site_type_symbol
 _atom_site_label
 _atom_site_symmetry_multiplicity
 _atom_site_fract_x
 _atom_site_fract_y
 _atom_site_fract_z
 _atom_site_occupancy
  Ho  Ho0  1  0.500000  0.500000  0.500000  1
  Zr  Zr1  1  0.000000  0.000000  0.000000  1
  Si  Si2  1  0.851730  0.062304  0.675408  1
  Si  Si3  1  0.675408  0.851730  0.062304  1
  Si  Si4  1  0.062304  0.675408  0.851730  1
  Si  Si5  1  0.649589  0.828628  0.433656  1
  Si  Si6  1  0.250160  0.250160  0.250160  1
  Si  Si7  1  0.749840  0.749840  0.749840  1
  Si  Si8  1  0.171372  0.566344  0.350411  1
  Si  Si9  1  0.566344  0.350411  0.171372  1
  Si  Si10  1  0.350411  0.171372  0.566344  1
  Si  Si11  1  0.937696  0.324592  0.148270  1
  Si  Si12  1  0.324592  0.148270  0.937696  1
  Si  Si13  1  0.148270  0.937696  0.324592  1
  Si  Si14  1  0.828628  0.433656  0.649589  1
  Si  Si15  1  0.433656  0.649589  0.828628  1
  Ir  Ir16  1  0.751281  0.070394  0.428069  1
  Ir  Ir17  1  0.428069  0.751281  0.070394  1
  Ir  Ir18  1  0.070394  0.428069  0.751281  1
  Ir  Ir19  1  0.248719  0.929606  0.571931  1
  Ir  Ir20  1  0.571931  0.248719  0.929606  1
  Ir  Ir21  1  0.929606  0.571931  0.248719  1
