# generated using pymatgen
data_CsRhOF4
_symmetry_space_group_name_H-M   'P 1'
_cell_length_a   6.79347600
_cell_length_b   5.29619845
_cell_length_c   15.06468179
_cell_angle_alpha   81.64698613
_cell_angle_beta   90.00000000
_cell_angle_gamma   90.00000000
_symmetry_Int_Tables_number   1
_chemical_formula_structural   CsRhOF4
_chemical_formula_sum   'Cs4 Rh4 O4 F16'
_cell_volume   536.27131004
_cell_formula_units_Z   4
loop_
 _symmetry_equiv_pos_site_id
 _symmetry_equiv_pos_as_xyz
  1  'x, y, z'
loop_
 _atom_site_type_symbol
 _atom_site_label
 _atom_site_symmetry_multiplicity
 _atom_site_fract_x
 _atom_site_fract_y
 _atom_site_fract_z
 _atom_site_occupancy
  Cs  Cs0  1  0.117513  0.405781  0.658049  1
  Cs  Cs1  1  0.382487  0.405781  0.158049  1
  Cs  Cs2  1  0.617513  0.594219  0.841951  1
  Cs  Cs3  1  0.882487  0.594219  0.341951  1
  Rh  Rh4  1  0.112711  0.970997  0.916885  1
  Rh  Rh5  1  0.612711  0.029003  0.583115  1
  Rh  Rh6  1  0.887289  0.029003  0.083115  1
  Rh  Rh7  1  0.387289  0.970997  0.416885  1
  O  O8  1  0.081933  0.192145  0.004351  1
  O  O9  1  0.581933  0.807855  0.495649  1
  O  O10  1  0.418067  0.192145  0.504351  1
  O  O11  1  0.918067  0.807855  0.995649  1
  F  F12  1  0.671786  0.215591  0.019635  1
  F  F13  1  0.688844  0.826727  0.154683  1
  F  F14  1  0.311156  0.173273  0.845317  1
  F  F15  1  0.584240  0.147675  0.337179  1
  F  F16  1  0.084240  0.852325  0.162821  1
  F  F17  1  0.115841  0.716581  0.836103  1
  F  F18  1  0.384159  0.716581  0.336103  1
  F  F19  1  0.188844  0.173273  0.345317  1
  F  F20  1  0.171786  0.784409  0.480365  1
  F  F21  1  0.328214  0.784409  0.980365  1
  F  F22  1  0.884159  0.283419  0.163897  1
  F  F23  1  0.415760  0.852325  0.662821  1
  F  F24  1  0.915760  0.147675  0.837179  1
  F  F25  1  0.828214  0.215591  0.519635  1
  F  F26  1  0.615841  0.283419  0.663897  1
  F  F27  1  0.811156  0.826727  0.654683  1
