# generated using pymatgen
data_Ta3V4Si6BW3
_symmetry_space_group_name_H-M   'P 1'
_cell_length_a   7.38747700
_cell_length_b   7.38747833
_cell_length_c   4.93927900
_cell_angle_alpha   90.00000000
_cell_angle_beta   90.00000000
_cell_angle_gamma   119.99999852
_symmetry_Int_Tables_number   1
_chemical_formula_structural   Ta3V4Si6BW3
_chemical_formula_sum   'Ta3 V4 Si6 B1 W3'
_cell_volume   233.44606530
_cell_formula_units_Z   1
loop_
 _symmetry_equiv_pos_site_id
 _symmetry_equiv_pos_as_xyz
  1  'x, y, z'
loop_
 _atom_site_type_symbol
 _atom_site_label
 _atom_site_symmetry_multiplicity
 _atom_site_fract_x
 _atom_site_fract_y
 _atom_site_fract_z
 _atom_site_occupancy
  Ta  Ta0  1  0.000000  0.244881  0.755540  1
  Ta  Ta1  1  0.755119  0.755119  0.755540  1
  Ta  Ta2  1  0.244881  0.000000  0.755540  1
  V  V3  1  0.333333  0.666667  0.505550  1
  V  V4  1  0.666667  0.333333  0.505550  1
  V  V5  1  0.666667  0.333333  0.997564  1
  V  V6  1  0.333333  0.666667  0.997564  1
  Si  Si7  1  0.000000  0.403573  0.252224  1
  Si  Si8  1  0.596427  0.596427  0.252224  1
  Si  Si9  1  0.403573  0.000000  0.252224  1
  Si  Si10  1  0.000000  0.594115  0.749981  1
  Si  Si11  1  0.405885  0.405885  0.749981  1
  Si  Si12  1  0.594115  0.000000  0.749981  1
  B  B13  1  0.000000  0.000000  0.485138  1
  W  W14  1  0.000000  0.751425  0.245133  1
  W  W15  1  0.248575  0.248575  0.245133  1
  W  W16  1  0.751425  0.000000  0.245133  1
