# generated using pymatgen
data_Sr2TbNpO6
_symmetry_space_group_name_H-M   'P 1'
_cell_length_a   6.12658200
_cell_length_b   5.97726703
_cell_length_c   10.43026883
_cell_angle_alpha   55.20097825
_cell_angle_beta   90.00000000
_cell_angle_gamma   90.00000000
_symmetry_Int_Tables_number   1
_chemical_formula_structural   Sr2TbNpO6
_chemical_formula_sum   'Sr4 Tb2 Np2 O12'
_cell_volume   313.64880920
_cell_formula_units_Z   2
loop_
 _symmetry_equiv_pos_site_id
 _symmetry_equiv_pos_as_xyz
  1  'x, y, z'
loop_
 _atom_site_type_symbol
 _atom_site_label
 _atom_site_symmetry_multiplicity
 _atom_site_fract_x
 _atom_site_fract_y
 _atom_site_fract_z
 _atom_site_occupancy
  Sr  Sr0  1  0.454346  0.260837  0.749708  1
  Sr  Sr1  1  0.954346  0.739163  0.750292  1
  Sr  Sr2  1  0.045654  0.260837  0.249708  1
  Sr  Sr3  1  0.545654  0.739163  0.250292  1
  Tb  Tb4  1  0.500000  0.000000  0.500000  1
  Tb  Tb5  1  0.000000  0.000000  0.000000  1
  Np  Np6  1  0.000000  0.500000  0.500000  1
  Np  Np7  1  0.500000  0.500000  0.000000  1
  O  O8  1  0.194518  0.735028  0.549804  1
  O  O9  1  0.694518  0.264972  0.950196  1
  O  O10  1  0.805482  0.264972  0.450196  1
  O  O11  1  0.305482  0.735028  0.049804  1
  O  O12  1  0.711621  0.640928  0.555494  1
  O  O13  1  0.211621  0.359072  0.944506  1
  O  O14  1  0.288379  0.359072  0.444506  1
  O  O15  1  0.788379  0.640928  0.055494  1
  O  O16  1  0.038296  0.157484  0.743139  1
  O  O17  1  0.538296  0.842516  0.756861  1
  O  O18  1  0.961704  0.842516  0.256861  1
  O  O19  1  0.461704  0.157484  0.243139  1
