# generated using pymatgen
data_Al3Si13Ir12
_symmetry_space_group_name_H-M   'P 1'
_cell_length_a   3.66275400
_cell_length_b   5.93041235
_cell_length_c   19.29649414
_cell_angle_alpha   89.96065757
_cell_angle_beta   90.00000000
_cell_angle_gamma   90.00000000
_symmetry_Int_Tables_number   1
_chemical_formula_structural   Al3Si13Ir12
_chemical_formula_sum   'Al3 Si13 Ir12'
_cell_volume   419.15143010
_cell_formula_units_Z   1
loop_
 _symmetry_equiv_pos_site_id
 _symmetry_equiv_pos_as_xyz
  1  'x, y, z'
loop_
 _atom_site_type_symbol
 _atom_site_label
 _atom_site_symmetry_multiplicity
 _atom_site_fract_x
 _atom_site_fract_y
 _atom_site_fract_z
 _atom_site_occupancy
  Al  Al0  1  0.250000  0.978341  0.450279  1
  Al  Al1  1  0.750000  0.021774  0.549689  1
  Al  Al2  1  0.750000  0.476023  0.049680  1
  Si  Si3  1  0.250000  0.523421  0.950812  1
  Si  Si4  1  0.250000  0.079895  0.909742  1
  Si  Si5  1  0.750000  0.917336  0.089385  1
  Si  Si6  1  0.750000  0.583024  0.589478  1
  Si  Si7  1  0.250000  0.416737  0.410723  1
  Si  Si8  1  0.250000  0.722383  0.269445  1
  Si  Si9  1  0.750000  0.277787  0.730248  1
  Si  Si10  1  0.750000  0.221463  0.230062  1
  Si  Si11  1  0.250000  0.781931  0.769400  1
  Si  Si12  1  0.250000  0.386191  0.142273  1
  Si  Si13  1  0.750000  0.616828  0.857040  1
  Si  Si14  1  0.750000  0.885761  0.357844  1
  Si  Si15  1  0.250000  0.113798  0.642075  1
  Ir  Ir16  1  0.250000  0.395254  0.826963  1
  Ir  Ir17  1  0.750000  0.609030  0.175956  1
  Ir  Ir18  1  0.750000  0.889873  0.676836  1
  Ir  Ir19  1  0.250000  0.108984  0.323103  1
  Ir  Ir20  1  0.250000  0.496190  0.678699  1
  Ir  Ir21  1  0.750000  0.502106  0.322816  1
  Ir  Ir22  1  0.750000  0.000506  0.823951  1
  Ir  Ir23  1  0.250000  0.002546  0.175531  1
  Ir  Ir24  1  0.250000  0.324153  0.534470  1
  Ir  Ir25  1  0.750000  0.676627  0.465992  1
  Ir  Ir26  1  0.750000  0.808850  0.966247  1
  Ir  Ir27  1  0.250000  0.183190  0.031262  1
