# generated using pymatgen
data_YbEr2Si6Pd19Pt
_symmetry_space_group_name_H-M   'P 1'
_cell_length_a   8.71851275
_cell_length_b   8.71851153
_cell_length_c   8.71851175
_cell_angle_alpha   59.90228868
_cell_angle_beta   59.90229375
_cell_angle_gamma   59.90229484
_symmetry_Int_Tables_number   1
_chemical_formula_structural   YbEr2Si6Pd19Pt
_chemical_formula_sum   'Yb1 Er2 Si6 Pd19 Pt1'
_cell_volume   467.57186726
_cell_formula_units_Z   1
loop_
 _symmetry_equiv_pos_site_id
 _symmetry_equiv_pos_as_xyz
  1  'x, y, z'
loop_
 _atom_site_type_symbol
 _atom_site_label
 _atom_site_symmetry_multiplicity
 _atom_site_fract_x
 _atom_site_fract_y
 _atom_site_fract_z
 _atom_site_occupancy
  Yb  Yb0  1  0.749981  0.749981  0.749981  1
  Er  Er1  1  0.250239  0.250239  0.250239  1
  Er  Er2  1  0.999941  0.999941  0.999941  1
  Si  Si3  1  0.730576  0.268785  0.268785  1
  Si  Si4  1  0.268289  0.731952  0.731952  1
  Si  Si5  1  0.268785  0.730576  0.268785  1
  Si  Si6  1  0.731952  0.268289  0.731952  1
  Si  Si7  1  0.268785  0.268785  0.730576  1
  Si  Si8  1  0.731952  0.731952  0.268289  1
  Pd  Pd9  1  0.616622  0.616622  0.616622  1
  Pd  Pd10  1  0.382799  0.382799  0.851473  1
  Pd  Pd11  1  0.382799  0.851473  0.382799  1
  Pd  Pd12  1  0.617574  0.617574  0.149548  1
  Pd  Pd13  1  0.617574  0.149548  0.617574  1
  Pd  Pd14  1  0.851473  0.382799  0.382799  1
  Pd  Pd15  1  0.149548  0.617574  0.617574  1
  Pd  Pd16  1  0.343985  0.000370  0.000370  1
  Pd  Pd17  1  0.654696  0.000583  0.000583  1
  Pd  Pd18  1  0.000144  0.343504  0.655036  1
  Pd  Pd19  1  0.000144  0.655036  0.343504  1
  Pd  Pd20  1  0.000370  0.343985  0.000370  1
  Pd  Pd21  1  0.655036  0.000144  0.343504  1
  Pd  Pd22  1  0.000583  0.654696  0.000583  1
  Pd  Pd23  1  0.343504  0.000144  0.655036  1
  Pd  Pd24  1  0.000370  0.000370  0.343985  1
  Pd  Pd25  1  0.000583  0.000583  0.654696  1
  Pd  Pd26  1  0.655036  0.343504  0.000144  1
  Pd  Pd27  1  0.343504  0.655036  0.000144  1
  Pt  Pt28  1  0.383155  0.383155  0.383155  1
