# generated using pymatgen
data_Sr10Bi5Pb
_symmetry_space_group_name_H-M   'P 1'
_cell_length_a   9.84041019
_cell_length_b   9.83224868
_cell_length_c   7.57953800
_cell_angle_alpha   90.00000000
_cell_angle_beta   90.00000000
_cell_angle_gamma   119.97258094
_symmetry_Int_Tables_number   1
_chemical_formula_structural   Sr10Bi5Pb
_chemical_formula_sum   'Sr10 Bi5 Pb1'
_cell_volume   635.27146600
_cell_formula_units_Z   1
loop_
 _symmetry_equiv_pos_site_id
 _symmetry_equiv_pos_as_xyz
  1  'x, y, z'
loop_
 _atom_site_type_symbol
 _atom_site_label
 _atom_site_symmetry_multiplicity
 _atom_site_fract_x
 _atom_site_fract_y
 _atom_site_fract_z
 _atom_site_occupancy
  Sr  Sr0  1  0.669057  0.333336  0.501316  1
  Sr  Sr1  1  0.330943  0.664279  0.501316  1
  Sr  Sr2  1  0.330943  0.664279  0.998684  1
  Sr  Sr3  1  0.669057  0.333336  0.998684  1
  Sr  Sr4  1  0.739169  0.739560  0.250000  1
  Sr  Sr5  1  0.260831  0.000391  0.250000  1
  Sr  Sr6  1  0.000000  0.259027  0.250000  1
  Sr  Sr7  1  0.260587  0.264458  0.750000  1
  Sr  Sr8  1  0.739413  0.003871  0.750000  1
  Sr  Sr9  1  0.000000  0.734967  0.750000  1
  Bi  Bi10  1  0.387940  0.385885  0.250000  1
  Bi  Bi11  1  0.612060  0.997945  0.250000  1
  Bi  Bi12  1  0.000000  0.614857  0.250000  1
  Bi  Bi13  1  0.617617  0.618549  0.750000  1
  Bi  Bi14  1  0.382383  0.000932  0.750000  1
  Pb  Pb15  1  0.000000  0.384329  0.750000  1
