# generated using pymatgen
data_Tb5HoTa2O14
_symmetry_space_group_name_H-M   'P 1'
_cell_length_a   6.51870212
_cell_length_b   6.52489286
_cell_length_c   7.48953347
_cell_angle_alpha   89.97199785
_cell_angle_beta   89.98101656
_cell_angle_gamma   108.54366800
_symmetry_Int_Tables_number   1
_chemical_formula_structural   Tb5HoTa2O14
_chemical_formula_sum   'Tb5 Ho1 Ta2 O14'
_cell_volume   302.01942133
_cell_formula_units_Z   1
loop_
 _symmetry_equiv_pos_site_id
 _symmetry_equiv_pos_as_xyz
  1  'x, y, z'
loop_
 _atom_site_type_symbol
 _atom_site_label
 _atom_site_symmetry_multiplicity
 _atom_site_fract_x
 _atom_site_fract_y
 _atom_site_fract_z
 _atom_site_occupancy
  Tb  Tb0  1  0.537286  0.537613  0.499553  1
  Tb  Tb1  1  0.462167  0.461111  0.000359  1
  Tb  Tb2  1  0.999744  0.535893  0.240627  1
  Tb  Tb3  1  0.000255  0.464524  0.740579  1
  Tb  Tb4  1  0.535093  0.999692  0.759169  1
  Ho  Ho5  1  0.465171  0.999486  0.259135  1
  Ta  Ta6  1  0.002167  0.002237  0.499426  1
  Ta  Ta7  1  0.997778  0.997956  0.000438  1
  O  O8  1  0.932068  0.066854  0.749976  1
  O  O9  1  0.068695  0.932351  0.249995  1
  O  O10  1  0.360815  0.642127  0.249718  1
  O  O11  1  0.639082  0.360318  0.750217  1
  O  O12  1  0.371311  0.628983  0.749931  1
  O  O13  1  0.627126  0.367886  0.250606  1
  O  O14  1  0.327994  0.081748  0.977666  1
  O  O15  1  0.672573  0.919000  0.474185  1
  O  O16  1  0.306264  0.047619  0.543546  1
  O  O17  1  0.694821  0.953748  0.047310  1
  O  O18  1  0.049081  0.306230  0.455174  1
  O  O19  1  0.950938  0.694349  0.955147  1
  O  O20  1  0.916631  0.672554  0.523625  1
  O  O21  1  0.082941  0.327722  0.023616  1
