# generated using pymatgen
data_Nb2FeB2PRu4
_symmetry_space_group_name_H-M   'P 1'
_cell_length_a   9.13620300
_cell_length_b   9.13620300
_cell_length_c   2.94125100
_cell_angle_alpha   90.00000000
_cell_angle_beta   90.00000000
_cell_angle_gamma   90.00000000
_symmetry_Int_Tables_number   1
_chemical_formula_structural   Nb2FeB2PRu4
_chemical_formula_sum   'Nb4 Fe2 B4 P2 Ru8'
_cell_volume   245.50682468
_cell_formula_units_Z   2
loop_
 _symmetry_equiv_pos_site_id
 _symmetry_equiv_pos_as_xyz
  1  'x, y, z'
loop_
 _atom_site_type_symbol
 _atom_site_label
 _atom_site_symmetry_multiplicity
 _atom_site_fract_x
 _atom_site_fract_y
 _atom_site_fract_z
 _atom_site_occupancy
  Nb  Nb0  1  0.827562  0.672438  0.000000  1
  Nb  Nb1  1  0.172438  0.327562  0.000000  1
  Nb  Nb2  1  0.327562  0.827562  0.000000  1
  Nb  Nb3  1  0.672438  0.172438  0.000000  1
  Fe  Fe4  1  0.500000  0.000000  0.500000  1
  Fe  Fe5  1  0.000000  0.500000  0.500000  1
  B  B6  1  0.615324  0.884676  0.000000  1
  B  B7  1  0.384676  0.115324  0.000000  1
  B  B8  1  0.115324  0.615324  0.000000  1
  B  B9  1  0.884676  0.384676  0.000000  1
  P  P10  1  0.500000  0.500000  0.000000  1
  P  P11  1  0.000000  0.000000  0.000000  1
  Ru  Ru12  1  0.565283  0.711929  0.500000  1
  Ru  Ru13  1  0.434717  0.288071  0.500000  1
  Ru  Ru14  1  0.065283  0.788071  0.500000  1
  Ru  Ru15  1  0.934717  0.211929  0.500000  1
  Ru  Ru16  1  0.288071  0.565283  0.500000  1
  Ru  Ru17  1  0.711929  0.434717  0.500000  1
  Ru  Ru18  1  0.211929  0.065283  0.500000  1
  Ru  Ru19  1  0.788071  0.934717  0.500000  1
