# generated using pymatgen
data_Dy2Ho2Ga4Ni3Ru
_symmetry_space_group_name_H-M   'P 1'
_cell_length_a   4.26236500
_cell_length_b   6.76827411
_cell_length_c   7.53518659
_cell_angle_alpha   89.92372452
_cell_angle_beta   90.00000000
_cell_angle_gamma   90.00000000
_symmetry_Int_Tables_number   1
_chemical_formula_structural   Dy2Ho2Ga4Ni3Ru
_chemical_formula_sum   'Dy2 Ho2 Ga4 Ni3 Ru1'
_cell_volume   217.38131023
_cell_formula_units_Z   1
loop_
 _symmetry_equiv_pos_site_id
 _symmetry_equiv_pos_as_xyz
  1  'x, y, z'
loop_
 _atom_site_type_symbol
 _atom_site_label
 _atom_site_symmetry_multiplicity
 _atom_site_fract_x
 _atom_site_fract_y
 _atom_site_fract_z
 _atom_site_occupancy
  Dy  Dy0  1  0.250000  0.026818  0.813882  1
  Dy  Dy1  1  0.250000  0.522072  0.688051  1
  Ho  Ho2  1  0.750000  0.978021  0.192091  1
  Ho  Ho3  1  0.750000  0.479014  0.308570  1
  Ga  Ga4  1  0.250000  0.165434  0.430889  1
  Ga  Ga5  1  0.250000  0.661772  0.061447  1
  Ga  Ga6  1  0.750000  0.838656  0.578101  1
  Ga  Ga7  1  0.750000  0.337173  0.930527  1
  Ni  Ni8  1  0.250000  0.284007  0.106429  1
  Ni  Ni9  1  0.750000  0.218504  0.608865  1
  Ni  Ni10  1  0.750000  0.717421  0.891883  1
  Ru  Ru11  1  0.250000  0.771105  0.389265  1
