# generated using pymatgen
data_Sm2HoRuCl3
_symmetry_space_group_name_H-M   'P 1'
_cell_length_a   4.06492700
_cell_length_b   8.37892097
_cell_length_c   11.67182500
_cell_angle_alpha   86.86181495
_cell_angle_beta   90.00000000
_cell_angle_gamma   90.00000000
_symmetry_Int_Tables_number   1
_chemical_formula_structural   Sm2HoRuCl3
_chemical_formula_sum   'Sm4 Ho2 Ru2 Cl6'
_cell_volume   396.94273578
_cell_formula_units_Z   2
loop_
 _symmetry_equiv_pos_site_id
 _symmetry_equiv_pos_as_xyz
  1  'x, y, z'
loop_
 _atom_site_type_symbol
 _atom_site_label
 _atom_site_symmetry_multiplicity
 _atom_site_fract_x
 _atom_site_fract_y
 _atom_site_fract_z
 _atom_site_occupancy
  Sm  Sm0  1  0.750000  0.105437  0.664214  1
  Sm  Sm1  1  0.250000  0.894563  0.335786  1
  Sm  Sm2  1  0.250000  0.288890  0.895140  1
  Sm  Sm3  1  0.750000  0.711110  0.104860  1
  Ho  Ho4  1  0.750000  0.138448  0.134912  1
  Ho  Ho5  1  0.250000  0.861552  0.865088  1
  Ru  Ru6  1  0.750000  0.059016  0.901716  1
  Ru  Ru7  1  0.250000  0.940984  0.098284  1
  Cl  Cl8  1  0.250000  0.334561  0.643838  1
  Cl  Cl9  1  0.750000  0.665439  0.356162  1
  Cl  Cl10  1  0.750000  0.125819  0.392229  1
  Cl  Cl11  1  0.250000  0.874181  0.607771  1
  Cl  Cl12  1  0.250000  0.423519  0.128729  1
  Cl  Cl13  1  0.750000  0.576481  0.871271  1
