# generated using pymatgen
data_Nb8CrCdSe16
_symmetry_space_group_name_H-M   'P 1'
_cell_length_a   7.00897400
_cell_length_b   7.00897440
_cell_length_c   13.64503100
_cell_angle_alpha   90.00000000
_cell_angle_beta   90.00000000
_cell_angle_gamma   119.99999811
_symmetry_Int_Tables_number   1
_chemical_formula_structural   Nb8CrCdSe16
_chemical_formula_sum   'Nb8 Cr1 Cd1 Se16'
_cell_volume   580.51585989
_cell_formula_units_Z   1
loop_
 _symmetry_equiv_pos_site_id
 _symmetry_equiv_pos_as_xyz
  1  'x, y, z'
loop_
 _atom_site_type_symbol
 _atom_site_label
 _atom_site_symmetry_multiplicity
 _atom_site_fract_x
 _atom_site_fract_y
 _atom_site_fract_z
 _atom_site_occupancy
  Nb  Nb0  1  0.000000  0.000000  0.270889  1
  Nb  Nb1  1  0.000000  0.000000  0.729111  1
  Nb  Nb2  1  0.506295  0.012588  0.268729  1
  Nb  Nb3  1  0.493705  0.987412  0.731271  1
  Nb  Nb4  1  0.987412  0.493705  0.268729  1
  Nb  Nb5  1  0.012588  0.506295  0.731271  1
  Nb  Nb6  1  0.506295  0.493705  0.268729  1
  Nb  Nb7  1  0.493705  0.506295  0.731271  1
  Cr  Cr8  1  0.000000  0.000000  0.500000  1
  Cd  Cd9  1  0.000000  0.000000  0.000000  1
  Se  Se10  1  0.333333  0.666667  0.605762  1
  Se  Se11  1  0.666667  0.333333  0.394238  1
  Se  Se12  1  0.666667  0.333333  0.142340  1
  Se  Se13  1  0.333333  0.666667  0.857660  1
  Se  Se14  1  0.167077  0.334156  0.147359  1
  Se  Se15  1  0.832923  0.665844  0.852641  1
  Se  Se16  1  0.665844  0.832923  0.147359  1
  Se  Se17  1  0.832014  0.664029  0.609609  1
  Se  Se18  1  0.334156  0.167077  0.852641  1
  Se  Se19  1  0.167986  0.335971  0.390391  1
  Se  Se20  1  0.167077  0.832923  0.147359  1
  Se  Se21  1  0.335971  0.167986  0.609609  1
  Se  Se22  1  0.832923  0.167077  0.852641  1
  Se  Se23  1  0.664029  0.832014  0.390391  1
  Se  Se24  1  0.832014  0.167986  0.609609  1
  Se  Se25  1  0.167986  0.832014  0.390391  1
