# generated using pymatgen
data_Ca10Pr2Sn3AsN4
_symmetry_space_group_name_H-M   'P 1'
_cell_length_a   6.88577331
_cell_length_b   6.88451002
_cell_length_c   9.90159600
_cell_angle_alpha   90.00000000
_cell_angle_beta   90.00000000
_cell_angle_gamma   90.01060745
_symmetry_Int_Tables_number   1
_chemical_formula_structural   Ca10Pr2Sn3AsN4
_chemical_formula_sum   'Ca10 Pr2 Sn3 As1 N4'
_cell_volume   469.38688674
_cell_formula_units_Z   1
loop_
 _symmetry_equiv_pos_site_id
 _symmetry_equiv_pos_as_xyz
  1  'x, y, z'
loop_
 _atom_site_type_symbol
 _atom_site_label
 _atom_site_symmetry_multiplicity
 _atom_site_fract_x
 _atom_site_fract_y
 _atom_site_fract_z
 _atom_site_occupancy
  Ca  Ca0  1  0.004777  0.498071  0.250000  1
  Ca  Ca1  1  0.490602  0.000862  0.250000  1
  Ca  Ca2  1  0.748570  0.251271  0.012925  1
  Ca  Ca3  1  0.755410  0.755470  0.485291  1
  Ca  Ca4  1  0.245529  0.245599  0.008259  1
  Ca  Ca5  1  0.252029  0.747884  0.491534  1
  Ca  Ca6  1  0.252029  0.747884  0.008466  1
  Ca  Ca7  1  0.245529  0.245599  0.491741  1
  Ca  Ca8  1  0.755410  0.755470  0.014709  1
  Ca  Ca9  1  0.748570  0.251271  0.487075  1
  Pr  Pr10  1  0.503669  0.999268  0.750000  1
  Pr  Pr11  1  0.995971  0.500659  0.750000  1
  Sn  Sn12  1  0.000252  0.999971  0.750000  1
  Sn  Sn13  1  0.499543  0.499777  0.750000  1
  Sn  Sn14  1  0.499973  0.500095  0.250000  1
  As  As15  1  0.001817  0.000748  0.250000  1
  N  N16  1  0.500005  0.000038  0.499432  1
  N  N17  1  0.000156  0.500013  0.000562  1
  N  N18  1  0.000156  0.500013  0.499438  1
  N  N19  1  0.500005  0.000038  0.000568  1
