# generated using pymatgen
data_Be6Al5PRh12
_symmetry_space_group_name_H-M   'P 1'
_cell_length_a   4.11259600
_cell_length_b   5.78988500
_cell_length_c   12.29349701
_cell_angle_alpha   90.00000000
_cell_angle_beta   89.99617116
_cell_angle_gamma   90.00000000
_symmetry_Int_Tables_number   1
_chemical_formula_structural   Be6Al5PRh12
_chemical_formula_sum   'Be6 Al5 P1 Rh12'
_cell_volume   292.72608583
_cell_formula_units_Z   1
loop_
 _symmetry_equiv_pos_site_id
 _symmetry_equiv_pos_as_xyz
  1  'x, y, z'
loop_
 _atom_site_type_symbol
 _atom_site_label
 _atom_site_symmetry_multiplicity
 _atom_site_fract_x
 _atom_site_fract_y
 _atom_site_fract_z
 _atom_site_occupancy
  Be  Be0  1  0.000000  0.000000  0.000000  1
  Be  Be1  1  0.499417  0.500000  0.176349  1
  Be  Be2  1  0.999284  0.000000  0.333965  1
  Be  Be3  1  0.500000  0.500000  0.500000  1
  Be  Be4  1  0.000716  0.000000  0.666035  1
  Be  Be5  1  0.500583  0.500000  0.823651  1
  Al  Al6  1  0.499568  0.000000  0.165512  1
  Al  Al7  1  0.999526  0.500000  0.332274  1
  Al  Al8  1  0.500000  0.000000  0.500000  1
  Al  Al9  1  0.000474  0.500000  0.667726  1
  Al  Al10  1  0.500432  0.000000  0.834488  1
  P  P11  1  0.000000  0.500000  0.000000  1
  Rh  Rh12  1  0.500000  0.261416  0.000000  1
  Rh  Rh13  1  0.500000  0.738586  0.000000  1
  Rh  Rh14  1  0.999602  0.255875  0.159116  1
  Rh  Rh15  1  0.999602  0.744125  0.159116  1
  Rh  Rh16  1  0.499638  0.249039  0.331341  1
  Rh  Rh17  1  0.499638  0.750961  0.331341  1
  Rh  Rh18  1  0.000000  0.250642  0.500000  1
  Rh  Rh19  1  0.000000  0.749360  0.500000  1
  Rh  Rh20  1  0.500362  0.249039  0.668659  1
  Rh  Rh21  1  0.500362  0.750961  0.668659  1
  Rh  Rh22  1  0.000398  0.255875  0.840884  1
  Rh  Rh23  1  0.000398  0.744125  0.840884  1
