# generated using pymatgen
data_CaTb2(B3Ir4)2
_symmetry_space_group_name_H-M   'P 1'
_cell_length_a   9.97263622
_cell_length_b   9.12813376
_cell_length_c   5.61512190
_cell_angle_alpha   81.36047913
_cell_angle_beta   64.81412211
_cell_angle_gamma   33.82540191
_symmetry_Int_Tables_number   1
_chemical_formula_structural   CaTb2(B3Ir4)2
_chemical_formula_sum   'Ca1 Tb2 B6 Ir8'
_cell_volume   235.58719758
_cell_formula_units_Z   1
loop_
 _symmetry_equiv_pos_site_id
 _symmetry_equiv_pos_as_xyz
  1  'x, y, z'
loop_
 _atom_site_type_symbol
 _atom_site_label
 _atom_site_symmetry_multiplicity
 _atom_site_fract_x
 _atom_site_fract_y
 _atom_site_fract_z
 _atom_site_occupancy
  Ca  Ca0  1  0.681455  0.681455  0.318545  1
  Tb  Tb1  1  0.320854  0.320854  0.679146  1
  Tb  Tb2  1  0.503137  0.503137  0.496863  1
  B  B3  1  0.670671  0.981266  0.018734  1
  B  B4  1  0.981266  0.670671  0.329329  1
  B  B5  1  0.327196  0.018327  0.981673  1
  B  B6  1  0.018327  0.327196  0.672804  1
  B  B7  1  0.168141  0.831705  0.168295  1
  B  B8  1  0.831705  0.168141  0.831859  1
  Ir  Ir9  1  0.585663  0.585663  0.914337  1
  Ir  Ir10  1  0.912641  0.912641  0.087359  1
  Ir  Ir11  1  0.414429  0.414429  0.085571  1
  Ir  Ir12  1  0.085663  0.085663  0.414337  1
  Ir  Ir13  1  0.914429  0.914429  0.585571  1
  Ir  Ir14  1  0.249486  0.249486  0.250514  1
  Ir  Ir15  1  0.085453  0.085453  0.914547  1
  Ir  Ir16  1  0.749486  0.749486  0.750514  1
