# generated using pymatgen
data_Zr5ScBeTe2
_symmetry_space_group_name_H-M   'P 1'
_cell_length_a   3.82389500
_cell_length_b   7.62528616
_cell_length_c   7.62528665
_cell_angle_alpha   119.91292614
_cell_angle_beta   90.00000000
_cell_angle_gamma   90.00000000
_symmetry_Int_Tables_number   1
_chemical_formula_structural   Zr5ScBeTe2
_chemical_formula_sum   'Zr5 Sc1 Be1 Te2'
_cell_volume   192.72111462
_cell_formula_units_Z   1
loop_
 _symmetry_equiv_pos_site_id
 _symmetry_equiv_pos_as_xyz
  1  'x, y, z'
loop_
 _atom_site_type_symbol
 _atom_site_label
 _atom_site_symmetry_multiplicity
 _atom_site_fract_x
 _atom_site_fract_y
 _atom_site_fract_z
 _atom_site_occupancy
  Zr  Zr0  1  0.500000  0.766458  0.766458  1
  Zr  Zr1  1  0.500000  0.999934  0.234673  1
  Zr  Zr2  1  0.500000  0.234673  0.999934  1
  Zr  Zr3  1  0.000000  0.999364  0.601165  1
  Zr  Zr4  1  0.000000  0.601165  0.999364  1
  Sc  Sc5  1  0.000000  0.398770  0.398770  1
  Be  Be6  1  0.000000  0.998673  0.998673  1
  Te  Te7  1  0.500000  0.666251  0.334713  1
  Te  Te8  1  0.500000  0.334713  0.666251  1
