# generated using pymatgen
data_BeCo4B2P
_symmetry_space_group_name_H-M   'P 1'
_cell_length_a   5.34734200
_cell_length_b   5.34734237
_cell_length_c   6.24593179
_cell_angle_alpha   115.34488855
_cell_angle_beta   115.34488606
_cell_angle_gamma   90.00000017
_symmetry_Int_Tables_number   1
_chemical_formula_structural   BeCo4B2P
_chemical_formula_sum   'Be2 Co8 B4 P2'
_cell_volume   142.15200821
_cell_formula_units_Z   2
loop_
 _symmetry_equiv_pos_site_id
 _symmetry_equiv_pos_as_xyz
  1  'x, y, z'
loop_
 _atom_site_type_symbol
 _atom_site_label
 _atom_site_symmetry_multiplicity
 _atom_site_fract_x
 _atom_site_fract_y
 _atom_site_fract_z
 _atom_site_occupancy
  Be  Be0  1  0.500000  0.500000  0.000000  1
  Be  Be1  1  0.000000  0.000000  0.000000  1
  Co  Co2  1  0.052556  0.552556  0.738008  1
  Co  Co3  1  0.685451  0.185451  0.738008  1
  Co  Co4  1  0.185451  0.052556  0.738008  1
  Co  Co5  1  0.552556  0.685451  0.738008  1
  Co  Co6  1  0.947444  0.447444  0.261992  1
  Co  Co7  1  0.314549  0.814549  0.261992  1
  Co  Co8  1  0.814549  0.947444  0.261992  1
  Co  Co9  1  0.447444  0.314549  0.261992  1
  B  B10  1  0.384417  0.884417  0.000000  1
  B  B11  1  0.615583  0.115583  0.000000  1
  B  B12  1  0.115583  0.384417  0.000000  1
  B  B13  1  0.884417  0.615583  0.000000  1
  P  P14  1  0.250000  0.250000  0.500000  1
  P  P15  1  0.750000  0.750000  0.500000  1
