# generated using pymatgen
data_Tm4Ga4CuRu3
_symmetry_space_group_name_H-M   'P 1'
_cell_length_a   4.21238000
_cell_length_b   6.84945624
_cell_length_c   7.72776503
_cell_angle_alpha   90.19206745
_cell_angle_beta   90.00000000
_cell_angle_gamma   90.00000000
_symmetry_Int_Tables_number   1
_chemical_formula_structural   Tm4Ga4CuRu3
_chemical_formula_sum   'Tm4 Ga4 Cu1 Ru3'
_cell_volume   222.96418406
_cell_formula_units_Z   1
loop_
 _symmetry_equiv_pos_site_id
 _symmetry_equiv_pos_as_xyz
  1  'x, y, z'
loop_
 _atom_site_type_symbol
 _atom_site_label
 _atom_site_symmetry_multiplicity
 _atom_site_fract_x
 _atom_site_fract_y
 _atom_site_fract_z
 _atom_site_occupancy
  Tm  Tm0  1  0.250000  0.974564  0.311224  1
  Tm  Tm1  1  0.250000  0.483937  0.183019  1
  Tm  Tm2  1  0.750000  0.014716  0.698096  1
  Tm  Tm3  1  0.750000  0.513398  0.807124  1
  Ga  Ga4  1  0.250000  0.331767  0.567467  1
  Ga  Ga5  1  0.250000  0.834238  0.927985  1
  Ga  Ga6  1  0.750000  0.672212  0.426935  1
  Ga  Ga7  1  0.750000  0.167365  0.075741  1
  Cu  Cu8  1  0.750000  0.283743  0.394887  1
  Ru  Ru9  1  0.250000  0.223879  0.889800  1
  Ru  Ru10  1  0.250000  0.724555  0.607104  1
  Ru  Ru11  1  0.750000  0.775625  0.110617  1
