# generated using pymatgen
data_Y6Ho2Os3WC8
_symmetry_space_group_name_H-M   'P 1'
_cell_length_a   5.12053900
_cell_length_b   6.55198135
_cell_length_c   9.83755501
_cell_angle_alpha   89.69772385
_cell_angle_beta   90.00000000
_cell_angle_gamma   90.00000000
_symmetry_Int_Tables_number   1
_chemical_formula_structural   Y6Ho2Os3WC8
_chemical_formula_sum   'Y6 Ho2 Os3 W1 C8'
_cell_volume   330.04219049
_cell_formula_units_Z   1
loop_
 _symmetry_equiv_pos_site_id
 _symmetry_equiv_pos_as_xyz
  1  'x, y, z'
loop_
 _atom_site_type_symbol
 _atom_site_label
 _atom_site_symmetry_multiplicity
 _atom_site_fract_x
 _atom_site_fract_y
 _atom_site_fract_z
 _atom_site_occupancy
  Y  Y0  1  0.250000  0.680172  0.553656  1
  Y  Y1  1  0.250000  0.181866  0.944853  1
  Y  Y2  1  0.250000  0.531330  0.213296  1
  Y  Y3  1  0.750000  0.467246  0.780718  1
  Y  Y4  1  0.750000  0.970613  0.716043  1
  Y  Y5  1  0.250000  0.029550  0.285412  1
  Ho  Ho6  1  0.750000  0.322514  0.444318  1
  Ho  Ho7  1  0.750000  0.823753  0.055673  1
  Os  Os8  1  0.750000  0.277636  0.136554  1
  Os  Os9  1  0.750000  0.776414  0.362930  1
  Os  Os10  1  0.250000  0.224487  0.633099  1
  W  W11  1  0.250000  0.722017  0.867046  1
  C  C12  1  0.250000  0.453844  0.759623  1
  C  C13  1  0.750000  0.541583  0.242227  1
  C  C14  1  0.750000  0.042687  0.259146  1
  C  C15  1  0.250000  0.958941  0.739789  1
  C  C16  1  0.250000  0.823739  0.056095  1
  C  C17  1  0.750000  0.175049  0.952362  1
  C  C18  1  0.750000  0.673945  0.548569  1
  C  C19  1  0.250000  0.322610  0.448591  1
