# generated using pymatgen
data_Mg6Co16Si5P2
_symmetry_space_group_name_H-M   'P 1'
_cell_length_a   7.92457767
_cell_length_b   7.95189453
_cell_length_c   7.92155480
_cell_angle_alpha   59.89646265
_cell_angle_beta   60.42626090
_cell_angle_gamma   59.90892820
_symmetry_Int_Tables_number   1
_chemical_formula_structural   Mg6Co16Si5P2
_chemical_formula_sum   'Mg6 Co16 Si5 P2'
_cell_volume   353.57149292
_cell_formula_units_Z   1
loop_
 _symmetry_equiv_pos_site_id
 _symmetry_equiv_pos_as_xyz
  1  'x, y, z'
loop_
 _atom_site_type_symbol
 _atom_site_label
 _atom_site_symmetry_multiplicity
 _atom_site_fract_x
 _atom_site_fract_y
 _atom_site_fract_z
 _atom_site_occupancy
  Mg  Mg0  1  0.199580  0.795612  0.800453  1
  Mg  Mg1  1  0.800450  0.795613  0.199578  1
  Mg  Mg2  1  0.800420  0.204388  0.199547  1
  Mg  Mg3  1  0.199550  0.204387  0.800422  1
  Mg  Mg4  1  0.798291  0.201751  0.798284  1
  Mg  Mg5  1  0.201709  0.798249  0.201716  1
  Co  Co6  1  0.614618  0.618319  0.148744  1
  Co  Co7  1  0.175033  0.476833  0.174977  1
  Co  Co8  1  0.851229  0.381695  0.385381  1
  Co  Co9  1  0.513879  0.832729  0.820566  1
  Co  Co10  1  0.486121  0.167271  0.179434  1
  Co  Co11  1  0.820500  0.832716  0.513969  1
  Co  Co12  1  0.179500  0.167284  0.486031  1
  Co  Co13  1  0.148771  0.618305  0.614619  1
  Co  Co14  1  0.175053  0.173270  0.174998  1
  Co  Co15  1  0.385382  0.381681  0.851256  1
  Co  Co16  1  0.615922  0.616294  0.615940  1
  Co  Co17  1  0.384087  0.848171  0.384071  1
  Co  Co18  1  0.384078  0.383706  0.384060  1
  Co  Co19  1  0.824947  0.826730  0.825002  1
  Co  Co20  1  0.615913  0.151829  0.615929  1
  Co  Co21  1  0.824967  0.523167  0.825023  1
  Si  Si22  1  0.500000  0.500000  0.000000  1
  Si  Si23  1  0.000000  0.000000  0.500000  1
  Si  Si24  1  0.000000  0.500000  0.000000  1
  Si  Si25  1  0.000000  0.500000  0.500000  1
  Si  Si26  1  0.500000  0.000000  0.000000  1
  P  P27  1  0.500000  0.000000  0.500000  1
  P  P28  1  0.500000  0.500000  0.500000  1
