# generated using pymatgen
data_Dy20Ir11Au
_symmetry_space_group_name_H-M   'P 1'
_cell_length_a   10.96249570
_cell_length_b   10.96249570
_cell_length_c   6.35509091
_cell_angle_alpha   90.04419880
_cell_angle_beta   90.04419880
_cell_angle_gamma   89.37154005
_symmetry_Int_Tables_number   1
_chemical_formula_structural   Dy20Ir11Au
_chemical_formula_sum   'Dy20 Ir11 Au1'
_cell_volume   763.68499537
_cell_formula_units_Z   1
loop_
 _symmetry_equiv_pos_site_id
 _symmetry_equiv_pos_as_xyz
  1  'x, y, z'
loop_
 _atom_site_type_symbol
 _atom_site_label
 _atom_site_symmetry_multiplicity
 _atom_site_fract_x
 _atom_site_fract_y
 _atom_site_fract_z
 _atom_site_occupancy
  Dy  Dy0  1  0.290068  0.088235  0.377467  1
  Dy  Dy1  1  0.293291  0.910651  0.877026  1
  Dy  Dy2  1  0.704157  0.084450  0.866014  1
  Dy  Dy3  1  0.705127  0.903886  0.381266  1
  Dy  Dy4  1  0.588184  0.790964  0.880081  1
  Dy  Dy5  1  0.579186  0.210052  0.378508  1
  Dy  Dy6  1  0.410355  0.791090  0.378683  1
  Dy  Dy7  1  0.409291  0.207925  0.878834  1
  Dy  Dy8  1  0.209036  0.411816  0.619919  1
  Dy  Dy9  1  0.208910  0.589645  0.121317  1
  Dy  Dy10  1  0.789948  0.420814  0.121492  1
  Dy  Dy11  1  0.792075  0.590709  0.621166  1
  Dy  Dy12  1  0.911765  0.709932  0.122533  1
  Dy  Dy13  1  0.915550  0.295843  0.633986  1
  Dy  Dy14  1  0.089349  0.706709  0.622974  1
  Dy  Dy15  1  0.096114  0.294873  0.118734  1
  Dy  Dy16  1  0.003212  0.995718  0.501347  1
  Dy  Dy17  1  0.004282  0.996788  0.998653  1
  Dy  Dy18  1  0.498796  0.499232  0.998796  1
  Dy  Dy19  1  0.500768  0.501204  0.501204  1
  Ir  Ir20  1  0.846717  0.848150  0.749435  1
  Ir  Ir21  1  0.151850  0.153283  0.750565  1
  Ir  Ir22  1  0.155773  0.844227  0.250000  1
  Ir  Ir23  1  0.655144  0.344856  0.750000  1
  Ir  Ir24  1  0.653612  0.652014  0.248389  1
  Ir  Ir25  1  0.347986  0.346388  0.251611  1
  Ir  Ir26  1  0.346344  0.653656  0.750000  1
  Ir  Ir27  1  0.500420  0.999989  0.126149  1
  Ir  Ir28  1  0.499318  0.000261  0.622018  1
  Ir  Ir29  1  0.999739  0.500682  0.877982  1
  Ir  Ir30  1  0.000011  0.499580  0.373851  1
  Au  Au31  1  0.843622  0.156378  0.250000  1
