# generated using pymatgen
data_DyZr(Co5P3)2
_symmetry_space_group_name_H-M   'P 1'
_cell_length_a   3.62558500
_cell_length_b   10.21206200
_cell_length_c   11.67582000
_cell_angle_alpha   90.00000000
_cell_angle_beta   90.00000000
_cell_angle_gamma   90.00000000
_symmetry_Int_Tables_number   1
_chemical_formula_structural   DyZr(Co5P3)2
_chemical_formula_sum   'Dy2 Zr2 Co20 P12'
_cell_volume   432.29371882
_cell_formula_units_Z   2
loop_
 _symmetry_equiv_pos_site_id
 _symmetry_equiv_pos_as_xyz
  1  'x, y, z'
loop_
 _atom_site_type_symbol
 _atom_site_label
 _atom_site_symmetry_multiplicity
 _atom_site_fract_x
 _atom_site_fract_y
 _atom_site_fract_z
 _atom_site_occupancy
  Dy  Dy0  1  0.750000  0.417390  0.296882  1
  Dy  Dy1  1  0.750000  0.082610  0.796882  1
  Zr  Zr2  1  0.250000  0.581976  0.701532  1
  Zr  Zr3  1  0.250000  0.918024  0.201532  1
  Co  Co4  1  0.250000  0.718198  0.993033  1
  Co  Co5  1  0.250000  0.781802  0.493033  1
  Co  Co6  1  0.750000  0.282352  0.008986  1
  Co  Co7  1  0.750000  0.217648  0.508986  1
  Co  Co8  1  0.250000  0.409729  0.490444  1
  Co  Co9  1  0.250000  0.090271  0.990444  1
  Co  Co10  1  0.750000  0.593649  0.515183  1
  Co  Co11  1  0.750000  0.906351  0.015183  1
  Co  Co12  1  0.250000  0.221291  0.177730  1
  Co  Co13  1  0.250000  0.278709  0.677730  1
  Co  Co14  1  0.750000  0.776272  0.822659  1
  Co  Co15  1  0.750000  0.723728  0.322659  1
  Co  Co16  1  0.250000  0.880515  0.698635  1
  Co  Co17  1  0.250000  0.619485  0.198635  1
  Co  Co18  1  0.750000  0.113901  0.299518  1
  Co  Co19  1  0.750000  0.386099  0.799518  1
  Co  Co20  1  0.250000  0.469987  0.929014  1
  Co  Co21  1  0.250000  0.030013  0.429014  1
  Co  Co22  1  0.750000  0.534888  0.066928  1
  Co  Co23  1  0.750000  0.965112  0.566928  1
  P  P24  1  0.250000  0.419083  0.110693  1
  P  P25  1  0.250000  0.080917  0.610693  1
  P  P26  1  0.750000  0.581461  0.884809  1
  P  P27  1  0.750000  0.918539  0.384809  1
  P  P28  1  0.250000  0.270259  0.871641  1
  P  P29  1  0.250000  0.229741  0.371641  1
  P  P30  1  0.750000  0.732543  0.131302  1
  P  P31  1  0.750000  0.767457  0.631302  1
  P  P32  1  0.250000  0.602106  0.390842  1
  P  P33  1  0.250000  0.897894  0.890842  1
  P  P34  1  0.750000  0.400466  0.610171  1
  P  P35  1  0.750000  0.099534  0.110171  1
