# generated using pymatgen
data_SrNd3MgMn3O12
_symmetry_space_group_name_H-M   'P 1'
_cell_length_a   5.48594494
_cell_length_b   5.59122128
_cell_length_c   7.76511880
_cell_angle_alpha   89.70820689
_cell_angle_beta   89.94960374
_cell_angle_gamma   90.02060170
_symmetry_Int_Tables_number   1
_chemical_formula_structural   SrNd3MgMn3O12
_chemical_formula_sum   'Sr1 Nd3 Mg1 Mn3 O12'
_cell_volume   238.17731821
_cell_formula_units_Z   1
loop_
 _symmetry_equiv_pos_site_id
 _symmetry_equiv_pos_as_xyz
  1  'x, y, z'
loop_
 _atom_site_type_symbol
 _atom_site_label
 _atom_site_symmetry_multiplicity
 _atom_site_fract_x
 _atom_site_fract_y
 _atom_site_fract_z
 _atom_site_occupancy
  Sr  Sr0  1  0.496052  0.531895  0.253487  1
  Nd  Nd1  1  0.987989  0.954634  0.745077  1
  Nd  Nd2  1  0.506729  0.454350  0.745009  1
  Nd  Nd3  1  0.015872  0.047914  0.255397  1
  Mg  Mg4  1  0.000605  0.501941  0.498311  1
  Mn  Mn5  1  0.002561  0.500329  0.000266  1
  Mn  Mn6  1  0.498944  0.997682  0.000529  1
  Mn  Mn7  1  0.497925  0.998070  0.500605  1
  O  O8  1  0.582838  0.990567  0.251281  1
  O  O9  1  0.077667  0.522125  0.759308  1
  O  O10  1  0.420349  0.016676  0.750188  1
  O  O11  1  0.943888  0.474466  0.238944  1
  O  O12  1  0.207881  0.798213  0.038112  1
  O  O13  1  0.712172  0.718766  0.952215  1
  O  O14  1  0.779073  0.213180  0.952017  1
  O  O15  1  0.284626  0.275437  0.033279  1
  O  O16  1  0.290910  0.270081  0.470494  1
  O  O17  1  0.774299  0.205454  0.541984  1
  O  O18  1  0.704721  0.724394  0.546642  1
  O  O19  1  0.214898  0.803826  0.466855  1
