# generated using pymatgen
data_Rb8Er5TmNiBr20
_symmetry_space_group_name_H-M   'P 1'
_cell_length_a   12.33156309
_cell_length_b   12.33114044
_cell_length_c   12.23764529
_cell_angle_alpha   60.23924086
_cell_angle_beta   60.23965874
_cell_angle_gamma   59.51666624
_symmetry_Int_Tables_number   1
_chemical_formula_structural   Rb8Er5TmNiBr20
_chemical_formula_sum   'Rb8 Er5 Tm1 Ni1 Br20'
_cell_volume   1315.66046529
_cell_formula_units_Z   1
loop_
 _symmetry_equiv_pos_site_id
 _symmetry_equiv_pos_as_xyz
  1  'x, y, z'
loop_
 _atom_site_type_symbol
 _atom_site_label
 _atom_site_symmetry_multiplicity
 _atom_site_fract_x
 _atom_site_fract_y
 _atom_site_fract_z
 _atom_site_occupancy
  Rb  Rb0  1  0.359682  0.359742  0.357306  1
  Rb  Rb1  1  0.639995  0.639924  0.642302  1
  Rb  Rb2  1  0.360036  0.360063  0.922458  1
  Rb  Rb3  1  0.357563  0.922492  0.360069  1
  Rb  Rb4  1  0.640017  0.640005  0.077375  1
  Rb  Rb5  1  0.642654  0.077067  0.640103  1
  Rb  Rb6  1  0.922556  0.357528  0.360030  1
  Rb  Rb7  1  0.077024  0.642674  0.640102  1
  Er  Er8  1  0.848144  0.151480  0.151881  1
  Er  Er9  1  0.151550  0.848448  0.848448  1
  Er  Er10  1  0.151427  0.848058  0.151966  1
  Er  Er11  1  0.848493  0.151595  0.848367  1
  Er  Er12  1  0.157193  0.157260  0.842577  1
  Tm  Tm13  1  0.843431  0.843343  0.156912  1
  Ni  Ni14  1  0.000255  0.000214  0.000007  1
  Br  Br15  1  0.329442  0.998938  0.001038  1
  Br  Br16  1  0.671668  0.000168  0.999649  1
  Br  Br17  1  0.998984  0.329741  0.670112  1
  Br  Br18  1  0.000279  0.670713  0.329225  1
  Br  Br19  1  0.998937  0.329534  0.001034  1
  Br  Br20  1  0.670823  0.000291  0.329112  1
  Br  Br21  1  0.000143  0.671544  0.999676  1
  Br  Br22  1  0.329602  0.998988  0.670251  1
  Br  Br23  1  0.999955  0.999948  0.329735  1
  Br  Br24  1  0.999876  0.999886  0.670664  1
  Br  Br25  1  0.670426  0.329363  0.000052  1
  Br  Br26  1  0.329339  0.670415  0.000089  1
  Br  Br27  1  0.682003  0.317604  0.318040  1
  Br  Br28  1  0.317579  0.682236  0.682325  1
  Br  Br29  1  0.317547  0.681939  0.318138  1
  Br  Br30  1  0.682224  0.317634  0.682271  1
  Br  Br31  1  0.320776  0.320809  0.679119  1
  Br  Br32  1  0.680544  0.680511  0.319585  1
  Br  Br33  1  0.249947  0.249917  0.249938  1
  Br  Br34  1  0.749883  0.749930  0.750047  1
