# generated using pymatgen
data_CaGdRh2O7
_symmetry_space_group_name_H-M   'P 1'
_cell_length_a   7.34465565
_cell_length_b   7.35351668
_cell_length_c   7.35351700
_cell_angle_alpha   59.66566788
_cell_angle_beta   60.03985012
_cell_angle_gamma   60.03985924
_symmetry_Int_Tables_number   1
_chemical_formula_structural   CaGdRh2O7
_chemical_formula_sum   'Ca2 Gd2 Rh4 O14'
_cell_volume   280.28335348
_cell_formula_units_Z   2
loop_
 _symmetry_equiv_pos_site_id
 _symmetry_equiv_pos_as_xyz
  1  'x, y, z'
loop_
 _atom_site_type_symbol
 _atom_site_label
 _atom_site_symmetry_multiplicity
 _atom_site_fract_x
 _atom_site_fract_y
 _atom_site_fract_z
 _atom_site_occupancy
  Ca  Ca0  1  0.125000  0.625000  0.125000  1
  Ca  Ca1  1  0.125000  0.125000  0.625000  1
  Gd  Gd2  1  0.125000  0.125000  0.125000  1
  Gd  Gd3  1  0.625000  0.125000  0.125000  1
  Rh  Rh4  1  0.625000  0.625000  0.625000  1
  Rh  Rh5  1  0.625000  0.625000  0.125000  1
  Rh  Rh6  1  0.125000  0.625000  0.625000  1
  Rh  Rh7  1  0.625000  0.125000  0.625000  1
  O  O8  1  0.255092  0.244908  0.244908  1
  O  O9  1  0.297439  0.709261  0.296051  1
  O  O10  1  0.952561  0.953949  0.540739  1
  O  O11  1  0.552750  0.953949  0.540739  1
  O  O12  1  0.697250  0.709261  0.296051  1
  O  O13  1  0.950697  0.549303  0.549303  1
  O  O14  1  0.697250  0.296051  0.709261  1
  O  O15  1  0.297439  0.296051  0.709261  1
  O  O16  1  0.704625  0.295375  0.295375  1
  O  O17  1  0.299303  0.700697  0.700697  1
  O  O18  1  0.952561  0.540739  0.953949  1
  O  O19  1  0.552750  0.540739  0.953949  1
  O  O20  1  0.994908  0.005092  0.005092  1
  O  O21  1  0.545375  0.954625  0.954625  1
