# generated using pymatgen
data_Y5Ho3(LuSi3)2
_symmetry_space_group_name_H-M   'P 1'
_cell_length_a   8.41538403
_cell_length_b   8.41535991
_cell_length_c   6.30413701
_cell_angle_alpha   89.99876159
_cell_angle_beta   89.99919927
_cell_angle_gamma   119.99434119
_symmetry_Int_Tables_number   1
_chemical_formula_structural   Y5Ho3(LuSi3)2
_chemical_formula_sum   'Y5 Ho3 Lu2 Si6'
_cell_volume   386.65859688
_cell_formula_units_Z   1
loop_
 _symmetry_equiv_pos_site_id
 _symmetry_equiv_pos_as_xyz
  1  'x, y, z'
loop_
 _atom_site_type_symbol
 _atom_site_label
 _atom_site_symmetry_multiplicity
 _atom_site_fract_x
 _atom_site_fract_y
 _atom_site_fract_z
 _atom_site_occupancy
  Y  Y0  1  0.243435  0.000008  0.501339  1
  Y  Y1  1  0.000008  0.243434  0.501339  1
  Y  Y2  1  0.244196  0.244196  0.998714  1
  Y  Y3  1  0.756279  0.999705  0.998684  1
  Y  Y4  1  0.999704  0.756280  0.998684  1
  Ho  Ho5  1  0.666733  0.333567  0.250068  1
  Ho  Ho6  1  0.333567  0.666733  0.250069  1
  Ho  Ho7  1  0.755668  0.755668  0.501619  1
  Lu  Lu8  1  0.333645  0.666707  0.749868  1
  Lu  Lu9  1  0.666709  0.333642  0.749865  1
  Si  Si10  1  0.395322  0.395322  0.505273  1
  Si  Si11  1  0.605464  0.999361  0.505410  1
  Si  Si12  1  0.999361  0.605465  0.505410  1
  Si  Si13  1  0.605270  0.605271  0.994536  1
  Si  Si14  1  0.394688  0.000002  0.994559  1
  Si  Si15  1  0.000000  0.394688  0.994559  1
