# generated using pymatgen
data_Sc12Co4SnP
_symmetry_space_group_name_H-M   'P 1'
_cell_length_a   7.72509865
_cell_length_b   7.72509797
_cell_length_c   7.72509648
_cell_angle_alpha   104.83739451
_cell_angle_beta   112.13116874
_cell_angle_gamma   111.54274307
_symmetry_Int_Tables_number   1
_chemical_formula_structural   Sc12Co4SnP
_chemical_formula_sum   'Sc12 Co4 Sn1 P1'
_cell_volume   353.15439808
_cell_formula_units_Z   1
loop_
 _symmetry_equiv_pos_site_id
 _symmetry_equiv_pos_as_xyz
  1  'x, y, z'
loop_
 _atom_site_type_symbol
 _atom_site_label
 _atom_site_symmetry_multiplicity
 _atom_site_fract_x
 _atom_site_fract_y
 _atom_site_fract_z
 _atom_site_occupancy
  Sc  Sc0  1  0.460840  0.276313  0.177994  1
  Sc  Sc1  1  0.098320  0.276313  0.815473  1
  Sc  Sc2  1  0.901680  0.717154  0.177994  1
  Sc  Sc3  1  0.539160  0.717154  0.815473  1
  Sc  Sc4  1  0.304198  0.633428  0.329229  1
  Sc  Sc5  1  0.305056  0.984756  0.679699  1
  Sc  Sc6  1  0.694944  0.374642  0.679699  1
  Sc  Sc7  1  0.695802  0.025030  0.329229  1
  Sc  Sc8  1  0.193919  0.218407  0.412325  1
  Sc  Sc9  1  0.804739  0.782991  0.587731  1
  Sc  Sc10  1  0.195261  0.782991  0.978251  1
  Sc  Sc11  1  0.806081  0.218407  0.024490  1
  Co  Co12  1  0.500000  0.375306  0.875306  1
  Co  Co13  1  0.351137  0.999224  0.350361  1
  Co  Co14  1  0.648863  0.999224  0.648087  1
  Co  Co15  1  0.000000  0.997755  0.997755  1
  Sn  Sn16  1  0.000000  0.501025  0.501025  1
  P  P17  1  0.500000  0.619881  0.119881  1
