# generated using pymatgen
data_MgTi2Tc2C3
_symmetry_space_group_name_H-M   'P 1'
_cell_length_a   3.00693200
_cell_length_b   3.00693107
_cell_length_c   24.32002500
_cell_angle_alpha   90.00000000
_cell_angle_beta   90.00000000
_cell_angle_gamma   119.99998826
_symmetry_Int_Tables_number   1
_chemical_formula_structural   MgTi2Tc2C3
_chemical_formula_sum   'Mg2 Ti4 Tc4 C6'
_cell_volume   190.43281148
_cell_formula_units_Z   2
loop_
 _symmetry_equiv_pos_site_id
 _symmetry_equiv_pos_as_xyz
  1  'x, y, z'
loop_
 _atom_site_type_symbol
 _atom_site_label
 _atom_site_symmetry_multiplicity
 _atom_site_fract_x
 _atom_site_fract_y
 _atom_site_fract_z
 _atom_site_occupancy
  Mg  Mg0  1  0.333333  0.666667  0.250000  1
  Mg  Mg1  1  0.666667  0.333333  0.750000  1
  Ti  Ti2  1  0.333333  0.666667  0.447941  1
  Ti  Ti3  1  0.666667  0.333333  0.552059  1
  Ti  Ti4  1  0.666667  0.333333  0.947941  1
  Ti  Ti5  1  0.333333  0.666667  0.052059  1
  Tc  Tc6  1  0.000000  0.000000  0.348099  1
  Tc  Tc7  1  0.000000  0.000000  0.651901  1
  Tc  Tc8  1  0.000000  0.000000  0.848099  1
  Tc  Tc9  1  0.000000  0.000000  0.151901  1
  C  C10  1  0.000000  0.000000  0.500000  1
  C  C11  1  0.000000  0.000000  0.000000  1
  C  C12  1  0.666667  0.333333  0.394301  1
  C  C13  1  0.333333  0.666667  0.605699  1
  C  C14  1  0.333333  0.666667  0.894301  1
  C  C15  1  0.666667  0.333333  0.105699  1
