# generated using pymatgen
data_La2CdCu10Au
_symmetry_space_group_name_H-M   'P 1'
_cell_length_a   5.10267100
_cell_length_b   8.39350200
_cell_length_c   10.56923282
_cell_angle_alpha   89.84277568
_cell_angle_beta   90.00000000
_cell_angle_gamma   90.00000000
_symmetry_Int_Tables_number   1
_chemical_formula_structural   La2CdCu10Au
_chemical_formula_sum   'La4 Cd2 Cu20 Au2'
_cell_volume   452.67091969
_cell_formula_units_Z   2
loop_
 _symmetry_equiv_pos_site_id
 _symmetry_equiv_pos_as_xyz
  1  'x, y, z'
loop_
 _atom_site_type_symbol
 _atom_site_label
 _atom_site_symmetry_multiplicity
 _atom_site_fract_x
 _atom_site_fract_y
 _atom_site_fract_z
 _atom_site_occupancy
  La  La0  1  0.250000  0.754387  0.071258  1
  La  La1  1  0.750000  0.245613  0.928742  1
  La  La2  1  0.750000  0.736712  0.553891  1
  La  La3  1  0.250000  0.263288  0.446109  1
  Cd  Cd4  1  0.750000  0.857401  0.862450  1
  Cd  Cd5  1  0.250000  0.142599  0.137550  1
  Cu  Cu6  1  0.250000  0.817152  0.744627  1
  Cu  Cu7  1  0.750000  0.182848  0.255373  1
  Cu  Cu8  1  0.750000  0.683964  0.246508  1
  Cu  Cu9  1  0.250000  0.316036  0.753492  1
  Cu  Cu10  1  0.500792  0.566692  0.811655  1
  Cu  Cu11  1  0.499208  0.433308  0.188345  1
  Cu  Cu12  1  0.498950  0.934013  0.313724  1
  Cu  Cu13  1  0.000792  0.433308  0.188345  1
  Cu  Cu14  1  0.501050  0.065987  0.686276  1
  Cu  Cu15  1  0.999208  0.566692  0.811655  1
  Cu  Cu16  1  0.998950  0.065987  0.686276  1
  Cu  Cu17  1  0.001050  0.934013  0.313724  1
  Cu  Cu18  1  0.250000  0.911855  0.515833  1
  Cu  Cu19  1  0.750000  0.088145  0.484167  1
  Cu  Cu20  1  0.750000  0.584355  0.016512  1
  Cu  Cu21  1  0.250000  0.415645  0.983488  1
  Cu  Cu22  1  0.250000  0.560397  0.609407  1
  Cu  Cu23  1  0.750000  0.439603  0.390593  1
  Cu  Cu24  1  0.750000  0.945314  0.108370  1
  Cu  Cu25  1  0.250000  0.054686  0.891630  1
  Au  Au26  1  0.250000  0.640876  0.363801  1
  Au  Au27  1  0.750000  0.359124  0.636199  1
