# generated using pymatgen
data_Lu2AlIrRu
_symmetry_space_group_name_H-M   'P 1'
_cell_length_a   5.44934708
_cell_length_b   5.44934625
_cell_length_c   5.44934609
_cell_angle_alpha   136.94263352
_cell_angle_beta   115.30773147
_cell_angle_gamma   80.90046459
_symmetry_Int_Tables_number   1
_chemical_formula_structural   Lu2AlIrRu
_chemical_formula_sum   'Lu2 Al1 Ir1 Ru1'
_cell_volume   96.70925357
_cell_formula_units_Z   1
loop_
 _symmetry_equiv_pos_site_id
 _symmetry_equiv_pos_as_xyz
  1  'x, y, z'
loop_
 _atom_site_type_symbol
 _atom_site_label
 _atom_site_symmetry_multiplicity
 _atom_site_fract_x
 _atom_site_fract_y
 _atom_site_fract_z
 _atom_site_occupancy
  Lu  Lu0  1  0.298834  0.798202  0.500632  1
  Lu  Lu1  1  0.702429  0.201798  0.500632  1
  Al  Al2  1  0.996826  0.000000  0.996826  1
  Ir  Ir3  1  0.265846  0.500000  0.765846  1
  Ru  Ru4  1  0.736065  0.500000  0.236065  1
