# generated using pymatgen
data_Nd2Cu5Ni3Pt2
_symmetry_space_group_name_H-M   'P 1'
_cell_length_a   4.03645600
_cell_length_b   5.28961218
_cell_length_c   8.77142310
_cell_angle_alpha   93.66030797
_cell_angle_beta   90.00000000
_cell_angle_gamma   90.00000000
_symmetry_Int_Tables_number   1
_chemical_formula_structural   Nd2Cu5Ni3Pt2
_chemical_formula_sum   'Nd2 Cu5 Ni3 Pt2'
_cell_volume   186.89913270
_cell_formula_units_Z   1
loop_
 _symmetry_equiv_pos_site_id
 _symmetry_equiv_pos_as_xyz
  1  'x, y, z'
loop_
 _atom_site_type_symbol
 _atom_site_label
 _atom_site_symmetry_multiplicity
 _atom_site_fract_x
 _atom_site_fract_y
 _atom_site_fract_z
 _atom_site_occupancy
  Nd  Nd0  1  0.000000  0.500000  0.000000  1
  Nd  Nd1  1  0.000000  0.000000  0.500000  1
  Cu  Cu2  1  0.000000  0.477505  0.336382  1
  Cu  Cu3  1  0.000000  0.977719  0.840096  1
  Cu  Cu4  1  0.000000  0.022281  0.159904  1
  Cu  Cu5  1  0.000000  0.522495  0.663618  1
  Cu  Cu6  1  0.500000  0.500000  0.500000  1
  Ni  Ni7  1  0.500000  0.000000  0.000000  1
  Ni  Ni8  1  0.500000  0.249524  0.248349  1
  Ni  Ni9  1  0.500000  0.750476  0.751651  1
  Pt  Pt10  1  0.500000  0.752573  0.249368  1
  Pt  Pt11  1  0.500000  0.247427  0.750632  1
