# generated using pymatgen
data_Ho2Si7(TcNi3)3
_symmetry_space_group_name_H-M   'P 1'
_cell_length_a   9.28531900
_cell_length_b   9.28531913
_cell_length_c   3.71470500
_cell_angle_alpha   90.00000000
_cell_angle_beta   90.00000000
_cell_angle_gamma   120.00000309
_symmetry_Int_Tables_number   1
_chemical_formula_structural   Ho2Si7(TcNi3)3
_chemical_formula_sum   'Ho2 Si7 Tc3 Ni9'
_cell_volume   277.36305488
_cell_formula_units_Z   1
loop_
 _symmetry_equiv_pos_site_id
 _symmetry_equiv_pos_as_xyz
  1  'x, y, z'
loop_
 _atom_site_type_symbol
 _atom_site_label
 _atom_site_symmetry_multiplicity
 _atom_site_fract_x
 _atom_site_fract_y
 _atom_site_fract_z
 _atom_site_occupancy
  Ho  Ho0  1  0.333333  0.666667  0.737984  1
  Ho  Ho1  1  0.666667  0.333333  0.238078  1
  Si  Si2  1  0.000000  0.000000  0.737946  1
  Si  Si3  1  0.405087  0.290321  0.737972  1
  Si  Si4  1  0.709679  0.114765  0.737972  1
  Si  Si5  1  0.885235  0.594913  0.737972  1
  Si  Si6  1  0.595659  0.705843  0.238181  1
  Si  Si7  1  0.294157  0.889817  0.238181  1
  Si  Si8  1  0.110183  0.404341  0.238181  1
  Tc  Tc9  1  0.886073  0.782583  0.238001  1
  Tc  Tc10  1  0.217417  0.103491  0.238001  1
  Tc  Tc11  1  0.896509  0.113927  0.238001  1
  Ni  Ni12  1  0.436656  0.057169  0.738587  1
  Ni  Ni13  1  0.942831  0.379486  0.738587  1
  Ni  Ni14  1  0.620514  0.563344  0.738587  1
  Ni  Ni15  1  0.563787  0.943859  0.237904  1
  Ni  Ni16  1  0.056141  0.619928  0.237904  1
  Ni  Ni17  1  0.380072  0.436213  0.237904  1
  Ni  Ni18  1  0.157175  0.285952  0.738018  1
  Ni  Ni19  1  0.714048  0.871223  0.738018  1
  Ni  Ni20  1  0.128777  0.842825  0.738018  1
