# generated using pymatgen
data_EuTcN3
_symmetry_space_group_name_H-M   'P 1'
_cell_length_a   7.40223241
_cell_length_b   7.40223241
_cell_length_c   6.19312438
_cell_angle_alpha   77.00478104
_cell_angle_beta   77.00478354
_cell_angle_gamma   86.05274099
_symmetry_Int_Tables_number   1
_chemical_formula_structural   EuTcN3
_chemical_formula_sum   'Eu4 Tc4 N12'
_cell_volume   322.12126522
_cell_formula_units_Z   4
loop_
 _symmetry_equiv_pos_site_id
 _symmetry_equiv_pos_as_xyz
  1  'x, y, z'
loop_
 _atom_site_type_symbol
 _atom_site_label
 _atom_site_symmetry_multiplicity
 _atom_site_fract_x
 _atom_site_fract_y
 _atom_site_fract_z
 _atom_site_occupancy
  Eu  Eu0  1  0.323259  0.676741  0.250000  1
  Eu  Eu1  1  0.090931  0.909069  0.750000  1
  Eu  Eu2  1  0.676741  0.323259  0.750000  1
  Eu  Eu3  1  0.909069  0.090931  0.250000  1
  Tc  Tc4  1  0.379326  0.200732  0.252419  1
  Tc  Tc5  1  0.799268  0.620674  0.247581  1
  Tc  Tc6  1  0.200732  0.379326  0.752419  1
  Tc  Tc7  1  0.620674  0.799268  0.747581  1
  N  N8  1  0.671817  0.628382  0.006990  1
  N  N9  1  0.229306  0.005354  0.342054  1
  N  N10  1  0.770694  0.994646  0.657946  1
  N  N11  1  0.871560  0.391858  0.344921  1
  N  N12  1  0.994646  0.770694  0.157946  1
  N  N13  1  0.628382  0.671817  0.506990  1
  N  N14  1  0.005354  0.229306  0.842054  1
  N  N15  1  0.328183  0.371618  0.993010  1
  N  N16  1  0.371618  0.328183  0.493010  1
  N  N17  1  0.608142  0.128440  0.155079  1
  N  N18  1  0.128440  0.608142  0.655079  1
  N  N19  1  0.391858  0.871560  0.844921  1
