# generated using pymatgen
data_Pr3Ho(Si5Os3)2
_symmetry_space_group_name_H-M   'P 1'
_cell_length_a   8.23028007
_cell_length_b   8.20969124
_cell_length_c   5.88031265
_cell_angle_alpha   70.45197888
_cell_angle_beta   70.34900571
_cell_angle_gamma   93.68584312
_symmetry_Int_Tables_number   1
_chemical_formula_structural   Pr3Ho(Si5Os3)2
_chemical_formula_sum   'Pr3 Ho1 Si10 Os6'
_cell_volume   345.54492626
_cell_formula_units_Z   1
loop_
 _symmetry_equiv_pos_site_id
 _symmetry_equiv_pos_as_xyz
  1  'x, y, z'
loop_
 _atom_site_type_symbol
 _atom_site_label
 _atom_site_symmetry_multiplicity
 _atom_site_fract_x
 _atom_site_fract_y
 _atom_site_fract_z
 _atom_site_occupancy
  Pr  Pr0  1  0.868236  0.602373  0.754185  1
  Pr  Pr1  1  0.396799  0.133077  0.745381  1
  Pr  Pr2  1  0.132863  0.396398  0.245648  1
  Ho  Ho3  1  0.602331  0.868087  0.254062  1
  Si  Si4  1  0.061655  0.261524  0.836465  1
  Si  Si5  1  0.739075  0.937371  0.664637  1
  Si  Si6  1  0.933632  0.740857  0.163900  1
  Si  Si7  1  0.259953  0.059166  0.337252  1
  Si  Si8  1  0.208267  0.791453  0.752119  1
  Si  Si9  1  0.789226  0.205994  0.250008  1
  Si  Si10  1  0.513572  0.489513  0.749202  1
  Si  Si11  1  0.490715  0.515852  0.247039  1
  Si  Si12  1  0.771878  0.225817  0.753162  1
  Si  Si13  1  0.231411  0.772413  0.249139  1
  Os  Os14  1  0.259915  0.544120  0.630373  1
  Os  Os15  1  0.459864  0.744813  0.864773  1
  Os  Os16  1  0.743192  0.457261  0.368698  1
  Os  Os17  1  0.541299  0.254497  0.132271  1
  Os  Os18  1  0.001288  0.997006  0.750968  1
  Os  Os19  1  0.994832  0.002410  0.250719  1
