# generated using pymatgen
data_CeY5NbO12
_symmetry_space_group_name_H-M   'P 1'
_cell_length_a   6.54758228
_cell_length_b   6.52188838
_cell_length_c   6.49284700
_cell_angle_alpha   98.65525290
_cell_angle_beta   98.99634510
_cell_angle_gamma   98.92549331
_symmetry_Int_Tables_number   1
_chemical_formula_structural   CeY5NbO12
_chemical_formula_sum   'Ce1 Y5 Nb1 O12'
_cell_volume   266.16053457
_cell_formula_units_Z   1
loop_
 _symmetry_equiv_pos_site_id
 _symmetry_equiv_pos_as_xyz
  1  'x, y, z'
loop_
 _atom_site_type_symbol
 _atom_site_label
 _atom_site_symmetry_multiplicity
 _atom_site_fract_x
 _atom_site_fract_y
 _atom_site_fract_z
 _atom_site_occupancy
  Ce  Ce0  1  0.605635  0.308266  0.140098  1
  Y  Y1  1  0.142468  0.612101  0.310009  1
  Y  Y2  1  0.691287  0.858135  0.393960  1
  Y  Y3  1  0.301964  0.138571  0.609958  1
  Y  Y4  1  0.865908  0.389777  0.694531  1
  Y  Y5  1  0.385944  0.694391  0.856708  1
  Nb  Nb6  1  0.994673  0.996584  0.001076  1
  O  O7  1  0.696615  0.925586  0.043267  1
  O  O8  1  0.960256  0.303517  0.073050  1
  O  O9  1  0.433143  0.585453  0.176433  1
  O  O10  1  0.075792  0.959547  0.303555  1
  O  O11  1  0.822210  0.565682  0.408109  1
  O  O12  1  0.588784  0.182213  0.428905  1
  O  O13  1  0.413777  0.825330  0.565614  1
  O  O14  1  0.179864  0.434819  0.590793  1
  O  O15  1  0.925410  0.042069  0.695339  1
  O  O16  1  0.570517  0.409194  0.827888  1
  O  O17  1  0.041188  0.697161  0.925021  1
  O  O18  1  0.304565  0.071600  0.955685  1
