# generated using pymatgen
data_Tb2PrSi5PPd20
_symmetry_space_group_name_H-M   'P 1'
_cell_length_a   8.74276545
_cell_length_b   8.74276564
_cell_length_c   8.74093600
_cell_angle_alpha   60.00692249
_cell_angle_beta   60.00692180
_cell_angle_gamma   60.00226994
_symmetry_Int_Tables_number   1
_chemical_formula_structural   Tb2PrSi5PPd20
_chemical_formula_sum   'Tb2 Pr1 Si5 P1 Pd20'
_cell_volume   472.49094442
_cell_formula_units_Z   1
loop_
 _symmetry_equiv_pos_site_id
 _symmetry_equiv_pos_as_xyz
  1  'x, y, z'
loop_
 _atom_site_type_symbol
 _atom_site_label
 _atom_site_symmetry_multiplicity
 _atom_site_fract_x
 _atom_site_fract_y
 _atom_site_fract_z
 _atom_site_occupancy
  Tb  Tb0  1  0.748600  0.748600  0.751400  1
  Tb  Tb1  1  0.000950  0.000950  0.999050  1
  Pr  Pr2  1  0.248834  0.248834  0.251166  1
  Si  Si3  1  0.732714  0.265374  0.267259  1
  Si  Si4  1  0.265374  0.732714  0.734653  1
  Si  Si5  1  0.265374  0.732714  0.267259  1
  Si  Si6  1  0.732714  0.265374  0.734653  1
  Si  Si7  1  0.267364  0.267364  0.732636  1
  P  P8  1  0.735284  0.735284  0.264716  1
  Pd  Pd9  1  0.386267  0.386267  0.386040  1
  Pd  Pd10  1  0.616130  0.616130  0.614815  1
  Pd  Pd11  1  0.386267  0.386267  0.841427  1
  Pd  Pd12  1  0.387995  0.838999  0.386504  1
  Pd  Pd13  1  0.616130  0.616130  0.152923  1
  Pd  Pd14  1  0.616549  0.150590  0.616430  1
  Pd  Pd15  1  0.838999  0.387995  0.386504  1
  Pd  Pd16  1  0.150590  0.616549  0.616430  1
  Pd  Pd17  1  0.346394  0.999312  0.998742  1
  Pd  Pd18  1  0.655594  0.997368  0.000681  1
  Pd  Pd19  1  0.999312  0.346394  0.655551  1
  Pd  Pd20  1  0.997368  0.655594  0.346357  1
  Pd  Pd21  1  0.999312  0.346394  0.998742  1
  Pd  Pd22  1  0.655594  0.997368  0.346357  1
  Pd  Pd23  1  0.997368  0.655594  0.000681  1
  Pd  Pd24  1  0.346394  0.999312  0.655551  1
  Pd  Pd25  1  0.000659  0.000659  0.345182  1
  Pd  Pd26  1  0.000659  0.000659  0.653501  1
  Pd  Pd27  1  0.656666  0.348543  0.997395  1
  Pd  Pd28  1  0.348543  0.656666  0.997395  1
