# generated using pymatgen
data_YEr(Sc4Bi3)2
_symmetry_space_group_name_H-M   'P 1'
_cell_length_a   7.89183000
_cell_length_b   9.06150300
_cell_length_c   11.56150800
_cell_angle_alpha   90.00000000
_cell_angle_beta   90.00000000
_cell_angle_gamma   90.00000000
_symmetry_Int_Tables_number   1
_chemical_formula_structural   YEr(Sc4Bi3)2
_chemical_formula_sum   'Y2 Er2 Sc16 Bi12'
_cell_volume   826.78472437
_cell_formula_units_Z   2
loop_
 _symmetry_equiv_pos_site_id
 _symmetry_equiv_pos_as_xyz
  1  'x, y, z'
loop_
 _atom_site_type_symbol
 _atom_site_label
 _atom_site_symmetry_multiplicity
 _atom_site_fract_x
 _atom_site_fract_y
 _atom_site_fract_z
 _atom_site_occupancy
  Y  Y0  1  0.315855  0.250000  0.218521  1
  Y  Y1  1  0.815855  0.250000  0.281479  1
  Er  Er2  1  0.684664  0.750000  0.781785  1
  Er  Er3  1  0.184664  0.750000  0.718215  1
  Sc  Sc4  1  0.348703  0.750000  0.220236  1
  Sc  Sc5  1  0.848703  0.750000  0.279764  1
  Sc  Sc6  1  0.651237  0.250000  0.779603  1
  Sc  Sc7  1  0.151237  0.250000  0.720397  1
  Sc  Sc8  1  0.692450  0.567649  0.061681  1
  Sc  Sc9  1  0.192450  0.932351  0.438319  1
  Sc  Sc10  1  0.307407  0.067591  0.937973  1
  Sc  Sc11  1  0.807407  0.432409  0.562027  1
  Sc  Sc12  1  0.307407  0.432409  0.937973  1
  Sc  Sc13  1  0.807407  0.067591  0.562027  1
  Sc  Sc14  1  0.692450  0.932351  0.061681  1
  Sc  Sc15  1  0.192450  0.567649  0.438319  1
  Sc  Sc16  1  0.482195  0.250000  0.489802  1
  Sc  Sc17  1  0.982195  0.250000  0.010198  1
  Sc  Sc18  1  0.517727  0.750000  0.511074  1
  Sc  Sc19  1  0.017727  0.750000  0.988926  1
  Bi  Bi20  1  0.401366  0.750000  0.965738  1
  Bi  Bi21  1  0.901366  0.750000  0.534262  1
  Bi  Bi22  1  0.599067  0.250000  0.033048  1
  Bi  Bi23  1  0.099067  0.250000  0.466952  1
  Bi  Bi24  1  0.563457  0.989546  0.328397  1
  Bi  Bi25  1  0.063457  0.510454  0.171603  1
  Bi  Bi26  1  0.436279  0.490895  0.672175  1
  Bi  Bi27  1  0.936279  0.009105  0.827825  1
  Bi  Bi28  1  0.436279  0.009105  0.672175  1
  Bi  Bi29  1  0.936279  0.490895  0.827825  1
  Bi  Bi30  1  0.563457  0.510454  0.328397  1
  Bi  Bi31  1  0.063457  0.989546  0.171603  1
