# generated using pymatgen
data_Tb6NbCo16NiP12
_symmetry_space_group_name_H-M   'P 1'
_cell_length_a   3.71983900
_cell_length_b   10.57556700
_cell_length_c   12.30202700
_cell_angle_alpha   90.00000000
_cell_angle_beta   90.00000000
_cell_angle_gamma   90.00000000
_symmetry_Int_Tables_number   1
_chemical_formula_structural   Tb6NbCo16NiP12
_chemical_formula_sum   'Tb6 Nb1 Co16 Ni1 P12'
_cell_volume   483.95444183
_cell_formula_units_Z   1
loop_
 _symmetry_equiv_pos_site_id
 _symmetry_equiv_pos_as_xyz
  1  'x, y, z'
loop_
 _atom_site_type_symbol
 _atom_site_label
 _atom_site_symmetry_multiplicity
 _atom_site_fract_x
 _atom_site_fract_y
 _atom_site_fract_z
 _atom_site_occupancy
  Tb  Tb0  1  0.000000  0.500000  0.524809  1
  Tb  Tb1  1  0.500000  0.000000  0.478211  1
  Tb  Tb2  1  0.500000  0.819667  0.207269  1
  Tb  Tb3  1  0.500000  0.180333  0.207269  1
  Tb  Tb4  1  0.000000  0.684179  0.796475  1
  Tb  Tb5  1  0.000000  0.315821  0.796475  1
  Nb  Nb6  1  0.500000  0.500000  0.154547  1
  Co  Co7  1  0.000000  0.000000  0.839038  1
  Co  Co8  1  0.000000  0.000000  0.296450  1
  Co  Co9  1  0.000000  0.500000  0.984829  1
  Co  Co10  1  0.500000  0.000000  0.014091  1
  Co  Co11  1  0.500000  0.329850  0.989655  1
  Co  Co12  1  0.500000  0.670150  0.989655  1
  Co  Co13  1  0.000000  0.163790  0.003852  1
  Co  Co14  1  0.000000  0.836210  0.003852  1
  Co  Co15  1  0.500000  0.295425  0.432733  1
  Co  Co16  1  0.500000  0.704575  0.432733  1
  Co  Co17  1  0.000000  0.202315  0.569446  1
  Co  Co18  1  0.000000  0.797685  0.569446  1
  Co  Co19  1  0.500000  0.879732  0.708746  1
  Co  Co20  1  0.500000  0.120268  0.708746  1
  Co  Co21  1  0.000000  0.622401  0.294136  1
  Co  Co22  1  0.000000  0.377599  0.294136  1
  Ni  Ni23  1  0.500000  0.500000  0.702265  1
  P  P24  1  0.500000  0.500000  0.882237  1
  P  P25  1  0.000000  0.000000  0.116816  1
  P  P26  1  0.500000  0.500000  0.354680  1
  P  P27  1  0.000000  0.000000  0.656516  1
  P  P28  1  0.500000  0.308520  0.616372  1
  P  P29  1  0.500000  0.691480  0.616372  1
  P  P30  1  0.000000  0.188675  0.385712  1
  P  P31  1  0.000000  0.811325  0.385712  1
  P  P32  1  0.500000  0.851497  0.890740  1
  P  P33  1  0.500000  0.148503  0.890740  1
  P  P34  1  0.000000  0.660876  0.102622  1
  P  P35  1  0.000000  0.339124  0.102622  1
