# generated using pymatgen
data_CeSmY4Ta2O14
_symmetry_space_group_name_H-M   'P 1'
_cell_length_a   6.51643284
_cell_length_b   6.51643294
_cell_length_c   7.60546300
_cell_angle_alpha   90.00216248
_cell_angle_beta   89.99783953
_cell_angle_gamma   109.33865410
_symmetry_Int_Tables_number   1
_chemical_formula_structural   CeSmY4Ta2O14
_chemical_formula_sum   'Ce1 Sm1 Y4 Ta2 O14'
_cell_volume   304.73561002
_cell_formula_units_Z   1
loop_
 _symmetry_equiv_pos_site_id
 _symmetry_equiv_pos_as_xyz
  1  'x, y, z'
loop_
 _atom_site_type_symbol
 _atom_site_label
 _atom_site_symmetry_multiplicity
 _atom_site_fract_x
 _atom_site_fract_y
 _atom_site_fract_z
 _atom_site_occupancy
  Ce  Ce0  1  0.500000  0.500000  0.500000  1
  Sm  Sm1  1  0.500000  0.500000  0.000000  1
  Y  Y2  1  0.533380  0.000623  0.750357  1
  Y  Y3  1  0.000623  0.533380  0.249643  1
  Y  Y4  1  0.466620  0.999377  0.249643  1
  Y  Y5  1  0.999377  0.466620  0.750357  1
  Ta  Ta6  1  0.000000  0.000000  0.500000  1
  Ta  Ta7  1  0.000000  0.000000  0.000000  1
  O  O8  1  0.680230  0.931872  0.468039  1
  O  O9  1  0.931872  0.680230  0.531961  1
  O  O10  1  0.679888  0.929471  0.031732  1
  O  O11  1  0.929471  0.679888  0.968268  1
  O  O12  1  0.319770  0.068128  0.531961  1
  O  O13  1  0.068128  0.319770  0.468039  1
  O  O14  1  0.320112  0.070529  0.968268  1
  O  O15  1  0.070529  0.320112  0.031732  1
  O  O16  1  0.936388  0.063612  0.749938  1
  O  O17  1  0.063612  0.936388  0.250062  1
  O  O18  1  0.366024  0.633975  0.752537  1
  O  O19  1  0.633975  0.366024  0.247463  1
  O  O20  1  0.641031  0.358969  0.751988  1
  O  O21  1  0.358969  0.641031  0.248012  1
