# generated using pymatgen
data_Sm2Lu2TcB12Os
_symmetry_space_group_name_H-M   'P 1'
_cell_length_a   3.66428000
_cell_length_b   9.13754802
_cell_length_c   11.56753204
_cell_angle_alpha   89.91963439
_cell_angle_beta   90.00000000
_cell_angle_gamma   90.00000000
_symmetry_Int_Tables_number   1
_chemical_formula_structural   Sm2Lu2TcB12Os
_chemical_formula_sum   'Sm4 Lu4 Tc2 B24 Os2'
_cell_volume   387.30990889
_cell_formula_units_Z   2
loop_
 _symmetry_equiv_pos_site_id
 _symmetry_equiv_pos_as_xyz
  1  'x, y, z'
loop_
 _atom_site_type_symbol
 _atom_site_label
 _atom_site_symmetry_multiplicity
 _atom_site_fract_x
 _atom_site_fract_y
 _atom_site_fract_z
 _atom_site_occupancy
  Sm  Sm0  1  0.000000  0.323753  0.415108  1
  Sm  Sm1  1  0.000000  0.676247  0.584892  1
  Sm  Sm2  1  0.000000  0.820717  0.086993  1
  Sm  Sm3  1  0.000000  0.179283  0.913007  1
  Lu  Lu4  1  0.000000  0.942082  0.371108  1
  Lu  Lu5  1  0.000000  0.057918  0.628892  1
  Lu  Lu6  1  0.000000  0.444204  0.129822  1
  Lu  Lu7  1  0.000000  0.555796  0.870178  1
  Tc  Tc8  1  0.000000  0.639678  0.318748  1
  Tc  Tc9  1  0.000000  0.360322  0.681252  1
  B  B10  1  0.500000  0.554546  0.431310  1
  B  B11  1  0.500000  0.445454  0.568690  1
  B  B12  1  0.500000  0.055119  0.068667  1
  B  B13  1  0.500000  0.944881  0.931333  1
  B  B14  1  0.500000  0.750543  0.417285  1
  B  B15  1  0.500000  0.249457  0.582715  1
  B  B16  1  0.500000  0.250885  0.082887  1
  B  B17  1  0.500000  0.749115  0.917113  1
  B  B18  1  0.500000  0.791934  0.265816  1
  B  B19  1  0.500000  0.208066  0.734183  1
  B  B20  1  0.500000  0.291304  0.234026  1
  B  B21  1  0.500000  0.708696  0.765975  1
  B  B22  1  0.500000  0.629829  0.184943  1
  B  B23  1  0.500000  0.370171  0.815057  1
  B  B24  1  0.500000  0.129411  0.314490  1
  B  B25  1  0.500000  0.870589  0.685510  1
  B  B26  1  0.500000  0.983347  0.213416  1
  B  B27  1  0.500000  0.016653  0.786584  1
  B  B28  1  0.500000  0.483241  0.286102  1
  B  B29  1  0.500000  0.516759  0.713898  1
  B  B30  1  0.500000  0.598915  0.026839  1
  B  B31  1  0.500000  0.401085  0.973161  1
  B  B32  1  0.500000  0.098640  0.472658  1
  B  B33  1  0.500000  0.901360  0.527342  1
  Os  Os34  1  0.000000  0.138907  0.180103  1
  Os  Os35  1  0.000000  0.861093  0.819897  1
