# generated using pymatgen
data_Er8TiV8Si16W3
_symmetry_space_group_name_H-M   'P 1'
_cell_length_a   6.82682140
_cell_length_b   6.82682058
_cell_length_c   12.65503272
_cell_angle_alpha   90.03536088
_cell_angle_beta   89.96463885
_cell_angle_gamma   90.02018438
_symmetry_Int_Tables_number   1
_chemical_formula_structural   Er8TiV8Si16W3
_chemical_formula_sum   'Er8 Ti1 V8 Si16 W3'
_cell_volume   589.79367478
_cell_formula_units_Z   1
loop_
 _symmetry_equiv_pos_site_id
 _symmetry_equiv_pos_as_xyz
  1  'x, y, z'
loop_
 _atom_site_type_symbol
 _atom_site_label
 _atom_site_symmetry_multiplicity
 _atom_site_fract_x
 _atom_site_fract_y
 _atom_site_fract_z
 _atom_site_occupancy
  Er  Er0  1  0.337997  0.001534  0.469179  1
  Er  Er1  1  0.498431  0.838771  0.720532  1
  Er  Er2  1  0.500178  0.161380  0.219795  1
  Er  Er3  1  0.838771  0.498431  0.279468  1
  Er  Er4  1  0.161380  0.500178  0.780205  1
  Er  Er5  1  0.661592  0.999854  0.969839  1
  Er  Er6  1  0.001534  0.337997  0.530821  1
  Er  Er7  1  0.999854  0.661592  0.030161  1
  Ti  Ti8  1  0.670230  0.670230  0.500000  1
  V  V9  1  0.158717  0.006925  0.874581  1
  V  V10  1  0.491543  0.658826  0.124419  1
  V  V11  1  0.506298  0.341236  0.625191  1
  V  V12  1  0.658826  0.491543  0.875581  1
  V  V13  1  0.341236  0.506298  0.374809  1
  V  V14  1  0.840137  0.991333  0.374189  1
  V  V15  1  0.006925  0.158717  0.125419  1
  V  V16  1  0.991333  0.840137  0.625811  1
  Si  Si17  1  0.201096  0.124825  0.683407  1
  Si  Si18  1  0.375988  0.701125  0.933194  1
  Si  Si19  1  0.625681  0.298055  0.434242  1
  Si  Si20  1  0.701125  0.375988  0.066806  1
  Si  Si21  1  0.298055  0.625681  0.565758  1
  Si  Si22  1  0.798594  0.875408  0.183561  1
  Si  Si23  1  0.124825  0.201096  0.316593  1
  Si  Si24  1  0.875408  0.798594  0.816439  1
  Si  Si25  1  0.288851  0.959221  0.063298  1
  Si  Si26  1  0.541203  0.788325  0.313567  1
  Si  Si27  1  0.458270  0.211068  0.813857  1
  Si  Si28  1  0.788325  0.541203  0.686433  1
  Si  Si29  1  0.211068  0.458270  0.186143  1
  Si  Si30  1  0.710846  0.043166  0.564493  1
  Si  Si31  1  0.959221  0.288851  0.936702  1
  Si  Si32  1  0.043166  0.710846  0.435507  1
  W  W33  1  0.330800  0.330800  0.000000  1
  W  W34  1  0.170789  0.831709  0.248620  1
  W  W35  1  0.831709  0.170789  0.751380  1
