# generated using pymatgen
data_Tb3Er3Co17TcP12
_symmetry_space_group_name_H-M   'P 1'
_cell_length_a   3.68945300
_cell_length_b   10.50599100
_cell_length_c   12.19839600
_cell_angle_alpha   89.99716356
_cell_angle_beta   90.00000000
_cell_angle_gamma   90.00000000
_symmetry_Int_Tables_number   1
_chemical_formula_structural   Tb3Er3Co17TcP12
_chemical_formula_sum   'Tb3 Er3 Co17 Tc1 P12'
_cell_volume   472.82641865
_cell_formula_units_Z   1
loop_
 _symmetry_equiv_pos_site_id
 _symmetry_equiv_pos_as_xyz
  1  'x, y, z'
loop_
 _atom_site_type_symbol
 _atom_site_label
 _atom_site_symmetry_multiplicity
 _atom_site_fract_x
 _atom_site_fract_y
 _atom_site_fract_z
 _atom_site_occupancy
  Tb  Tb0  1  0.000000  0.500083  0.523936  1
  Tb  Tb1  1  0.500000  0.999969  0.478052  1
  Tb  Tb2  1  0.000000  0.317309  0.795040  1
  Er  Er3  1  0.500000  0.817677  0.206606  1
  Er  Er4  1  0.500000  0.182209  0.206427  1
  Er  Er5  1  0.000000  0.683059  0.795250  1
  Co  Co6  1  0.000000  0.999862  0.840117  1
  Co  Co7  1  0.500000  0.500993  0.703802  1
  Co  Co8  1  0.000000  0.999833  0.295174  1
  Co  Co9  1  0.000000  0.500499  0.987927  1
  Co  Co10  1  0.500000  0.999523  0.015097  1
  Co  Co11  1  0.500000  0.331899  0.991789  1
  Co  Co12  1  0.500000  0.668531  0.991213  1
  Co  Co13  1  0.000000  0.165939  0.006213  1
  Co  Co14  1  0.000000  0.833597  0.005775  1
  Co  Co15  1  0.500000  0.296415  0.429826  1
  Co  Co16  1  0.500000  0.703687  0.430309  1
  Co  Co17  1  0.000000  0.203122  0.568637  1
  Co  Co18  1  0.000000  0.796710  0.569465  1
  Co  Co19  1  0.500000  0.878614  0.709763  1
  Co  Co20  1  0.500000  0.120302  0.709230  1
  Co  Co21  1  0.000000  0.621199  0.291299  1
  Co  Co22  1  0.000000  0.378880  0.290972  1
  Tc  Tc23  1  0.500000  0.500238  0.156707  1
  P  P24  1  0.500000  0.500938  0.881874  1
  P  P25  1  0.000000  0.999705  0.117522  1
  P  P26  1  0.500000  0.499960  0.348499  1
  P  P27  1  0.000000  0.000066  0.656265  1
  P  P28  1  0.500000  0.310682  0.616134  1
  P  P29  1  0.500000  0.689446  0.617289  1
  P  P30  1  0.000000  0.188444  0.383096  1
  P  P31  1  0.000000  0.811357  0.383470  1
  P  P32  1  0.500000  0.849176  0.891781  1
  P  P33  1  0.500000  0.149924  0.892433  1
  P  P34  1  0.000000  0.656523  0.106653  1
  P  P35  1  0.000000  0.343629  0.106359  1
