# generated using pymatgen
data_Ti6AlGa(CN)2
_symmetry_space_group_name_H-M   'P 1'
_cell_length_a   3.06213800
_cell_length_b   3.06213824
_cell_length_c   18.25003800
_cell_angle_alpha   90.00000000
_cell_angle_beta   90.00000000
_cell_angle_gamma   120.00001899
_symmetry_Int_Tables_number   1
_chemical_formula_structural   Ti6AlGa(CN)2
_chemical_formula_sum   'Ti6 Al1 Ga1 C2 N2'
_cell_volume   148.19852251
_cell_formula_units_Z   1
loop_
 _symmetry_equiv_pos_site_id
 _symmetry_equiv_pos_as_xyz
  1  'x, y, z'
loop_
 _atom_site_type_symbol
 _atom_site_label
 _atom_site_symmetry_multiplicity
 _atom_site_fract_x
 _atom_site_fract_y
 _atom_site_fract_z
 _atom_site_occupancy
  Ti  Ti0  1  0.666667  0.333333  0.373479  1
  Ti  Ti1  1  0.333333  0.666667  0.870412  1
  Ti  Ti2  1  0.333333  0.666667  0.630256  1
  Ti  Ti3  1  0.666667  0.333333  0.126951  1
  Ti  Ti4  1  0.000000  0.000000  0.501020  1
  Ti  Ti5  1  0.000000  0.000000  0.997856  1
  Al  Al6  1  0.000000  0.000000  0.251035  1
  Ga  Ga7  1  0.000000  0.000000  0.750962  1
  C  C8  1  0.333333  0.666667  0.067293  1
  C  C9  1  0.666667  0.333333  0.570815  1
  N  N10  1  0.333333  0.666667  0.431680  1
  N  N11  1  0.666667  0.333333  0.928243  1
