# generated using pymatgen
data_Gd3Y5(Ho3Pb4)4
_symmetry_space_group_name_H-M   'P 1'
_cell_length_a   8.20508924
_cell_length_b   8.28396410
_cell_length_c   15.63251700
_cell_angle_alpha   90.00767728
_cell_angle_beta   90.01390307
_cell_angle_gamma   90.00409269
_symmetry_Int_Tables_number   1
_chemical_formula_structural   Gd3Y5(Ho3Pb4)4
_chemical_formula_sum   'Gd3 Y5 Ho12 Pb16'
_cell_volume   1062.55252754
_cell_formula_units_Z   1
loop_
 _symmetry_equiv_pos_site_id
 _symmetry_equiv_pos_as_xyz
  1  'x, y, z'
loop_
 _atom_site_type_symbol
 _atom_site_label
 _atom_site_symmetry_multiplicity
 _atom_site_fract_x
 _atom_site_fract_y
 _atom_site_fract_z
 _atom_site_occupancy
  Gd  Gd0  1  0.968511  0.822694  0.401607  1
  Gd  Gd1  1  0.531512  0.322272  0.597509  1
  Gd  Gd2  1  0.031657  0.177273  0.902245  1
  Y  Y3  1  0.533801  0.324036  0.900852  1
  Y  Y4  1  0.033912  0.176353  0.599319  1
  Y  Y5  1  0.466111  0.676378  0.400738  1
  Y  Y6  1  0.966321  0.823223  0.099389  1
  Y  Y7  1  0.467039  0.676832  0.098648  1
  Ho  Ho8  1  0.374207  0.842318  0.878829  1
  Ho  Ho9  1  0.873702  0.657711  0.620998  1
  Ho  Ho10  1  0.626485  0.157536  0.378361  1
  Ho  Ho11  1  0.126096  0.342182  0.121072  1
  Ho  Ho12  1  0.625752  0.157375  0.121705  1
  Ho  Ho13  1  0.125963  0.342790  0.378413  1
  Ho  Ho14  1  0.374018  0.842763  0.621680  1
  Ho  Ho15  1  0.874182  0.657285  0.878592  1
  Ho  Ho16  1  0.206904  0.504237  0.749942  1
  Ho  Ho17  1  0.706838  0.995513  0.750190  1
  Ho  Ho18  1  0.793262  0.495763  0.249515  1
  Ho  Ho19  1  0.293148  0.004432  0.250090  1
  Pb  Pb20  1  0.285265  0.034471  0.043732  1
  Pb  Pb21  1  0.784757  0.464900  0.456128  1
  Pb  Pb22  1  0.715375  0.964846  0.543485  1
  Pb  Pb23  1  0.216410  0.536047  0.957072  1
  Pb  Pb24  1  0.714657  0.962468  0.957739  1
  Pb  Pb25  1  0.214832  0.537429  0.542631  1
  Pb  Pb26  1  0.285553  0.037433  0.457318  1
  Pb  Pb27  1  0.783900  0.464056  0.042813  1
  Pb  Pb28  1  0.569334  0.626276  0.750330  1
  Pb  Pb29  1  0.069266  0.873423  0.749933  1
  Pb  Pb30  1  0.430638  0.373856  0.250135  1
  Pb  Pb31  1  0.930808  0.126552  0.249706  1
  Pb  Pb32  1  0.345059  0.153539  0.750678  1
  Pb  Pb33  1  0.844943  0.346659  0.749461  1
  Pb  Pb34  1  0.654031  0.845818  0.249974  1
  Pb  Pb35  1  0.155755  0.653257  0.249171  1
