# generated using pymatgen
data_Y5Er5(In2Sb)2
_symmetry_space_group_name_H-M   'P 1'
_cell_length_a   8.96491919
_cell_length_b   8.92449399
_cell_length_c   6.57450100
_cell_angle_alpha   90.00000000
_cell_angle_beta   90.00000000
_cell_angle_gamma   119.83869107
_symmetry_Int_Tables_number   1
_chemical_formula_structural   Y5Er5(In2Sb)2
_chemical_formula_sum   'Y5 Er5 In4 Sb2'
_cell_volume   456.27538702
_cell_formula_units_Z   1
loop_
 _symmetry_equiv_pos_site_id
 _symmetry_equiv_pos_as_xyz
  1  'x, y, z'
loop_
 _atom_site_type_symbol
 _atom_site_label
 _atom_site_symmetry_multiplicity
 _atom_site_fract_x
 _atom_site_fract_y
 _atom_site_fract_z
 _atom_site_occupancy
  Y  Y0  1  0.003319  0.766064  0.750000  1
  Y  Y1  1  0.003373  0.237386  0.250000  1
  Y  Y2  1  0.764690  0.759980  0.250000  1
  Y  Y3  1  0.764320  0.004688  0.750000  1
  Y  Y4  1  0.234903  0.236696  0.750000  1
  Er  Er5  1  0.235027  0.998156  0.250000  1
  Er  Er6  1  0.329646  0.664799  0.499886  1
  Er  Er7  1  0.664995  0.332408  0.000301  1
  Er  Er8  1  0.664995  0.332408  0.499699  1
  Er  Er9  1  0.329646  0.664799  0.000114  1
  In  In10  1  0.399572  0.001352  0.750000  1
  In  In11  1  0.399082  0.397424  0.250000  1
  In  In12  1  0.998726  0.597163  0.250000  1
  In  In13  1  0.998031  0.401858  0.750000  1
  Sb  Sb14  1  0.604903  0.606798  0.750000  1
  Sb  Sb15  1  0.604776  0.998023  0.250000  1
