# generated using pymatgen
data_Ac2NiB4Os3
_symmetry_space_group_name_H-M   'P 1'
_cell_length_a   7.08804990
_cell_length_b   6.16790863
_cell_length_c   5.60794030
_cell_angle_alpha   73.84187985
_cell_angle_beta   56.70023821
_cell_angle_gamma   50.36372311
_symmetry_Int_Tables_number   1
_chemical_formula_structural   Ac2NiB4Os3
_chemical_formula_sum   'Ac2 Ni1 B4 Os3'
_cell_volume   156.81895909
_cell_formula_units_Z   1
loop_
 _symmetry_equiv_pos_site_id
 _symmetry_equiv_pos_as_xyz
  1  'x, y, z'
loop_
 _atom_site_type_symbol
 _atom_site_label
 _atom_site_symmetry_multiplicity
 _atom_site_fract_x
 _atom_site_fract_y
 _atom_site_fract_z
 _atom_site_occupancy
  Ac  Ac0  1  0.006405  0.006405  0.993595  1
  Ac  Ac1  1  0.246565  0.246565  0.253435  1
  Ni  Ni2  1  0.628410  0.628410  0.371590  1
  B  B3  1  0.325953  0.665273  0.318465  1
  B  B4  1  0.665273  0.325953  0.690310  1
  B  B5  1  0.580853  0.922465  0.578597  1
  B  B6  1  0.922465  0.580853  0.918085  1
  Os  Os7  1  0.369250  0.369250  0.630750  1
  Os  Os8  1  0.619051  0.619051  0.880949  1
  Os  Os9  1  0.885776  0.885776  0.614224  1
