# generated using pymatgen
data_Dy4Y(Tm5Bi4)3
_symmetry_space_group_name_H-M   'P 1'
_cell_length_a   8.19686960
_cell_length_b   9.44243200
_cell_length_c   11.94426687
_cell_angle_alpha   90.00000000
_cell_angle_beta   90.04380889
_cell_angle_gamma   90.00000000
_symmetry_Int_Tables_number   1
_chemical_formula_structural   Dy4Y(Tm5Bi4)3
_chemical_formula_sum   'Dy4 Y1 Tm15 Bi12'
_cell_volume   924.46668142
_cell_formula_units_Z   1
loop_
 _symmetry_equiv_pos_site_id
 _symmetry_equiv_pos_as_xyz
  1  'x, y, z'
loop_
 _atom_site_type_symbol
 _atom_site_label
 _atom_site_symmetry_multiplicity
 _atom_site_fract_x
 _atom_site_fract_y
 _atom_site_fract_z
 _atom_site_occupancy
  Dy  Dy0  1  0.312840  0.250000  0.218178  1
  Dy  Dy1  1  0.812529  0.250000  0.281974  1
  Dy  Dy2  1  0.687460  0.750000  0.781744  1
  Dy  Dy3  1  0.187314  0.750000  0.718131  1
  Y  Y4  1  0.352459  0.750000  0.216435  1
  Tm  Tm5  1  0.852358  0.750000  0.282823  1
  Tm  Tm6  1  0.647386  0.250000  0.782806  1
  Tm  Tm7  1  0.147205  0.250000  0.717343  1
  Tm  Tm8  1  0.692548  0.565698  0.059276  1
  Tm  Tm9  1  0.192091  0.934532  0.441247  1
  Tm  Tm10  1  0.307633  0.065776  0.940557  1
  Tm  Tm11  1  0.807650  0.434180  0.559385  1
  Tm  Tm12  1  0.307633  0.434224  0.940557  1
  Tm  Tm13  1  0.807650  0.065820  0.559385  1
  Tm  Tm14  1  0.692548  0.934302  0.059276  1
  Tm  Tm15  1  0.192091  0.565468  0.441247  1
  Tm  Tm16  1  0.476465  0.250000  0.488982  1
  Tm  Tm17  1  0.976231  0.250000  0.011021  1
  Tm  Tm18  1  0.524075  0.750000  0.511697  1
  Tm  Tm19  1  0.023720  0.750000  0.988751  1
  Bi  Bi20  1  0.405451  0.750000  0.957076  1
  Bi  Bi21  1  0.904888  0.750000  0.541348  1
  Bi  Bi22  1  0.595052  0.250000  0.041526  1
  Bi  Bi23  1  0.095026  0.250000  0.458561  1
  Bi  Bi24  1  0.566158  0.995745  0.326472  1
  Bi  Bi25  1  0.064549  0.504706  0.173925  1
  Bi  Bi26  1  0.434594  0.494845  0.673972  1
  Bi  Bi27  1  0.934547  0.005258  0.825969  1
  Bi  Bi28  1  0.434594  0.005155  0.673972  1
  Bi  Bi29  1  0.934547  0.494742  0.825969  1
  Bi  Bi30  1  0.566158  0.504255  0.326472  1
  Bi  Bi31  1  0.064549  0.995294  0.173925  1
