# generated using pymatgen
data_Th3Mg3TlAgIr
_symmetry_space_group_name_H-M   'P 1'
_cell_length_a   8.03171000
_cell_length_b   8.03170959
_cell_length_c   4.06008500
_cell_angle_alpha   90.00000000
_cell_angle_beta   90.00000000
_cell_angle_gamma   119.99999345
_symmetry_Int_Tables_number   1
_chemical_formula_structural   Th3Mg3TlAgIr
_chemical_formula_sum   'Th3 Mg3 Tl1 Ag1 Ir1'
_cell_volume   226.82023820
_cell_formula_units_Z   1
loop_
 _symmetry_equiv_pos_site_id
 _symmetry_equiv_pos_as_xyz
  1  'x, y, z'
loop_
 _atom_site_type_symbol
 _atom_site_label
 _atom_site_symmetry_multiplicity
 _atom_site_fract_x
 _atom_site_fract_y
 _atom_site_fract_z
 _atom_site_occupancy
  Th  Th0  1  0.567351  0.964562  0.000000  1
  Th  Th1  1  0.035438  0.602789  0.000000  1
  Th  Th2  1  0.397211  0.432649  0.000000  1
  Mg  Mg3  1  0.248070  0.004104  0.500000  1
  Mg  Mg4  1  0.995896  0.243965  0.500000  1
  Mg  Mg5  1  0.756035  0.751930  0.500000  1
  Tl  Tl6  1  0.666667  0.333333  0.500000  1
  Ag  Ag7  1  0.000000  0.000000  0.000000  1
  Ir  Ir8  1  0.333333  0.666667  0.500000  1
