# generated using pymatgen
data_Ti11Al8Mo(PtC)4
_symmetry_space_group_name_H-M   'P 1'
_cell_length_a   8.23322858
_cell_length_b   8.23322813
_cell_length_c   8.23477200
_cell_angle_alpha   59.99379679
_cell_angle_beta   59.99379860
_cell_angle_gamma   59.96071812
_symmetry_Int_Tables_number   1
_chemical_formula_structural   Ti11Al8Mo(PtC)4
_chemical_formula_sum   'Ti11 Al8 Mo1 Pt4 C4'
_cell_volume   394.55459996
_cell_formula_units_Z   1
loop_
 _symmetry_equiv_pos_site_id
 _symmetry_equiv_pos_as_xyz
  1  'x, y, z'
loop_
 _atom_site_type_symbol
 _atom_site_label
 _atom_site_symmetry_multiplicity
 _atom_site_fract_x
 _atom_site_fract_y
 _atom_site_fract_z
 _atom_site_occupancy
  Ti  Ti0  1  0.686878  0.313889  0.314338  1
  Ti  Ti1  1  0.313889  0.686878  0.684894  1
  Ti  Ti2  1  0.684504  0.684504  0.315496  1
  Ti  Ti3  1  0.686878  0.313889  0.684894  1
  Ti  Ti4  1  0.313889  0.686878  0.314338  1
  Ti  Ti5  1  0.566971  0.933084  0.565231  1
  Ti  Ti6  1  0.566971  0.933084  0.934713  1
  Ti  Ti7  1  0.933084  0.566971  0.565231  1
  Ti  Ti8  1  0.933084  0.566971  0.934713  1
  Ti  Ti9  1  0.316250  0.316250  0.683750  1
  Ti  Ti10  1  0.564629  0.564629  0.935371  1
  Al  Al11  1  0.913839  0.258174  0.913994  1
  Al  Al12  1  0.336123  0.336123  0.992649  1
  Al  Al13  1  0.992911  0.334203  0.336443  1
  Al  Al14  1  0.336123  0.336123  0.335104  1
  Al  Al15  1  0.258174  0.913839  0.913994  1
  Al  Al16  1  0.914978  0.914978  0.912047  1
  Al  Al17  1  0.914978  0.914978  0.257999  1
  Al  Al18  1  0.334203  0.992911  0.336443  1
  Mo  Mo19  1  0.929444  0.929444  0.570556  1
  Pt  Pt20  1  0.124023  0.626084  0.124947  1
  Pt  Pt21  1  0.126069  0.126069  0.624847  1
  Pt  Pt22  1  0.626084  0.124023  0.124947  1
  Pt  Pt23  1  0.126069  0.126069  0.123014  1
  C  C24  1  0.622469  0.127716  0.624907  1
  C  C25  1  0.624885  0.624885  0.123940  1
  C  C26  1  0.127716  0.622469  0.624907  1
  C  C27  1  0.624885  0.624885  0.626291  1
