# generated using pymatgen
data_Tm6ScCo17As12
_symmetry_space_group_name_H-M   'P 1'
_cell_length_a   3.80305400
_cell_length_b   10.94176200
_cell_length_c   12.69287800
_cell_angle_alpha   90.00000000
_cell_angle_beta   90.00000000
_cell_angle_gamma   90.00000000
_symmetry_Int_Tables_number   1
_chemical_formula_structural   Tm6ScCo17As12
_chemical_formula_sum   'Tm6 Sc1 Co17 As12'
_cell_volume   528.17745765
_cell_formula_units_Z   1
loop_
 _symmetry_equiv_pos_site_id
 _symmetry_equiv_pos_as_xyz
  1  'x, y, z'
loop_
 _atom_site_type_symbol
 _atom_site_label
 _atom_site_symmetry_multiplicity
 _atom_site_fract_x
 _atom_site_fract_y
 _atom_site_fract_z
 _atom_site_occupancy
  Tm  Tm0  1  0.000000  0.500000  0.528322  1
  Tm  Tm1  1  0.500000  0.000000  0.475612  1
  Tm  Tm2  1  0.500000  0.823350  0.208764  1
  Tm  Tm3  1  0.500000  0.176650  0.208764  1
  Tm  Tm4  1  0.000000  0.680134  0.795451  1
  Tm  Tm5  1  0.000000  0.319866  0.795451  1
  Sc  Sc6  1  0.500000  0.500000  0.153989  1
  Co  Co7  1  0.000000  0.000000  0.841105  1
  Co  Co8  1  0.500000  0.500000  0.703569  1
  Co  Co9  1  0.000000  0.000000  0.297218  1
  Co  Co10  1  0.000000  0.500000  0.986975  1
  Co  Co11  1  0.500000  0.000000  0.012086  1
  Co  Co12  1  0.500000  0.326809  0.992099  1
  Co  Co13  1  0.500000  0.673191  0.992099  1
  Co  Co14  1  0.000000  0.162596  0.999712  1
  Co  Co15  1  0.000000  0.837404  0.999712  1
  Co  Co16  1  0.500000  0.295266  0.433629  1
  Co  Co17  1  0.500000  0.704734  0.433629  1
  Co  Co18  1  0.000000  0.201473  0.569683  1
  Co  Co19  1  0.000000  0.798527  0.569683  1
  Co  Co20  1  0.500000  0.879830  0.704108  1
  Co  Co21  1  0.500000  0.120170  0.704108  1
  Co  Co22  1  0.000000  0.622987  0.295801  1
  Co  Co23  1  0.000000  0.377013  0.295801  1
  As  As24  1  0.500000  0.500000  0.881903  1
  As  As25  1  0.000000  0.000000  0.118162  1
  As  As26  1  0.500000  0.500000  0.360333  1
  As  As27  1  0.000000  0.000000  0.651252  1
  As  As28  1  0.500000  0.313286  0.617825  1
  As  As29  1  0.500000  0.686714  0.617825  1
  As  As30  1  0.000000  0.185858  0.385386  1
  As  As31  1  0.000000  0.814142  0.385386  1
  As  As32  1  0.500000  0.848995  0.885370  1
  As  As33  1  0.500000  0.151005  0.885370  1
  As  As34  1  0.000000  0.665233  0.106908  1
  As  As35  1  0.000000  0.334767  0.106908  1
