# generated using pymatgen
data_CsGaSeCl2
_symmetry_space_group_name_H-M   'P 1'
_cell_length_a   6.48344800
_cell_length_b   7.30096230
_cell_length_c   8.31969000
_cell_angle_alpha   110.42658288
_cell_angle_beta   90.00000000
_cell_angle_gamma   90.00000000
_symmetry_Int_Tables_number   1
_chemical_formula_structural   CsGaSeCl2
_chemical_formula_sum   'Cs2 Ga2 Se2 Cl4'
_cell_volume   369.05285182
_cell_formula_units_Z   2
loop_
 _symmetry_equiv_pos_site_id
 _symmetry_equiv_pos_as_xyz
  1  'x, y, z'
loop_
 _atom_site_type_symbol
 _atom_site_label
 _atom_site_symmetry_multiplicity
 _atom_site_fract_x
 _atom_site_fract_y
 _atom_site_fract_z
 _atom_site_occupancy
  Cs  Cs0  1  0.569780  0.649954  0.803649  1
  Cs  Cs1  1  0.069780  0.350046  0.196351  1
  Ga  Ga2  1  0.459728  0.934728  0.372248  1
  Ga  Ga3  1  0.959728  0.065272  0.627752  1
  Se  Se4  1  0.091410  0.917604  0.345617  1
  Se  Se5  1  0.591410  0.082396  0.654383  1
  Cl  Cl6  1  0.064678  0.922194  0.816884  1
  Cl  Cl7  1  0.564678  0.077806  0.183116  1
  Cl  Cl8  1  0.064403  0.382947  0.760529  1
  Cl  Cl9  1  0.564403  0.617053  0.239471  1
