# generated using pymatgen
data_Li8Ho8SnBiPb6
_symmetry_space_group_name_H-M   'P 1'
_cell_length_a   9.50702800
_cell_length_b   9.50383170
_cell_length_c   7.28352400
_cell_angle_alpha   90.09131956
_cell_angle_beta   89.99957776
_cell_angle_gamma   120.01188252
_symmetry_Int_Tables_number   1
_chemical_formula_structural   Li8Ho8SnBiPb6
_chemical_formula_sum   'Li8 Ho8 Sn1 Bi1 Pb6'
_cell_volume   569.85314819
_cell_formula_units_Z   1
loop_
 _symmetry_equiv_pos_site_id
 _symmetry_equiv_pos_as_xyz
  1  'x, y, z'
loop_
 _atom_site_type_symbol
 _atom_site_label
 _atom_site_symmetry_multiplicity
 _atom_site_fract_x
 _atom_site_fract_y
 _atom_site_fract_z
 _atom_site_occupancy
  Li  Li0  1  0.166658  0.333336  0.284898  1
  Li  Li1  1  0.168068  0.833624  0.288046  1
  Li  Li2  1  0.665519  0.833655  0.288002  1
  Li  Li3  1  0.832798  0.665531  0.786346  1
  Li  Li4  1  0.829638  0.165996  0.790598  1
  Li  Li5  1  0.336388  0.165975  0.790548  1
  Li  Li6  1  0.334736  0.669445  0.670639  1
  Li  Li7  1  0.666081  0.332199  0.171707  1
  Ho  Ho8  1  0.513505  0.026975  0.495004  1
  Ho  Ho9  1  0.516446  0.489296  0.492856  1
  Ho  Ho10  1  0.972885  0.489300  0.492823  1
  Ho  Ho11  1  0.488081  0.976186  0.993868  1
  Ho  Ho12  1  0.493023  0.513030  0.994856  1
  Ho  Ho13  1  0.019969  0.513014  0.994842  1
  Ho  Ho14  1  0.998107  0.996227  0.498569  1
  Ho  Ho15  1  0.998328  0.996627  0.002190  1
  Sn  Sn16  1  0.666983  0.333952  0.760952  1
  Bi  Bi17  1  0.166707  0.333379  0.732694  1
  Pb  Pb18  1  0.166602  0.832991  0.730457  1
  Pb  Pb19  1  0.666416  0.832984  0.730421  1
  Pb  Pb20  1  0.833177  0.666408  0.231116  1
  Pb  Pb21  1  0.834038  0.167336  0.230608  1
  Pb  Pb22  1  0.333272  0.167323  0.230632  1
  Pb  Pb23  1  0.332575  0.665209  0.259298  1
