# generated using pymatgen
data_Yb2HoSi6(Pd3Pt)5
_symmetry_space_group_name_H-M   'P 1'
_cell_length_a   8.70991587
_cell_length_b   8.72188252
_cell_length_c   8.73753900
_cell_angle_alpha   59.94066595
_cell_angle_beta   59.89509808
_cell_angle_gamma   59.62182048
_symmetry_Int_Tables_number   1
_chemical_formula_structural   Yb2HoSi6(Pd3Pt)5
_chemical_formula_sum   'Yb2 Ho1 Si6 Pd15 Pt5'
_cell_volume   467.41692981
_cell_formula_units_Z   1
loop_
 _symmetry_equiv_pos_site_id
 _symmetry_equiv_pos_as_xyz
  1  'x, y, z'
loop_
 _atom_site_type_symbol
 _atom_site_label
 _atom_site_symmetry_multiplicity
 _atom_site_fract_x
 _atom_site_fract_y
 _atom_site_fract_z
 _atom_site_occupancy
  Yb  Yb0  1  0.749891  0.751133  0.749488  1
  Yb  Yb1  1  0.999941  0.000062  0.999998  1
  Ho  Ho2  1  0.250324  0.250367  0.249655  1
  Si  Si3  1  0.730531  0.269125  0.268539  1
  Si  Si4  1  0.270208  0.729963  0.730720  1
  Si  Si5  1  0.270208  0.729963  0.269109  1
  Si  Si6  1  0.730532  0.269124  0.731805  1
  Si  Si7  1  0.269269  0.268711  0.731010  1
  Si  Si8  1  0.730185  0.730705  0.269554  1
  Pd  Pd9  1  0.619567  0.148463  0.615986  1
  Pd  Pd10  1  0.852331  0.380335  0.383667  1
  Pd  Pd11  1  0.147382  0.617821  0.617399  1
  Pd  Pd12  1  0.343306  0.000722  0.000413  1
  Pd  Pd13  1  0.655469  0.001034  0.000291  1
  Pd  Pd14  1  0.999722  0.344534  0.655774  1
  Pd  Pd15  1  0.999974  0.656380  0.343832  1
  Pd  Pd16  1  0.999722  0.344533  0.999970  1
  Pd  Pd17  1  0.655469  0.001034  0.343206  1
  Pd  Pd18  1  0.999974  0.656380  0.999812  1
  Pd  Pd19  1  0.343306  0.000723  0.655559  1
  Pd  Pd20  1  0.000342  0.001254  0.343673  1
  Pd  Pd21  1  0.000342  0.001253  0.654732  1
  Pd  Pd22  1  0.656076  0.344393  0.999766  1
  Pd  Pd23  1  0.343636  0.657378  0.999494  1
  Pt  Pt24  1  0.381986  0.382115  0.385919  1
  Pt  Pt25  1  0.618845  0.615118  0.614273  1
  Pt  Pt26  1  0.381986  0.382115  0.849981  1
  Pt  Pt27  1  0.380630  0.850145  0.384613  1
  Pt  Pt28  1  0.618846  0.615118  0.151764  1
