# generated using pymatgen
data_La2TiVO6
_symmetry_space_group_name_H-M   'P 1'
_cell_length_a   5.61004486
_cell_length_b   5.71155300
_cell_length_c   7.97673111
_cell_angle_alpha   90.00000000
_cell_angle_beta   89.93811096
_cell_angle_gamma   90.00000000
_symmetry_Int_Tables_number   1
_chemical_formula_structural   La2TiVO6
_chemical_formula_sum   'La4 Ti2 V2 O12'
_cell_volume   255.59081577
_cell_formula_units_Z   2
loop_
 _symmetry_equiv_pos_site_id
 _symmetry_equiv_pos_as_xyz
  1  'x, y, z'
loop_
 _atom_site_type_symbol
 _atom_site_label
 _atom_site_symmetry_multiplicity
 _atom_site_fract_x
 _atom_site_fract_y
 _atom_site_fract_z
 _atom_site_occupancy
  La  La0  1  0.007671  0.955799  0.749488  1
  La  La1  1  0.492329  0.455799  0.750512  1
  La  La2  1  0.507671  0.544201  0.249488  1
  La  La3  1  0.992329  0.044201  0.250512  1
  Ti  Ti4  1  0.500000  0.000000  0.500000  1
  Ti  Ti5  1  0.000000  0.500000  0.000000  1
  V  V6  1  0.000000  0.500000  0.500000  1
  V  V7  1  0.500000  0.000000  0.000000  1
  O  O8  1  0.693106  0.286343  0.453866  1
  O  O9  1  0.806894  0.786343  0.046134  1
  O  O10  1  0.213895  0.195130  0.543661  1
  O  O11  1  0.286105  0.695130  0.956339  1
  O  O12  1  0.306894  0.713657  0.546134  1
  O  O13  1  0.193106  0.213657  0.953866  1
  O  O14  1  0.786105  0.804870  0.456339  1
  O  O15  1  0.713895  0.304870  0.043661  1
  O  O16  1  0.085811  0.475332  0.240585  1
  O  O17  1  0.414189  0.975332  0.259415  1
  O  O18  1  0.585811  0.024668  0.740585  1
  O  O19  1  0.914189  0.524668  0.759415  1
