# generated using pymatgen
data_Nd8Ge(Pd5Pt)4
_symmetry_space_group_name_H-M   'P 1'
_cell_length_a   8.48795500
_cell_length_b   8.48893600
_cell_length_c   8.49911400
_cell_angle_alpha   90.00000000
_cell_angle_beta   90.00000000
_cell_angle_gamma   89.99854203
_symmetry_Int_Tables_number   1
_chemical_formula_structural   Nd8Ge(Pd5Pt)4
_chemical_formula_sum   'Nd8 Ge1 Pd20 Pt4'
_cell_volume   612.39266783
_cell_formula_units_Z   1
loop_
 _symmetry_equiv_pos_site_id
 _symmetry_equiv_pos_as_xyz
  1  'x, y, z'
loop_
 _atom_site_type_symbol
 _atom_site_label
 _atom_site_symmetry_multiplicity
 _atom_site_fract_x
 _atom_site_fract_y
 _atom_site_fract_z
 _atom_site_occupancy
  Nd  Nd0  1  0.252313  0.253114  0.252906  1
  Nd  Nd1  1  0.746893  0.746379  0.746922  1
  Nd  Nd2  1  0.746893  0.746379  0.253078  1
  Nd  Nd3  1  0.747496  0.253576  0.746539  1
  Nd  Nd4  1  0.252313  0.253114  0.747094  1
  Nd  Nd5  1  0.252905  0.746866  0.252532  1
  Nd  Nd6  1  0.252905  0.746866  0.747468  1
  Nd  Nd7  1  0.747496  0.253576  0.253461  1
  Ge  Ge8  1  0.002008  0.000250  0.000000  1
  Pd  Pd9  1  0.499820  0.260082  0.000000  1
  Pd  Pd10  1  0.999897  0.740146  0.500000  1
  Pd  Pd11  1  0.499839  0.740080  0.000000  1
  Pd  Pd12  1  0.499858  0.999865  0.260016  1
  Pd  Pd13  1  0.259888  0.000040  0.500000  1
  Pd  Pd14  1  0.499858  0.999865  0.739984  1
  Pd  Pd15  1  0.739593  0.000032  0.500000  1
  Pd  Pd16  1  0.999892  0.499970  0.260188  1
  Pd  Pd17  1  0.999892  0.499970  0.739812  1
  Pd  Pd18  1  0.253012  0.499920  0.500000  1
  Pd  Pd19  1  0.747183  0.499947  0.500000  1
  Pd  Pd20  1  0.500078  0.253148  0.500000  1
  Pd  Pd21  1  0.500074  0.746806  0.500000  1
  Pd  Pd22  1  0.500065  0.500149  0.252759  1
  Pd  Pd23  1  0.500065  0.500149  0.747241  1
  Pd  Pd24  1  0.710800  0.999962  0.000000  1
  Pd  Pd25  1  0.999596  0.291111  0.000000  1
  Pd  Pd26  1  0.999599  0.708964  0.000000  1
  Pd  Pd27  1  0.999590  0.999880  0.291072  1
  Pd  Pd28  1  0.999590  0.999880  0.708928  1
  Pt  Pt29  1  0.259429  0.500145  0.000000  1
  Pt  Pt30  1  0.739945  0.500146  0.000000  1
  Pt  Pt31  1  0.999886  0.259664  0.500000  1
  Pt  Pt32  1  0.291326  0.999961  0.000000  1
