# generated using pymatgen
data_Hf4PbC2S
_symmetry_space_group_name_H-M   'P 1'
_cell_length_a   3.36332300
_cell_length_b   3.36332348
_cell_length_c   13.52465400
_cell_angle_alpha   90.00000000
_cell_angle_beta   90.00000000
_cell_angle_gamma   119.99998546
_symmetry_Int_Tables_number   1
_chemical_formula_structural   Hf4PbC2S
_chemical_formula_sum   'Hf4 Pb1 C2 S1'
_cell_volume   132.49334812
_cell_formula_units_Z   1
loop_
 _symmetry_equiv_pos_site_id
 _symmetry_equiv_pos_as_xyz
  1  'x, y, z'
loop_
 _atom_site_type_symbol
 _atom_site_label
 _atom_site_symmetry_multiplicity
 _atom_site_fract_x
 _atom_site_fract_y
 _atom_site_fract_z
 _atom_site_occupancy
  Hf  Hf0  1  0.333333  0.666667  0.437542  1
  Hf  Hf1  1  0.666667  0.333333  0.882973  1
  Hf  Hf2  1  0.666667  0.333333  0.617027  1
  Hf  Hf3  1  0.333333  0.666667  0.062458  1
  Pb  Pb4  1  0.666667  0.333333  0.250000  1
  C  C5  1  0.000000  0.000000  0.525405  1
  C  C6  1  0.000000  0.000000  0.974595  1
  S  S7  1  0.333333  0.666667  0.750000  1
