# generated using pymatgen
data_Er4Al23SiIr2Pt7
_symmetry_space_group_name_H-M   'P 1'
_cell_length_a   7.49658790
_cell_length_b   7.49838160
_cell_length_c   13.08858142
_cell_angle_alpha   84.51330822
_cell_angle_beta   100.89542310
_cell_angle_gamma   119.87224391
_symmetry_Int_Tables_number   1
_chemical_formula_structural   Er4Al23SiIr2Pt7
_chemical_formula_sum   'Er4 Al23 Si1 Ir2 Pt7'
_cell_volume   626.48589675
_cell_formula_units_Z   1
loop_
 _symmetry_equiv_pos_site_id
 _symmetry_equiv_pos_as_xyz
  1  'x, y, z'
loop_
 _atom_site_type_symbol
 _atom_site_label
 _atom_site_symmetry_multiplicity
 _atom_site_fract_x
 _atom_site_fract_y
 _atom_site_fract_z
 _atom_site_occupancy
  Er  Er0  1  0.731737  0.998784  0.190377  1
  Er  Er1  1  0.263109  0.002454  0.809683  1
  Er  Er2  1  0.062048  0.668411  0.190598  1
  Er  Er3  1  0.939318  0.327251  0.809675  1
  Al  Al4  1  0.188665  0.127616  0.180837  1
  Al  Al5  1  0.985841  0.667627  0.944871  1
  Al  Al6  1  0.020131  0.334193  0.053452  1
  Al  Al7  1  0.397865  0.667981  0.818531  1
  Al  Al8  1  0.600960  0.335149  0.182694  1
  Al  Al9  1  0.883748  0.663083  0.673825  1
  Al  Al10  1  0.116992  0.334275  0.326199  1
  Al  Al11  1  0.607860  0.459767  0.816527  1
  Al  Al12  1  0.396706  0.543489  0.181194  1
  Al  Al13  1  0.232869  0.341633  0.671344  1
  Al  Al14  1  0.769056  0.659539  0.329164  1
  Al  Al15  1  0.853701  0.332963  0.559791  1
  Al  Al16  1  0.186194  0.999309  0.559537  1
  Al  Al17  1  0.814970  0.000410  0.442792  1
  Al  Al18  1  0.348437  0.996362  0.053667  1
  Al  Al19  1  0.646010  0.999015  0.944839  1
  Al  Al20  1  0.555473  0.993258  0.674527  1
  Al  Al21  1  0.442609  0.006730  0.327015  1
  Al  Al22  1  0.521275  0.668215  0.561291  1
  Al  Al23  1  0.478038  0.331435  0.437837  1
  Al  Al24  1  0.684535  0.672881  0.045670  1
  Al  Al25  1  0.317075  0.335101  0.956516  1
  Al  Al26  1  0.146663  0.665804  0.440870  1
  Si  Si27  1  0.807176  0.866791  0.818625  1
  Ir  Ir28  1  0.329854  0.672699  0.999083  1
  Ir  Ir29  1  0.997147  0.999695  0.994513  1
  Pt  Pt30  1  0.546702  0.325260  0.637677  1
  Pt  Pt31  1  0.454114  0.675563  0.362136  1
  Pt  Pt32  1  0.887743  0.006307  0.643003  1
  Pt  Pt33  1  0.111421  0.991363  0.361220  1
  Pt  Pt34  1  0.672341  0.329946  0.999118  1
  Pt  Pt35  1  0.205367  0.667318  0.639564  1
  Pt  Pt36  1  0.796247  0.332321  0.361737  1
