# generated using pymatgen
data_LaTm3(WO6)2
_symmetry_space_group_name_H-M   'P 1'
_cell_length_a   5.42364400
_cell_length_b   7.74098786
_cell_length_c   11.50610094
_cell_angle_alpha   75.51168166
_cell_angle_beta   90.00000000
_cell_angle_gamma   90.00000000
_symmetry_Int_Tables_number   1
_chemical_formula_structural   LaTm3(WO6)2
_chemical_formula_sum   'La2 Tm6 W4 O24'
_cell_volume   467.71384148
_cell_formula_units_Z   2
loop_
 _symmetry_equiv_pos_site_id
 _symmetry_equiv_pos_as_xyz
  1  'x, y, z'
loop_
 _atom_site_type_symbol
 _atom_site_label
 _atom_site_symmetry_multiplicity
 _atom_site_fract_x
 _atom_site_fract_y
 _atom_site_fract_z
 _atom_site_occupancy
  La  La0  1  0.687383  0.500000  0.750000  1
  La  La1  1  0.312617  0.500000  0.250000  1
  Tm  Tm2  1  0.742752  0.000000  0.750000  1
  Tm  Tm3  1  0.257248  0.000000  0.250000  1
  Tm  Tm4  1  0.186397  0.799443  0.576729  1
  Tm  Tm5  1  0.813603  0.799443  0.076729  1
  Tm  Tm6  1  0.186397  0.200557  0.923271  1
  Tm  Tm7  1  0.813603  0.200557  0.423271  1
  W  W8  1  0.252969  0.730056  0.883925  1
  W  W9  1  0.747031  0.730056  0.383925  1
  W  W10  1  0.252969  0.269944  0.616075  1
  W  W11  1  0.747031  0.269944  0.116075  1
  O  O12  1  0.039552  0.943765  0.895982  1
  O  O13  1  0.536679  0.845541  0.930746  1
  O  O14  1  0.960448  0.943765  0.395982  1
  O  O15  1  0.454861  0.799275  0.725809  1
  O  O16  1  0.463321  0.845541  0.430746  1
  O  O17  1  0.986958  0.724865  0.767514  1
  O  O18  1  0.545139  0.799275  0.225809  1
  O  O19  1  0.860663  0.644360  0.544812  1
  O  O20  1  0.343357  0.493425  0.887966  1
  O  O21  1  0.013042  0.724865  0.267514  1
  O  O22  1  0.343357  0.506575  0.612034  1
  O  O23  1  0.860663  0.355640  0.955188  1
  O  O24  1  0.139337  0.644360  0.044812  1
  O  O25  1  0.656643  0.493425  0.387966  1
  O  O26  1  0.986958  0.275135  0.732486  1
  O  O27  1  0.656643  0.506575  0.112034  1
  O  O28  1  0.139337  0.355640  0.455188  1
  O  O29  1  0.454861  0.200725  0.774191  1
  O  O30  1  0.013042  0.275135  0.232486  1
  O  O31  1  0.536679  0.154459  0.569254  1
  O  O32  1  0.545139  0.200725  0.274191  1
  O  O33  1  0.039552  0.056235  0.604018  1
  O  O34  1  0.463321  0.154459  0.069254  1
  O  O35  1  0.960448  0.056235  0.104018  1
