# generated using pymatgen
data_SrTbSmGa8Ag3
_symmetry_space_group_name_H-M   'P 1'
_cell_length_a   4.41725723
_cell_length_b   8.52096054
_cell_length_c   8.52096062
_cell_angle_alpha   68.86540856
_cell_angle_beta   74.97743470
_cell_angle_gamma   74.97741906
_symmetry_Int_Tables_number   1
_chemical_formula_structural   SrTbSmGa8Ag3
_chemical_formula_sum   'Sr1 Tb1 Sm1 Ga8 Ag3'
_cell_volume   283.99375721
_cell_formula_units_Z   1
loop_
 _symmetry_equiv_pos_site_id
 _symmetry_equiv_pos_as_xyz
  1  'x, y, z'
loop_
 _atom_site_type_symbol
 _atom_site_label
 _atom_site_symmetry_multiplicity
 _atom_site_fract_x
 _atom_site_fract_y
 _atom_site_fract_z
 _atom_site_occupancy
  Sr  Sr0  1  0.500257  0.499743  0.499743  1
  Tb  Tb1  1  0.801020  0.198980  0.198980  1
  Sm  Sm2  1  0.199318  0.800682  0.800682  1
  Ga  Ga3  1  0.353984  0.362122  0.929907  1
  Ga  Ga4  1  0.645945  0.636403  0.071709  1
  Ga  Ga5  1  0.353984  0.929907  0.362122  1
  Ga  Ga6  1  0.645945  0.071709  0.636403  1
  Ga  Ga7  1  0.163452  0.470459  0.202638  1
  Ga  Ga8  1  0.837202  0.528196  0.797400  1
  Ga  Ga9  1  0.163452  0.202638  0.470459  1
  Ga  Ga10  1  0.837202  0.797400  0.528196  1
  Ag  Ag11  1  0.499347  0.000653  0.000653  1
  Ag  Ag12  1  0.999447  0.808082  0.193025  1
  Ag  Ag13  1  0.999447  0.193025  0.808082  1
