# generated using pymatgen
data_Hf2Zr3AlSnSb2
_symmetry_space_group_name_H-M   'P 1'
_cell_length_a   8.68872206
_cell_length_b   8.70080872
_cell_length_c   5.85278800
_cell_angle_alpha   90.00000000
_cell_angle_beta   90.00000000
_cell_angle_gamma   120.04602933
_symmetry_Int_Tables_number   1
_chemical_formula_structural   Hf2Zr3AlSnSb2
_chemical_formula_sum   'Hf4 Zr6 Al2 Sn2 Sb4'
_cell_volume   383.00754479
_cell_formula_units_Z   2
loop_
 _symmetry_equiv_pos_site_id
 _symmetry_equiv_pos_as_xyz
  1  'x, y, z'
loop_
 _atom_site_type_symbol
 _atom_site_label
 _atom_site_symmetry_multiplicity
 _atom_site_fract_x
 _atom_site_fract_y
 _atom_site_fract_z
 _atom_site_occupancy
  Hf  Hf0  1  0.667366  0.333893  0.998482  1
  Hf  Hf1  1  0.332634  0.666528  0.998482  1
  Hf  Hf2  1  0.332634  0.666528  0.501518  1
  Hf  Hf3  1  0.667366  0.333893  0.501518  1
  Zr  Zr4  1  0.727046  0.725907  0.750000  1
  Zr  Zr5  1  0.272954  0.998862  0.750000  1
  Zr  Zr6  1  0.000000  0.275756  0.750000  1
  Zr  Zr7  1  0.268435  0.267752  0.250000  1
  Zr  Zr8  1  0.731565  0.999316  0.250000  1
  Zr  Zr9  1  0.000000  0.731785  0.250000  1
  Al  Al10  1  0.000000  0.001455  0.993573  1
  Al  Al11  1  0.000000  0.001455  0.506427  1
  Sn  Sn12  1  0.383589  0.383585  0.750000  1
  Sn  Sn13  1  0.616411  0.999996  0.750000  1
  Sb  Sb14  1  0.000000  0.614528  0.750000  1
  Sb  Sb15  1  0.609208  0.609881  0.250000  1
  Sb  Sb16  1  0.390792  0.000673  0.250000  1
  Sb  Sb17  1  0.000000  0.388206  0.250000  1
