# generated using pymatgen
data_Zr4Nb4SiAs3
_symmetry_space_group_name_H-M   'P 1'
_cell_length_a   3.64281700
_cell_length_b   7.08135656
_cell_length_c   8.57705823
_cell_angle_alpha   89.94812056
_cell_angle_beta   90.00000000
_cell_angle_gamma   90.00000000
_symmetry_Int_Tables_number   1
_chemical_formula_structural   Zr4Nb4SiAs3
_chemical_formula_sum   'Zr4 Nb4 Si1 As3'
_cell_volume   221.25444174
_cell_formula_units_Z   1
loop_
 _symmetry_equiv_pos_site_id
 _symmetry_equiv_pos_as_xyz
  1  'x, y, z'
loop_
 _atom_site_type_symbol
 _atom_site_label
 _atom_site_symmetry_multiplicity
 _atom_site_fract_x
 _atom_site_fract_y
 _atom_site_fract_z
 _atom_site_occupancy
  Zr  Zr0  1  0.250000  0.044200  0.663278  1
  Zr  Zr1  1  0.250000  0.542274  0.833275  1
  Zr  Zr2  1  0.750000  0.454077  0.169424  1
  Zr  Zr3  1  0.750000  0.963326  0.333478  1
  Nb  Nb4  1  0.750000  0.864062  0.940267  1
  Nb  Nb5  1  0.250000  0.631837  0.439801  1
  Nb  Nb6  1  0.750000  0.364610  0.557932  1
  Nb  Nb7  1  0.250000  0.133690  0.061388  1
  Si  Si8  1  0.250000  0.257143  0.358524  1
  As  As9  1  0.250000  0.755256  0.143646  1
  As  As10  1  0.750000  0.745890  0.641395  1
  As  As11  1  0.750000  0.243634  0.857592  1
