# generated using pymatgen
data_YTh2Ga3PdPt2
_symmetry_space_group_name_H-M   'P 1'
_cell_length_a   7.32617469
_cell_length_b   7.32617402
_cell_length_c   4.08334200
_cell_angle_alpha   90.00000000
_cell_angle_beta   90.00000000
_cell_angle_gamma   120.08776559
_symmetry_Int_Tables_number   1
_chemical_formula_structural   YTh2Ga3PdPt2
_chemical_formula_sum   'Y1 Th2 Ga3 Pd1 Pt2'
_cell_volume   189.63396458
_cell_formula_units_Z   1
loop_
 _symmetry_equiv_pos_site_id
 _symmetry_equiv_pos_as_xyz
  1  'x, y, z'
loop_
 _atom_site_type_symbol
 _atom_site_label
 _atom_site_symmetry_multiplicity
 _atom_site_fract_x
 _atom_site_fract_y
 _atom_site_fract_z
 _atom_site_occupancy
  Y  Y0  1  0.412211  0.412211  0.500000  1
  Th  Th1  1  0.582917  0.999407  0.500000  1
  Th  Th2  1  0.999407  0.582917  0.500000  1
  Ga  Ga3  1  0.751099  0.751099  0.000000  1
  Ga  Ga4  1  0.243593  0.008892  0.000000  1
  Ga  Ga5  1  0.008892  0.243593  0.000000  1
  Pd  Pd6  1  0.998454  0.998454  0.500000  1
  Pt  Pt7  1  0.670616  0.332813  0.000000  1
  Pt  Pt8  1  0.332813  0.670616  0.000000  1
