# generated using pymatgen
data_La4LuTl3
_symmetry_space_group_name_H-M   'P 1'
_cell_length_a   9.43601408
_cell_length_b   9.43601425
_cell_length_c   9.43601401
_cell_angle_alpha   96.94400551
_cell_angle_beta   96.94400853
_cell_angle_gamma   139.30587961
_symmetry_Int_Tables_number   1
_chemical_formula_structural   La4LuTl3
_chemical_formula_sum   'La8 Lu2 Tl6'
_cell_volume   513.62528013
_cell_formula_units_Z   2
loop_
 _symmetry_equiv_pos_site_id
 _symmetry_equiv_pos_as_xyz
  1  'x, y, z'
loop_
 _atom_site_type_symbol
 _atom_site_label
 _atom_site_symmetry_multiplicity
 _atom_site_fract_x
 _atom_site_fract_y
 _atom_site_fract_z
 _atom_site_occupancy
  La  La0  1  0.910017  0.221848  0.131865  1
  La  La1  1  0.221848  0.089983  0.311830  1
  La  La2  1  0.778152  0.910017  0.688170  1
  La  La3  1  0.089983  0.778152  0.868135  1
  La  La4  1  0.721848  0.410017  0.131865  1
  La  La5  1  0.278152  0.589983  0.868135  1
  La  La6  1  0.589983  0.721848  0.311830  1
  La  La7  1  0.410017  0.278152  0.688170  1
  Lu  Lu8  1  0.750000  0.250000  0.500000  1
  Lu  Lu9  1  0.250000  0.750000  0.500000  1
  Tl  Tl10  1  0.750000  0.750000  0.000000  1
  Tl  Tl11  1  0.250000  0.250000  0.000000  1
  Tl  Tl12  1  0.847424  0.652576  0.500000  1
  Tl  Tl13  1  0.652576  0.152576  0.805153  1
  Tl  Tl14  1  0.347424  0.847424  0.194847  1
  Tl  Tl15  1  0.152576  0.347424  0.500000  1
