# generated using pymatgen
data_Dy3In4IrPt
_symmetry_space_group_name_H-M   'P 1'
_cell_length_a   7.82006100
_cell_length_b   7.82006133
_cell_length_c   3.91469700
_cell_angle_alpha   90.00000000
_cell_angle_beta   90.00000000
_cell_angle_gamma   120.00001130
_symmetry_Int_Tables_number   1
_chemical_formula_structural   Dy3In4IrPt
_chemical_formula_sum   'Dy3 In4 Ir1 Pt1'
_cell_volume   207.32374023
_cell_formula_units_Z   1
loop_
 _symmetry_equiv_pos_site_id
 _symmetry_equiv_pos_as_xyz
  1  'x, y, z'
loop_
 _atom_site_type_symbol
 _atom_site_label
 _atom_site_symmetry_multiplicity
 _atom_site_fract_x
 _atom_site_fract_y
 _atom_site_fract_z
 _atom_site_occupancy
  Dy  Dy0  1  0.049465  0.299357  0.500000  1
  Dy  Dy1  1  0.700643  0.750107  0.500000  1
  Dy  Dy2  1  0.249893  0.950535  0.500000  1
  In  In3  1  0.668818  0.075786  0.000000  1
  In  In4  1  0.924214  0.593033  0.000000  1
  In  In5  1  0.406967  0.331182  0.000000  1
  In  In6  1  0.333333  0.666667  0.000000  1
  Ir  Ir7  1  0.000000  0.000000  0.000000  1
  Pt  Pt8  1  0.666667  0.333333  0.500000  1
