# generated using pymatgen
data_Dy5Th7Pt12
_symmetry_space_group_name_H-M   'P 1'
_cell_length_a   4.55159100
_cell_length_b   5.80892607
_cell_length_c   21.78461000
_cell_angle_alpha   83.46095573
_cell_angle_beta   90.00000000
_cell_angle_gamma   90.00000000
_symmetry_Int_Tables_number   1
_chemical_formula_structural   Dy5Th7Pt12
_chemical_formula_sum   'Dy5 Th7 Pt12'
_cell_volume   572.23488254
_cell_formula_units_Z   1
loop_
 _symmetry_equiv_pos_site_id
 _symmetry_equiv_pos_as_xyz
  1  'x, y, z'
loop_
 _atom_site_type_symbol
 _atom_site_label
 _atom_site_symmetry_multiplicity
 _atom_site_fract_x
 _atom_site_fract_y
 _atom_site_fract_z
 _atom_site_occupancy
  Dy  Dy0  1  0.250000  0.675230  0.438005  1
  Dy  Dy1  1  0.750000  0.033268  0.728109  1
  Dy  Dy2  1  0.250000  0.965590  0.272596  1
  Dy  Dy3  1  0.750000  0.174162  0.893477  1
  Dy  Dy4  1  0.250000  0.825630  0.106871  1
  Th  Th5  1  0.750000  0.322176  0.061627  1
  Th  Th6  1  0.250000  0.677769  0.938685  1
  Th  Th7  1  0.750000  0.492456  0.227979  1
  Th  Th8  1  0.250000  0.506887  0.773407  1
  Th  Th9  1  0.750000  0.190741  0.393437  1
  Th  Th10  1  0.250000  0.805444  0.606608  1
  Th  Th11  1  0.750000  0.330127  0.559652  1
  Pt  Pt12  1  0.750000  0.824935  0.017001  1
  Pt  Pt13  1  0.250000  0.175031  0.983539  1
  Pt  Pt14  1  0.750000  0.993558  0.182429  1
  Pt  Pt15  1  0.250000  0.005817  0.817875  1
  Pt  Pt16  1  0.750000  0.732769  0.347482  1
  Pt  Pt17  1  0.250000  0.262882  0.652067  1
  Pt  Pt18  1  0.750000  0.834322  0.514337  1
  Pt  Pt19  1  0.250000  0.172554  0.483796  1
  Pt  Pt20  1  0.750000  0.574244  0.682840  1
  Pt  Pt21  1  0.250000  0.425000  0.317851  1
  Pt  Pt22  1  0.750000  0.667811  0.848322  1
  Pt  Pt23  1  0.250000  0.331599  0.152009  1
