# generated using pymatgen
data_Hf8TcNi2W
_symmetry_space_group_name_H-M   'P 1'
_cell_length_a   8.67471629
_cell_length_b   8.67471624
_cell_length_c   8.66879800
_cell_angle_alpha   60.02257339
_cell_angle_beta   60.02257356
_cell_angle_gamma   60.09776506
_symmetry_Int_Tables_number   1
_chemical_formula_structural   Hf8TcNi2W
_chemical_formula_sum   'Hf16 Tc2 Ni4 W2'
_cell_volume   461.76670257
_cell_formula_units_Z   2
loop_
 _symmetry_equiv_pos_site_id
 _symmetry_equiv_pos_as_xyz
  1  'x, y, z'
loop_
 _atom_site_type_symbol
 _atom_site_label
 _atom_site_symmetry_multiplicity
 _atom_site_fract_x
 _atom_site_fract_y
 _atom_site_fract_z
 _atom_site_occupancy
  Hf  Hf0  1  0.691944  0.102494  0.102781  1
  Hf  Hf1  1  0.102494  0.691944  0.102781  1
  Hf  Hf2  1  0.102913  0.102913  0.691045  1
  Hf  Hf3  1  0.102913  0.102913  0.103130  1
  Hf  Hf4  1  0.315328  0.315328  0.684672  1
  Hf  Hf5  1  0.685216  0.685216  0.314784  1
  Hf  Hf6  1  0.315353  0.684107  0.314972  1
  Hf  Hf7  1  0.684107  0.315353  0.685567  1
  Hf  Hf8  1  0.684107  0.315353  0.314972  1
  Hf  Hf9  1  0.315353  0.684107  0.685567  1
  Hf  Hf10  1  0.954389  0.954389  0.545611  1
  Hf  Hf11  1  0.545290  0.545290  0.954710  1
  Hf  Hf12  1  0.953203  0.546496  0.953899  1
  Hf  Hf13  1  0.546496  0.953203  0.546402  1
  Hf  Hf14  1  0.546496  0.953203  0.953899  1
  Hf  Hf15  1  0.953203  0.546496  0.546402  1
  Tc  Tc16  1  0.333667  0.333667  0.997986  1
  Tc  Tc17  1  0.333667  0.333667  0.334678  1
  Ni  Ni18  1  0.326000  0.890237  0.891881  1
  Ni  Ni19  1  0.890237  0.326000  0.891881  1
  Ni  Ni20  1  0.891054  0.891054  0.325743  1
  Ni  Ni21  1  0.891054  0.891054  0.892150  1
  W  W22  1  0.003434  0.332082  0.332241  1
  W  W23  1  0.332082  0.003434  0.332241  1
