# generated using pymatgen
data_EuLuB6Os
_symmetry_space_group_name_H-M   'P 1'
_cell_length_a   3.63766100
_cell_length_b   9.15138000
_cell_length_c   11.58446000
_cell_angle_alpha   90.00000000
_cell_angle_beta   90.00000000
_cell_angle_gamma   90.00000000
_symmetry_Int_Tables_number   1
_chemical_formula_structural   EuLuB6Os
_chemical_formula_sum   'Eu4 Lu4 B24 Os4'
_cell_volume   385.64224955
_cell_formula_units_Z   4
loop_
 _symmetry_equiv_pos_site_id
 _symmetry_equiv_pos_as_xyz
  1  'x, y, z'
loop_
 _atom_site_type_symbol
 _atom_site_label
 _atom_site_symmetry_multiplicity
 _atom_site_fract_x
 _atom_site_fract_y
 _atom_site_fract_z
 _atom_site_occupancy
  Eu  Eu0  1  0.000000  0.322406  0.414834  1
  Eu  Eu1  1  0.000000  0.677594  0.585166  1
  Eu  Eu2  1  0.000000  0.822406  0.085166  1
  Eu  Eu3  1  0.000000  0.177594  0.914834  1
  Lu  Lu4  1  0.000000  0.943349  0.370317  1
  Lu  Lu5  1  0.000000  0.056651  0.629683  1
  Lu  Lu6  1  0.000000  0.443349  0.129683  1
  Lu  Lu7  1  0.000000  0.556651  0.870317  1
  B  B8  1  0.500000  0.555349  0.430981  1
  B  B9  1  0.500000  0.444651  0.569019  1
  B  B10  1  0.500000  0.055349  0.069019  1
  B  B11  1  0.500000  0.944651  0.930981  1
  B  B12  1  0.500000  0.750314  0.416499  1
  B  B13  1  0.500000  0.249686  0.583501  1
  B  B14  1  0.500000  0.250314  0.083501  1
  B  B15  1  0.500000  0.749686  0.916499  1
  B  B16  1  0.500000  0.792113  0.265196  1
  B  B17  1  0.500000  0.207887  0.734803  1
  B  B18  1  0.500000  0.292113  0.234804  1
  B  B19  1  0.500000  0.707887  0.765197  1
  B  B20  1  0.500000  0.630387  0.184845  1
  B  B21  1  0.500000  0.369613  0.815155  1
  B  B22  1  0.500000  0.130387  0.315155  1
  B  B23  1  0.500000  0.869613  0.684845  1
  B  B24  1  0.500000  0.983907  0.213319  1
  B  B25  1  0.500000  0.016093  0.786681  1
  B  B26  1  0.500000  0.483907  0.286681  1
  B  B27  1  0.500000  0.516093  0.713319  1
  B  B28  1  0.500000  0.597375  0.026383  1
  B  B29  1  0.500000  0.402625  0.973617  1
  B  B30  1  0.500000  0.097375  0.473617  1
  B  B31  1  0.500000  0.902625  0.526383  1
  Os  Os32  1  0.000000  0.639868  0.318426  1
  Os  Os33  1  0.000000  0.360132  0.681574  1
  Os  Os34  1  0.000000  0.139868  0.181574  1
  Os  Os35  1  0.000000  0.860132  0.818426  1
