# generated using pymatgen
data_PrGePtO6
_symmetry_space_group_name_H-M   'P 1'
_cell_length_a   5.18170211
_cell_length_b   5.18195786
_cell_length_c   5.14336407
_cell_angle_alpha   90.02766084
_cell_angle_beta   90.03248625
_cell_angle_gamma   119.93938237
_symmetry_Int_Tables_number   1
_chemical_formula_structural   PrGePtO6
_chemical_formula_sum   'Pr1 Ge1 Pt1 O6'
_cell_volume   119.67651424
_cell_formula_units_Z   1
loop_
 _symmetry_equiv_pos_site_id
 _symmetry_equiv_pos_as_xyz
  1  'x, y, z'
loop_
 _atom_site_type_symbol
 _atom_site_label
 _atom_site_symmetry_multiplicity
 _atom_site_fract_x
 _atom_site_fract_y
 _atom_site_fract_z
 _atom_site_occupancy
  Pr  Pr0  1  0.517658  0.482352  0.500004  1
  Ge  Ge1  1  0.184572  0.815443  0.000002  1
  Pt  Pt2  1  0.851042  0.148989  0.999998  1
  O  O3  1  0.157034  0.110194  0.208209  1
  O  O4  1  0.890917  0.493798  0.208821  1
  O  O5  1  0.507019  0.844140  0.208846  1
  O  O6  1  0.155848  0.493016  0.791133  1
  O  O7  1  0.506185  0.109072  0.791158  1
  O  O8  1  0.889763  0.842969  0.791831  1
