# generated using pymatgen
data_LaSc2Ni9
_symmetry_space_group_name_H-M   'P 1'
_cell_length_a   8.46058099
_cell_length_b   8.46058094
_cell_length_c   8.46058032
_cell_angle_alpha   33.78383370
_cell_angle_beta   33.78383066
_cell_angle_gamma   33.78383197
_symmetry_Int_Tables_number   1
_chemical_formula_structural   LaSc2Ni9
_chemical_formula_sum   'La1 Sc2 Ni9'
_cell_volume   166.85943550
_cell_formula_units_Z   1
loop_
 _symmetry_equiv_pos_site_id
 _symmetry_equiv_pos_as_xyz
  1  'x, y, z'
loop_
 _atom_site_type_symbol
 _atom_site_label
 _atom_site_symmetry_multiplicity
 _atom_site_fract_x
 _atom_site_fract_y
 _atom_site_fract_z
 _atom_site_occupancy
  La  La0  1  0.000000  0.000000  0.000000  1
  Sc  Sc1  1  0.857438  0.857438  0.857438  1
  Sc  Sc2  1  0.142562  0.142562  0.142562  1
  Ni  Ni3  1  0.587838  0.082853  0.587838  1
  Ni  Ni4  1  0.082853  0.587838  0.587838  1
  Ni  Ni5  1  0.587838  0.587838  0.082853  1
  Ni  Ni6  1  0.412162  0.917147  0.412162  1
  Ni  Ni7  1  0.917147  0.412162  0.412162  1
  Ni  Ni8  1  0.333135  0.333135  0.333135  1
  Ni  Ni9  1  0.412162  0.412162  0.917147  1
  Ni  Ni10  1  0.500000  0.500000  0.500000  1
  Ni  Ni11  1  0.666865  0.666865  0.666865  1
