# generated using pymatgen
data_Na4Ac16Si15Ag
_symmetry_space_group_name_H-M   'P 1'
_cell_length_a   8.08189434
_cell_length_b   8.35842164
_cell_length_c   16.10356900
_cell_angle_alpha   90.08831115
_cell_angle_beta   90.49396004
_cell_angle_gamma   90.15954058
_symmetry_Int_Tables_number   1
_chemical_formula_structural   Na4Ac16Si15Ag
_chemical_formula_sum   'Na4 Ac16 Si15 Ag1'
_cell_volume   1087.78039425
_cell_formula_units_Z   1
loop_
 _symmetry_equiv_pos_site_id
 _symmetry_equiv_pos_as_xyz
  1  'x, y, z'
loop_
 _atom_site_type_symbol
 _atom_site_label
 _atom_site_symmetry_multiplicity
 _atom_site_fract_x
 _atom_site_fract_y
 _atom_site_fract_z
 _atom_site_occupancy
  Na  Na0  1  0.358131  0.017203  0.751104  1
  Na  Na1  1  0.856990  0.480351  0.750703  1
  Na  Na2  1  0.142112  0.517720  0.250682  1
  Na  Na3  1  0.641717  0.982789  0.250428  1
  Ac  Ac4  1  0.314768  0.184408  0.124540  1
  Ac  Ac5  1  0.821100  0.316927  0.375478  1
  Ac  Ac6  1  0.183400  0.685556  0.875128  1
  Ac  Ac7  1  0.679058  0.819476  0.625842  1
  Ac  Ac8  1  0.319475  0.186370  0.373395  1
  Ac  Ac9  1  0.816295  0.314901  0.124073  1
  Ac  Ac10  1  0.183628  0.682226  0.623278  1
  Ac  Ac11  1  0.684882  0.814559  0.875414  1
  Ac  Ac12  1  0.959457  0.810568  0.394553  1
  Ac  Ac13  1  0.453803  0.693692  0.106090  1
  Ac  Ac14  1  0.534418  0.309728  0.606113  1
  Ac  Ac15  1  0.045999  0.192929  0.895037  1
  Ac  Ac16  1  0.045772  0.187307  0.606333  1
  Ac  Ac17  1  0.545977  0.306512  0.894590  1
  Ac  Ac18  1  0.458474  0.690502  0.394003  1
  Ac  Ac19  1  0.951861  0.805281  0.105768  1
  Si  Si20  1  0.367266  0.974193  0.963391  1
  Si  Si21  1  0.633725  0.030504  0.464934  1
  Si  Si22  1  0.134310  0.474146  0.035526  1
  Si  Si23  1  0.152917  0.472480  0.463104  1
  Si  Si24  1  0.632745  0.025909  0.035996  1
  Si  Si25  1  0.364502  0.972976  0.533834  1
  Si  Si26  1  0.867953  0.526298  0.963445  1
  Si  Si27  1  0.978674  0.919892  0.751853  1
  Si  Si28  1  0.477193  0.581468  0.751385  1
  Si  Si29  1  0.524208  0.417876  0.248422  1
  Si  Si30  1  0.019471  0.081388  0.248365  1
  Si  Si31  1  0.257615  0.381893  0.751894  1
  Si  Si32  1  0.760366  0.119290  0.750920  1
  Si  Si33  1  0.236993  0.880863  0.248283  1
  Si  Si34  1  0.742738  0.617921  0.249569  1
  Ag  Ag35  1  0.852007  0.523895  0.536525  1
