# generated using pymatgen
data_BaSr2Pd9
_symmetry_space_group_name_H-M   'P 1'
_cell_length_a   9.73296044
_cell_length_b   9.73296022
_cell_length_c   9.73295900
_cell_angle_alpha   33.15191036
_cell_angle_beta   33.15191239
_cell_angle_gamma   33.15190610
_symmetry_Int_Tables_number   1
_chemical_formula_structural   BaSr2Pd9
_chemical_formula_sum   'Ba1 Sr2 Pd9'
_cell_volume   245.43880854
_cell_formula_units_Z   1
loop_
 _symmetry_equiv_pos_site_id
 _symmetry_equiv_pos_as_xyz
  1  'x, y, z'
loop_
 _atom_site_type_symbol
 _atom_site_label
 _atom_site_symmetry_multiplicity
 _atom_site_fract_x
 _atom_site_fract_y
 _atom_site_fract_z
 _atom_site_occupancy
  Ba  Ba0  1  0.000000  0.000000  0.000000  1
  Sr  Sr1  1  0.140241  0.140241  0.140241  1
  Sr  Sr2  1  0.859759  0.859759  0.859759  1
  Pd  Pd3  1  0.584338  0.584338  0.083576  1
  Pd  Pd4  1  0.331706  0.331706  0.331706  1
  Pd  Pd5  1  0.916424  0.415661  0.415663  1
  Pd  Pd6  1  0.415661  0.916424  0.415663  1
  Pd  Pd7  1  0.500000  0.500000  0.500000  1
  Pd  Pd8  1  0.584339  0.083576  0.584337  1
  Pd  Pd9  1  0.083576  0.584339  0.584337  1
  Pd  Pd10  1  0.668294  0.668294  0.668294  1
  Pd  Pd11  1  0.415662  0.415662  0.916424  1
