# generated using pymatgen
data_Ce3Dy(Al3Ir)6
_symmetry_space_group_name_H-M   'P 1'
_cell_length_a   7.61178500
_cell_length_b   7.61097355
_cell_length_c   9.46012100
_cell_angle_alpha   90.00000000
_cell_angle_beta   90.00000000
_cell_angle_gamma   119.60991875
_symmetry_Int_Tables_number   1
_chemical_formula_structural   Ce3Dy(Al3Ir)6
_chemical_formula_sum   'Ce3 Dy1 Al18 Ir6'
_cell_volume   476.48337472
_cell_formula_units_Z   1
loop_
 _symmetry_equiv_pos_site_id
 _symmetry_equiv_pos_as_xyz
  1  'x, y, z'
loop_
 _atom_site_type_symbol
 _atom_site_label
 _atom_site_symmetry_multiplicity
 _atom_site_fract_x
 _atom_site_fract_y
 _atom_site_fract_z
 _atom_site_occupancy
  Ce  Ce0  1  0.003956  0.329069  0.750000  1
  Ce  Ce1  1  0.670826  0.996754  0.250000  1
  Ce  Ce2  1  0.329216  0.003980  0.750000  1
  Dy  Dy3  1  0.995178  0.671545  0.250000  1
  Al  Al4  1  0.128555  0.128143  0.250000  1
  Al  Al5  1  0.870094  0.867994  0.750000  1
  Al  Al6  1  0.002737  0.337671  0.076529  1
  Al  Al7  1  0.997991  0.665080  0.926656  1
  Al  Al8  1  0.997991  0.665080  0.573344  1
  Al  Al9  1  0.333084  0.000533  0.424058  1
  Al  Al10  1  0.002737  0.337671  0.423471  1
  Al  Al11  1  0.664278  0.996698  0.575529  1
  Al  Al12  1  0.664278  0.996698  0.924471  1
  Al  Al13  1  0.333084  0.000533  0.075942  1
  Al  Al14  1  0.334988  0.334670  0.550051  1
  Al  Al15  1  0.667031  0.665516  0.446623  1
  Al  Al16  1  0.667031  0.665516  0.053377  1
  Al  Al17  1  0.334988  0.334670  0.949949  1
  Al  Al18  1  0.340028  0.548944  0.250000  1
  Al  Al19  1  0.658929  0.452915  0.750000  1
  Al  Al20  1  0.549566  0.341922  0.250000  1
  Al  Al21  1  0.452958  0.657976  0.750000  1
  Ir  Ir22  1  0.672068  0.327573  0.999916  1
  Ir  Ir23  1  0.328400  0.672183  0.999671  1
  Ir  Ir24  1  0.328400  0.672183  0.500329  1
  Ir  Ir25  1  0.672068  0.327573  0.500084  1
  Ir  Ir26  1  0.999771  0.000455  0.999703  1
  Ir  Ir27  1  0.999771  0.000455  0.500297  1
