# generated using pymatgen
data_Pr15Nd(HoSn4)4
_symmetry_space_group_name_H-M   'P 1'
_cell_length_a   8.14776345
_cell_length_b   8.53594720
_cell_length_c   16.23799300
_cell_angle_alpha   90.04881851
_cell_angle_beta   89.47010361
_cell_angle_gamma   89.99181314
_symmetry_Int_Tables_number   1
_chemical_formula_structural   Pr15Nd(HoSn4)4
_chemical_formula_sum   'Pr15 Nd1 Ho4 Sn16'
_cell_volume   1129.28548314
_cell_formula_units_Z   1
loop_
 _symmetry_equiv_pos_site_id
 _symmetry_equiv_pos_as_xyz
  1  'x, y, z'
loop_
 _atom_site_type_symbol
 _atom_site_label
 _atom_site_symmetry_multiplicity
 _atom_site_fract_x
 _atom_site_fract_y
 _atom_site_fract_z
 _atom_site_occupancy
  Pr  Pr0  1  0.841058  0.666525  0.623778  1
  Pr  Pr1  1  0.658693  0.166030  0.376491  1
  Pr  Pr2  1  0.162089  0.331822  0.123689  1
  Pr  Pr3  1  0.662603  0.167094  0.124271  1
  Pr  Pr4  1  0.158800  0.333192  0.376597  1
  Pr  Pr5  1  0.341567  0.834115  0.623832  1
  Pr  Pr6  1  0.838130  0.668321  0.875869  1
  Pr  Pr7  1  0.498749  0.320046  0.902268  1
  Pr  Pr8  1  0.001898  0.181860  0.597815  1
  Pr  Pr9  1  0.498319  0.681122  0.402517  1
  Pr  Pr10  1  0.001477  0.818676  0.097617  1
  Pr  Pr11  1  0.501102  0.679880  0.097317  1
  Pr  Pr12  1  0.998488  0.818050  0.402427  1
  Pr  Pr13  1  0.502017  0.319289  0.598053  1
  Pr  Pr14  1  0.998335  0.180611  0.902306  1
  Nd  Nd15  1  0.336957  0.833007  0.875152  1
  Ho  Ho16  1  0.172318  0.497187  0.748680  1
  Ho  Ho17  1  0.671936  0.003791  0.748928  1
  Ho  Ho18  1  0.827716  0.502956  0.251322  1
  Ho  Ho19  1  0.328000  0.996119  0.251205  1
  Sn  Sn20  1  0.322624  0.033172  0.042066  1
  Sn  Sn21  1  0.813750  0.464444  0.457839  1
  Sn  Sn22  1  0.686731  0.965231  0.542566  1
  Sn  Sn23  1  0.179070  0.535747  0.957133  1
  Sn  Sn24  1  0.675533  0.965795  0.957081  1
  Sn  Sn25  1  0.186737  0.535812  0.542352  1
  Sn  Sn26  1  0.313607  0.034937  0.457831  1
  Sn  Sn27  1  0.821497  0.464880  0.042276  1
  Sn  Sn28  1  0.534025  0.612592  0.750873  1
  Sn  Sn29  1  0.034404  0.889251  0.750534  1
  Sn  Sn30  1  0.465523  0.388206  0.249549  1
  Sn  Sn31  1  0.966065  0.110820  0.249595  1
  Sn  Sn32  1  0.303811  0.148505  0.750882  1
  Sn  Sn33  1  0.803826  0.352336  0.750766  1
  Sn  Sn34  1  0.696258  0.851105  0.249256  1
  Sn  Sn35  1  0.196281  0.647475  0.249264  1
