# generated using pymatgen
data_TaTi5Ir2
_symmetry_space_group_name_H-M   'P 1'
_cell_length_a   5.01705600
_cell_length_b   5.08523400
_cell_length_c   5.01705600
_cell_angle_alpha   90.00000000
_cell_angle_beta   90.00000000
_cell_angle_gamma   90.00000000
_symmetry_Int_Tables_number   1
_chemical_formula_structural   TaTi5Ir2
_chemical_formula_sum   'Ta1 Ti5 Ir2'
_cell_volume   127.99966684
_cell_formula_units_Z   1
loop_
 _symmetry_equiv_pos_site_id
 _symmetry_equiv_pos_as_xyz
  1  'x, y, z'
loop_
 _atom_site_type_symbol
 _atom_site_label
 _atom_site_symmetry_multiplicity
 _atom_site_fract_x
 _atom_site_fract_y
 _atom_site_fract_z
 _atom_site_occupancy
  Ta  Ta0  1  0.500000  0.250000  0.000000  1
  Ti  Ti1  1  0.500000  0.750000  0.000000  1
  Ti  Ti2  1  0.251340  0.997745  0.500000  1
  Ti  Ti3  1  0.748660  0.997745  0.500000  1
  Ti  Ti4  1  0.000000  0.502255  0.248660  1
  Ti  Ti5  1  0.000000  0.502255  0.751340  1
  Ir  Ir6  1  0.500000  0.496968  0.500000  1
  Ir  Ir7  1  0.000000  0.003032  0.000000  1
