# generated using pymatgen
data_Ba3Tb2MoO9
_symmetry_space_group_name_H-M   'P 1'
_cell_length_a   6.12531900
_cell_length_b   6.12531887
_cell_length_c   7.49384900
_cell_angle_alpha   90.00000000
_cell_angle_beta   90.00000000
_cell_angle_gamma   119.99999530
_symmetry_Int_Tables_number   1
_chemical_formula_structural   Ba3Tb2MoO9
_chemical_formula_sum   'Ba3 Tb2 Mo1 O9'
_cell_volume   243.49665719
_cell_formula_units_Z   1
loop_
 _symmetry_equiv_pos_site_id
 _symmetry_equiv_pos_as_xyz
  1  'x, y, z'
loop_
 _atom_site_type_symbol
 _atom_site_label
 _atom_site_symmetry_multiplicity
 _atom_site_fract_x
 _atom_site_fract_y
 _atom_site_fract_z
 _atom_site_occupancy
  Ba  Ba0  1  0.000000  0.000000  0.500000  1
  Ba  Ba1  1  0.666667  0.333333  0.817379  1
  Ba  Ba2  1  0.333333  0.666667  0.182621  1
  Tb  Tb3  1  0.666667  0.333333  0.329964  1
  Tb  Tb4  1  0.333333  0.666667  0.670036  1
  Mo  Mo5  1  0.000000  0.000000  0.000000  1
  O  O6  1  0.696498  0.848250  0.850715  1
  O  O7  1  0.303502  0.151750  0.149285  1
  O  O8  1  0.000000  0.500000  0.500000  1
  O  O9  1  0.500000  0.000000  0.500000  1
  O  O10  1  0.151750  0.303502  0.850715  1
  O  O11  1  0.848250  0.696498  0.149285  1
  O  O12  1  0.500000  0.500000  0.500000  1
  O  O13  1  0.151750  0.848250  0.850715  1
  O  O14  1  0.848250  0.151750  0.149285  1
