# generated using pymatgen
data_Ho3Co2Tc(NiP)6
_symmetry_space_group_name_H-M   'P 1'
_cell_length_a   3.75344300
_cell_length_b   10.56969500
_cell_length_c   12.32282000
_cell_angle_alpha   90.00000000
_cell_angle_beta   90.00000000
_cell_angle_gamma   90.00000000
_symmetry_Int_Tables_number   1
_chemical_formula_structural   Ho3Co2Tc(NiP)6
_chemical_formula_sum   'Ho6 Co4 Tc2 Ni12 P12'
_cell_volume   488.88012893
_cell_formula_units_Z   2
loop_
 _symmetry_equiv_pos_site_id
 _symmetry_equiv_pos_as_xyz
  1  'x, y, z'
loop_
 _atom_site_type_symbol
 _atom_site_label
 _atom_site_symmetry_multiplicity
 _atom_site_fract_x
 _atom_site_fract_y
 _atom_site_fract_z
 _atom_site_occupancy
  Ho  Ho0  1  0.000000  0.500000  0.523731  1
  Ho  Ho1  1  0.500000  0.000000  0.476506  1
  Ho  Ho2  1  0.500000  0.817329  0.206382  1
  Ho  Ho3  1  0.500000  0.182671  0.206382  1
  Ho  Ho4  1  0.000000  0.682344  0.792063  1
  Ho  Ho5  1  0.000000  0.317656  0.792063  1
  Co  Co6  1  0.000000  0.500000  0.984317  1
  Co  Co7  1  0.500000  0.000000  0.015549  1
  Co  Co8  1  0.000000  0.167339  0.012140  1
  Co  Co9  1  0.000000  0.832661  0.012140  1
  Tc  Tc10  1  0.500000  0.500000  0.153306  1
  Tc  Tc11  1  0.000000  0.000000  0.848823  1
  Ni  Ni12  1  0.500000  0.303229  0.427833  1
  Ni  Ni13  1  0.500000  0.696771  0.427833  1
  Ni  Ni14  1  0.000000  0.195900  0.572288  1
  Ni  Ni15  1  0.000000  0.804100  0.572288  1
  Ni  Ni16  1  0.500000  0.879161  0.711929  1
  Ni  Ni17  1  0.500000  0.120839  0.711929  1
  Ni  Ni18  1  0.000000  0.620723  0.289197  1
  Ni  Ni19  1  0.000000  0.379277  0.289197  1
  Ni  Ni20  1  0.500000  0.331507  0.987855  1
  Ni  Ni21  1  0.500000  0.668493  0.987855  1
  Ni  Ni22  1  0.500000  0.500000  0.700609  1
  Ni  Ni23  1  0.000000  0.000000  0.297452  1
  P  P24  1  0.500000  0.313672  0.613844  1
  P  P25  1  0.500000  0.686328  0.613844  1
  P  P26  1  0.000000  0.185841  0.385562  1
  P  P27  1  0.000000  0.814159  0.385562  1
  P  P28  1  0.500000  0.500000  0.877911  1
  P  P29  1  0.000000  0.000000  0.119719  1
  P  P30  1  0.500000  0.848032  0.895045  1
  P  P31  1  0.500000  0.151968  0.895045  1
  P  P32  1  0.000000  0.652427  0.106491  1
  P  P33  1  0.000000  0.347573  0.106491  1
  P  P34  1  0.500000  0.500000  0.347181  1
  P  P35  1  0.000000  0.000000  0.653639  1
