# generated using pymatgen
data_Gd2MnNiO6
_symmetry_space_group_name_H-M   'P 1'
_cell_length_a   5.33146930
_cell_length_b   5.62625406
_cell_length_c   7.63636718
_cell_angle_alpha   89.99706432
_cell_angle_beta   89.68732340
_cell_angle_gamma   89.98330051
_symmetry_Int_Tables_number   1
_chemical_formula_structural   Gd2MnNiO6
_chemical_formula_sum   'Gd4 Mn2 Ni2 O12'
_cell_volume   229.05858231
_cell_formula_units_Z   2
loop_
 _symmetry_equiv_pos_site_id
 _symmetry_equiv_pos_as_xyz
  1  'x, y, z'
loop_
 _atom_site_type_symbol
 _atom_site_label
 _atom_site_symmetry_multiplicity
 _atom_site_fract_x
 _atom_site_fract_y
 _atom_site_fract_z
 _atom_site_occupancy
  Gd  Gd0  1  0.982132  0.067556  0.248584  1
  Gd  Gd1  1  0.481963  0.432433  0.748546  1
  Gd  Gd2  1  0.017985  0.932462  0.751449  1
  Gd  Gd3  1  0.517866  0.567536  0.251419  1
  Mn  Mn4  1  0.999994  0.500053  0.499943  1
  Mn  Mn5  1  0.500058  0.999962  0.000078  1
  Ni  Ni6  1  0.499928  0.999876  0.499823  1
  Ni  Ni7  1  0.999962  0.500038  0.000037  1
  O  O8  1  0.102908  0.466146  0.259162  1
  O  O9  1  0.602991  0.033901  0.759157  1
  O  O10  1  0.897083  0.533998  0.740845  1
  O  O11  1  0.397113  0.966074  0.240843  1
  O  O12  1  0.294826  0.687667  0.549941  1
  O  O13  1  0.794850  0.812429  0.050006  1
  O  O14  1  0.705183  0.312340  0.449955  1
  O  O15  1  0.205160  0.187580  0.950090  1
  O  O16  1  0.183299  0.210310  0.555684  1
  O  O17  1  0.683393  0.289717  0.055821  1
  O  O18  1  0.816635  0.789691  0.444266  1
  O  O19  1  0.316671  0.710232  0.944350  1
