# generated using pymatgen
data_Dy2Y4LuCo17P12
_symmetry_space_group_name_H-M   'P 1'
_cell_length_a   3.71989500
_cell_length_b   10.61013600
_cell_length_c   12.34505400
_cell_angle_alpha   90.00000000
_cell_angle_beta   90.00000000
_cell_angle_gamma   90.00000000
_symmetry_Int_Tables_number   1
_chemical_formula_structural   Dy2Y4LuCo17P12
_chemical_formula_sum   'Dy2 Y4 Lu1 Co17 P12'
_cell_volume   487.24189776
_cell_formula_units_Z   1
loop_
 _symmetry_equiv_pos_site_id
 _symmetry_equiv_pos_as_xyz
  1  'x, y, z'
loop_
 _atom_site_type_symbol
 _atom_site_label
 _atom_site_symmetry_multiplicity
 _atom_site_fract_x
 _atom_site_fract_y
 _atom_site_fract_z
 _atom_site_occupancy
  Dy  Dy0  1  0.000000  0.683388  0.795285  1
  Dy  Dy1  1  0.000000  0.316612  0.795285  1
  Y  Y2  1  0.000000  0.500000  0.530675  1
  Y  Y3  1  0.500000  0.000000  0.477902  1
  Y  Y4  1  0.500000  0.821943  0.207624  1
  Y  Y5  1  0.500000  0.178057  0.207624  1
  Lu  Lu6  1  0.500000  0.500000  0.154367  1
  Co  Co7  1  0.000000  0.000000  0.835352  1
  Co  Co8  1  0.500000  0.500000  0.703427  1
  Co  Co9  1  0.000000  0.000000  0.295590  1
  Co  Co10  1  0.000000  0.500000  0.982164  1
  Co  Co11  1  0.500000  0.000000  0.013276  1
  Co  Co12  1  0.500000  0.324869  0.986985  1
  Co  Co13  1  0.500000  0.675131  0.986985  1
  Co  Co14  1  0.000000  0.159834  0.999399  1
  Co  Co15  1  0.000000  0.840166  0.999399  1
  Co  Co16  1  0.500000  0.293345  0.436090  1
  Co  Co17  1  0.500000  0.706655  0.436090  1
  Co  Co18  1  0.000000  0.201088  0.571016  1
  Co  Co19  1  0.000000  0.798912  0.571016  1
  Co  Co20  1  0.500000  0.880876  0.707359  1
  Co  Co21  1  0.500000  0.119124  0.707359  1
  Co  Co22  1  0.000000  0.622560  0.302246  1
  Co  Co23  1  0.000000  0.377440  0.302246  1
  P  P24  1  0.500000  0.500000  0.881896  1
  P  P25  1  0.000000  0.000000  0.115754  1
  P  P26  1  0.500000  0.500000  0.363282  1
  P  P27  1  0.000000  0.000000  0.654680  1
  P  P28  1  0.500000  0.308084  0.618478  1
  P  P29  1  0.500000  0.691916  0.618478  1
  P  P30  1  0.000000  0.188280  0.387256  1
  P  P31  1  0.000000  0.811720  0.387256  1
  P  P32  1  0.500000  0.853781  0.887456  1
  P  P33  1  0.500000  0.146219  0.887456  1
  P  P34  1  0.000000  0.667237  0.096624  1
  P  P35  1  0.000000  0.332763  0.096624  1
