# generated using pymatgen
data_TiAl2VOs4
_symmetry_space_group_name_H-M   'P 1'
_cell_length_a   4.29301900
_cell_length_b   6.10010100
_cell_length_c   12.89753700
_cell_angle_alpha   90.00000000
_cell_angle_beta   90.00005779
_cell_angle_gamma   89.99996787
_symmetry_Int_Tables_number   1
_chemical_formula_structural   TiAl2VOs4
_chemical_formula_sum   'Ti3 Al6 V3 Os12'
_cell_volume   337.75875781
_cell_formula_units_Z   3
loop_
 _symmetry_equiv_pos_site_id
 _symmetry_equiv_pos_as_xyz
  1  'x, y, z'
loop_
 _atom_site_type_symbol
 _atom_site_label
 _atom_site_symmetry_multiplicity
 _atom_site_fract_x
 _atom_site_fract_y
 _atom_site_fract_z
 _atom_site_occupancy
  Ti  Ti0  1  0.000000  0.000000  0.999436  1
  Ti  Ti1  1  0.499856  0.500000  0.166667  1
  Ti  Ti2  1  0.999867  0.000000  0.333897  1
  Al  Al3  1  0.999997  0.500000  0.000523  1
  Al  Al4  1  0.499837  0.000000  0.166670  1
  Al  Al5  1  0.999866  0.500000  0.332805  1
  Al  Al6  1  0.499991  0.000000  0.500222  1
  Al  Al7  1  0.000184  0.500000  0.666669  1
  Al  Al8  1  0.500148  0.000000  0.833112  1
  V  V9  1  0.500011  0.500000  0.499300  1
  V  V10  1  0.000156  0.000000  0.666664  1
  V  V11  1  0.500155  0.500000  0.834034  1
  Os  Os12  1  0.499996  0.253058  0.996144  1
  Os  Os13  1  0.499996  0.746941  0.996144  1
  Os  Os14  1  0.999838  0.248817  0.166667  1
  Os  Os15  1  0.999837  0.751183  0.166667  1
  Os  Os16  1  0.499874  0.253051  0.337189  1
  Os  Os17  1  0.499874  0.746948  0.337189  1
  Os  Os18  1  0.999997  0.253222  0.503636  1
  Os  Os19  1  0.999998  0.746778  0.503636  1
  Os  Os20  1  0.500138  0.248939  0.666670  1
  Os  Os21  1  0.500138  0.751062  0.666670  1
  Os  Os22  1  0.000126  0.253235  0.829695  1
  Os  Os23  1  0.000126  0.746765  0.829695  1
