# generated using pymatgen
data_Y4Er4Tc3B24Ru
_symmetry_space_group_name_H-M   'P 1'
_cell_length_a   3.66721500
_cell_length_b   9.13964635
_cell_length_c   11.53337600
_cell_angle_alpha   89.91692119
_cell_angle_beta   90.00000000
_cell_angle_gamma   90.00000000
_symmetry_Int_Tables_number   1
_chemical_formula_structural   Y4Er4Tc3B24Ru
_chemical_formula_sum   'Y4 Er4 Tc3 B24 Ru1'
_cell_volume   386.56431274
_cell_formula_units_Z   1
loop_
 _symmetry_equiv_pos_site_id
 _symmetry_equiv_pos_as_xyz
  1  'x, y, z'
loop_
 _atom_site_type_symbol
 _atom_site_label
 _atom_site_symmetry_multiplicity
 _atom_site_fract_x
 _atom_site_fract_y
 _atom_site_fract_z
 _atom_site_occupancy
  Y  Y0  1  0.000000  0.323032  0.414091  1
  Y  Y1  1  0.000000  0.675729  0.584192  1
  Y  Y2  1  0.000000  0.822682  0.087154  1
  Y  Y3  1  0.000000  0.178533  0.914492  1
  Er  Er4  1  0.000000  0.942685  0.370212  1
  Er  Er5  1  0.000000  0.057603  0.630671  1
  Er  Er6  1  0.000000  0.443213  0.130097  1
  Er  Er7  1  0.000000  0.557687  0.869162  1
  Tc  Tc8  1  0.000000  0.638773  0.319781  1
  Tc  Tc9  1  0.000000  0.361315  0.680620  1
  Tc  Tc10  1  0.000000  0.138349  0.178997  1
  B  B11  1  0.500000  0.553266  0.432485  1
  B  B12  1  0.500000  0.446396  0.567160  1
  B  B13  1  0.500000  0.053292  0.067130  1
  B  B14  1  0.500000  0.945860  0.932450  1
  B  B15  1  0.500000  0.749129  0.418394  1
  B  B16  1  0.500000  0.250178  0.581811  1
  B  B17  1  0.500000  0.249851  0.081569  1
  B  B18  1  0.500000  0.750850  0.918046  1
  B  B19  1  0.500000  0.792152  0.265576  1
  B  B20  1  0.500000  0.208090  0.735114  1
  B  B21  1  0.500000  0.292113  0.234608  1
  B  B22  1  0.500000  0.708906  0.765254  1
  B  B23  1  0.500000  0.630569  0.185339  1
  B  B24  1  0.500000  0.369553  0.815185  1
  B  B25  1  0.500000  0.130009  0.314296  1
  B  B26  1  0.500000  0.869288  0.685489  1
  B  B27  1  0.500000  0.981833  0.212181  1
  B  B28  1  0.500000  0.016631  0.787974  1
  B  B29  1  0.500000  0.482143  0.287601  1
  B  B30  1  0.500000  0.517694  0.712028  1
  B  B31  1  0.500000  0.600930  0.027601  1
  B  B32  1  0.500000  0.400789  0.972053  1
  B  B33  1  0.500000  0.100225  0.472526  1
  B  B34  1  0.500000  0.899419  0.528352  1
  Ru  Ru35  1  0.000000  0.861233  0.820309  1
