# generated using pymatgen
data_Ho7Er9TlIn2HgRh4
_symmetry_space_group_name_H-M   'P 1'
_cell_length_a   9.58956043
_cell_length_b   9.57725883
_cell_length_c   9.59247834
_cell_angle_alpha   60.00578063
_cell_angle_beta   59.92107337
_cell_angle_gamma   59.95268984
_symmetry_Int_Tables_number   1
_chemical_formula_structural   Ho7Er9TlIn2HgRh4
_chemical_formula_sum   'Ho7 Er9 Tl1 In2 Hg1 Rh4'
_cell_volume   622.38573534
_cell_formula_units_Z   1
loop_
 _symmetry_equiv_pos_site_id
 _symmetry_equiv_pos_as_xyz
  1  'x, y, z'
loop_
 _atom_site_type_symbol
 _atom_site_label
 _atom_site_symmetry_multiplicity
 _atom_site_fract_x
 _atom_site_fract_y
 _atom_site_fract_z
 _atom_site_occupancy
  Ho  Ho0  1  0.189267  0.189277  0.811061  1
  Ho  Ho1  1  0.439684  0.056839  0.063659  1
  Ho  Ho2  1  0.437264  0.059780  0.436588  1
  Ho  Ho3  1  0.061729  0.436722  0.063146  1
  Ho  Ho4  1  0.649277  0.051607  0.647438  1
  Ho  Ho5  1  0.189831  0.810662  0.811410  1
  Ho  Ho6  1  0.064114  0.059093  0.438001  1
  Er  Er7  1  0.811046  0.189865  0.189778  1
  Er  Er8  1  0.811937  0.809968  0.189936  1
  Er  Er9  1  0.649077  0.647362  0.051796  1
  Er  Er10  1  0.652543  0.649850  0.650759  1
  Er  Er11  1  0.063730  0.434635  0.437268  1
  Er  Er12  1  0.049709  0.648698  0.648464  1
  Er  Er13  1  0.811172  0.190201  0.810327  1
  Er  Er14  1  0.438583  0.435345  0.063457  1
  Er  Er15  1  0.188681  0.811273  0.188767  1
  Tl  Tl16  1  0.414703  0.418153  0.753227  1
  In  In17  1  0.748090  0.420385  0.416215  1
  In  In18  1  0.416125  0.419939  0.415741  1
  Hg  Hg19  1  0.413771  0.760514  0.412515  1
  Rh  Rh20  1  0.856990  0.427581  0.857997  1
  Rh  Rh21  1  0.857403  0.857964  0.427238  1
  Rh  Rh22  1  0.428737  0.857017  0.857660  1
  Rh  Rh23  1  0.856540  0.857273  0.857552  1
