# generated using pymatgen
data_Ba3TbTmS6
_symmetry_space_group_name_H-M   'P 1'
_cell_length_a   8.50161983
_cell_length_b   8.50161925
_cell_length_c   8.50161900
_cell_angle_alpha   92.52783068
_cell_angle_beta   92.52783725
_cell_angle_gamma   92.52783807
_symmetry_Int_Tables_number   1
_chemical_formula_structural   Ba3TbTmS6
_chemical_formula_sum   'Ba6 Tb2 Tm2 S12'
_cell_volume   612.62762111
_cell_formula_units_Z   2
loop_
 _symmetry_equiv_pos_site_id
 _symmetry_equiv_pos_as_xyz
  1  'x, y, z'
loop_
 _atom_site_type_symbol
 _atom_site_label
 _atom_site_symmetry_multiplicity
 _atom_site_fract_x
 _atom_site_fract_y
 _atom_site_fract_z
 _atom_site_occupancy
  Ba  Ba0  1  0.372735  0.750000  0.127265  1
  Ba  Ba1  1  0.127265  0.372735  0.750000  1
  Ba  Ba2  1  0.750000  0.127265  0.372735  1
  Ba  Ba3  1  0.627265  0.250000  0.872735  1
  Ba  Ba4  1  0.872735  0.627265  0.250000  1
  Ba  Ba5  1  0.250000  0.872735  0.627265  1
  Tb  Tb6  1  0.250000  0.250000  0.250000  1
  Tb  Tb7  1  0.750000  0.750000  0.750000  1
  Tm  Tm8  1  0.500000  0.500000  0.500000  1
  Tm  Tm9  1  0.000000  0.000000  0.000000  1
  S  S10  1  0.538620  0.406856  0.199321  1
  S  S11  1  0.199321  0.538620  0.406856  1
  S  S12  1  0.406856  0.199321  0.538620  1
  S  S13  1  0.961380  0.300679  0.093144  1
  S  S14  1  0.093144  0.961380  0.300679  1
  S  S15  1  0.300679  0.093144  0.961380  1
  S  S16  1  0.461380  0.593144  0.800679  1
  S  S17  1  0.800679  0.461380  0.593144  1
  S  S18  1  0.593144  0.800679  0.461380  1
  S  S19  1  0.038620  0.699321  0.906856  1
  S  S20  1  0.699321  0.906856  0.038620  1
  S  S21  1  0.906856  0.038620  0.699321  1
