# generated using pymatgen
data_Tm6Ga5(Co8Sn)2
_symmetry_space_group_name_H-M   'P 1'
_cell_length_a   8.50175492
_cell_length_b   8.51380995
_cell_length_c   8.51380993
_cell_angle_alpha   59.70776861
_cell_angle_beta   60.04682909
_cell_angle_gamma   60.04682847
_symmetry_Int_Tables_number   1
_chemical_formula_structural   Tm6Ga5(Co8Sn)2
_chemical_formula_sum   'Tm6 Ga5 Co16 Sn2'
_cell_volume   435.08973089
_cell_formula_units_Z   1
loop_
 _symmetry_equiv_pos_site_id
 _symmetry_equiv_pos_as_xyz
  1  'x, y, z'
loop_
 _atom_site_type_symbol
 _atom_site_label
 _atom_site_symmetry_multiplicity
 _atom_site_fract_x
 _atom_site_fract_y
 _atom_site_fract_z
 _atom_site_occupancy
  Tm  Tm0  1  0.716774  0.283226  0.283226  1
  Tm  Tm1  1  0.283226  0.716774  0.716774  1
  Tm  Tm2  1  0.276981  0.713933  0.286067  1
  Tm  Tm3  1  0.276981  0.286067  0.713933  1
  Tm  Tm4  1  0.723019  0.286067  0.713933  1
  Tm  Tm5  1  0.723019  0.713933  0.286067  1
  Ga  Ga6  1  0.000000  0.500000  0.500000  1
  Ga  Ga7  1  0.000000  0.500000  0.000000  1
  Ga  Ga8  1  0.000000  0.000000  0.500000  1
  Ga  Ga9  1  0.500000  0.000000  0.500000  1
  Ga  Ga10  1  0.500000  0.500000  0.000000  1
  Co  Co11  1  0.319850  0.323544  0.323544  1
  Co  Co12  1  0.316760  0.329393  0.037089  1
  Co  Co13  1  0.033063  0.323544  0.323544  1
  Co  Co14  1  0.316760  0.037089  0.329393  1
  Co  Co15  1  0.680150  0.676456  0.676456  1
  Co  Co16  1  0.683240  0.670607  0.962911  1
  Co  Co17  1  0.683240  0.962911  0.670607  1
  Co  Co18  1  0.966937  0.676456  0.676456  1
  Co  Co19  1  0.119009  0.131950  0.131950  1
  Co  Co20  1  0.127002  0.127544  0.618453  1
  Co  Co21  1  0.617091  0.131950  0.131950  1
  Co  Co22  1  0.127002  0.618453  0.127544  1
  Co  Co23  1  0.880991  0.868050  0.868050  1
  Co  Co24  1  0.872998  0.872456  0.381547  1
  Co  Co25  1  0.872998  0.381547  0.872456  1
  Co  Co26  1  0.382909  0.868050  0.868050  1
  Sn  Sn27  1  0.500000  0.000000  0.000000  1
  Sn  Sn28  1  0.000000  0.000000  0.000000  1
