# generated using pymatgen
data_Tm17Sc7(CoTc)4
_symmetry_space_group_name_H-M   'P 1'
_cell_length_a   6.14472292
_cell_length_b   8.94587400
_cell_length_c   13.75103356
_cell_angle_alpha   90.00000000
_cell_angle_beta   89.80573738
_cell_angle_gamma   90.00000000
_symmetry_Int_Tables_number   1
_chemical_formula_structural   Tm17Sc7(CoTc)4
_chemical_formula_sum   'Tm17 Sc7 Co4 Tc4'
_cell_volume   755.88882874
_cell_formula_units_Z   1
loop_
 _symmetry_equiv_pos_site_id
 _symmetry_equiv_pos_as_xyz
  1  'x, y, z'
loop_
 _atom_site_type_symbol
 _atom_site_label
 _atom_site_symmetry_multiplicity
 _atom_site_fract_x
 _atom_site_fract_y
 _atom_site_fract_z
 _atom_site_occupancy
  Tm  Tm0  1  0.534332  0.750000  0.350851  1
  Tm  Tm1  1  0.410454  0.935826  0.785022  1
  Tm  Tm2  1  0.909933  0.064393  0.715810  1
  Tm  Tm3  1  0.588990  0.434047  0.213470  1
  Tm  Tm4  1  0.087028  0.562773  0.284054  1
  Tm  Tm5  1  0.588990  0.065953  0.213470  1
  Tm  Tm6  1  0.087028  0.937227  0.284054  1
  Tm  Tm7  1  0.410454  0.564174  0.785022  1
  Tm  Tm8  1  0.909933  0.435607  0.715810  1
  Tm  Tm9  1  0.245953  0.939327  0.537730  1
  Tm  Tm10  1  0.745445  0.062358  0.963712  1
  Tm  Tm11  1  0.755886  0.435928  0.465263  1
  Tm  Tm12  1  0.252645  0.562379  0.035147  1
  Tm  Tm13  1  0.755886  0.064072  0.465263  1
  Tm  Tm14  1  0.252645  0.937621  0.035147  1
  Tm  Tm15  1  0.245953  0.560673  0.537730  1
  Tm  Tm16  1  0.745445  0.437642  0.963712  1
  Sc  Sc17  1  0.035877  0.250000  0.150388  1
  Sc  Sc18  1  0.464913  0.250000  0.651713  1
  Sc  Sc19  1  0.963928  0.750000  0.848870  1
  Sc  Sc20  1  0.775506  0.750000  0.108918  1
  Sc  Sc21  1  0.275069  0.250000  0.390197  1
  Sc  Sc22  1  0.225967  0.250000  0.889945  1
  Sc  Sc23  1  0.726494  0.750000  0.610483  1
  Co  Co24  1  0.381230  0.750000  0.178996  1
  Co  Co25  1  0.885643  0.250000  0.316852  1
  Co  Co26  1  0.613880  0.250000  0.817217  1
  Co  Co27  1  0.113131  0.750000  0.683290  1
  Tc  Tc28  1  0.930109  0.750000  0.440695  1
  Tc  Tc29  1  0.419482  0.250000  0.060727  1
  Tc  Tc30  1  0.080943  0.250000  0.562176  1
  Tc  Tc31  1  0.580831  0.750000  0.938263  1
