# generated using pymatgen
data_Zn22CrPt2
_symmetry_space_group_name_H-M   'P 1'
_cell_length_a   7.82959683
_cell_length_b   7.82959707
_cell_length_c   7.82457609
_cell_angle_alpha   72.02772732
_cell_angle_beta   72.02772666
_cell_angle_gamma   57.97658213
_symmetry_Int_Tables_number   1
_chemical_formula_structural   Zn22CrPt2
_chemical_formula_sum   'Zn22 Cr1 Pt2'
_cell_volume   380.53447929
_cell_formula_units_Z   1
loop_
 _symmetry_equiv_pos_site_id
 _symmetry_equiv_pos_as_xyz
  1  'x, y, z'
loop_
 _atom_site_type_symbol
 _atom_site_label
 _atom_site_symmetry_multiplicity
 _atom_site_fract_x
 _atom_site_fract_y
 _atom_site_fract_z
 _atom_site_occupancy
  Zn  Zn0  1  0.336242  0.744535  0.316602  1
  Zn  Zn1  1  0.663758  0.255465  0.683398  1
  Zn  Zn2  1  0.255465  0.663758  0.683398  1
  Zn  Zn3  1  0.744535  0.336242  0.316602  1
  Zn  Zn4  1  0.682380  0.317620  0.000000  1
  Zn  Zn5  1  0.317620  0.682380  0.000000  1
  Zn  Zn6  1  0.833673  0.833673  0.777326  1
  Zn  Zn7  1  0.166327  0.166327  0.222674  1
  Zn  Zn8  1  0.976911  0.976911  0.175942  1
  Zn  Zn9  1  0.023089  0.023089  0.824058  1
  Zn  Zn10  1  0.350929  0.350929  0.279946  1
  Zn  Zn11  1  0.649071  0.649071  0.720054  1
  Zn  Zn12  1  0.684471  0.684471  0.381331  1
  Zn  Zn13  1  0.315529  0.315529  0.618669  1
  Zn  Zn14  1  0.662253  0.022260  0.462146  1
  Zn  Zn15  1  0.337747  0.977740  0.537854  1
  Zn  Zn16  1  0.977740  0.337747  0.537854  1
  Zn  Zn17  1  0.022260  0.662253  0.462146  1
  Zn  Zn18  1  0.621295  0.997038  0.106936  1
  Zn  Zn19  1  0.378705  0.002962  0.893064  1
  Zn  Zn20  1  0.002962  0.378705  0.893064  1
  Zn  Zn21  1  0.997038  0.621295  0.106936  1
  Cr  Cr22  1  0.000000  0.000000  0.500000  1
  Pt  Pt23  1  0.657231  0.657231  0.054789  1
  Pt  Pt24  1  0.342769  0.342769  0.945211  1
