# generated using pymatgen
data_La9Pr7Mg4IrRu3
_symmetry_space_group_name_H-M   'P 1'
_cell_length_a   10.11937982
_cell_length_b   10.11531735
_cell_length_c   10.13636700
_cell_angle_alpha   59.93114150
_cell_angle_beta   59.94445748
_cell_angle_gamma   60.28423190
_symmetry_Int_Tables_number   1
_chemical_formula_structural   La9Pr7Mg4IrRu3
_chemical_formula_sum   'La9 Pr7 Mg4 Ir1 Ru3'
_cell_volume   734.53794310
_cell_formula_units_Z   1
loop_
 _symmetry_equiv_pos_site_id
 _symmetry_equiv_pos_as_xyz
  1  'x, y, z'
loop_
 _atom_site_type_symbol
 _atom_site_label
 _atom_site_symmetry_multiplicity
 _atom_site_fract_x
 _atom_site_fract_y
 _atom_site_fract_z
 _atom_site_occupancy
  La  La0  1  0.343080  0.345420  0.345913  1
  La  La1  1  0.343080  0.345420  0.965587  1
  La  La2  1  0.343973  0.966599  0.344714  1
  La  La3  1  0.967950  0.345072  0.343489  1
  La  La4  1  0.814782  0.187151  0.188183  1
  La  La5  1  0.187127  0.811291  0.814638  1
  La  La6  1  0.187127  0.811291  0.186945  1
  La  La7  1  0.814782  0.187151  0.809884  1
  La  La8  1  0.188251  0.186935  0.812407  1
  Pr  Pr9  1  0.810568  0.808647  0.190392  1
  Pr  Pr10  1  0.935682  0.563924  0.563458  1
  Pr  Pr11  1  0.563146  0.936044  0.937000  1
  Pr  Pr12  1  0.563146  0.936044  0.563809  1
  Pr  Pr13  1  0.935682  0.563924  0.936937  1
  Pr  Pr14  1  0.562375  0.562985  0.937320  1
  Pr  Pr15  1  0.938124  0.938176  0.561850  1
  Mg  Mg16  1  0.579586  0.579850  0.577923  1
  Mg  Mg17  1  0.579586  0.579850  0.262640  1
  Mg  Mg18  1  0.578553  0.262778  0.579335  1
  Mg  Mg19  1  0.262697  0.578913  0.579195  1
  Ir  Ir20  1  0.579779  0.144559  0.137831  1
  Ru  Ru21  1  0.137274  0.136424  0.136879  1
  Ru  Ru22  1  0.137274  0.136424  0.589423  1
  Ru  Ru23  1  0.146376  0.585129  0.134247  1
