# generated using pymatgen
data_Y2TmSn3IrRh2
_symmetry_space_group_name_H-M   'P 1'
_cell_length_a   7.70371342
_cell_length_b   7.68669875
_cell_length_c   3.71676500
_cell_angle_alpha   90.00000000
_cell_angle_beta   90.00000000
_cell_angle_gamma   120.11105500
_symmetry_Int_Tables_number   1
_chemical_formula_structural   Y2TmSn3IrRh2
_chemical_formula_sum   'Y2 Tm1 Sn3 Ir1 Rh2'
_cell_volume   190.39196749
_cell_formula_units_Z   1
loop_
 _symmetry_equiv_pos_site_id
 _symmetry_equiv_pos_as_xyz
  1  'x, y, z'
loop_
 _atom_site_type_symbol
 _atom_site_label
 _atom_site_symmetry_multiplicity
 _atom_site_fract_x
 _atom_site_fract_y
 _atom_site_fract_z
 _atom_site_occupancy
  Y  Y0  1  0.997968  0.401864  0.000000  1
  Y  Y1  1  0.598165  0.596170  0.000000  1
  Tm  Tm2  1  0.404185  0.002675  0.000000  1
  Sn  Sn3  1  0.265144  0.265608  0.500000  1
  Sn  Sn4  1  0.004103  0.736637  0.500000  1
  Sn  Sn5  1  0.731755  0.997592  0.500000  1
  Ir  Ir6  1  0.663467  0.329384  0.500000  1
  Rh  Rh7  1  0.333977  0.670022  0.500000  1
  Rh  Rh8  1  0.001237  0.000049  0.000000  1
