# generated using pymatgen
data_AcScZn4Ru
_symmetry_space_group_name_H-M   'P 1'
_cell_length_a   7.11133000
_cell_length_b   7.11133000
_cell_length_c   5.21418000
_cell_angle_alpha   90.00000000
_cell_angle_beta   90.00000000
_cell_angle_gamma   90.00000000
_symmetry_Int_Tables_number   1
_chemical_formula_structural   AcScZn4Ru
_chemical_formula_sum   'Ac2 Sc2 Zn8 Ru2'
_cell_volume   263.68637170
_cell_formula_units_Z   2
loop_
 _symmetry_equiv_pos_site_id
 _symmetry_equiv_pos_as_xyz
  1  'x, y, z'
loop_
 _atom_site_type_symbol
 _atom_site_label
 _atom_site_symmetry_multiplicity
 _atom_site_fract_x
 _atom_site_fract_y
 _atom_site_fract_z
 _atom_site_occupancy
  Ac  Ac0  1  0.000000  0.500000  0.771784  1
  Ac  Ac1  1  0.500000  0.000000  0.228216  1
  Sc  Sc2  1  0.000000  0.000000  0.000000  1
  Sc  Sc3  1  0.500000  0.500000  0.000000  1
  Zn  Zn4  1  0.189375  0.689375  0.279478  1
  Zn  Zn5  1  0.810625  0.689375  0.279478  1
  Zn  Zn6  1  0.810625  0.310625  0.279478  1
  Zn  Zn7  1  0.310625  0.189375  0.720522  1
  Zn  Zn8  1  0.189375  0.310625  0.279478  1
  Zn  Zn9  1  0.689375  0.189375  0.720522  1
  Zn  Zn10  1  0.689375  0.810625  0.720522  1
  Zn  Zn11  1  0.310625  0.810625  0.720522  1
  Ru  Ru12  1  0.500000  0.500000  0.500000  1
  Ru  Ru13  1  0.000000  0.000000  0.500000  1
