# generated using pymatgen
data_KHo(SO4)2
_symmetry_space_group_name_H-M   'P 1'
_cell_length_a   5.23633965
_cell_length_b   5.23618546
_cell_length_c   8.30016587
_cell_angle_alpha   87.47542901
_cell_angle_beta   87.45782403
_cell_angle_gamma   62.77918934
_symmetry_Int_Tables_number   1
_chemical_formula_structural   KHo(SO4)2
_chemical_formula_sum   'K1 Ho1 S2 O8'
_cell_volume   202.10200375
_cell_formula_units_Z   1
loop_
 _symmetry_equiv_pos_site_id
 _symmetry_equiv_pos_as_xyz
  1  'x, y, z'
loop_
 _atom_site_type_symbol
 _atom_site_label
 _atom_site_symmetry_multiplicity
 _atom_site_fract_x
 _atom_site_fract_y
 _atom_site_fract_z
 _atom_site_occupancy
  K  K0  1  0.999966  0.500061  0.999963  1
  Ho  Ho1  1  0.999991  0.500001  0.500008  1
  S  S2  1  0.363308  0.860871  0.278053  1
  S  S3  1  0.636704  0.139124  0.721964  1
  O  O4  1  0.293982  0.837783  0.113184  1
  O  O5  1  0.266583  0.169386  0.317674  1
  O  O6  1  0.682337  0.700628  0.300482  1
  O  O7  1  0.223612  0.742062  0.399458  1
  O  O8  1  0.776384  0.257890  0.600541  1
  O  O9  1  0.317704  0.299379  0.699501  1
  O  O10  1  0.733359  0.830655  0.682301  1
  O  O11  1  0.706068  0.162159  0.886871  1
