# generated using pymatgen
data_Ce7EuF30
_symmetry_space_group_name_H-M   'P 1'
_cell_length_a   8.65205627
_cell_length_b   8.65205770
_cell_length_c   8.65205800
_cell_angle_alpha   100.29724661
_cell_angle_beta   100.29724833
_cell_angle_gamma   100.29724906
_symmetry_Int_Tables_number   1
_chemical_formula_structural   Ce7EuF30
_chemical_formula_sum   'Ce7 Eu1 F30'
_cell_volume   611.94855237
_cell_formula_units_Z   1
loop_
 _symmetry_equiv_pos_site_id
 _symmetry_equiv_pos_as_xyz
  1  'x, y, z'
loop_
 _atom_site_type_symbol
 _atom_site_label
 _atom_site_symmetry_multiplicity
 _atom_site_fract_x
 _atom_site_fract_y
 _atom_site_fract_z
 _atom_site_occupancy
  Ce  Ce0  1  0.179620  0.750000  0.320380  1
  Ce  Ce1  1  0.250000  0.677983  0.822017  1
  Ce  Ce2  1  0.677983  0.822017  0.250000  1
  Ce  Ce3  1  0.750000  0.750000  0.750000  1
  Ce  Ce4  1  0.320380  0.179620  0.750000  1
  Ce  Ce5  1  0.750000  0.320380  0.179620  1
  Ce  Ce6  1  0.822017  0.250000  0.677983  1
  Eu  Eu7  1  0.250000  0.250000  0.250000  1
  F  F8  1  0.958577  0.541423  0.250000  1
  F  F9  1  0.821305  0.349724  0.454197  1
  F  F10  1  0.490836  0.723772  0.718458  1
  F  F11  1  0.349724  0.454197  0.821305  1
  F  F12  1  0.009164  0.781542  0.776228  1
  F  F13  1  0.750000  0.035833  0.464167  1
  F  F14  1  0.944415  0.847850  0.320023  1
  F  F15  1  0.225607  0.219631  0.976192  1
  F  F16  1  0.776228  0.009164  0.781542  1
  F  F17  1  0.320023  0.944415  0.847850  1
  F  F18  1  0.280369  0.274393  0.523808  1
  F  F19  1  0.454197  0.821305  0.349724  1
  F  F20  1  0.541423  0.250000  0.958577  1
  F  F21  1  0.274393  0.523808  0.280369  1
  F  F22  1  0.150276  0.678695  0.045803  1
  F  F23  1  0.847850  0.320023  0.944415  1
  F  F24  1  0.718458  0.490836  0.723772  1
  F  F25  1  0.464167  0.750000  0.035833  1
  F  F26  1  0.555585  0.179977  0.652150  1
  F  F27  1  0.723772  0.718458  0.490836  1
  F  F28  1  0.678695  0.045803  0.150276  1
  F  F29  1  0.219631  0.976192  0.225607  1
  F  F30  1  0.781542  0.776228  0.009164  1
  F  F31  1  0.045803  0.150276  0.678695  1
  F  F32  1  0.250000  0.958577  0.541423  1
  F  F33  1  0.976192  0.225607  0.219631  1
  F  F34  1  0.652150  0.555585  0.179977  1
  F  F35  1  0.523808  0.280369  0.274393  1
  F  F36  1  0.179977  0.652150  0.555585  1
  F  F37  1  0.035833  0.464167  0.750000  1
