# generated using pymatgen
data_TaTi2Co4MoP4
_symmetry_space_group_name_H-M   'P 1'
_cell_length_a   3.58260800
_cell_length_b   6.02580864
_cell_length_c   6.87630358
_cell_angle_alpha   89.79961752
_cell_angle_beta   90.00000000
_cell_angle_gamma   90.00000000
_symmetry_Int_Tables_number   1
_chemical_formula_structural   TaTi2Co4MoP4
_chemical_formula_sum   'Ta1 Ti2 Co4 Mo1 P4'
_cell_volume   148.44549200
_cell_formula_units_Z   1
loop_
 _symmetry_equiv_pos_site_id
 _symmetry_equiv_pos_as_xyz
  1  'x, y, z'
loop_
 _atom_site_type_symbol
 _atom_site_label
 _atom_site_symmetry_multiplicity
 _atom_site_fract_x
 _atom_site_fract_y
 _atom_site_fract_z
 _atom_site_occupancy
  Ta  Ta0  1  0.250000  0.972941  0.325198  1
  Ti  Ti1  1  0.750000  0.025908  0.676872  1
  Ti  Ti2  1  0.750000  0.524173  0.825527  1
  Co  Co3  1  0.250000  0.858737  0.936420  1
  Co  Co4  1  0.250000  0.356719  0.565352  1
  Co  Co5  1  0.750000  0.141135  0.059872  1
  Co  Co6  1  0.750000  0.643781  0.439850  1
  Mo  Mo7  1  0.250000  0.472022  0.167732  1
  P  P8  1  0.250000  0.230574  0.879639  1
  P  P9  1  0.250000  0.729096  0.625635  1
  P  P10  1  0.750000  0.767679  0.120041  1
  P  P11  1  0.750000  0.277235  0.377861  1
