# generated using pymatgen
data_LiIn(IrS2)4
_symmetry_space_group_name_H-M   'P 1'
_cell_length_a   7.25080583
_cell_length_b   7.25080563
_cell_length_c   7.25080600
_cell_angle_alpha   59.99999833
_cell_angle_beta   59.99999923
_cell_angle_gamma   60.00000122
_symmetry_Int_Tables_number   1
_chemical_formula_structural   LiIn(IrS2)4
_chemical_formula_sum   'Li1 In1 Ir4 S8'
_cell_volume   269.55278453
_cell_formula_units_Z   1
loop_
 _symmetry_equiv_pos_site_id
 _symmetry_equiv_pos_as_xyz
  1  'x, y, z'
loop_
 _atom_site_type_symbol
 _atom_site_label
 _atom_site_symmetry_multiplicity
 _atom_site_fract_x
 _atom_site_fract_y
 _atom_site_fract_z
 _atom_site_occupancy
  Li  Li0  1  0.000000  0.000000  0.000000  1
  In  In1  1  0.750000  0.750000  0.750000  1
  Ir  Ir2  1  0.372968  0.372968  0.372968  1
  Ir  Ir3  1  0.372968  0.372968  0.881095  1
  Ir  Ir4  1  0.372968  0.881095  0.372968  1
  Ir  Ir5  1  0.881095  0.372968  0.372968  1
  S  S6  1  0.141884  0.141884  0.141884  1
  S  S7  1  0.141884  0.141884  0.574348  1
  S  S8  1  0.141884  0.574348  0.141884  1
  S  S9  1  0.574348  0.141884  0.141884  1
  S  S10  1  0.605896  0.605896  0.605896  1
  S  S11  1  0.605896  0.605896  0.182314  1
  S  S12  1  0.605896  0.182314  0.605896  1
  S  S13  1  0.182314  0.605896  0.605896  1
