# generated using pymatgen
data_Pr5OsRh
_symmetry_space_group_name_H-M   'P 1'
_cell_length_a   9.08421267
_cell_length_b   9.08421147
_cell_length_c   7.42219601
_cell_angle_alpha   83.73564498
_cell_angle_beta   83.73564482
_cell_angle_gamma   43.16009510
_symmetry_Int_Tables_number   1
_chemical_formula_structural   Pr5OsRh
_chemical_formula_sum   'Pr10 Os2 Rh2'
_cell_volume   416.08044458
_cell_formula_units_Z   2
loop_
 _symmetry_equiv_pos_site_id
 _symmetry_equiv_pos_as_xyz
  1  'x, y, z'
loop_
 _atom_site_type_symbol
 _atom_site_label
 _atom_site_symmetry_multiplicity
 _atom_site_fract_x
 _atom_site_fract_y
 _atom_site_fract_z
 _atom_site_occupancy
  Pr  Pr0  1  0.011561  0.801307  0.918309  1
  Pr  Pr1  1  0.198693  0.988439  0.581691  1
  Pr  Pr2  1  0.981032  0.202122  0.085542  1
  Pr  Pr3  1  0.797878  0.018968  0.414458  1
  Pr  Pr4  1  0.359551  0.209885  0.816150  1
  Pr  Pr5  1  0.790115  0.640449  0.683850  1
  Pr  Pr6  1  0.646951  0.789154  0.185818  1
  Pr  Pr7  1  0.210846  0.353049  0.314182  1
  Pr  Pr8  1  0.568777  0.431223  0.750000  1
  Pr  Pr9  1  0.430079  0.569921  0.250000  1
  Os  Os10  1  0.820782  0.401190  0.426749  1
  Os  Os11  1  0.598810  0.179218  0.073251  1
  Rh  Rh12  1  0.179931  0.595006  0.575247  1
  Rh  Rh13  1  0.404994  0.820069  0.924753  1
