# generated using pymatgen
data_Ti2NbRe3Si2Ge
_symmetry_space_group_name_H-M   'P 1'
_cell_length_a   6.86724326
_cell_length_b   6.86118018
_cell_length_c   3.28227000
_cell_angle_alpha   90.00000000
_cell_angle_beta   90.00000000
_cell_angle_gamma   119.52218294
_symmetry_Int_Tables_number   1
_chemical_formula_structural   Ti2NbRe3Si2Ge
_chemical_formula_sum   'Ti2 Nb1 Re3 Si2 Ge1'
_cell_volume   134.57276035
_cell_formula_units_Z   1
loop_
 _symmetry_equiv_pos_site_id
 _symmetry_equiv_pos_as_xyz
  1  'x, y, z'
loop_
 _atom_site_type_symbol
 _atom_site_label
 _atom_site_symmetry_multiplicity
 _atom_site_fract_x
 _atom_site_fract_y
 _atom_site_fract_z
 _atom_site_occupancy
  Ti  Ti0  1  0.594644  0.988122  0.500000  1
  Ti  Ti1  1  0.004927  0.602544  0.500000  1
  Nb  Nb2  1  0.398091  0.405580  0.500000  1
  Re  Re3  1  0.740608  0.746930  0.000000  1
  Re  Re4  1  0.255512  0.994270  0.000000  1
  Re  Re5  1  0.005444  0.261779  0.000000  1
  Si  Si6  1  0.330961  0.669758  0.000000  1
  Si  Si7  1  0.999870  0.999923  0.500000  1
  Ge  Ge8  1  0.669943  0.331095  0.000000  1
