# generated using pymatgen
data_Hf3Al2IrC
_symmetry_space_group_name_H-M   'P 1'
_cell_length_a   8.57053922
_cell_length_b   8.57063788
_cell_length_c   8.57053601
_cell_angle_alpha   59.99953058
_cell_angle_beta   59.99866051
_cell_angle_gamma   59.99957825
_symmetry_Int_Tables_number   1
_chemical_formula_structural   Hf3Al2IrC
_chemical_formula_sum   'Hf12 Al8 Ir4 C4'
_cell_volume   445.15059385
_cell_formula_units_Z   4
loop_
 _symmetry_equiv_pos_site_id
 _symmetry_equiv_pos_as_xyz
  1  'x, y, z'
loop_
 _atom_site_type_symbol
 _atom_site_label
 _atom_site_symmetry_multiplicity
 _atom_site_fract_x
 _atom_site_fract_y
 _atom_site_fract_z
 _atom_site_occupancy
  Hf  Hf0  1  0.557178  0.942826  0.557179  1
  Hf  Hf1  1  0.307175  0.692819  0.692823  1
  Hf  Hf2  1  0.692822  0.307177  0.307180  1
  Hf  Hf3  1  0.307176  0.692823  0.307177  1
  Hf  Hf4  1  0.692823  0.692819  0.307176  1
  Hf  Hf5  1  0.307179  0.307178  0.692822  1
  Hf  Hf6  1  0.557176  0.557180  0.942825  1
  Hf  Hf7  1  0.942826  0.557180  0.557176  1
  Hf  Hf8  1  0.557178  0.942824  0.942820  1
  Hf  Hf9  1  0.942820  0.942822  0.557178  1
  Hf  Hf10  1  0.692822  0.307174  0.692821  1
  Hf  Hf11  1  0.942824  0.557177  0.942824  1
  Al  Al12  1  0.918665  0.918669  0.918665  1
  Al  Al13  1  0.005999  0.331333  0.331337  1
  Al  Al14  1  0.331336  0.005999  0.331336  1
  Al  Al15  1  0.331337  0.331333  0.006000  1
  Al  Al16  1  0.918664  0.244001  0.918664  1
  Al  Al17  1  0.918663  0.918667  0.244000  1
  Al  Al18  1  0.244001  0.918667  0.918663  1
  Al  Al19  1  0.331335  0.331331  0.331335  1
  Ir  Ir20  1  0.125000  0.125000  0.125000  1
  Ir  Ir21  1  0.625000  0.125000  0.125000  1
  Ir  Ir22  1  0.125000  0.625000  0.125000  1
  Ir  Ir23  1  0.125000  0.125000  0.625000  1
  C  C24  1  0.625000  0.625000  0.625001  1
  C  C25  1  0.124999  0.625000  0.625000  1
  C  C26  1  0.625000  0.125000  0.625000  1
  C  C27  1  0.625000  0.625000  0.125000  1
