# generated using pymatgen
data_PrCo11
_symmetry_space_group_name_H-M   'P 1'
_cell_length_a   6.31860156
_cell_length_b   7.64777735
_cell_length_c   7.64750309
_cell_angle_alpha   99.86151190
_cell_angle_beta   114.41406094
_cell_angle_gamma   65.58611552
_symmetry_Int_Tables_number   1
_chemical_formula_structural   PrCo11
_chemical_formula_sum   'Pr2 Co22'
_cell_volume   306.41835766
_cell_formula_units_Z   2
loop_
 _symmetry_equiv_pos_site_id
 _symmetry_equiv_pos_as_xyz
  1  'x, y, z'
loop_
 _atom_site_type_symbol
 _atom_site_label
 _atom_site_symmetry_multiplicity
 _atom_site_fract_x
 _atom_site_fract_y
 _atom_site_fract_z
 _atom_site_occupancy
  Pr  Pr0  1  0.999924  0.000010  0.999932  1
  Pr  Pr1  1  0.250075  0.499991  0.500067  1
  Co  Co2  1  0.500044  0.999991  0.999990  1
  Co  Co3  1  0.184368  0.329464  0.079558  1
  Co  Co4  1  0.895415  0.670356  0.079534  1
  Co  Co5  1  0.815690  0.420426  0.170509  1
  Co  Co6  1  0.354552  0.579561  0.170341  1
  Co  Co7  1  0.624998  0.250007  0.250004  1
  Co  Co8  1  0.625003  0.749994  0.250006  1
  Co  Co9  1  0.434307  0.079575  0.329494  1
  Co  Co10  1  0.895452  0.920437  0.329663  1
  Co  Co11  1  0.065626  0.170541  0.420442  1
  Co  Co12  1  0.354593  0.829638  0.420467  1
  Co  Co13  1  0.749955  0.500011  0.500011  1
  Co  Co14  1  0.815696  0.829475  0.579572  1
  Co  Co15  1  0.763699  0.170435  0.579548  1
  Co  Co16  1  0.486315  0.079536  0.670439  1
  Co  Co17  1  0.184360  0.920439  0.670546  1
  Co  Co18  1  0.124994  0.250007  0.749997  1
  Co  Co19  1  0.625004  0.749994  0.749995  1
  Co  Co20  1  0.763688  0.420465  0.829558  1
  Co  Co21  1  0.065636  0.579560  0.829451  1
  Co  Co22  1  0.486300  0.329571  0.920452  1
  Co  Co23  1  0.434302  0.670519  0.920428  1
