# generated using pymatgen
data_Tb10Y6Cd4TcPd3
_symmetry_space_group_name_H-M   'P 1'
_cell_length_a   9.77402603
_cell_length_b   9.77402621
_cell_length_c   9.77402451
_cell_angle_alpha   59.26672949
_cell_angle_beta   59.26672860
_cell_angle_gamma   59.26672785
_symmetry_Int_Tables_number   1
_chemical_formula_structural   Tb10Y6Cd4TcPd3
_chemical_formula_sum   'Tb10 Y6 Cd4 Tc1 Pd3'
_cell_volume   649.21937162
_cell_formula_units_Z   1
loop_
 _symmetry_equiv_pos_site_id
 _symmetry_equiv_pos_as_xyz
  1  'x, y, z'
loop_
 _atom_site_type_symbol
 _atom_site_label
 _atom_site_symmetry_multiplicity
 _atom_site_fract_x
 _atom_site_fract_y
 _atom_site_fract_z
 _atom_site_occupancy
  Tb  Tb0  1  0.352920  0.352920  0.352920  1
  Tb  Tb1  1  0.350653  0.350653  0.945866  1
  Tb  Tb2  1  0.350653  0.945866  0.350653  1
  Tb  Tb3  1  0.945866  0.350653  0.350653  1
  Tb  Tb4  1  0.816617  0.188257  0.188257  1
  Tb  Tb5  1  0.189343  0.809613  0.809613  1
  Tb  Tb6  1  0.188257  0.816617  0.188257  1
  Tb  Tb7  1  0.809613  0.189343  0.809613  1
  Tb  Tb8  1  0.188257  0.188257  0.816617  1
  Tb  Tb9  1  0.809613  0.809613  0.189343  1
  Y  Y10  1  0.934937  0.565687  0.565687  1
  Y  Y11  1  0.557360  0.937265  0.937265  1
  Y  Y12  1  0.565687  0.934937  0.565687  1
  Y  Y13  1  0.937265  0.557360  0.937265  1
  Y  Y14  1  0.565687  0.565687  0.934937  1
  Y  Y15  1  0.937265  0.937265  0.557360  1
  Cd  Cd16  1  0.579825  0.579825  0.579825  1
  Cd  Cd17  1  0.581070  0.581070  0.253710  1
  Cd  Cd18  1  0.581070  0.253710  0.581070  1
  Cd  Cd19  1  0.253710  0.581070  0.581070  1
  Tc  Tc20  1  0.144436  0.144436  0.144436  1
  Pd  Pd21  1  0.145138  0.145138  0.569620  1
  Pd  Pd22  1  0.145138  0.569620  0.145138  1
  Pd  Pd23  1  0.569620  0.145138  0.145138  1
