# generated using pymatgen
data_Tb3Dy4Y(B6Ru)4
_symmetry_space_group_name_H-M   'P 1'
_cell_length_a   3.66869800
_cell_length_b   9.15910101
_cell_length_c   11.53473401
_cell_angle_alpha   90.00476270
_cell_angle_beta   90.00000000
_cell_angle_gamma   90.00000000
_symmetry_Int_Tables_number   1
_chemical_formula_structural   Tb3Dy4Y(B6Ru)4
_chemical_formula_sum   'Tb3 Dy4 Y1 B24 Ru4'
_cell_volume   387.58984883
_cell_formula_units_Z   1
loop_
 _symmetry_equiv_pos_site_id
 _symmetry_equiv_pos_as_xyz
  1  'x, y, z'
loop_
 _atom_site_type_symbol
 _atom_site_label
 _atom_site_symmetry_multiplicity
 _atom_site_fract_x
 _atom_site_fract_y
 _atom_site_fract_z
 _atom_site_occupancy
  Tb  Tb0  1  0.000000  0.323315  0.413995  1
  Tb  Tb1  1  0.000000  0.676677  0.586023  1
  Tb  Tb2  1  0.000000  0.823351  0.085980  1
  Dy  Dy3  1  0.000000  0.943923  0.372168  1
  Dy  Dy4  1  0.000000  0.056115  0.627853  1
  Dy  Dy5  1  0.000000  0.443873  0.127764  1
  Dy  Dy6  1  0.000000  0.556041  0.872207  1
  Y  Y7  1  0.000000  0.177025  0.914073  1
  B  B8  1  0.500000  0.554466  0.432729  1
  B  B9  1  0.500000  0.445510  0.567280  1
  B  B10  1  0.500000  0.054417  0.067163  1
  B  B11  1  0.500000  0.945601  0.932816  1
  B  B12  1  0.500000  0.747913  0.419554  1
  B  B13  1  0.500000  0.252076  0.580454  1
  B  B14  1  0.500000  0.247863  0.080339  1
  B  B15  1  0.500000  0.752115  0.919548  1
  B  B16  1  0.500000  0.791159  0.266494  1
  B  B17  1  0.500000  0.208715  0.733591  1
  B  B18  1  0.500000  0.291165  0.233471  1
  B  B19  1  0.500000  0.708849  0.766495  1
  B  B20  1  0.500000  0.632272  0.185404  1
  B  B21  1  0.500000  0.367646  0.814623  1
  B  B22  1  0.500000  0.132309  0.314571  1
  B  B23  1  0.500000  0.867710  0.685428  1
  B  B24  1  0.500000  0.984404  0.212892  1
  B  B25  1  0.500000  0.015765  0.787115  1
  B  B26  1  0.500000  0.484388  0.287071  1
  B  B27  1  0.500000  0.515573  0.712951  1
  B  B28  1  0.500000  0.608567  0.029992  1
  B  B29  1  0.500000  0.391123  0.969935  1
  B  B30  1  0.500000  0.108520  0.470044  1
  B  B31  1  0.500000  0.891489  0.529969  1
  Ru  Ru32  1  0.000000  0.638100  0.321123  1
  Ru  Ru33  1  0.000000  0.361867  0.678863  1
  Ru  Ru34  1  0.000000  0.138106  0.178843  1
  Ru  Ru35  1  0.000000  0.861994  0.821178  1
