# generated using pymatgen
data_YHo3Tm4(B6Ru)4
_symmetry_space_group_name_H-M   'P 1'
_cell_length_a   3.63029500
_cell_length_b   9.08783900
_cell_length_c   11.46442400
_cell_angle_alpha   89.99760267
_cell_angle_beta   90.00000000
_cell_angle_gamma   90.00000000
_symmetry_Int_Tables_number   1
_chemical_formula_structural   YHo3Tm4(B6Ru)4
_chemical_formula_sum   'Y1 Ho3 Tm4 B24 Ru4'
_cell_volume   378.22896248
_cell_formula_units_Z   1
loop_
 _symmetry_equiv_pos_site_id
 _symmetry_equiv_pos_as_xyz
  1  'x, y, z'
loop_
 _atom_site_type_symbol
 _atom_site_label
 _atom_site_symmetry_multiplicity
 _atom_site_fract_x
 _atom_site_fract_y
 _atom_site_fract_z
 _atom_site_occupancy
  Y  Y0  1  0.000000  0.321942  0.414126  1
  Ho  Ho1  1  0.000000  0.678021  0.585881  1
  Ho  Ho2  1  0.000000  0.822047  0.085851  1
  Ho  Ho3  1  0.000000  0.177981  0.914151  1
  Tm  Tm4  1  0.000000  0.943697  0.372343  1
  Tm  Tm5  1  0.000000  0.056061  0.627761  1
  Tm  Tm6  1  0.000000  0.443862  0.127539  1
  Tm  Tm7  1  0.000000  0.556208  0.872389  1
  B  B8  1  0.500000  0.554690  0.433065  1
  B  B9  1  0.500000  0.445857  0.567226  1
  B  B10  1  0.500000  0.054284  0.066871  1
  B  B11  1  0.500000  0.945676  0.933068  1
  B  B12  1  0.500000  0.748982  0.419671  1
  B  B13  1  0.500000  0.250995  0.580743  1
  B  B14  1  0.500000  0.248898  0.080264  1
  B  B15  1  0.500000  0.751129  0.919647  1
  B  B16  1  0.500000  0.791701  0.265875  1
  B  B17  1  0.500000  0.208306  0.734175  1
  B  B18  1  0.500000  0.291530  0.233763  1
  B  B19  1  0.500000  0.708367  0.765929  1
  B  B20  1  0.500000  0.631389  0.184500  1
  B  B21  1  0.500000  0.368706  0.815472  1
  B  B22  1  0.500000  0.130995  0.315207  1
  B  B23  1  0.500000  0.868660  0.684596  1
  B  B24  1  0.500000  0.982905  0.213109  1
  B  B25  1  0.500000  0.016975  0.786871  1
  B  B26  1  0.500000  0.483358  0.286623  1
  B  B27  1  0.500000  0.517069  0.713239  1
  B  B28  1  0.500000  0.606152  0.029172  1
  B  B29  1  0.500000  0.393880  0.970798  1
  B  B30  1  0.500000  0.105628  0.470947  1
  B  B31  1  0.500000  0.893915  0.529183  1
  Ru  Ru32  1  0.000000  0.638538  0.320508  1
  Ru  Ru33  1  0.000000  0.361786  0.679631  1
  Ru  Ru34  1  0.000000  0.138032  0.179132  1
  Ru  Ru35  1  0.000000  0.861780  0.820674  1
