# generated using pymatgen
data_Dy13Lu3In3HgRh4
_symmetry_space_group_name_H-M   'P 1'
_cell_length_a   9.60582215
_cell_length_b   9.60582251
_cell_length_c   9.59788822
_cell_angle_alpha   59.97264523
_cell_angle_beta   59.97264977
_cell_angle_gamma   60.00000205
_symmetry_Int_Tables_number   1
_chemical_formula_structural   Dy13Lu3In3HgRh4
_chemical_formula_sum   'Dy13 Lu3 In3 Hg1 Rh4'
_cell_volume   625.96510015
_cell_formula_units_Z   1
loop_
 _symmetry_equiv_pos_site_id
 _symmetry_equiv_pos_as_xyz
  1  'x, y, z'
loop_
 _atom_site_type_symbol
 _atom_site_label
 _atom_site_symmetry_multiplicity
 _atom_site_fract_x
 _atom_site_fract_y
 _atom_site_fract_z
 _atom_site_occupancy
  Dy  Dy0  1  0.937132  0.937132  0.559332  1
  Dy  Dy1  1  0.150009  0.150009  0.549972  1
  Dy  Dy2  1  0.566404  0.937132  0.559332  1
  Dy  Dy3  1  0.148222  0.148222  0.150060  1
  Dy  Dy4  1  0.312332  0.312332  0.686921  1
  Dy  Dy5  1  0.937132  0.566404  0.559332  1
  Dy  Dy6  1  0.562927  0.562927  0.937785  1
  Dy  Dy7  1  0.562927  0.936362  0.937785  1
  Dy  Dy8  1  0.936362  0.562927  0.937785  1
  Dy  Dy9  1  0.148222  0.553495  0.150060  1
  Dy  Dy10  1  0.312332  0.688416  0.686921  1
  Dy  Dy11  1  0.688416  0.312332  0.686921  1
  Dy  Dy12  1  0.553495  0.148222  0.150060  1
  Lu  Lu13  1  0.686680  0.315213  0.311426  1
  Lu  Lu14  1  0.686680  0.686680  0.311426  1
  Lu  Lu15  1  0.315213  0.686680  0.311426  1
  In  In16  1  0.247896  0.916669  0.918765  1
  In  In17  1  0.916669  0.247896  0.918765  1
  In  In18  1  0.916669  0.916669  0.918765  1
  Hg  Hg19  1  0.914491  0.914491  0.256528  1
  Rh  Rh20  1  0.358705  0.358705  0.356514  1
  Rh  Rh21  1  0.926079  0.358705  0.356514  1
  Rh  Rh22  1  0.356303  0.356303  0.931091  1
  Rh  Rh23  1  0.358705  0.926079  0.356514  1
