# generated using pymatgen
data_Zn8NiPt4Rh3
_symmetry_space_group_name_H-M   'P 1'
_cell_length_a   6.09297600
_cell_length_b   4.29427500
_cell_length_c   8.56312700
_cell_angle_alpha   90.00000000
_cell_angle_beta   90.00003888
_cell_angle_gamma   90.00000000
_symmetry_Int_Tables_number   1
_chemical_formula_structural   Zn8NiPt4Rh3
_chemical_formula_sum   'Zn8 Ni1 Pt4 Rh3'
_cell_volume   224.05348591
_cell_formula_units_Z   1
loop_
 _symmetry_equiv_pos_site_id
 _symmetry_equiv_pos_as_xyz
  1  'x, y, z'
loop_
 _atom_site_type_symbol
 _atom_site_label
 _atom_site_symmetry_multiplicity
 _atom_site_fract_x
 _atom_site_fract_y
 _atom_site_fract_z
 _atom_site_occupancy
  Zn  Zn0  1  0.497036  0.749999  0.125298  1
  Zn  Zn1  1  0.002987  0.749999  0.125309  1
  Zn  Zn2  1  0.497912  0.250000  0.372469  1
  Zn  Zn3  1  0.002115  0.250000  0.372482  1
  Zn  Zn4  1  0.000181  0.749999  0.625315  1
  Zn  Zn5  1  0.499788  0.749999  0.625325  1
  Zn  Zn6  1  0.002060  0.250000  0.876905  1
  Zn  Zn7  1  0.497914  0.250000  0.876921  1
  Ni  Ni8  1  0.250022  0.250000  0.124609  1
  Pt  Pt9  1  0.750028  0.250000  0.124776  1
  Pt  Pt10  1  0.250022  0.749999  0.371841  1
  Pt  Pt11  1  0.749973  0.250000  0.624760  1
  Pt  Pt12  1  0.249982  0.749999  0.878793  1
  Rh  Rh13  1  0.750007  0.749999  0.373611  1
  Rh  Rh14  1  0.249985  0.250000  0.624739  1
  Rh  Rh15  1  0.749988  0.749999  0.876845  1
