# generated using pymatgen
data_Hf(Zr3Au5)2
_symmetry_space_group_name_H-M   'P 1'
_cell_length_a   8.41671400
_cell_length_b   8.41671315
_cell_length_c   9.96062700
_cell_angle_alpha   90.00000000
_cell_angle_beta   90.00000000
_cell_angle_gamma   107.48527932
_symmetry_Int_Tables_number   1
_chemical_formula_structural   Hf(Zr3Au5)2
_chemical_formula_sum   'Hf2 Zr12 Au20'
_cell_volume   673.01762960
_cell_formula_units_Z   2
loop_
 _symmetry_equiv_pos_site_id
 _symmetry_equiv_pos_as_xyz
  1  'x, y, z'
loop_
 _atom_site_type_symbol
 _atom_site_label
 _atom_site_symmetry_multiplicity
 _atom_site_fract_x
 _atom_site_fract_y
 _atom_site_fract_z
 _atom_site_occupancy
  Hf  Hf0  1  0.000000  0.000000  0.000000  1
  Hf  Hf1  1  0.500000  0.500000  0.500000  1
  Zr  Zr2  1  0.689562  0.310438  0.000000  1
  Zr  Zr3  1  0.310438  0.689562  0.000000  1
  Zr  Zr4  1  0.810438  0.189562  0.500000  1
  Zr  Zr5  1  0.189562  0.810438  0.500000  1
  Zr  Zr6  1  0.007055  0.507055  0.250000  1
  Zr  Zr7  1  0.992945  0.492945  0.750000  1
  Zr  Zr8  1  0.492945  0.992945  0.750000  1
  Zr  Zr9  1  0.507055  0.007055  0.250000  1
  Zr  Zr10  1  0.309864  0.309864  0.191707  1
  Zr  Zr11  1  0.690136  0.690136  0.808293  1
  Zr  Zr12  1  0.190136  0.190136  0.691707  1
  Zr  Zr13  1  0.809864  0.809864  0.308293  1
  Au  Au14  1  0.860359  0.151178  0.206609  1
  Au  Au15  1  0.139641  0.848822  0.793391  1
  Au  Au16  1  0.639641  0.348822  0.706609  1
  Au  Au17  1  0.651178  0.360359  0.293391  1
  Au  Au18  1  0.360359  0.651178  0.293391  1
  Au  Au19  1  0.348822  0.639641  0.706609  1
  Au  Au20  1  0.848822  0.139641  0.793391  1
  Au  Au21  1  0.151178  0.860359  0.206609  1
  Au  Au22  1  0.940998  0.649093  0.002728  1
  Au  Au23  1  0.059002  0.350907  0.997272  1
  Au  Au24  1  0.559002  0.850907  0.502728  1
  Au  Au25  1  0.149093  0.440998  0.497272  1
  Au  Au26  1  0.440998  0.149093  0.497272  1
  Au  Au27  1  0.850907  0.559002  0.502728  1
  Au  Au28  1  0.350907  0.059002  0.997272  1
  Au  Au29  1  0.649093  0.940998  0.002728  1
  Au  Au30  1  0.103868  0.103868  0.398156  1
  Au  Au31  1  0.896132  0.896132  0.601844  1
  Au  Au32  1  0.396132  0.396132  0.898156  1
  Au  Au33  1  0.603868  0.603868  0.101844  1
