# generated using pymatgen
data_Y4NbVOs6
_symmetry_space_group_name_H-M   'P 1'
_cell_length_a   5.25978689
_cell_length_b   5.25978668
_cell_length_c   9.01779900
_cell_angle_alpha   90.00000000
_cell_angle_beta   90.00000000
_cell_angle_gamma   116.54296761
_symmetry_Int_Tables_number   1
_chemical_formula_structural   Y4NbVOs6
_chemical_formula_sum   'Y4 Nb1 V1 Os6'
_cell_volume   223.18524478
_cell_formula_units_Z   1
loop_
 _symmetry_equiv_pos_site_id
 _symmetry_equiv_pos_as_xyz
  1  'x, y, z'
loop_
 _atom_site_type_symbol
 _atom_site_label
 _atom_site_symmetry_multiplicity
 _atom_site_fract_x
 _atom_site_fract_y
 _atom_site_fract_z
 _atom_site_occupancy
  Y  Y0  1  0.330575  0.669425  0.432758  1
  Y  Y1  1  0.671073  0.328927  0.561119  1
  Y  Y2  1  0.671073  0.328927  0.938881  1
  Y  Y3  1  0.330575  0.669425  0.067242  1
  Nb  Nb4  1  0.158434  0.841566  0.750000  1
  V  V5  1  0.840761  0.159239  0.250000  1
  Os  Os6  1  0.997764  0.002236  0.493494  1
  Os  Os7  1  0.997764  0.002236  0.006506  1
  Os  Os8  1  0.822974  0.648370  0.250000  1
  Os  Os9  1  0.351630  0.177026  0.250000  1
  Os  Os10  1  0.176916  0.349541  0.750000  1
  Os  Os11  1  0.650459  0.823084  0.750000  1
