# generated using pymatgen
data_La2Sn2BRh6
_symmetry_space_group_name_H-M   'P 1'
_cell_length_a   5.92024300
_cell_length_b   5.92024203
_cell_length_c   13.59019400
_cell_angle_alpha   90.00000000
_cell_angle_beta   90.00000000
_cell_angle_gamma   119.99999985
_symmetry_Int_Tables_number   1
_chemical_formula_structural   La2Sn2BRh6
_chemical_formula_sum   'La4 Sn4 B2 Rh12'
_cell_volume   412.51076193
_cell_formula_units_Z   2
loop_
 _symmetry_equiv_pos_site_id
 _symmetry_equiv_pos_as_xyz
  1  'x, y, z'
loop_
 _atom_site_type_symbol
 _atom_site_label
 _atom_site_symmetry_multiplicity
 _atom_site_fract_x
 _atom_site_fract_y
 _atom_site_fract_z
 _atom_site_occupancy
  La  La0  1  0.333333  0.666667  0.403081  1
  La  La1  1  0.666667  0.333333  0.903081  1
  La  La2  1  0.666667  0.333333  0.596919  1
  La  La3  1  0.333333  0.666667  0.096919  1
  Sn  Sn4  1  0.000000  0.000000  0.750000  1
  Sn  Sn5  1  0.000000  0.000000  0.250000  1
  Sn  Sn6  1  0.333333  0.666667  0.750000  1
  Sn  Sn7  1  0.666667  0.333333  0.250000  1
  B  B8  1  0.000000  0.000000  0.500000  1
  B  B9  1  0.000000  0.000000  0.000000  1
  Rh  Rh10  1  0.335597  0.167799  0.407386  1
  Rh  Rh11  1  0.832201  0.167799  0.407386  1
  Rh  Rh12  1  0.832201  0.664403  0.407386  1
  Rh  Rh13  1  0.167799  0.335597  0.907386  1
  Rh  Rh14  1  0.664403  0.832201  0.592614  1
  Rh  Rh15  1  0.664403  0.832201  0.907386  1
  Rh  Rh16  1  0.335597  0.167799  0.092614  1
  Rh  Rh17  1  0.167799  0.335597  0.592614  1
  Rh  Rh18  1  0.167799  0.832201  0.592614  1
  Rh  Rh19  1  0.832201  0.167799  0.092614  1
  Rh  Rh20  1  0.832201  0.664403  0.092614  1
  Rh  Rh21  1  0.167799  0.832201  0.907386  1
