# generated using pymatgen
data_Pr8Ir3PtO24
_symmetry_space_group_name_H-M   'P 1'
_cell_length_a   5.47711848
_cell_length_b   9.45282754
_cell_length_c   10.24237300
_cell_angle_alpha   89.71985481
_cell_angle_beta   89.97595031
_cell_angle_gamma   90.17177919
_symmetry_Int_Tables_number   1
_chemical_formula_structural   Pr8Ir3PtO24
_chemical_formula_sum   'Pr8 Ir3 Pt1 O24'
_cell_volume   530.28247386
_cell_formula_units_Z   1
loop_
 _symmetry_equiv_pos_site_id
 _symmetry_equiv_pos_as_xyz
  1  'x, y, z'
loop_
 _atom_site_type_symbol
 _atom_site_label
 _atom_site_symmetry_multiplicity
 _atom_site_fract_x
 _atom_site_fract_y
 _atom_site_fract_z
 _atom_site_occupancy
  Pr  Pr0  1  0.034457  0.219381  0.133376  1
  Pr  Pr1  1  0.466693  0.779255  0.634047  1
  Pr  Pr2  1  0.966890  0.718999  0.368448  1
  Pr  Pr3  1  0.533391  0.285844  0.864139  1
  Pr  Pr4  1  0.028780  0.106756  0.538717  1
  Pr  Pr5  1  0.473176  0.897621  0.039685  1
  Pr  Pr6  1  0.973272  0.600235  0.959303  1
  Pr  Pr7  1  0.523059  0.399668  0.464408  1
  Ir  Ir8  1  0.547323  0.003207  0.358047  1
  Ir  Ir9  1  0.955270  0.997092  0.858675  1
  Ir  Ir10  1  0.455420  0.504303  0.142738  1
  Pt  Pt11  1  0.042980  0.496131  0.640009  1
  O  O12  1  0.441432  0.148354  0.479621  1
  O  O13  1  0.061831  0.850834  0.981101  1
  O  O14  1  0.560659  0.649513  0.018368  1
  O  O15  1  0.933156  0.350127  0.512396  1
  O  O16  1  0.725099  0.390497  0.067306  1
  O  O17  1  0.770766  0.614203  0.563776  1
  O  O18  1  0.279020  0.889135  0.435771  1
  O  O19  1  0.221842  0.110840  0.934530  1
  O  O20  1  0.249453  0.411296  0.006624  1
  O  O21  1  0.254929  0.591494  0.503254  1
  O  O22  1  0.755276  0.913531  0.494205  1
  O  O23  1  0.748257  0.088982  0.994178  1
  O  O24  1  0.184040  0.630887  0.178873  1
  O  O25  1  0.310264  0.358011  0.677418  1
  O  O26  1  0.819663  0.129725  0.320062  1
  O  O27  1  0.687212  0.867177  0.823449  1
  O  O28  1  0.339653  0.057595  0.216236  1
  O  O29  1  0.159459  0.941116  0.718289  1
  O  O30  1  0.658887  0.560887  0.283393  1
  O  O31  1  0.831217  0.440213  0.786681  1
  O  O32  1  0.328016  0.359879  0.257470  1
  O  O33  1  0.181816  0.639161  0.759605  1
  O  O34  1  0.675016  0.860306  0.242743  1
  O  O35  1  0.822323  0.137746  0.743065  1
