# generated using pymatgen
data_LiTcNi4P3
_symmetry_space_group_name_H-M   'P 1'
_cell_length_a   3.59352400
_cell_length_b   10.39478200
_cell_length_c   11.89703400
_cell_angle_alpha   90.00000000
_cell_angle_beta   90.00000000
_cell_angle_gamma   90.00000000
_symmetry_Int_Tables_number   1
_chemical_formula_structural   LiTcNi4P3
_chemical_formula_sum   'Li4 Tc4 Ni16 P12'
_cell_volume   444.40060158
_cell_formula_units_Z   4
loop_
 _symmetry_equiv_pos_site_id
 _symmetry_equiv_pos_as_xyz
  1  'x, y, z'
loop_
 _atom_site_type_symbol
 _atom_site_label
 _atom_site_symmetry_multiplicity
 _atom_site_fract_x
 _atom_site_fract_y
 _atom_site_fract_z
 _atom_site_occupancy
  Li  Li0  1  0.250000  0.582698  0.704894  1
  Li  Li1  1  0.250000  0.917302  0.204894  1
  Li  Li2  1  0.750000  0.417302  0.295106  1
  Li  Li3  1  0.750000  0.082698  0.795106  1
  Tc  Tc4  1  0.250000  0.713452  0.991349  1
  Tc  Tc5  1  0.250000  0.786548  0.491349  1
  Tc  Tc6  1  0.750000  0.286548  0.008651  1
  Tc  Tc7  1  0.750000  0.213452  0.508651  1
  Ni  Ni8  1  0.250000  0.411339  0.484719  1
  Ni  Ni9  1  0.250000  0.088661  0.984719  1
  Ni  Ni10  1  0.750000  0.588661  0.515281  1
  Ni  Ni11  1  0.750000  0.911339  0.015281  1
  Ni  Ni12  1  0.250000  0.219515  0.178805  1
  Ni  Ni13  1  0.250000  0.280485  0.678805  1
  Ni  Ni14  1  0.750000  0.780485  0.821195  1
  Ni  Ni15  1  0.750000  0.719515  0.321195  1
  Ni  Ni16  1  0.250000  0.886286  0.704667  1
  Ni  Ni17  1  0.250000  0.613714  0.204667  1
  Ni  Ni18  1  0.750000  0.113714  0.295333  1
  Ni  Ni19  1  0.750000  0.386286  0.795333  1
  Ni  Ni20  1  0.250000  0.463619  0.927131  1
  Ni  Ni21  1  0.250000  0.036381  0.427131  1
  Ni  Ni22  1  0.750000  0.536381  0.072869  1
  Ni  Ni23  1  0.750000  0.963619  0.572869  1
  P  P24  1  0.250000  0.417068  0.115092  1
  P  P25  1  0.250000  0.082932  0.615092  1
  P  P26  1  0.750000  0.582932  0.884908  1
  P  P27  1  0.750000  0.917068  0.384908  1
  P  P28  1  0.250000  0.261182  0.865851  1
  P  P29  1  0.250000  0.238818  0.365851  1
  P  P30  1  0.750000  0.738818  0.134149  1
  P  P31  1  0.750000  0.761182  0.634149  1
  P  P32  1  0.250000  0.594490  0.388701  1
  P  P33  1  0.250000  0.905510  0.888701  1
  P  P34  1  0.750000  0.405510  0.611299  1
  P  P35  1  0.750000  0.094490  0.111299  1
