# generated using pymatgen
data_Tm2Lu2Tc3Ru5
_symmetry_space_group_name_H-M   'P 1'
_cell_length_a   5.23946103
_cell_length_b   5.25545795
_cell_length_c   8.94966700
_cell_angle_alpha   89.99999772
_cell_angle_beta   90.00200471
_cell_angle_gamma   120.10103482
_symmetry_Int_Tables_number   1
_chemical_formula_structural   Tm2Lu2Tc3Ru5
_chemical_formula_sum   'Tm2 Lu2 Tc3 Ru5'
_cell_volume   213.20217679
_cell_formula_units_Z   1
loop_
 _symmetry_equiv_pos_site_id
 _symmetry_equiv_pos_as_xyz
  1  'x, y, z'
loop_
 _atom_site_type_symbol
 _atom_site_label
 _atom_site_symmetry_multiplicity
 _atom_site_fract_x
 _atom_site_fract_y
 _atom_site_fract_z
 _atom_site_occupancy
  Tm  Tm0  1  0.336845  0.668423  0.433326  1
  Tm  Tm1  1  0.669171  0.334586  0.564750  1
  Lu  Lu2  1  0.669060  0.334530  0.935328  1
  Lu  Lu3  1  0.336829  0.668415  0.066537  1
  Tc  Tc4  1  0.163535  0.336770  0.750548  1
  Tc  Tc5  1  0.163535  0.826767  0.750548  1
  Tc  Tc6  1  0.331796  0.165897  0.249462  1
  Ru  Ru7  1  0.817820  0.650505  0.249489  1
  Ru  Ru8  1  0.647336  0.823668  0.750492  1
  Ru  Ru9  1  0.023171  0.011585  0.001722  1
  Ru  Ru10  1  0.817820  0.167314  0.249489  1
  Ru  Ru11  1  0.023083  0.011541  0.498309  1
