# generated using pymatgen
data_SiRh2S5
_symmetry_space_group_name_H-M   'P 1'
_cell_length_a   3.48870200
_cell_length_b   7.32331983
_cell_length_c   12.33648967
_cell_angle_alpha   76.59021372
_cell_angle_beta   90.00000000
_cell_angle_gamma   90.00000000
_symmetry_Int_Tables_number   1
_chemical_formula_structural   SiRh2S5
_chemical_formula_sum   'Si2 Rh4 S10'
_cell_volume   306.59042636
_cell_formula_units_Z   2
loop_
 _symmetry_equiv_pos_site_id
 _symmetry_equiv_pos_as_xyz
  1  'x, y, z'
loop_
 _atom_site_type_symbol
 _atom_site_label
 _atom_site_symmetry_multiplicity
 _atom_site_fract_x
 _atom_site_fract_y
 _atom_site_fract_z
 _atom_site_occupancy
  Si  Si0  1  0.500000  0.155541  0.680587  1
  Si  Si1  1  0.500000  0.844459  0.319413  1
  Rh  Rh2  1  0.000000  0.252410  0.150728  1
  Rh  Rh3  1  0.000000  0.747590  0.849272  1
  Rh  Rh4  1  0.500000  0.745938  0.148883  1
  Rh  Rh5  1  0.500000  0.254062  0.851117  1
  S  S6  1  0.000000  0.959719  0.095393  1
  S  S7  1  0.000000  0.040281  0.904607  1
  S  S8  1  0.000000  0.471294  0.774721  1
  S  S9  1  0.000000  0.528706  0.225279  1
  S  S10  1  0.500000  0.649547  0.975358  1
  S  S11  1  0.500000  0.350453  0.024642  1
  S  S12  1  0.500000  0.154174  0.284300  1
  S  S13  1  0.500000  0.845826  0.715700  1
  S  S14  1  0.000000  0.230219  0.570956  1
  S  S15  1  0.000000  0.769781  0.429044  1
