# generated using pymatgen
data_Ce11(ThOs2)3
_symmetry_space_group_name_H-M   'P 1'
_cell_length_a   9.91586200
_cell_length_b   9.80008672
_cell_length_c   6.13948840
_cell_angle_alpha   90.08771978
_cell_angle_beta   90.00000000
_cell_angle_gamma   120.39156959
_symmetry_Int_Tables_number   1
_chemical_formula_structural   Ce11(ThOs2)3
_chemical_formula_sum   'Ce11 Th3 Os6'
_cell_volume   514.63031223
_cell_formula_units_Z   1
loop_
 _symmetry_equiv_pos_site_id
 _symmetry_equiv_pos_as_xyz
  1  'x, y, z'
loop_
 _atom_site_type_symbol
 _atom_site_label
 _atom_site_symmetry_multiplicity
 _atom_site_fract_x
 _atom_site_fract_y
 _atom_site_fract_z
 _atom_site_occupancy
  Ce  Ce0  1  0.465743  0.539372  0.298394  1
  Ce  Ce1  1  0.073629  0.539372  0.298394  1
  Ce  Ce2  1  0.921374  0.457915  0.797412  1
  Ce  Ce3  1  0.254645  0.127154  0.512115  1
  Ce  Ce4  1  0.537731  0.075463  0.789076  1
  Ce  Ce5  1  0.745063  0.872743  0.012001  1
  Ce  Ce6  1  0.668097  0.336192  0.283708  1
  Ce  Ce7  1  0.127681  0.872743  0.012001  1
  Ce  Ce8  1  0.465154  0.930308  0.290957  1
  Ce  Ce9  1  0.536541  0.457915  0.797412  1
  Ce  Ce10  1  0.872509  0.127154  0.512115  1
  Th  Th11  1  0.126580  0.253159  0.014647  1
  Th  Th12  1  0.873010  0.746019  0.513851  1
  Th  Th13  1  0.331985  0.663971  0.786669  1
  Os  Os14  1  0.815872  0.631744  0.039300  1
  Os  Os15  1  0.809205  0.183452  0.048307  1
  Os  Os16  1  0.626707  0.816932  0.545162  1
  Os  Os17  1  0.374247  0.183452  0.048307  1
  Os  Os18  1  0.184005  0.368009  0.539010  1
  Os  Os19  1  0.190225  0.816932  0.545162  1
