# generated using pymatgen
data_Rb4Si3O8
_symmetry_space_group_name_H-M   'P 1'
_cell_length_a   9.29867341
_cell_length_b   11.05261358
_cell_length_c   13.33867600
_cell_angle_alpha   101.53541033
_cell_angle_beta   100.69981678
_cell_angle_gamma   114.10554108
_symmetry_Int_Tables_number   1
_chemical_formula_structural   Rb4Si3O8
_chemical_formula_sum   'Rb16 Si12 O32'
_cell_volume   1169.99927673
_cell_formula_units_Z   4
loop_
 _symmetry_equiv_pos_site_id
 _symmetry_equiv_pos_as_xyz
  1  'x, y, z'
loop_
 _atom_site_type_symbol
 _atom_site_label
 _atom_site_symmetry_multiplicity
 _atom_site_fract_x
 _atom_site_fract_y
 _atom_site_fract_z
 _atom_site_occupancy
  Rb  Rb0  1  0.608103  0.265779  0.752513  1
  Rb  Rb1  1  0.391897  0.734221  0.247487  1
  Rb  Rb2  1  0.965360  0.730535  0.245227  1
  Rb  Rb3  1  0.034640  0.269465  0.754773  1
  Rb  Rb4  1  0.380711  0.900136  0.828776  1
  Rb  Rb5  1  0.619289  0.099864  0.171224  1
  Rb  Rb6  1  0.935039  0.903041  0.830464  1
  Rb  Rb7  1  0.064961  0.096959  0.169536  1
  Rb  Rb8  1  0.611209  0.927272  0.590310  1
  Rb  Rb9  1  0.388791  0.072728  0.409690  1
  Rb  Rb10  1  0.374317  0.255743  0.994950  1
  Rb  Rb11  1  0.625683  0.744257  0.005050  1
  Rb  Rb12  1  0.924538  0.544995  0.638716  1
  Rb  Rb13  1  0.075462  0.455005  0.361284  1
  Rb  Rb14  1  0.433640  0.560359  0.657716  1
  Rb  Rb15  1  0.566360  0.439641  0.342284  1
  Si  Si16  1  0.813757  0.948679  0.353789  1
  Si  Si17  1  0.186243  0.051321  0.646211  1
  Si  Si18  1  0.195761  0.787522  0.521611  1
  Si  Si19  1  0.804239  0.212478  0.478389  1
  Si  Si20  1  0.862034  0.790919  0.516920  1
  Si  Si21  1  0.137966  0.209081  0.483080  1
  Si  Si22  1  0.200947  0.599799  0.933182  1
  Si  Si23  1  0.799053  0.400201  0.066818  1
  Si  Si24  1  0.803355  0.134009  0.940233  1
  Si  Si25  1  0.196645  0.865991  0.059767  1
  Si  Si26  1  0.870707  0.600421  0.925091  1
  Si  Si27  1  0.129293  0.399579  0.074909  1
  O  O28  1  0.982027  0.948911  0.607466  1
  O  O29  1  0.017973  0.051089  0.392534  1
  O  O30  1  0.778314  0.817698  0.406378  1
  O  O31  1  0.221686  0.182302  0.593622  1
  O  O32  1  0.741137  0.888218  0.226592  1
  O  O33  1  0.258863  0.111782  0.773408  1
  O  O34  1  0.270432  0.960509  0.589035  1
  O  O35  1  0.729568  0.039491  0.410965  1
  O  O36  1  0.746564  0.222306  0.585300  1
  O  O37  1  0.253436  0.777694  0.414700  1
  O  O38  1  0.245753  0.711838  0.602884  1
  O  O39  1  0.754247  0.288162  0.397116  1
  O  O40  1  0.986514  0.726997  0.484322  1
  O  O41  1  0.013486  0.273003  0.515678  1
  O  O42  1  0.724390  0.693342  0.560164  1
  O  O43  1  0.275610  0.306658  0.439836  1
  O  O44  1  0.996579  0.540601  0.885283  1
  O  O45  1  0.003421  0.459399  0.114717  1
  O  O46  1  0.770776  0.498695  0.992469  1
  O  O47  1  0.229224  0.501305  0.007531  1
  O  O48  1  0.284817  0.594832  0.839908  1
  O  O49  1  0.715183  0.405168  0.160092  1
  O  O50  1  0.721520  0.241592  0.980673  1
  O  O51  1  0.278480  0.758408  0.019327  1
  O  O52  1  0.746098  0.079441  0.810964  1
  O  O53  1  0.253902  0.920559  0.189036  1
  O  O54  1  0.762333  0.017562  0.000857  1
  O  O55  1  0.237667  0.982438  0.999143  1
  O  O56  1  0.988612  0.756801  0.015384  1
  O  O57  1  0.011388  0.243199  0.984616  1
  O  O58  1  0.745130  0.600467  0.826021  1
  O  O59  1  0.254870  0.399533  0.173979  1
