# generated using pymatgen
data_Dy5ScP12Ir11Rh7
_symmetry_space_group_name_H-M   'P 1'
_cell_length_a   12.71208273
_cell_length_b   12.88148730
_cell_length_c   3.95199700
_cell_angle_alpha   90.00000000
_cell_angle_beta   90.00000000
_cell_angle_gamma   120.46746909
_symmetry_Int_Tables_number   1
_chemical_formula_structural   Dy5ScP12Ir11Rh7
_chemical_formula_sum   'Dy5 Sc1 P12 Ir11 Rh7'
_cell_volume   557.78247798
_cell_formula_units_Z   1
loop_
 _symmetry_equiv_pos_site_id
 _symmetry_equiv_pos_as_xyz
  1  'x, y, z'
loop_
 _atom_site_type_symbol
 _atom_site_label
 _atom_site_symmetry_multiplicity
 _atom_site_fract_x
 _atom_site_fract_y
 _atom_site_fract_z
 _atom_site_occupancy
  Dy  Dy0  1  0.330247  0.665501  0.500000  1
  Dy  Dy1  1  0.669848  0.335204  0.500000  1
  Dy  Dy2  1  0.000102  0.813169  0.000000  1
  Dy  Dy3  1  0.185389  0.187850  0.000000  1
  Dy  Dy4  1  0.813877  0.002342  0.000000  1
  Sc  Sc5  1  0.000232  0.443708  0.500000  1
  P  P6  1  0.000209  0.644775  0.500000  1
  P  P7  1  0.361811  0.357212  0.500000  1
  P  P8  1  0.638292  0.994960  0.500000  1
  P  P9  1  0.515424  0.687421  0.000000  1
  P  P10  1  0.313493  0.832449  0.000000  1
  P  P11  1  0.168089  0.484519  0.000000  1
  P  P12  1  0.484376  0.172227  0.000000  1
  P  P13  1  0.686503  0.518996  0.000000  1
  P  P14  1  0.831997  0.316185  0.000000  1
  P  P15  1  0.999368  0.175361  0.500000  1
  P  P16  1  0.819146  0.820437  0.500000  1
  P  P17  1  0.181163  0.001290  0.500000  1
  Ir  Ir18  1  0.509221  0.868085  0.000000  1
  Ir  Ir19  1  0.131051  0.644912  0.000000  1
  Ir  Ir20  1  0.358168  0.493961  0.000000  1
  Ir  Ir21  1  0.490473  0.358868  0.000000  1
  Ir  Ir22  1  0.868544  0.513077  0.000000  1
  Ir  Ir23  1  0.641352  0.135871  0.000000  1
  Ir  Ir24  1  0.000274  0.278740  0.000000  1
  Ir  Ir25  1  0.715891  0.717600  0.000000  1
  Ir  Ir26  1  0.284268  0.001833  0.000000  1
  Ir  Ir27  1  0.815904  0.189469  0.500000  1
  Ir  Ir28  1  0.000341  0.998166  0.500000  1
  Rh  Rh29  1  0.539528  0.538316  0.500000  1
  Rh  Rh30  1  0.461596  0.999894  0.500000  1
  Rh  Rh31  1  0.620615  0.801175  0.500000  1
  Rh  Rh32  1  0.198475  0.825121  0.500000  1
  Rh  Rh33  1  0.183585  0.373641  0.500000  1
  Rh  Rh34  1  0.379633  0.180831  0.500000  1
  Rh  Rh35  1  0.801514  0.626834  0.500000  1
