# generated using pymatgen
data_Ti3V2Si2PN
_symmetry_space_group_name_H-M   'P 1'
_cell_length_a   7.23682200
_cell_length_b   7.26107444
_cell_length_c   5.02502000
_cell_angle_alpha   90.00000000
_cell_angle_beta   90.00000000
_cell_angle_gamma   119.88956391
_symmetry_Int_Tables_number   1
_chemical_formula_structural   Ti3V2Si2PN
_chemical_formula_sum   'Ti6 V4 Si4 P2 N2'
_cell_volume   228.92826974
_cell_formula_units_Z   2
loop_
 _symmetry_equiv_pos_site_id
 _symmetry_equiv_pos_as_xyz
  1  'x, y, z'
loop_
 _atom_site_type_symbol
 _atom_site_label
 _atom_site_symmetry_multiplicity
 _atom_site_fract_x
 _atom_site_fract_y
 _atom_site_fract_z
 _atom_site_occupancy
  Ti  Ti0  1  0.235931  0.000000  0.750000  1
  Ti  Ti1  1  0.764069  0.000000  0.250000  1
  Ti  Ti2  1  0.998578  0.229728  0.750000  1
  Ti  Ti3  1  0.001422  0.770272  0.250000  1
  Ti  Ti4  1  0.768850  0.770272  0.750000  1
  Ti  Ti5  1  0.231150  0.229728  0.250000  1
  V  V6  1  0.338657  0.677316  0.500000  1
  V  V7  1  0.661343  0.322684  0.500000  1
  V  V8  1  0.661343  0.322684  0.000000  1
  V  V9  1  0.338657  0.677316  0.000000  1
  Si  Si10  1  0.997256  0.584624  0.750000  1
  Si  Si11  1  0.002744  0.415376  0.250000  1
  Si  Si12  1  0.412632  0.415376  0.750000  1
  Si  Si13  1  0.587368  0.584624  0.250000  1
  P  P14  1  0.594880  0.000000  0.750000  1
  P  P15  1  0.405120  0.000000  0.250000  1
  N  N16  1  0.000000  0.000000  0.500000  1
  N  N17  1  0.000000  0.000000  0.000000  1
