# generated using pymatgen
data_CeDy5Er2(Si3Rh)4
_symmetry_space_group_name_H-M   'P 1'
_cell_length_a   8.17525100
_cell_length_b   8.17525078
_cell_length_c   7.91406300
_cell_angle_alpha   90.00000000
_cell_angle_beta   90.00000000
_cell_angle_gamma   119.99865235
_symmetry_Int_Tables_number   1
_chemical_formula_structural   CeDy5Er2(Si3Rh)4
_chemical_formula_sum   'Ce1 Dy5 Er2 Si12 Rh4'
_cell_volume   458.07670990
_cell_formula_units_Z   1
loop_
 _symmetry_equiv_pos_site_id
 _symmetry_equiv_pos_as_xyz
  1  'x, y, z'
loop_
 _atom_site_type_symbol
 _atom_site_label
 _atom_site_symmetry_multiplicity
 _atom_site_fract_x
 _atom_site_fract_y
 _atom_site_fract_z
 _atom_site_occupancy
  Ce  Ce0  1  0.999957  0.000043  0.250000  1
  Dy  Dy1  1  0.999984  0.000016  0.750000  1
  Dy  Dy2  1  0.492321  0.507679  0.250000  1
  Dy  Dy3  1  0.492425  0.984840  0.250000  1
  Dy  Dy4  1  0.015160  0.507575  0.250000  1
  Dy  Dy5  1  0.509099  0.490901  0.750000  1
  Er  Er6  1  0.982816  0.491345  0.750000  1
  Er  Er7  1  0.508655  0.017184  0.750000  1
  Si  Si8  1  0.833276  0.166724  0.502001  1
  Si  Si9  1  0.833635  0.666799  0.501146  1
  Si  Si10  1  0.333201  0.166365  0.501146  1
  Si  Si11  1  0.833276  0.166724  0.997999  1
  Si  Si12  1  0.833635  0.666799  0.998854  1
  Si  Si13  1  0.333201  0.166365  0.998854  1
  Si  Si14  1  0.167574  0.832426  0.999552  1
  Si  Si15  1  0.664870  0.832629  0.999670  1
  Si  Si16  1  0.167371  0.335130  0.999670  1
  Si  Si17  1  0.167574  0.832426  0.500448  1
  Si  Si18  1  0.664870  0.832629  0.500330  1
  Si  Si19  1  0.167371  0.335130  0.500330  1
  Rh  Rh20  1  0.666782  0.333218  0.473599  1
  Rh  Rh21  1  0.666782  0.333218  0.026401  1
  Rh  Rh22  1  0.333084  0.666916  0.962137  1
  Rh  Rh23  1  0.333084  0.666916  0.537863  1
