# generated using pymatgen
data_Ho12ZnGaNi4
_symmetry_space_group_name_H-M   'P 1'
_cell_length_a   8.25771899
_cell_length_b   8.25771881
_cell_length_c   8.25771896
_cell_angle_alpha   112.78585623
_cell_angle_beta   109.36435475
_cell_angle_gamma   106.32812132
_symmetry_Int_Tables_number   1
_chemical_formula_structural   Ho12ZnGaNi4
_chemical_formula_sum   'Ho12 Zn1 Ga1 Ni4'
_cell_volume   432.08868596
_cell_formula_units_Z   1
loop_
 _symmetry_equiv_pos_site_id
 _symmetry_equiv_pos_as_xyz
  1  'x, y, z'
loop_
 _atom_site_type_symbol
 _atom_site_label
 _atom_site_symmetry_multiplicity
 _atom_site_fract_x
 _atom_site_fract_y
 _atom_site_fract_z
 _atom_site_occupancy
  Ho  Ho0  1  0.430115  0.237560  0.192555  1
  Ho  Ho1  1  0.569885  0.762440  0.807445  1
  Ho  Ho2  1  0.045006  0.237560  0.807445  1
  Ho  Ho3  1  0.954994  0.762440  0.192555  1
  Ho  Ho4  1  0.178860  0.284480  0.463339  1
  Ho  Ho5  1  0.821140  0.715520  0.536661  1
  Ho  Ho6  1  0.178860  0.715520  0.894379  1
  Ho  Ho7  1  0.821140  0.284480  0.105621  1
  Ho  Ho8  1  0.326428  0.633640  0.307214  1
  Ho  Ho9  1  0.673572  0.366360  0.692786  1
  Ho  Ho10  1  0.326428  0.019213  0.692786  1
  Ho  Ho11  1  0.673572  0.980787  0.307214  1
  Zn  Zn12  1  0.000000  0.000000  0.000000  1
  Ga  Ga13  1  0.500000  0.500000  0.000000  1
  Ni  Ni14  1  0.344096  0.000000  0.344096  1
  Ni  Ni15  1  0.655904  0.000000  0.655904  1
  Ni  Ni16  1  0.123379  0.623379  0.500000  1
  Ni  Ni17  1  0.876621  0.376621  0.500000  1
