# generated using pymatgen
data_La3Pr(Ho4Bi3)4
_symmetry_space_group_name_H-M   'P 1'
_cell_length_a   8.32844447
_cell_length_b   9.55418900
_cell_length_c   12.18199200
_cell_angle_alpha   90.00000000
_cell_angle_beta   90.01934524
_cell_angle_gamma   90.00000000
_symmetry_Int_Tables_number   1
_chemical_formula_structural   La3Pr(Ho4Bi3)4
_chemical_formula_sum   'La3 Pr1 Ho16 Bi12'
_cell_volume   969.33971816
_cell_formula_units_Z   1
loop_
 _symmetry_equiv_pos_site_id
 _symmetry_equiv_pos_as_xyz
  1  'x, y, z'
loop_
 _atom_site_type_symbol
 _atom_site_label
 _atom_site_symmetry_multiplicity
 _atom_site_fract_x
 _atom_site_fract_y
 _atom_site_fract_z
 _atom_site_occupancy
  La  La0  1  0.318258  0.250000  0.220539  1
  La  La1  1  0.817210  0.250000  0.279115  1
  La  La2  1  0.682468  0.750000  0.779573  1
  Pr  Pr3  1  0.182774  0.750000  0.719771  1
  Ho  Ho4  1  0.351109  0.750000  0.218336  1
  Ho  Ho5  1  0.852079  0.750000  0.282239  1
  Ho  Ho6  1  0.647755  0.250000  0.780785  1
  Ho  Ho7  1  0.147966  0.250000  0.718376  1
  Ho  Ho8  1  0.690793  0.564956  0.061544  1
  Ho  Ho9  1  0.191696  0.935554  0.439221  1
  Ho  Ho10  1  0.309610  0.064313  0.937694  1
  Ho  Ho11  1  0.807988  0.435799  0.561579  1
  Ho  Ho12  1  0.309610  0.435687  0.937694  1
  Ho  Ho13  1  0.807988  0.064201  0.561579  1
  Ho  Ho14  1  0.690793  0.935044  0.061544  1
  Ho  Ho15  1  0.191696  0.564446  0.439221  1
  Ho  Ho16  1  0.476531  0.250000  0.488404  1
  Ho  Ho17  1  0.978141  0.250000  0.011366  1
  Ho  Ho18  1  0.522730  0.750000  0.513220  1
  Ho  Ho19  1  0.022879  0.750000  0.987788  1
  Bi  Bi20  1  0.403602  0.750000  0.964708  1
  Bi  Bi21  1  0.904970  0.750000  0.535715  1
  Bi  Bi22  1  0.596722  0.250000  0.034276  1
  Bi  Bi23  1  0.095366  0.250000  0.465130  1
  Bi  Bi24  1  0.565566  0.989175  0.329697  1
  Bi  Bi25  1  0.065588  0.510434  0.170642  1
  Bi  Bi26  1  0.433023  0.490035  0.671242  1
  Bi  Bi27  1  0.935456  0.009698  0.828709  1
  Bi  Bi28  1  0.433023  0.009965  0.671242  1
  Bi  Bi29  1  0.935456  0.490302  0.828709  1
  Bi  Bi30  1  0.565566  0.510825  0.329697  1
  Bi  Bi31  1  0.065588  0.989566  0.170642  1
