# generated using pymatgen
data_Pr10Al4IrOs5
_symmetry_space_group_name_H-M   'P 1'
_cell_length_a   8.62863188
_cell_length_b   8.65085848
_cell_length_c   8.65085820
_cell_angle_alpha   109.57391061
_cell_angle_beta   109.61028989
_cell_angle_gamma   109.33371047
_symmetry_Int_Tables_number   1
_chemical_formula_structural   Pr10Al4IrOs5
_chemical_formula_sum   'Pr10 Al4 Ir1 Os5'
_cell_volume   496.45078380
_cell_formula_units_Z   1
loop_
 _symmetry_equiv_pos_site_id
 _symmetry_equiv_pos_as_xyz
  1  'x, y, z'
loop_
 _atom_site_type_symbol
 _atom_site_label
 _atom_site_symmetry_multiplicity
 _atom_site_fract_x
 _atom_site_fract_y
 _atom_site_fract_z
 _atom_site_occupancy
  Pr  Pr0  1  0.250000  0.680794  0.430794  1
  Pr  Pr1  1  0.750000  0.817873  0.067873  1
  Pr  Pr2  1  0.433452  0.251611  0.680555  1
  Pr  Pr3  1  0.682198  0.431989  0.250923  1
  Pr  Pr4  1  0.066548  0.747103  0.818159  1
  Pr  Pr5  1  0.817802  0.068725  0.749791  1
  Pr  Pr6  1  0.211948  0.213517  0.214383  1
  Pr  Pr7  1  0.500878  0.000468  0.288289  1
  Pr  Pr8  1  0.288052  0.502437  0.001569  1
  Pr  Pr9  1  0.999122  0.287411  0.499591  1
  Al  Al10  1  0.590109  0.590033  0.589954  1
  Al  Al11  1  0.500413  0.998826  0.909485  1
  Al  Al12  1  0.909891  0.499846  0.999924  1
  Al  Al13  1  0.999587  0.909072  0.498412  1
  Ir  Ir14  1  0.250000  0.115222  0.865222  1
  Os  Os15  1  0.750000  0.383383  0.633383  1
  Os  Os16  1  0.865174  0.249713  0.115930  1
  Os  Os17  1  0.117675  0.868275  0.250622  1
  Os  Os18  1  0.634825  0.750756  0.384539  1
  Os  Os19  1  0.382325  0.632946  0.750600  1
