# generated using pymatgen
data_Ho7(ZnTe)2
_symmetry_space_group_name_H-M   'P 1'
_cell_length_a   9.33479356
_cell_length_b   9.33486569
_cell_length_c   9.33486607
_cell_angle_alpha   155.00106307
_cell_angle_beta   67.99584002
_cell_angle_gamma   117.92782993
_symmetry_Int_Tables_number   1
_chemical_formula_structural   Ho7(ZnTe)2
_chemical_formula_sum   'Ho7 Zn2 Te2'
_cell_volume   301.00833618
_cell_formula_units_Z   1
loop_
 _symmetry_equiv_pos_site_id
 _symmetry_equiv_pos_as_xyz
  1  'x, y, z'
loop_
 _atom_site_type_symbol
 _atom_site_label
 _atom_site_symmetry_multiplicity
 _atom_site_fract_x
 _atom_site_fract_y
 _atom_site_fract_z
 _atom_site_occupancy
  Ho  Ho0  1  0.718061  0.578241  0.139820  1
  Ho  Ho1  1  0.129348  0.945569  0.183778  1
  Ho  Ho2  1  0.111096  0.737804  0.373290  1
  Ho  Ho3  1  0.825493  0.325495  0.499998  1
  Ho  Ho4  1  0.364520  0.737811  0.626708  1
  Ho  Ho5  1  0.761782  0.945565  0.816216  1
  Ho  Ho6  1  0.438431  0.578244  0.860186  1
  Zn  Zn7  1  0.507211  0.242704  0.264507  1
  Zn  Zn8  1  0.978198  0.242706  0.735492  1
  Te  Te9  1  0.086815  0.086817  0.999998  1
  Te  Te10  1  0.484395  0.984394  0.500000  1
