# generated using pymatgen
data_YbEr3Sc4(ReB6)4
_symmetry_space_group_name_H-M   'P 1'
_cell_length_a   3.56878200
_cell_length_b   9.01219408
_cell_length_c   11.37131910
_cell_angle_alpha   90.01534743
_cell_angle_beta   90.00000000
_cell_angle_gamma   90.00000000
_symmetry_Int_Tables_number   1
_chemical_formula_structural   YbEr3Sc4(ReB6)4
_chemical_formula_sum   'Yb1 Er3 Sc4 Re4 B24'
_cell_volume   365.73067447
_cell_formula_units_Z   1
loop_
 _symmetry_equiv_pos_site_id
 _symmetry_equiv_pos_as_xyz
  1  'x, y, z'
loop_
 _atom_site_type_symbol
 _atom_site_label
 _atom_site_symmetry_multiplicity
 _atom_site_fract_x
 _atom_site_fract_y
 _atom_site_fract_z
 _atom_site_occupancy
  Yb  Yb0  1  0.000000  0.321888  0.413851  1
  Er  Er1  1  0.000000  0.677375  0.585716  1
  Er  Er2  1  0.000000  0.822064  0.086210  1
  Er  Er3  1  0.000000  0.178264  0.914164  1
  Sc  Sc4  1  0.000000  0.944052  0.369536  1
  Sc  Sc5  1  0.000000  0.056288  0.630226  1
  Sc  Sc6  1  0.000000  0.444051  0.130259  1
  Sc  Sc7  1  0.000000  0.555668  0.870388  1
  Re  Re8  1  0.000000  0.642252  0.318331  1
  Re  Re9  1  0.000000  0.358673  0.681762  1
  Re  Re10  1  0.000000  0.140388  0.181422  1
  Re  Re11  1  0.000000  0.858837  0.818068  1
  B  B12  1  0.500000  0.553890  0.432757  1
  B  B13  1  0.500000  0.446020  0.567173  1
  B  B14  1  0.500000  0.053853  0.066739  1
  B  B15  1  0.500000  0.945793  0.932970  1
  B  B16  1  0.500000  0.754499  0.419244  1
  B  B17  1  0.500000  0.245914  0.580810  1
  B  B18  1  0.500000  0.254310  0.080898  1
  B  B19  1  0.500000  0.745704  0.919151  1
  B  B20  1  0.500000  0.796092  0.264428  1
  B  B21  1  0.500000  0.204381  0.735588  1
  B  B22  1  0.500000  0.295443  0.235283  1
  B  B23  1  0.500000  0.704500  0.764672  1
  B  B24  1  0.500000  0.629552  0.182874  1
  B  B25  1  0.500000  0.370659  0.817464  1
  B  B26  1  0.500000  0.129678  0.317008  1
  B  B27  1  0.500000  0.870434  0.682774  1
  B  B28  1  0.500000  0.980972  0.213263  1
  B  B29  1  0.500000  0.018874  0.786508  1
  B  B30  1  0.500000  0.481172  0.286673  1
  B  B31  1  0.500000  0.518784  0.713594  1
  B  B32  1  0.500000  0.595576  0.026170  1
  B  B33  1  0.500000  0.404427  0.973952  1
  B  B34  1  0.500000  0.094140  0.474112  1
  B  B35  1  0.500000  0.905531  0.525963  1
