# generated using pymatgen
data_CaTb2Yb(Al3Pd)6
_symmetry_space_group_name_H-M   'P 1'
_cell_length_a   7.65871556
_cell_length_b   7.65597919
_cell_length_c   9.49785700
_cell_angle_alpha   90.00000000
_cell_angle_beta   90.00000000
_cell_angle_gamma   119.62649881
_symmetry_Int_Tables_number   1
_chemical_formula_structural   CaTb2Yb(Al3Pd)6
_chemical_formula_sum   'Ca1 Tb2 Yb1 Al18 Pd6'
_cell_volume   484.10013115
_cell_formula_units_Z   1
loop_
 _symmetry_equiv_pos_site_id
 _symmetry_equiv_pos_as_xyz
  1  'x, y, z'
loop_
 _atom_site_type_symbol
 _atom_site_label
 _atom_site_symmetry_multiplicity
 _atom_site_fract_x
 _atom_site_fract_y
 _atom_site_fract_z
 _atom_site_occupancy
  Ca  Ca0  1  0.995241  0.668506  0.250000  1
  Tb  Tb1  1  0.669743  0.996310  0.250000  1
  Tb  Tb2  1  0.330294  0.003793  0.750000  1
  Yb  Yb3  1  0.004742  0.331493  0.750000  1
  Al  Al4  1  0.129186  0.131234  0.250000  1
  Al  Al5  1  0.870918  0.869143  0.750000  1
  Al  Al6  1  0.001230  0.334817  0.075900  1
  Al  Al7  1  0.998823  0.664984  0.923636  1
  Al  Al8  1  0.998823  0.664984  0.576364  1
  Al  Al9  1  0.334239  0.999901  0.424114  1
  Al  Al10  1  0.001230  0.334817  0.424100  1
  Al  Al11  1  0.665954  0.000314  0.576099  1
  Al  Al12  1  0.665954  0.000314  0.923901  1
  Al  Al13  1  0.334239  0.999901  0.075886  1
  Al  Al14  1  0.333092  0.333073  0.558012  1
  Al  Al15  1  0.666681  0.666937  0.442216  1
  Al  Al16  1  0.666681  0.666937  0.057784  1
  Al  Al17  1  0.333092  0.333073  0.941988  1
  Al  Al18  1  0.342698  0.548101  0.250000  1
  Al  Al19  1  0.657634  0.451844  0.750000  1
  Al  Al20  1  0.543236  0.335325  0.250000  1
  Al  Al21  1  0.456259  0.664179  0.750000  1
  Pd  Pd22  1  0.671849  0.328387  0.000162  1
  Pd  Pd23  1  0.328166  0.671361  0.999480  1
  Pd  Pd24  1  0.328166  0.671361  0.500520  1
  Pd  Pd25  1  0.671849  0.328387  0.499838  1
  Pd  Pd26  1  0.999991  0.000261  0.999821  1
  Pd  Pd27  1  0.999991  0.000261  0.500179  1
