# generated using pymatgen
data_TmHf3(MoN2)4
_symmetry_space_group_name_H-M   'P 1'
_cell_length_a   3.06118000
_cell_length_b   5.53069453
_cell_length_c   10.55738967
_cell_angle_alpha   90.12913438
_cell_angle_beta   90.00000000
_cell_angle_gamma   90.00000000
_symmetry_Int_Tables_number   1
_chemical_formula_structural   TmHf3(MoN2)4
_chemical_formula_sum   'Tm1 Hf3 Mo4 N8'
_cell_volume   178.74091958
_cell_formula_units_Z   1
loop_
 _symmetry_equiv_pos_site_id
 _symmetry_equiv_pos_as_xyz
  1  'x, y, z'
loop_
 _atom_site_type_symbol
 _atom_site_label
 _atom_site_symmetry_multiplicity
 _atom_site_fract_x
 _atom_site_fract_y
 _atom_site_fract_z
 _atom_site_occupancy
  Tm  Tm0  1  0.750000  0.415933  0.353405  1
  Hf  Hf1  1  0.250000  0.088674  0.849789  1
  Hf  Hf2  1  0.250000  0.583520  0.649706  1
  Hf  Hf3  1  0.750000  0.912142  0.149432  1
  Mo  Mo4  1  0.250000  0.428337  0.093486  1
  Mo  Mo5  1  0.250000  0.928107  0.402518  1
  Mo  Mo6  1  0.750000  0.572455  0.906586  1
  Mo  Mo7  1  0.750000  0.067473  0.597219  1
  N  N8  1  0.250000  0.150046  0.238447  1
  N  N9  1  0.250000  0.670479  0.247468  1
  N  N10  1  0.750000  0.840804  0.757982  1
  N  N11  1  0.750000  0.341448  0.747078  1
  N  N12  1  0.250000  0.782000  0.998726  1
  N  N13  1  0.250000  0.273959  0.505671  1
  N  N14  1  0.750000  0.218082  0.996726  1
  N  N15  1  0.750000  0.726540  0.505760  1
