# generated using pymatgen
data_CsH2Au
_symmetry_space_group_name_H-M   'P 1'
_cell_length_a   5.27585622
_cell_length_b   6.39423300
_cell_length_c   7.21003558
_cell_angle_alpha   90.00000000
_cell_angle_beta   90.51041851
_cell_angle_gamma   90.00000000
_symmetry_Int_Tables_number   1
_chemical_formula_structural   CsH2Au
_chemical_formula_sum   'Cs2 H4 Au2'
_cell_volume   243.22128800
_cell_formula_units_Z   2
loop_
 _symmetry_equiv_pos_site_id
 _symmetry_equiv_pos_as_xyz
  1  'x, y, z'
loop_
 _atom_site_type_symbol
 _atom_site_label
 _atom_site_symmetry_multiplicity
 _atom_site_fract_x
 _atom_site_fract_y
 _atom_site_fract_z
 _atom_site_occupancy
  Cs  Cs0  1  0.279100  0.750000  0.245803  1
  Cs  Cs1  1  0.720899  0.249999  0.754198  1
  H  H2  1  0.780110  0.991133  0.261727  1
  H  H3  1  0.780110  0.508866  0.261727  1
  H  H4  1  0.219889  0.491134  0.738273  1
  H  H5  1  0.219889  0.008866  0.738273  1
  Au  Au6  1  0.779264  0.249999  0.260655  1
  Au  Au7  1  0.220736  0.750000  0.739345  1
