# generated using pymatgen
data_Cd2Ag3Au5
_symmetry_space_group_name_H-M   'P 1'
_cell_length_a   7.85405719
_cell_length_b   7.85405882
_cell_length_c   5.93445978
_cell_angle_alpha   101.44974178
_cell_angle_beta   101.44974188
_cell_angle_gamma   31.14205693
_symmetry_Int_Tables_number   1
_chemical_formula_structural   Cd2Ag3Au5
_chemical_formula_sum   'Cd2 Ag3 Au5'
_cell_volume   185.25630498
_cell_formula_units_Z   1
loop_
 _symmetry_equiv_pos_site_id
 _symmetry_equiv_pos_as_xyz
  1  'x, y, z'
loop_
 _atom_site_type_symbol
 _atom_site_label
 _atom_site_symmetry_multiplicity
 _atom_site_fract_x
 _atom_site_fract_y
 _atom_site_fract_z
 _atom_site_occupancy
  Cd  Cd0  1  0.200417  0.200417  0.101782  1
  Cd  Cd1  1  0.999560  0.999560  0.499675  1
  Ag  Ag2  1  0.999344  0.999344  0.999846  1
  Ag  Ag3  1  0.799943  0.799943  0.401316  1
  Ag  Ag4  1  0.200697  0.200697  0.600955  1
  Au  Au5  1  0.399352  0.399352  0.197265  1
  Au  Au6  1  0.600157  0.600157  0.300996  1
  Au  Au7  1  0.400181  0.400181  0.699861  1
  Au  Au8  1  0.600530  0.600530  0.801688  1
  Au  Au9  1  0.799819  0.799819  0.896612  1
