# generated using pymatgen
data_DyScGa3Cu
_symmetry_space_group_name_H-M   'P 1'
_cell_length_a   4.30315800
_cell_length_b   4.30315737
_cell_length_c   7.01073300
_cell_angle_alpha   90.00000000
_cell_angle_beta   90.00000000
_cell_angle_gamma   119.99998943
_symmetry_Int_Tables_number   1
_chemical_formula_structural   DyScGa3Cu
_chemical_formula_sum   'Dy1 Sc1 Ga3 Cu1'
_cell_volume   112.42648361
_cell_formula_units_Z   1
loop_
 _symmetry_equiv_pos_site_id
 _symmetry_equiv_pos_as_xyz
  1  'x, y, z'
loop_
 _atom_site_type_symbol
 _atom_site_label
 _atom_site_symmetry_multiplicity
 _atom_site_fract_x
 _atom_site_fract_y
 _atom_site_fract_z
 _atom_site_occupancy
  Dy  Dy0  1  0.333333  0.666667  0.257747  1
  Sc  Sc1  1  0.333333  0.666667  0.728340  1
  Ga  Ga2  1  0.666667  0.333333  0.495617  1
  Ga  Ga3  1  0.666667  0.333333  0.030668  1
  Ga  Ga4  1  0.000000  0.000000  0.935647  1
  Cu  Cu5  1  0.000000  0.000000  0.551983  1
