# generated using pymatgen
data_Nd8Re(MoO8)3
_symmetry_space_group_name_H-M   'P 1'
_cell_length_a   10.22602683
_cell_length_b   10.21644639
_cell_length_c   5.59311229
_cell_angle_alpha   75.30885773
_cell_angle_beta   75.19895922
_cell_angle_gamma   68.72718527
_symmetry_Int_Tables_number   1
_chemical_formula_structural   Nd8Re(MoO8)3
_chemical_formula_sum   'Nd8 Re1 Mo3 O24'
_cell_volume   517.98462043
_cell_formula_units_Z   1
loop_
 _symmetry_equiv_pos_site_id
 _symmetry_equiv_pos_as_xyz
  1  'x, y, z'
loop_
 _atom_site_type_symbol
 _atom_site_label
 _atom_site_symmetry_multiplicity
 _atom_site_fract_x
 _atom_site_fract_y
 _atom_site_fract_z
 _atom_site_occupancy
  Nd  Nd0  1  0.787969  0.555945  0.618882  1
  Nd  Nd1  1  0.211930  0.442643  0.381513  1
  Nd  Nd2  1  0.609593  0.390049  0.248393  1
  Nd  Nd3  1  0.390032  0.608818  0.749785  1
  Nd  Nd4  1  0.558060  0.786331  0.120226  1
  Nd  Nd5  1  0.131026  0.868244  0.252312  1
  Nd  Nd6  1  0.443356  0.213011  0.876273  1
  Nd  Nd7  1  0.870019  0.132641  0.748106  1
  Re  Re8  1  0.302215  0.004602  0.557927  1
  Mo  Mo9  1  0.702812  0.992638  0.441896  1
  Mo  Mo10  1  0.992716  0.702281  0.941189  1
  Mo  Mo11  1  0.008033  0.297999  0.058905  1
  O  O12  1  0.391757  0.423735  0.576333  1
  O  O13  1  0.569296  0.973561  0.735245  1
  O  O14  1  0.824478  0.711755  0.865270  1
  O  O15  1  0.673808  0.114076  0.139988  1
  O  O16  1  0.115090  0.673705  0.638314  1
  O  O17  1  0.322024  0.888540  0.863146  1
  O  O18  1  0.287238  0.177212  0.634212  1
  O  O19  1  0.973654  0.570911  0.235980  1
  O  O20  1  0.575606  0.609458  0.921843  1
  O  O21  1  0.426968  0.029846  0.263957  1
  O  O22  1  0.117870  0.040521  0.521266  1
  O  O23  1  0.186434  0.663318  0.083366  1
  O  O24  1  0.813035  0.337100  0.914782  1
  O  O25  1  0.337650  0.813868  0.415352  1
  O  O26  1  0.885653  0.326792  0.361313  1
  O  O27  1  0.954274  0.884406  0.982538  1
  O  O28  1  0.884755  0.954141  0.483105  1
  O  O29  1  0.663930  0.185866  0.583914  1
  O  O30  1  0.711381  0.824716  0.365501  1
  O  O31  1  0.043730  0.115761  0.020975  1
  O  O32  1  0.175983  0.287660  0.134177  1
  O  O33  1  0.608733  0.575767  0.421659  1
  O  O34  1  0.423379  0.391662  0.076657  1
  O  O35  1  0.025513  0.430424  0.765701  1
