# generated using pymatgen
data_Hf4BeAlRe6
_symmetry_space_group_name_H-M   'P 1'
_cell_length_a   5.23635700
_cell_length_b   5.23635659
_cell_length_c   8.45152100
_cell_angle_alpha   90.00000000
_cell_angle_beta   90.00000000
_cell_angle_gamma   119.99999628
_symmetry_Int_Tables_number   1
_chemical_formula_structural   Hf4BeAlRe6
_chemical_formula_sum   'Hf4 Be1 Al1 Re6'
_cell_volume   200.68919207
_cell_formula_units_Z   1
loop_
 _symmetry_equiv_pos_site_id
 _symmetry_equiv_pos_as_xyz
  1  'x, y, z'
loop_
 _atom_site_type_symbol
 _atom_site_label
 _atom_site_symmetry_multiplicity
 _atom_site_fract_x
 _atom_site_fract_y
 _atom_site_fract_z
 _atom_site_occupancy
  Hf  Hf0  1  0.333333  0.666667  0.433861  1
  Hf  Hf1  1  0.666667  0.333333  0.936258  1
  Hf  Hf2  1  0.666667  0.333333  0.566139  1
  Hf  Hf3  1  0.333333  0.666667  0.063742  1
  Be  Be4  1  0.000000  0.000000  0.000000  1
  Al  Al5  1  0.000000  0.000000  0.500000  1
  Re  Re6  1  0.168872  0.337746  0.754924  1
  Re  Re7  1  0.831128  0.168872  0.245076  1
  Re  Re8  1  0.337746  0.168872  0.245076  1
  Re  Re9  1  0.662254  0.831128  0.754924  1
  Re  Re10  1  0.831128  0.662254  0.245076  1
  Re  Re11  1  0.168872  0.831128  0.754924  1
