# generated using pymatgen
data_Hf3ScAs6Ru7
_symmetry_space_group_name_H-M   'P 1'
_cell_length_a   7.06768941
_cell_length_b   7.06388186
_cell_length_c   7.06769013
_cell_angle_alpha   109.46031282
_cell_angle_beta   109.48213062
_cell_angle_gamma   109.46030564
_symmetry_Int_Tables_number   1
_chemical_formula_structural   Hf3ScAs6Ru7
_chemical_formula_sum   'Hf3 Sc1 As6 Ru7'
_cell_volume   271.66579048
_cell_formula_units_Z   1
loop_
 _symmetry_equiv_pos_site_id
 _symmetry_equiv_pos_as_xyz
  1  'x, y, z'
loop_
 _atom_site_type_symbol
 _atom_site_label
 _atom_site_symmetry_multiplicity
 _atom_site_fract_x
 _atom_site_fract_y
 _atom_site_fract_z
 _atom_site_occupancy
  Hf  Hf0  1  0.000000  0.000000  0.500000  1
  Hf  Hf1  1  0.500000  0.000000  0.000000  1
  Hf  Hf2  1  0.500000  0.500000  0.500000  1
  Sc  Sc3  1  0.000000  0.500000  0.000000  1
  As  As4  1  0.310999  0.997448  0.310999  1
  As  As5  1  0.000000  0.313551  0.310999  1
  As  As6  1  0.000000  0.686449  0.689001  1
  As  As7  1  0.310999  0.313551  0.000000  1
  As  As8  1  0.689001  0.686449  0.000000  1
  As  As9  1  0.689001  0.002552  0.689001  1
  Ru  Ru10  1  0.748365  0.500000  0.251635  1
  Ru  Ru11  1  0.503271  0.751635  0.251635  1
  Ru  Ru12  1  0.496729  0.248365  0.748365  1
  Ru  Ru13  1  0.748365  0.248365  0.496729  1
  Ru  Ru14  1  0.251635  0.751635  0.503271  1
  Ru  Ru15  1  0.251635  0.500000  0.748365  1
  Ru  Ru16  1  0.000000  0.000000  0.000000  1
