# generated using pymatgen
data_Pa4Ga20Ni4Pt7
_symmetry_space_group_name_H-M   'P 1'
_cell_length_a   4.22228190
_cell_length_b   10.78325441
_cell_length_c   13.46123961
_cell_angle_alpha   81.82118948
_cell_angle_beta   80.96110830
_cell_angle_gamma   78.64428361
_symmetry_Int_Tables_number   1
_chemical_formula_structural   Pa4Ga20Ni4Pt7
_chemical_formula_sum   'Pa4 Ga20 Ni4 Pt7'
_cell_volume   589.49366062
_cell_formula_units_Z   1
loop_
 _symmetry_equiv_pos_site_id
 _symmetry_equiv_pos_as_xyz
  1  'x, y, z'
loop_
 _atom_site_type_symbol
 _atom_site_label
 _atom_site_symmetry_multiplicity
 _atom_site_fract_x
 _atom_site_fract_y
 _atom_site_fract_z
 _atom_site_occupancy
  Pa  Pa0  1  0.123373  0.087629  0.667667  1
  Pa  Pa1  1  0.876627  0.912371  0.332333  1
  Pa  Pa2  1  0.773742  0.627203  0.823913  1
  Pa  Pa3  1  0.226258  0.372797  0.176087  1
  Ga  Ga4  1  0.015030  0.059920  0.910879  1
  Ga  Ga5  1  0.984970  0.940080  0.089121  1
  Ga  Ga6  1  0.061506  0.672635  0.204797  1
  Ga  Ga7  1  0.938494  0.327365  0.795203  1
  Ga  Ga8  1  0.100150  0.347257  0.453638  1
  Ga  Ga9  1  0.899850  0.652743  0.546362  1
  Ga  Ga10  1  0.195601  0.616489  0.993404  1
  Ga  Ga11  1  0.804399  0.383511  0.006596  1
  Ga  Ga12  1  0.257873  0.779204  0.703244  1
  Ga  Ga13  1  0.742127  0.220796  0.296756  1
  Ga  Ga14  1  0.302612  0.897137  0.496145  1
  Ga  Ga15  1  0.697388  0.102863  0.503855  1
  Ga  Ga16  1  0.390960  0.523329  0.692597  1
  Ga  Ga17  1  0.609040  0.476671  0.307403  1
  Ga  Ga18  1  0.397120  0.198220  0.004465  1
  Ga  Ga19  1  0.602880  0.801780  0.995535  1
  Ga  Ga20  1  0.543695  0.290801  0.624875  1
  Ga  Ga21  1  0.456305  0.709199  0.375125  1
  Ga  Ga22  1  0.638663  0.924555  0.802672  1
  Ga  Ga23  1  0.361337  0.075445  0.197328  1
  Ni  Ni24  1  0.024536  0.574261  0.376419  1
  Ni  Ni25  1  0.975464  0.425739  0.623581  1
  Ni  Ni26  1  0.146311  0.826546  0.884568  1
  Ni  Ni27  1  0.853689  0.173454  0.115432  1
  Pt  Pt28  1  0.500000  0.500000  0.500000  1
  Pt  Pt29  1  0.241548  0.127899  0.390222  1
  Pt  Pt30  1  0.758452  0.872101  0.609778  1
  Pt  Pt31  1  0.344264  0.422952  0.888618  1
  Pt  Pt32  1  0.655736  0.577048  0.111382  1
  Pt  Pt33  1  0.508628  0.166511  0.814819  1
  Pt  Pt34  1  0.491372  0.833489  0.185181  1
