# generated using pymatgen
data_Mg4Cu(GeIr)6
_symmetry_space_group_name_H-M   'P 1'
_cell_length_a   7.06244466
_cell_length_b   7.06244523
_cell_length_c   7.06244451
_cell_angle_alpha   109.48213823
_cell_angle_beta   109.48213637
_cell_angle_gamma   109.44938631
_symmetry_Int_Tables_number   1
_chemical_formula_structural   Mg4Cu(GeIr)6
_chemical_formula_sum   'Mg4 Cu1 Ge6 Ir6'
_cell_volume   271.17102245
_cell_formula_units_Z   1
loop_
 _symmetry_equiv_pos_site_id
 _symmetry_equiv_pos_as_xyz
  1  'x, y, z'
loop_
 _atom_site_type_symbol
 _atom_site_label
 _atom_site_symmetry_multiplicity
 _atom_site_fract_x
 _atom_site_fract_y
 _atom_site_fract_z
 _atom_site_occupancy
  Mg  Mg0  1  0.001931  0.998069  0.500000  1
  Mg  Mg1  1  0.001931  0.501931  0.003863  1
  Mg  Mg2  1  0.498069  0.998069  0.996137  1
  Mg  Mg3  1  0.498069  0.501931  0.500000  1
  Cu  Cu4  1  0.750000  0.250000  0.500000  1
  Ge  Ge5  1  0.687796  0.687796  0.000000  1
  Ge  Ge6  1  0.307987  0.997566  0.310421  1
  Ge  Ge7  1  0.002434  0.312855  0.310421  1
  Ge  Ge8  1  0.312204  0.312204  0.000000  1
  Ge  Ge9  1  0.687145  0.997566  0.689579  1
  Ge  Ge10  1  0.002434  0.692013  0.689579  1
  Ir  Ir11  1  0.745745  0.491602  0.254143  1
  Ir  Ir12  1  0.508398  0.254255  0.745857  1
  Ir  Ir13  1  0.237459  0.491602  0.745857  1
  Ir  Ir14  1  0.250000  0.750000  0.500000  1
  Ir  Ir15  1  0.508398  0.762541  0.254143  1
  Ir  Ir16  1  0.000000  0.000000  0.000000  1
