# generated using pymatgen
data_Li2CeThSi3
_symmetry_space_group_name_H-M   'P 1'
_cell_length_a   9.41441743
_cell_length_b   9.41441768
_cell_length_c   6.76665200
_cell_angle_alpha   90.00000000
_cell_angle_beta   90.00000000
_cell_angle_gamma   152.84950506
_symmetry_Int_Tables_number   1
_chemical_formula_structural   Li2CeThSi3
_chemical_formula_sum   'Li4 Ce2 Th2 Si6'
_cell_volume   273.67749631
_cell_formula_units_Z   2
loop_
 _symmetry_equiv_pos_site_id
 _symmetry_equiv_pos_as_xyz
  1  'x, y, z'
loop_
 _atom_site_type_symbol
 _atom_site_label
 _atom_site_symmetry_multiplicity
 _atom_site_fract_x
 _atom_site_fract_y
 _atom_site_fract_z
 _atom_site_occupancy
  Li  Li0  1  0.810831  0.189169  0.560854  1
  Li  Li1  1  0.189173  0.810827  0.439104  1
  Li  Li2  1  0.189173  0.810827  0.060896  1
  Li  Li3  1  0.810831  0.189169  0.939146  1
  Ce  Ce4  1  0.343728  0.656272  0.250000  1
  Ce  Ce5  1  0.656263  0.343737  0.750000  1
  Th  Th6  1  0.550531  0.449469  0.250000  1
  Th  Th7  1  0.449470  0.550530  0.750000  1
  Si  Si8  1  0.939960  0.060040  0.072092  1
  Si  Si9  1  0.060043  0.939957  0.927952  1
  Si  Si10  1  0.060043  0.939957  0.572048  1
  Si  Si11  1  0.939960  0.060040  0.427908  1
  Si  Si12  1  0.720204  0.279796  0.250000  1
  Si  Si13  1  0.279789  0.720211  0.750000  1
