# generated using pymatgen
data_Ba3Ta3Nb3(Si2O13)2
_symmetry_space_group_name_H-M   'P 1'
_cell_length_a   9.14042300
_cell_length_b   9.14042340
_cell_length_c   7.87761600
_cell_angle_alpha   89.99979945
_cell_angle_beta   89.99979788
_cell_angle_gamma   120.00013620
_symmetry_Int_Tables_number   1
_chemical_formula_structural   Ba3Ta3Nb3(Si2O13)2
_chemical_formula_sum   'Ba3 Ta3 Nb3 Si4 O26'
_cell_volume   569.97715658
_cell_formula_units_Z   1
loop_
 _symmetry_equiv_pos_site_id
 _symmetry_equiv_pos_as_xyz
  1  'x, y, z'
loop_
 _atom_site_type_symbol
 _atom_site_label
 _atom_site_symmetry_multiplicity
 _atom_site_fract_x
 _atom_site_fract_y
 _atom_site_fract_z
 _atom_site_occupancy
  Ba  Ba0  1  0.602181  0.000004  0.497973  1
  Ba  Ba1  1  0.397825  0.397825  0.497984  1
  Ba  Ba2  1  0.000004  0.602181  0.497973  1
  Ta  Ta3  1  0.763031  0.763031  0.745407  1
  Ta  Ta4  1  0.236980  0.000004  0.745417  1
  Ta  Ta5  1  0.000004  0.236981  0.745417  1
  Nb  Nb6  1  0.240084  0.000000  0.232598  1
  Nb  Nb7  1  0.000000  0.240085  0.232598  1
  Nb  Nb8  1  0.759921  0.759921  0.232601  1
  Si  Si9  1  0.666674  0.333342  0.207453  1
  Si  Si10  1  0.333342  0.666673  0.207453  1
  Si  Si11  1  0.666674  0.333345  0.796891  1
  Si  Si12  1  0.333345  0.666673  0.796891  1
  O  O13  1  0.280470  0.000010  0.999908  1
  O  O14  1  0.000010  0.280470  0.999908  1
  O  O15  1  0.666678  0.333349  0.002392  1
  O  O16  1  0.333350  0.666679  0.002392  1
  O  O17  1  0.719539  0.719539  0.999907  1
  O  O18  1  0.823396  0.000005  0.234253  1
  O  O19  1  0.000005  0.823396  0.234253  1
  O  O20  1  0.176612  0.176613  0.234253  1
  O  O21  1  0.488145  0.184030  0.286753  1
  O  O22  1  0.184029  0.488145  0.286753  1
  O  O23  1  0.815988  0.304127  0.286753  1
  O  O24  1  0.304128  0.815989  0.286753  1
  O  O25  1  0.695886  0.511867  0.286759  1
  O  O26  1  0.511867  0.695886  0.286759  1
  O  O27  1  0.228123  0.000004  0.503435  1
  O  O28  1  0.000004  0.228124  0.503435  1
  O  O29  1  0.771893  0.771892  0.503436  1
  O  O30  1  0.696676  0.512597  0.719463  1
  O  O31  1  0.512597  0.696676  0.719463  1
  O  O32  1  0.815928  0.303342  0.719465  1
  O  O33  1  0.303343  0.815929  0.719465  1
  O  O34  1  0.487416  0.184093  0.719465  1
  O  O35  1  0.184092  0.487416  0.719465  1
  O  O36  1  0.176659  0.176660  0.769482  1
  O  O37  1  0.823345  0.000008  0.769488  1
  O  O38  1  0.000008  0.823345  0.769488  1
