# generated using pymatgen
data_La8Nd2IrRu3
_symmetry_space_group_name_H-M   'P 1'
_cell_length_a   9.15273454
_cell_length_b   9.21008456
_cell_length_c   7.36802393
_cell_angle_alpha   85.08741700
_cell_angle_beta   85.26254773
_cell_angle_gamma   42.77989894
_symmetry_Int_Tables_number   1
_chemical_formula_structural   La8Nd2IrRu3
_chemical_formula_sum   'La8 Nd2 Ir1 Ru3'
_cell_volume   420.11651821
_cell_formula_units_Z   1
loop_
 _symmetry_equiv_pos_site_id
 _symmetry_equiv_pos_as_xyz
  1  'x, y, z'
loop_
 _atom_site_type_symbol
 _atom_site_label
 _atom_site_symmetry_multiplicity
 _atom_site_fract_x
 _atom_site_fract_y
 _atom_site_fract_z
 _atom_site_occupancy
  La  La0  1  0.012499  0.805756  0.912486  1
  La  La1  1  0.199552  0.984472  0.594488  1
  La  La2  1  0.984743  0.199337  0.094194  1
  La  La3  1  0.798525  0.018868  0.405902  1
  La  La4  1  0.363537  0.209620  0.819083  1
  La  La5  1  0.787601  0.637830  0.681191  1
  La  La6  1  0.638522  0.788361  0.181619  1
  La  La7  1  0.210283  0.359891  0.316309  1
  Nd  Nd8  1  0.572317  0.427572  0.750144  1
  Nd  Nd9  1  0.427557  0.573375  0.249664  1
  Ir  Ir10  1  0.176066  0.598454  0.578447  1
  Ru  Ru11  1  0.393570  0.831158  0.916534  1
  Ru  Ru12  1  0.830946  0.395188  0.418386  1
  Ru  Ru13  1  0.604283  0.170119  0.081554  1
