# generated using pymatgen
data_YHo9Sn5Sb
_symmetry_space_group_name_H-M   'P 1'
_cell_length_a   8.91746302
_cell_length_b   8.91997285
_cell_length_c   6.50286900
_cell_angle_alpha   90.00000000
_cell_angle_beta   90.00000000
_cell_angle_gamma   119.78053982
_symmetry_Int_Tables_number   1
_chemical_formula_structural   YHo9Sn5Sb
_chemical_formula_sum   'Y1 Ho9 Sn5 Sb1'
_cell_volume   448.94863462
_cell_formula_units_Z   1
loop_
 _symmetry_equiv_pos_site_id
 _symmetry_equiv_pos_as_xyz
  1  'x, y, z'
loop_
 _atom_site_type_symbol
 _atom_site_label
 _atom_site_symmetry_multiplicity
 _atom_site_fract_x
 _atom_site_fract_y
 _atom_site_fract_z
 _atom_site_occupancy
  Y  Y0  1  0.997797  0.760595  0.750000  1
  Ho  Ho1  1  0.000859  0.238594  0.250000  1
  Ho  Ho2  1  0.761654  0.761190  0.250000  1
  Ho  Ho3  1  0.761838  0.999869  0.750000  1
  Ho  Ho4  1  0.238058  0.240587  0.750000  1
  Ho  Ho5  1  0.238906  0.000386  0.250000  1
  Ho  Ho6  1  0.332878  0.666033  0.499793  1
  Ho  Ho7  1  0.668025  0.333819  0.000304  1
  Ho  Ho8  1  0.668025  0.333819  0.499696  1
  Ho  Ho9  1  0.332878  0.666033  0.000207  1
  Sn  Sn10  1  0.394727  0.393795  0.250000  1
  Sn  Sn11  1  0.001042  0.605411  0.250000  1
  Sn  Sn12  1  0.999562  0.395007  0.750000  1
  Sn  Sn13  1  0.604748  0.605077  0.750000  1
  Sn  Sn14  1  0.605664  0.000073  0.250000  1
  Sb  Sb15  1  0.393338  0.999712  0.750000  1
