# generated using pymatgen
data_PrY3(OsO4)4
_symmetry_space_group_name_H-M   'P 1'
_cell_length_a   5.42143692
_cell_length_b   7.73550106
_cell_length_c   7.47615640
_cell_angle_alpha   79.49120519
_cell_angle_beta   90.97689641
_cell_angle_gamma   93.68584689
_symmetry_Int_Tables_number   1
_chemical_formula_structural   PrY3(OsO4)4
_chemical_formula_sum   'Pr1 Y3 Os4 O16'
_cell_volume   307.63047004
_cell_formula_units_Z   1
loop_
 _symmetry_equiv_pos_site_id
 _symmetry_equiv_pos_as_xyz
  1  'x, y, z'
loop_
 _atom_site_type_symbol
 _atom_site_label
 _atom_site_symmetry_multiplicity
 _atom_site_fract_x
 _atom_site_fract_y
 _atom_site_fract_z
 _atom_site_occupancy
  Pr  Pr0  1  0.258562  0.127477  0.608132  1
  Y  Y1  1  0.734091  0.881425  0.389898  1
  Y  Y2  1  0.188901  0.169066  0.101439  1
  Y  Y3  1  0.801485  0.825634  0.898249  1
  Os  Os4  1  0.244275  0.663079  0.208494  1
  Os  Os5  1  0.755472  0.338983  0.796923  1
  Os  Os6  1  0.714839  0.337856  0.296948  1
  Os  Os7  1  0.283626  0.664089  0.703365  1
  O  O8  1  0.062510  0.460498  0.705604  1
  O  O9  1  0.945860  0.532195  0.287026  1
  O  O10  1  0.637545  0.327208  0.551033  1
  O  O11  1  0.377339  0.670570  0.451196  1
  O  O12  1  0.848115  0.333368  0.051059  1
  O  O13  1  0.161727  0.678404  0.946526  1
  O  O14  1  0.405634  0.439872  0.202436  1
  O  O15  1  0.594848  0.561023  0.797692  1
  O  O16  1  0.051732  0.883190  0.179481  1
  O  O17  1  0.938510  0.110535  0.834955  1
  O  O18  1  0.495347  0.113854  0.313687  1
  O  O19  1  0.511808  0.887909  0.675188  1
  O  O20  1  0.453275  0.206078  0.876430  1
  O  O21  1  0.549223  0.797517  0.133394  1
  O  O22  1  0.966787  0.159655  0.370742  1
  O  O23  1  0.018489  0.830515  0.620102  1
