# generated using pymatgen
data_RbTb(NbCl3)6
_symmetry_space_group_name_H-M   'P 1'
_cell_length_a   10.28353387
_cell_length_b   10.28353464
_cell_length_c   10.28353450
_cell_angle_alpha   55.60213317
_cell_angle_beta   55.60213780
_cell_angle_gamma   55.60213524
_symmetry_Int_Tables_number   1
_chemical_formula_structural   RbTb(NbCl3)6
_chemical_formula_sum   'Rb1 Tb1 Nb6 Cl18'
_cell_volume   690.48922966
_cell_formula_units_Z   1
loop_
 _symmetry_equiv_pos_site_id
 _symmetry_equiv_pos_as_xyz
  1  'x, y, z'
loop_
 _atom_site_type_symbol
 _atom_site_label
 _atom_site_symmetry_multiplicity
 _atom_site_fract_x
 _atom_site_fract_y
 _atom_site_fract_z
 _atom_site_occupancy
  Rb  Rb0  1  0.222213  0.222213  0.222213  1
  Tb  Tb1  1  0.498798  0.498798  0.498798  1
  Nb  Nb2  1  0.803602  0.148212  0.910299  1
  Nb  Nb3  1  0.910299  0.803602  0.148212  1
  Nb  Nb4  1  0.148212  0.910299  0.803602  1
  Nb  Nb5  1  0.197510  0.851808  0.088664  1
  Nb  Nb6  1  0.088664  0.197510  0.851808  1
  Nb  Nb7  1  0.851808  0.088664  0.197510  1
  Cl  Cl8  1  0.869427  0.408423  0.725529  1
  Cl  Cl9  1  0.725529  0.869427  0.408423  1
  Cl  Cl10  1  0.408423  0.725529  0.869427  1
  Cl  Cl11  1  0.130185  0.591431  0.276122  1
  Cl  Cl12  1  0.276122  0.130185  0.591431  1
  Cl  Cl13  1  0.591431  0.276122  0.130185  1
  Cl  Cl14  1  0.542315  0.339069  0.797283  1
  Cl  Cl15  1  0.797283  0.542315  0.339069  1
  Cl  Cl16  1  0.339069  0.797283  0.542315  1
  Cl  Cl17  1  0.453208  0.663133  0.205784  1
  Cl  Cl18  1  0.205784  0.453208  0.663133  1
  Cl  Cl19  1  0.663133  0.205784  0.453208  1
  Cl  Cl20  1  0.662957  0.941850  0.068485  1
  Cl  Cl21  1  0.068485  0.662957  0.941850  1
  Cl  Cl22  1  0.941850  0.068485  0.662957  1
  Cl  Cl23  1  0.338539  0.057382  0.928913  1
  Cl  Cl24  1  0.928913  0.338539  0.057382  1
  Cl  Cl25  1  0.057382  0.928913  0.338539  1
