# generated using pymatgen
data_Hf8Fe5Co3Si14
_symmetry_space_group_name_H-M   'P 1'
_cell_length_a   5.04740760
_cell_length_b   9.48609107
_cell_length_c   9.47696986
_cell_angle_alpha   94.04516628
_cell_angle_beta   74.59424623
_cell_angle_gamma   105.44073798
_symmetry_Int_Tables_number   1
_chemical_formula_structural   Hf8Fe5Co3Si14
_chemical_formula_sum   'Hf8 Fe5 Co3 Si14'
_cell_volume   421.66542823
_cell_formula_units_Z   1
loop_
 _symmetry_equiv_pos_site_id
 _symmetry_equiv_pos_as_xyz
  1  'x, y, z'
loop_
 _atom_site_type_symbol
 _atom_site_label
 _atom_site_symmetry_multiplicity
 _atom_site_fract_x
 _atom_site_fract_y
 _atom_site_fract_z
 _atom_site_occupancy
  Hf  Hf0  1  0.137997  0.275549  0.999792  1
  Hf  Hf1  1  0.861720  0.723785  0.000146  1
  Hf  Hf2  1  0.302209  0.802756  0.196071  1
  Hf  Hf3  1  0.500385  0.196630  0.196382  1
  Hf  Hf4  1  0.861233  0.999510  0.276539  1
  Hf  Hf5  1  0.138499  0.999751  0.723136  1
  Hf  Hf6  1  0.500939  0.803805  0.803963  1
  Hf  Hf7  1  0.695687  0.195602  0.803890  1
  Fe  Fe8  1  0.398776  0.500134  0.202300  1
  Fe  Fe9  1  0.899742  0.501211  0.203970  1
  Fe  Fe10  1  0.100618  0.201931  0.500357  1
  Fe  Fe11  1  0.602024  0.203818  0.500470  1
  Fe  Fe12  1  0.397989  0.796940  0.500317  1
  Co  Co13  1  0.898278  0.796268  0.500222  1
  Co  Co14  1  0.100691  0.499644  0.797164  1
  Co  Co15  1  0.602379  0.501331  0.795338  1
  Si  Si16  1  0.250028  0.999638  0.999848  1
  Si  Si17  1  0.749706  0.999751  0.000081  1
  Si  Si18  1  0.710589  0.419828  0.998435  1
  Si  Si19  1  0.291174  0.580535  0.998155  1
  Si  Si20  1  0.000445  0.299644  0.299228  1
  Si  Si21  1  0.696127  0.700488  0.302623  1
  Si  Si22  1  0.096658  0.592501  0.410545  1
  Si  Si23  1  0.501129  0.410122  0.409446  1
  Si  Si24  1  0.290714  0.997913  0.419323  1
  Si  Si25  1  0.707082  0.997663  0.580875  1
  Si  Si26  1  0.495254  0.593952  0.591261  1
  Si  Si27  1  0.907881  0.408746  0.592339  1
  Si  Si28  1  0.301082  0.302251  0.700236  1
  Si  Si29  1  0.002961  0.698302  0.697546  1
