# generated using pymatgen
data_Nd4Lu4RuPt3
_symmetry_space_group_name_H-M   'P 1'
_cell_length_a   4.73456900
_cell_length_b   7.25587790
_cell_length_c   8.78794940
_cell_angle_alpha   87.95288976
_cell_angle_beta   90.00000000
_cell_angle_gamma   90.00000000
_symmetry_Int_Tables_number   1
_chemical_formula_structural   Nd4Lu4RuPt3
_chemical_formula_sum   'Nd4 Lu4 Ru1 Pt3'
_cell_volume   301.70374865
_cell_formula_units_Z   1
loop_
 _symmetry_equiv_pos_site_id
 _symmetry_equiv_pos_as_xyz
  1  'x, y, z'
loop_
 _atom_site_type_symbol
 _atom_site_label
 _atom_site_symmetry_multiplicity
 _atom_site_fract_x
 _atom_site_fract_y
 _atom_site_fract_z
 _atom_site_occupancy
  Nd  Nd0  1  0.750000  0.484008  0.178206  1
  Nd  Nd1  1  0.250000  0.005126  0.671216  1
  Nd  Nd2  1  0.750000  0.980859  0.333019  1
  Nd  Nd3  1  0.250000  0.525265  0.818714  1
  Lu  Lu4  1  0.750000  0.864989  0.925643  1
  Lu  Lu5  1  0.250000  0.640438  0.425494  1
  Lu  Lu6  1  0.750000  0.352926  0.579197  1
  Lu  Lu7  1  0.250000  0.142539  0.075941  1
  Ru  Ru8  1  0.750000  0.740618  0.590180  1
  Pt  Pt9  1  0.750000  0.248878  0.910313  1
  Pt  Pt10  1  0.250000  0.256900  0.401439  1
  Pt  Pt11  1  0.250000  0.757455  0.090638  1
