# generated using pymatgen
data_KSrCaReN4
_symmetry_space_group_name_H-M   'P 1'
_cell_length_a   10.55669987
_cell_length_b   10.25162216
_cell_length_c   7.94906031
_cell_angle_alpha   69.53256424
_cell_angle_beta   65.63278700
_cell_angle_gamma   45.63258904
_symmetry_Int_Tables_number   1
_chemical_formula_structural   KSrCaReN4
_chemical_formula_sum   'K4 Sr4 Ca4 Re4 N16'
_cell_volume   557.72400321
_cell_formula_units_Z   4
loop_
 _symmetry_equiv_pos_site_id
 _symmetry_equiv_pos_as_xyz
  1  'x, y, z'
loop_
 _atom_site_type_symbol
 _atom_site_label
 _atom_site_symmetry_multiplicity
 _atom_site_fract_x
 _atom_site_fract_y
 _atom_site_fract_z
 _atom_site_occupancy
  K  K0  1  0.563375  0.930866  0.926023  1
  K  K1  1  0.930965  0.562621  0.579318  1
  K  K2  1  0.320398  0.679633  0.678300  1
  K  K3  1  0.120694  0.108591  0.883728  1
  Sr  Sr4  1  0.128385  0.139439  0.374970  1
  Sr  Sr5  1  0.351151  0.366732  0.145250  1
  Sr  Sr6  1  0.695063  0.303464  0.308924  1
  Sr  Sr7  1  0.890402  0.884472  0.103693  1
  Ca  Ca8  1  0.331428  0.341839  0.665907  1
  Ca  Ca9  1  0.906103  0.905641  0.596284  1
  Ca  Ca10  1  0.659629  0.663989  0.342647  1
  Ca  Ca11  1  0.586017  0.596300  0.909376  1
  Re  Re12  1  0.502561  0.011227  0.474802  1
  Re  Re13  1  0.003263  0.493833  0.020914  1
  Re  Re14  1  0.753646  0.242748  0.759391  1
  Re  Re15  1  0.240326  0.756760  0.245554  1
  N  N16  1  0.003673  0.653071  0.823108  1
  N  N17  1  0.682376  0.288189  0.003408  1
  N  N18  1  0.651841  0.042618  0.480254  1
  N  N19  1  0.529126  0.818253  0.636383  1
  N  N20  1  0.239133  0.590899  0.430826  1
  N  N21  1  0.756630  0.415731  0.587930  1
  N  N22  1  0.985481  0.020282  0.712269  1
  N  N23  1  0.564289  0.968283  0.236990  1
  N  N24  1  0.428545  0.740291  0.230359  1
  N  N25  1  0.967926  0.568001  0.226583  1
  N  N26  1  0.276311  0.695059  0.029779  1
  N  N27  1  0.821589  0.490010  0.056619  1
  N  N28  1  0.229541  0.263136  0.989955  1
  N  N29  1  0.596830  0.237228  0.726988  1
  N  N30  1  0.263048  0.225615  0.523057  1
  N  N31  1  0.020252  0.995178  0.290413  1
