# generated using pymatgen
data_La(TmPt)4
_symmetry_space_group_name_H-M   'P 1'
_cell_length_a   7.55867300
_cell_length_b   7.55518800
_cell_length_c   14.64590300
_cell_angle_alpha   90.00000000
_cell_angle_beta   90.00000000
_cell_angle_gamma   90.00000000
_symmetry_Int_Tables_number   1
_chemical_formula_structural   La(TmPt)4
_chemical_formula_sum   'La4 Tm16 Pt16'
_cell_volume   836.38644656
_cell_formula_units_Z   4
loop_
 _symmetry_equiv_pos_site_id
 _symmetry_equiv_pos_as_xyz
  1  'x, y, z'
loop_
 _atom_site_type_symbol
 _atom_site_label
 _atom_site_symmetry_multiplicity
 _atom_site_fract_x
 _atom_site_fract_y
 _atom_site_fract_z
 _atom_site_occupancy
  La  La0  1  0.498083  0.324048  0.409113  1
  La  La1  1  0.998083  0.175952  0.090887  1
  La  La2  1  0.501917  0.675952  0.909113  1
  La  La3  1  0.001917  0.824048  0.590887  1
  Tm  Tm4  1  0.657795  0.164174  0.624641  1
  Tm  Tm5  1  0.157795  0.335826  0.875359  1
  Tm  Tm6  1  0.342205  0.835826  0.124641  1
  Tm  Tm7  1  0.842205  0.664174  0.375359  1
  Tm  Tm8  1  0.345326  0.832054  0.378906  1
  Tm  Tm9  1  0.845326  0.667946  0.121094  1
  Tm  Tm10  1  0.654674  0.167946  0.878906  1
  Tm  Tm11  1  0.154674  0.332054  0.621094  1
  Tm  Tm12  1  0.504511  0.680686  0.598416  1
  Tm  Tm13  1  0.004511  0.819314  0.901584  1
  Tm  Tm14  1  0.495489  0.319314  0.098416  1
  Tm  Tm15  1  0.995489  0.180686  0.401584  1
  Tm  Tm16  1  0.819952  0.506950  0.749686  1
  Tm  Tm17  1  0.319952  0.993050  0.750314  1
  Tm  Tm18  1  0.180048  0.493050  0.249686  1
  Tm  Tm19  1  0.680048  0.006950  0.250314  1
  Pt  Pt20  1  0.685430  0.963277  0.457036  1
  Pt  Pt21  1  0.185430  0.536723  0.042964  1
  Pt  Pt22  1  0.314570  0.036723  0.957036  1
  Pt  Pt23  1  0.814570  0.463277  0.542964  1
  Pt  Pt24  1  0.325358  0.033144  0.543989  1
  Pt  Pt25  1  0.825358  0.466856  0.956011  1
  Pt  Pt26  1  0.674642  0.966856  0.043989  1
  Pt  Pt27  1  0.174642  0.533144  0.456011  1
  Pt  Pt28  1  0.454386  0.378273  0.747335  1
  Pt  Pt29  1  0.954386  0.121727  0.752665  1
  Pt  Pt30  1  0.545614  0.621727  0.247335  1
  Pt  Pt31  1  0.045614  0.878273  0.252665  1
  Pt  Pt32  1  0.684630  0.859650  0.749706  1
  Pt  Pt33  1  0.184630  0.640350  0.750294  1
  Pt  Pt34  1  0.315370  0.140350  0.249706  1
  Pt  Pt35  1  0.815370  0.359650  0.250294  1
