# generated using pymatgen
data_LiHo2Er2Sc5Si8
_symmetry_space_group_name_H-M   'P 1'
_cell_length_a   6.97839404
_cell_length_b   7.37801083
_cell_length_c   13.96893611
_cell_angle_alpha   89.99054184
_cell_angle_beta   89.98939291
_cell_angle_gamma   89.96360880
_symmetry_Int_Tables_number   1
_chemical_formula_structural   LiHo2Er2Sc5Si8
_chemical_formula_sum   'Li2 Ho4 Er4 Sc10 Si16'
_cell_volume   719.21379254
_cell_formula_units_Z   2
loop_
 _symmetry_equiv_pos_site_id
 _symmetry_equiv_pos_as_xyz
  1  'x, y, z'
loop_
 _atom_site_type_symbol
 _atom_site_label
 _atom_site_symmetry_multiplicity
 _atom_site_fract_x
 _atom_site_fract_y
 _atom_site_fract_z
 _atom_site_occupancy
  Li  Li0  1  0.159848  0.506678  0.750029  1
  Li  Li1  1  0.840184  0.493403  0.249976  1
  Ho  Ho2  1  0.515313  0.325606  0.097419  1
  Ho  Ho3  1  0.010330  0.183930  0.401733  1
  Ho  Ho4  1  0.515303  0.325626  0.402523  1
  Ho  Ho5  1  0.484724  0.674419  0.597474  1
  Er  Er6  1  0.010426  0.184071  0.098363  1
  Er  Er7  1  0.989566  0.815838  0.901602  1
  Er  Er8  1  0.484738  0.674494  0.902464  1
  Er  Er9  1  0.989529  0.815881  0.598433  1
  Sc  Sc10  1  0.341688  0.003121  0.249947  1
  Sc  Sc11  1  0.658324  0.996724  0.750039  1
  Sc  Sc12  1  0.325746  0.181575  0.626112  1
  Sc  Sc13  1  0.674268  0.818381  0.373926  1
  Sc  Sc14  1  0.165233  0.675251  0.373075  1
  Sc  Sc15  1  0.674260  0.818385  0.126010  1
  Sc  Sc16  1  0.834701  0.324820  0.626978  1
  Sc  Sc17  1  0.325718  0.181606  0.873924  1
  Sc  Sc18  1  0.834709  0.324811  0.873093  1
  Sc  Sc19  1  0.165257  0.675274  0.126879  1
  Si  Si20  1  0.028948  0.100982  0.750046  1
  Si  Si21  1  0.970990  0.898795  0.249908  1
  Si  Si22  1  0.465503  0.613269  0.249969  1
  Si  Si23  1  0.534384  0.386917  0.750073  1
  Si  Si24  1  0.287069  0.878927  0.750091  1
  Si  Si25  1  0.712893  0.120819  0.249883  1
  Si  Si26  1  0.220411  0.372658  0.249909  1
  Si  Si27  1  0.779575  0.627585  0.750123  1
  Si  Si28  1  0.160132  0.461650  0.533281  1
  Si  Si29  1  0.839871  0.538780  0.466865  1
  Si  Si30  1  0.343097  0.966705  0.461232  1
  Si  Si31  1  0.839830  0.538604  0.033169  1
  Si  Si32  1  0.657100  0.033156  0.538853  1
  Si  Si33  1  0.160380  0.461588  0.966705  1
  Si  Si34  1  0.657053  0.032970  0.961122  1
  Si  Si35  1  0.342896  0.966705  0.038772  1
