# generated using pymatgen
data_Dy4Ho3Lu3Sn8
_symmetry_space_group_name_H-M   'P 1'
_cell_length_a   7.97075200
_cell_length_b   8.11147019
_cell_length_c   15.35498036
_cell_angle_alpha   89.97515041
_cell_angle_beta   90.00000000
_cell_angle_gamma   90.00000000
_symmetry_Int_Tables_number   1
_chemical_formula_structural   Dy4Ho3Lu3Sn8
_chemical_formula_sum   'Dy8 Ho6 Lu6 Sn16'
_cell_volume   992.76874919
_cell_formula_units_Z   2
loop_
 _symmetry_equiv_pos_site_id
 _symmetry_equiv_pos_as_xyz
  1  'x, y, z'
loop_
 _atom_site_type_symbol
 _atom_site_label
 _atom_site_symmetry_multiplicity
 _atom_site_fract_x
 _atom_site_fract_y
 _atom_site_fract_z
 _atom_site_occupancy
  Dy  Dy0  1  0.521371  0.320819  0.902705  1
  Dy  Dy1  1  0.021371  0.179181  0.597295  1
  Dy  Dy2  1  0.478714  0.679443  0.403230  1
  Dy  Dy3  1  0.978714  0.820557  0.096770  1
  Dy  Dy4  1  0.478672  0.679485  0.097103  1
  Dy  Dy5  1  0.978672  0.820515  0.402897  1
  Dy  Dy6  1  0.521282  0.320594  0.597153  1
  Dy  Dy7  1  0.021282  0.179406  0.902847  1
  Ho  Ho8  1  0.367516  0.836502  0.877452  1
  Ho  Ho9  1  0.867516  0.663498  0.622548  1
  Ho  Ho10  1  0.632700  0.163619  0.377485  1
  Ho  Ho11  1  0.132700  0.336381  0.122515  1
  Ho  Ho12  1  0.632760  0.163507  0.122162  1
  Ho  Ho13  1  0.132760  0.336493  0.377838  1
  Lu  Lu14  1  0.367053  0.836639  0.622900  1
  Lu  Lu15  1  0.867053  0.663361  0.877100  1
  Lu  Lu16  1  0.197955  0.504166  0.749925  1
  Lu  Lu17  1  0.697955  0.995834  0.750075  1
  Lu  Lu18  1  0.802048  0.496522  0.249916  1
  Lu  Lu19  1  0.302048  0.003478  0.250084  1
  Sn  Sn20  1  0.293803  0.036480  0.041951  1
  Sn  Sn21  1  0.793803  0.463520  0.458049  1
  Sn  Sn22  1  0.704520  0.963031  0.542190  1
  Sn  Sn23  1  0.204520  0.536969  0.957810  1
  Sn  Sn24  1  0.707143  0.962001  0.957726  1
  Sn  Sn25  1  0.207143  0.537999  0.542274  1
  Sn  Sn26  1  0.294257  0.035583  0.458960  1
  Sn  Sn27  1  0.794257  0.464417  0.041040  1
  Sn  Sn28  1  0.563945  0.620008  0.749962  1
  Sn  Sn29  1  0.063945  0.879992  0.750038  1
  Sn  Sn30  1  0.436049  0.380462  0.249993  1
  Sn  Sn31  1  0.936049  0.119538  0.250007  1
  Sn  Sn32  1  0.330406  0.148326  0.749705  1
  Sn  Sn33  1  0.830406  0.351674  0.750295  1
  Sn  Sn34  1  0.669807  0.851391  0.250025  1
  Sn  Sn35  1  0.169807  0.648609  0.249975  1
