# generated using pymatgen
data_Dy3CuPt2
_symmetry_space_group_name_H-M   'P 1'
_cell_length_a   4.51144400
_cell_length_b   5.55350894
_cell_length_c   10.62298084
_cell_angle_alpha   82.73742236
_cell_angle_beta   90.00000000
_cell_angle_gamma   90.00000000
_symmetry_Int_Tables_number   1
_chemical_formula_structural   Dy3CuPt2
_chemical_formula_sum   'Dy6 Cu2 Pt4'
_cell_volume   264.01654549
_cell_formula_units_Z   2
loop_
 _symmetry_equiv_pos_site_id
 _symmetry_equiv_pos_as_xyz
  1  'x, y, z'
loop_
 _atom_site_type_symbol
 _atom_site_label
 _atom_site_symmetry_multiplicity
 _atom_site_fract_x
 _atom_site_fract_y
 _atom_site_fract_z
 _atom_site_occupancy
  Dy  Dy0  1  0.250000  0.407566  0.790750  1
  Dy  Dy1  1  0.750000  0.592434  0.209250  1
  Dy  Dy2  1  0.250000  0.116058  0.120566  1
  Dy  Dy3  1  0.750000  0.883942  0.879434  1
  Dy  Dy4  1  0.250000  0.254228  0.451943  1
  Dy  Dy5  1  0.750000  0.745772  0.548057  1
  Cu  Cu6  1  0.250000  0.781827  0.358408  1
  Cu  Cu7  1  0.750000  0.218173  0.641592  1
  Pt  Pt8  1  0.250000  0.650487  0.032060  1
  Pt  Pt9  1  0.750000  0.349513  0.967940  1
  Pt  Pt10  1  0.250000  0.929916  0.688443  1
  Pt  Pt11  1  0.750000  0.070084  0.311557  1
