# generated using pymatgen
data_Ca9YbSnSb5
_symmetry_space_group_name_H-M   'P 1'
_cell_length_a   9.13299607
_cell_length_b   9.14525461
_cell_length_c   6.93881622
_cell_angle_alpha   89.97103001
_cell_angle_beta   90.01198533
_cell_angle_gamma   119.94733968
_symmetry_Int_Tables_number   1
_chemical_formula_structural   Ca9YbSnSb5
_chemical_formula_sum   'Ca9 Yb1 Sn1 Sb5'
_cell_volume   502.17517816
_cell_formula_units_Z   1
loop_
 _symmetry_equiv_pos_site_id
 _symmetry_equiv_pos_as_xyz
  1  'x, y, z'
loop_
 _atom_site_type_symbol
 _atom_site_label
 _atom_site_symmetry_multiplicity
 _atom_site_fract_x
 _atom_site_fract_y
 _atom_site_fract_z
 _atom_site_occupancy
  Ca  Ca0  1  0.003466  0.736831  0.750170  1
  Ca  Ca1  1  0.000346  0.262319  0.249877  1
  Ca  Ca2  1  0.737964  0.737698  0.249869  1
  Ca  Ca3  1  0.733651  0.999927  0.750144  1
  Ca  Ca4  1  0.266567  0.263157  0.750149  1
  Ca  Ca5  1  0.260076  0.999929  0.249855  1
  Ca  Ca6  1  0.333080  0.668736  0.501404  1
  Ca  Ca7  1  0.664291  0.331228  0.998582  1
  Ca  Ca8  1  0.664323  0.331221  0.501425  1
  Yb  Yb9  1  0.333015  0.669008  0.998362  1
  Sn  Sn10  1  0.383683  0.999759  0.750245  1
  Sb  Sb11  1  0.384561  0.387212  0.249844  1
  Sb  Sb12  1  0.997844  0.613040  0.249810  1
  Sb  Sb13  1  0.001152  0.380723  0.750219  1
  Sb  Sb14  1  0.620129  0.619488  0.750206  1
  Sb  Sb15  1  0.615850  0.999722  0.249839  1
