# generated using pymatgen
data_Na4ErMoO6
_symmetry_space_group_name_H-M   'P 1'
_cell_length_a   5.69802515
_cell_length_b   5.69799713
_cell_length_c   5.79962536
_cell_angle_alpha   99.36130956
_cell_angle_beta   99.36152392
_cell_angle_gamma   120.26241064
_symmetry_Int_Tables_number   1
_chemical_formula_structural   Na4ErMoO6
_chemical_formula_sum   'Na4 Er1 Mo1 O6'
_cell_volume   153.71850993
_cell_formula_units_Z   1
loop_
 _symmetry_equiv_pos_site_id
 _symmetry_equiv_pos_as_xyz
  1  'x, y, z'
loop_
 _atom_site_type_symbol
 _atom_site_label
 _atom_site_symmetry_multiplicity
 _atom_site_fract_x
 _atom_site_fract_y
 _atom_site_fract_z
 _atom_site_occupancy
  Na  Na0  1  0.498001  0.502001  0.999999  1
  Na  Na1  1  0.001600  0.998369  0.499999  1
  Na  Na2  1  0.658056  0.341941  0.500001  1
  Na  Na3  1  0.341158  0.658866  0.500008  1
  Er  Er4  1  0.836746  0.163243  0.999998  1
  Mo  Mo5  1  0.166722  0.833292  0.000000  1
  O  O6  1  0.958599  0.606384  0.202687  1
  O  O7  1  0.219257  0.195680  0.217221  1
  O  O8  1  0.549389  0.927454  0.215353  1
  O  O9  1  0.072544  0.450611  0.784663  1
  O  O10  1  0.804338  0.780758  0.782764  1
  O  O11  1  0.393592  0.041404  0.797311  1
