# generated using pymatgen
data_HoLu3(Al3Ir)6
_symmetry_space_group_name_H-M   'P 1'
_cell_length_a   7.52638839
_cell_length_b   7.52804335
_cell_length_c   9.41775100
_cell_angle_alpha   90.00000000
_cell_angle_beta   90.00000000
_cell_angle_gamma   119.52005496
_symmetry_Int_Tables_number   1
_chemical_formula_structural   HoLu3(Al3Ir)6
_chemical_formula_sum   'Ho1 Lu3 Al18 Ir6'
_cell_volume   464.32992744
_cell_formula_units_Z   1
loop_
 _symmetry_equiv_pos_site_id
 _symmetry_equiv_pos_as_xyz
  1  'x, y, z'
loop_
 _atom_site_type_symbol
 _atom_site_label
 _atom_site_symmetry_multiplicity
 _atom_site_fract_x
 _atom_site_fract_y
 _atom_site_fract_z
 _atom_site_occupancy
  Ho  Ho0  1  0.995102  0.672082  0.250000  1
  Lu  Lu1  1  0.005348  0.327190  0.750000  1
  Lu  Lu2  1  0.672012  0.994859  0.250000  1
  Lu  Lu3  1  0.327563  0.005734  0.750000  1
  Al  Al4  1  0.129014  0.129419  0.250000  1
  Al  Al5  1  0.870871  0.870897  0.750000  1
  Al  Al6  1  0.000263  0.334834  0.074286  1
  Al  Al7  1  0.999574  0.664582  0.924271  1
  Al  Al8  1  0.999574  0.664582  0.575729  1
  Al  Al9  1  0.335901  0.000898  0.425518  1
  Al  Al10  1  0.000263  0.334834  0.425714  1
  Al  Al11  1  0.664552  0.999463  0.575154  1
  Al  Al12  1  0.664552  0.999463  0.924846  1
  Al  Al13  1  0.335901  0.000898  0.074482  1
  Al  Al14  1  0.333037  0.333130  0.552657  1
  Al  Al15  1  0.666917  0.667387  0.447226  1
  Al  Al16  1  0.666917  0.667387  0.052774  1
  Al  Al17  1  0.333037  0.333130  0.947343  1
  Al  Al18  1  0.340079  0.549484  0.250000  1
  Al  Al19  1  0.660094  0.450315  0.750000  1
  Al  Al20  1  0.548990  0.339106  0.250000  1
  Al  Al21  1  0.450192  0.660087  0.750000  1
  Ir  Ir22  1  0.672119  0.327290  0.999771  1
  Ir  Ir23  1  0.327813  0.672356  0.999932  1
  Ir  Ir24  1  0.327813  0.672356  0.500068  1
  Ir  Ir25  1  0.672119  0.327290  0.500229  1
  Ir  Ir26  1  0.000191  0.000476  0.999660  1
  Ir  Ir27  1  0.000191  0.000476  0.500340  1
