# generated using pymatgen
data_Yb3Dy(Rh2O7)2
_symmetry_space_group_name_H-M   'P 1'
_cell_length_a   7.20712049
_cell_length_b   7.20712103
_cell_length_c   7.20712123
_cell_angle_alpha   60.09862977
_cell_angle_beta   60.09863690
_cell_angle_gamma   60.09863107
_symmetry_Int_Tables_number   1
_chemical_formula_structural   Yb3Dy(Rh2O7)2
_chemical_formula_sum   'Yb3 Dy1 Rh4 O14'
_cell_volume   265.30163638
_cell_formula_units_Z   1
loop_
 _symmetry_equiv_pos_site_id
 _symmetry_equiv_pos_as_xyz
  1  'x, y, z'
loop_
 _atom_site_type_symbol
 _atom_site_label
 _atom_site_symmetry_multiplicity
 _atom_site_fract_x
 _atom_site_fract_y
 _atom_site_fract_z
 _atom_site_occupancy
  Yb  Yb0  1  0.125000  0.625000  0.125000  1
  Yb  Yb1  1  0.125000  0.125000  0.625000  1
  Yb  Yb2  1  0.625000  0.125000  0.125000  1
  Dy  Dy3  1  0.125000  0.125000  0.125000  1
  Rh  Rh4  1  0.625000  0.625000  0.625000  1
  Rh  Rh5  1  0.125000  0.625000  0.625000  1
  Rh  Rh6  1  0.625000  0.125000  0.625000  1
  Rh  Rh7  1  0.625000  0.625000  0.125000  1
  O  O8  1  0.295740  0.703878  0.703878  1
  O  O9  1  0.540298  0.955468  0.955468  1
  O  O10  1  0.703878  0.295740  0.703878  1
  O  O11  1  0.294532  0.294532  0.709702  1
  O  O12  1  0.703878  0.703878  0.295740  1
  O  O13  1  0.002235  0.002235  0.002235  1
  O  O14  1  0.294532  0.709702  0.294532  1
  O  O15  1  0.955468  0.540298  0.955468  1
  O  O16  1  0.955468  0.955468  0.540298  1
  O  O17  1  0.546122  0.546122  0.954260  1
  O  O18  1  0.247765  0.247765  0.247765  1
  O  O19  1  0.546122  0.954260  0.546122  1
  O  O20  1  0.709702  0.294532  0.294532  1
  O  O21  1  0.954260  0.546122  0.546122  1
