# generated using pymatgen
data_Eu2Y(Si2Pd3)3
_symmetry_space_group_name_H-M   'P 1'
_cell_length_a   4.00672100
_cell_length_b   8.50681135
_cell_length_c   9.96623245
_cell_angle_alpha   107.81007841
_cell_angle_beta   90.00000000
_cell_angle_gamma   103.62113896
_symmetry_Int_Tables_number   1
_chemical_formula_structural   Eu2Y(Si2Pd3)3
_chemical_formula_sum   'Eu2 Y1 Si6 Pd9'
_cell_volume   313.36354866
_cell_formula_units_Z   1
loop_
 _symmetry_equiv_pos_site_id
 _symmetry_equiv_pos_as_xyz
  1  'x, y, z'
loop_
 _atom_site_type_symbol
 _atom_site_label
 _atom_site_symmetry_multiplicity
 _atom_site_fract_x
 _atom_site_fract_y
 _atom_site_fract_z
 _atom_site_occupancy
  Eu  Eu0  1  0.844902  0.689804  0.302234  1
  Eu  Eu1  1  0.155098  0.310196  0.697766  1
  Y  Y2  1  0.000000  0.000000  0.000000  1
  Si  Si3  1  0.801388  0.602777  0.868726  1
  Si  Si4  1  0.198612  0.397223  0.131274  1
  Si  Si5  1  0.536125  0.072252  0.780136  1
  Si  Si6  1  0.463875  0.927748  0.219864  1
  Si  Si7  1  0.637348  0.274697  0.449354  1
  Si  Si8  1  0.362652  0.725303  0.550646  1
  Pd  Pd9  1  0.958692  0.917384  0.672906  1
  Pd  Pd10  1  0.041308  0.082616  0.327094  1
  Pd  Pd11  1  0.780738  0.561476  0.607452  1
  Pd  Pd12  1  0.219262  0.438524  0.392548  1
  Pd  Pd13  1  0.379447  0.758893  0.802062  1
  Pd  Pd14  1  0.620553  0.241107  0.197938  1
  Pd  Pd15  1  0.500000  0.000000  0.500000  1
  Pd  Pd16  1  0.679072  0.358143  0.966126  1
  Pd  Pd17  1  0.320928  0.641857  0.033874  1
