# generated using pymatgen
data_La13Pr3Cd3Co3TcHg
_symmetry_space_group_name_H-M   'P 1'
_cell_length_a   10.01471014
_cell_length_b   9.94062326
_cell_length_c   9.95118200
_cell_angle_alpha   59.96485712
_cell_angle_beta   60.20961981
_cell_angle_gamma   60.22719128
_symmetry_Int_Tables_number   1
_chemical_formula_structural   La13Pr3Cd3Co3TcHg
_chemical_formula_sum   'La13 Pr3 Cd3 Co3 Tc1 Hg1'
_cell_volume   702.62119957
_cell_formula_units_Z   1
loop_
 _symmetry_equiv_pos_site_id
 _symmetry_equiv_pos_as_xyz
  1  'x, y, z'
loop_
 _atom_site_type_symbol
 _atom_site_label
 _atom_site_symmetry_multiplicity
 _atom_site_fract_x
 _atom_site_fract_y
 _atom_site_fract_z
 _atom_site_occupancy
  La  La0  1  0.680769  0.694252  0.312490  1
  La  La1  1  0.161466  0.151883  0.534616  1
  La  La2  1  0.305622  0.692938  0.691107  1
  La  La3  1  0.161466  0.151883  0.152033  1
  La  La4  1  0.539817  0.152377  0.153902  1
  La  La5  1  0.305622  0.692938  0.310333  1
  La  La6  1  0.306726  0.309570  0.691852  1
  La  La7  1  0.683256  0.311717  0.691801  1
  La  La8  1  0.934324  0.558047  0.558991  1
  La  La9  1  0.558419  0.559640  0.940971  1
  La  La10  1  0.159996  0.537429  0.151286  1
  La  La11  1  0.683256  0.311717  0.313228  1
  La  La12  1  0.934324  0.558047  0.948636  1
  Pr  Pr13  1  0.933082  0.942420  0.562248  1
  Pr  Pr14  1  0.560721  0.938994  0.563221  1
  Pr  Pr15  1  0.560721  0.938994  0.937064  1
  Cd  Cd16  1  0.920621  0.922468  0.920542  1
  Cd  Cd17  1  0.920621  0.922468  0.236369  1
  Cd  Cd18  1  0.921656  0.235540  0.921401  1
  Co  Co19  1  0.371090  0.357682  0.915838  1
  Co  Co20  1  0.368484  0.916630  0.357443  1
  Co  Co21  1  0.371090  0.357682  0.355390  1
  Tc  Tc22  1  0.908536  0.367400  0.362032  1
  Hg  Hg23  1  0.248313  0.917282  0.917201  1
