# generated using pymatgen
data_Nd12Si7Ni4Pt
_symmetry_space_group_name_H-M   'P 1'
_cell_length_a   4.19500100
_cell_length_b   11.79342658
_cell_length_c   11.76040332
_cell_angle_alpha   89.66866864
_cell_angle_beta   90.00000000
_cell_angle_gamma   90.00000000
_symmetry_Int_Tables_number   1
_chemical_formula_structural   Nd12Si7Ni4Pt
_chemical_formula_sum   'Nd12 Si7 Ni4 Pt1'
_cell_volume   581.81783624
_cell_formula_units_Z   1
loop_
 _symmetry_equiv_pos_site_id
 _symmetry_equiv_pos_as_xyz
  1  'x, y, z'
loop_
 _atom_site_type_symbol
 _atom_site_label
 _atom_site_symmetry_multiplicity
 _atom_site_fract_x
 _atom_site_fract_y
 _atom_site_fract_z
 _atom_site_occupancy
  Nd  Nd0  1  0.250000  0.376680  0.058266  1
  Nd  Nd1  1  0.750000  0.623680  0.940070  1
  Nd  Nd2  1  0.750000  0.876941  0.440051  1
  Nd  Nd3  1  0.250000  0.123066  0.561218  1
  Nd  Nd4  1  0.250000  0.700184  0.213046  1
  Nd  Nd5  1  0.750000  0.305393  0.787072  1
  Nd  Nd6  1  0.750000  0.197899  0.288579  1
  Nd  Nd7  1  0.250000  0.799049  0.712699  1
  Nd  Nd8  1  0.250000  0.443125  0.382841  1
  Nd  Nd9  1  0.750000  0.555104  0.619315  1
  Nd  Nd10  1  0.750000  0.943677  0.116152  1
  Nd  Nd11  1  0.250000  0.057518  0.882950  1
  Si  Si12  1  0.250000  0.686514  0.470378  1
  Si  Si13  1  0.750000  0.313397  0.527993  1
  Si  Si14  1  0.750000  0.186119  0.030335  1
  Si  Si15  1  0.250000  0.817134  0.971115  1
  Si  Si16  1  0.250000  0.010154  0.300577  1
  Si  Si17  1  0.750000  0.987030  0.698650  1
  Si  Si18  1  0.750000  0.513332  0.199286  1
  Ni  Ni19  1  0.250000  0.133534  0.129368  1
  Ni  Ni20  1  0.750000  0.864784  0.868698  1
  Ni  Ni21  1  0.750000  0.635149  0.370882  1
  Ni  Ni22  1  0.250000  0.361033  0.618880  1
  Pt  Pt23  1  0.250000  0.489504  0.811580  1
