# generated using pymatgen
data_Dy20Ir10OsRh
_symmetry_space_group_name_H-M   'P 1'
_cell_length_a   10.87214200
_cell_length_b   10.87214200
_cell_length_c   6.40462000
_cell_angle_alpha   90.00000000
_cell_angle_beta   90.00000000
_cell_angle_gamma   90.00000000
_symmetry_Int_Tables_number   1
_chemical_formula_structural   Dy20Ir10OsRh
_chemical_formula_sum   'Dy20 Ir10 Os1 Rh1'
_cell_volume   757.04831872
_cell_formula_units_Z   1
loop_
 _symmetry_equiv_pos_site_id
 _symmetry_equiv_pos_as_xyz
  1  'x, y, z'
loop_
 _atom_site_type_symbol
 _atom_site_label
 _atom_site_symmetry_multiplicity
 _atom_site_fract_x
 _atom_site_fract_y
 _atom_site_fract_z
 _atom_site_occupancy
  Dy  Dy0  1  0.292438  0.087448  0.376598  1
  Dy  Dy1  1  0.292898  0.912558  0.880418  1
  Dy  Dy2  1  0.707102  0.087442  0.880418  1
  Dy  Dy3  1  0.707562  0.912552  0.376598  1
  Dy  Dy4  1  0.587442  0.792898  0.880418  1
  Dy  Dy5  1  0.587448  0.207562  0.376598  1
  Dy  Dy6  1  0.412552  0.792438  0.376598  1
  Dy  Dy7  1  0.412558  0.207102  0.880418  1
  Dy  Dy8  1  0.209225  0.411449  0.620408  1
  Dy  Dy9  1  0.209324  0.588445  0.121789  1
  Dy  Dy10  1  0.790676  0.411555  0.121789  1
  Dy  Dy11  1  0.790775  0.588551  0.620408  1
  Dy  Dy12  1  0.911555  0.709324  0.121789  1
  Dy  Dy13  1  0.911449  0.290775  0.620408  1
  Dy  Dy14  1  0.088551  0.709225  0.620408  1
  Dy  Dy15  1  0.088445  0.290676  0.121789  1
  Dy  Dy16  1  0.000000  0.000000  0.499326  1
  Dy  Dy17  1  0.000000  0.000000  0.999230  1
  Dy  Dy18  1  0.500000  0.500000  0.999230  1
  Dy  Dy19  1  0.500000  0.500000  0.499326  1
  Ir  Ir20  1  0.847625  0.154164  0.250428  1
  Ir  Ir21  1  0.847717  0.846048  0.750145  1
  Ir  Ir22  1  0.152283  0.153952  0.750145  1
  Ir  Ir23  1  0.152375  0.845836  0.250428  1
  Ir  Ir24  1  0.653952  0.347717  0.750145  1
  Ir  Ir25  1  0.654164  0.652375  0.250428  1
  Ir  Ir26  1  0.345836  0.347625  0.250428  1
  Ir  Ir27  1  0.346048  0.652283  0.750145  1
  Ir  Ir28  1  0.500000  0.000000  0.624067  1
  Ir  Ir29  1  0.000000  0.500000  0.377078  1
  Os  Os30  1  0.500000  0.000000  0.125704  1
  Rh  Rh31  1  0.000000  0.500000  0.876889  1
