# generated using pymatgen
data_TbCe(Al3Ir)3
_symmetry_space_group_name_H-M   'P 1'
_cell_length_a   7.60304647
_cell_length_b   7.59973756
_cell_length_c   9.48927800
_cell_angle_alpha   90.00000000
_cell_angle_beta   90.00000000
_cell_angle_gamma   119.61203776
_symmetry_Int_Tables_number   1
_chemical_formula_structural   TbCe(Al3Ir)3
_chemical_formula_sum   'Tb2 Ce2 Al18 Ir6'
_cell_volume   476.68843645
_cell_formula_units_Z   2
loop_
 _symmetry_equiv_pos_site_id
 _symmetry_equiv_pos_as_xyz
  1  'x, y, z'
loop_
 _atom_site_type_symbol
 _atom_site_label
 _atom_site_symmetry_multiplicity
 _atom_site_fract_x
 _atom_site_fract_y
 _atom_site_fract_z
 _atom_site_occupancy
  Tb  Tb0  1  0.670145  0.995759  0.250000  1
  Tb  Tb1  1  0.329855  0.004241  0.750000  1
  Ce  Ce2  1  0.995716  0.669668  0.250000  1
  Ce  Ce3  1  0.004284  0.330332  0.750000  1
  Al  Al4  1  0.128101  0.127969  0.250000  1
  Al  Al5  1  0.871899  0.872031  0.750000  1
  Al  Al6  1  0.001103  0.333228  0.075363  1
  Al  Al7  1  0.998897  0.666772  0.924637  1
  Al  Al8  1  0.998897  0.666772  0.575363  1
  Al  Al9  1  0.336207  0.002211  0.425800  1
  Al  Al10  1  0.001103  0.333228  0.424637  1
  Al  Al11  1  0.663793  0.997789  0.574200  1
  Al  Al12  1  0.663793  0.997789  0.925800  1
  Al  Al13  1  0.336207  0.002211  0.074200  1
  Al  Al14  1  0.334958  0.333648  0.552732  1
  Al  Al15  1  0.665042  0.666352  0.447268  1
  Al  Al16  1  0.665042  0.666352  0.052732  1
  Al  Al17  1  0.334958  0.333648  0.947268  1
  Al  Al18  1  0.340062  0.547574  0.250000  1
  Al  Al19  1  0.659938  0.452426  0.750000  1
  Al  Al20  1  0.546147  0.338421  0.250000  1
  Al  Al21  1  0.453853  0.661579  0.750000  1
  Ir  Ir22  1  0.672285  0.328627  0.999921  1
  Ir  Ir23  1  0.327715  0.671373  0.000079  1
  Ir  Ir24  1  0.327715  0.671373  0.499921  1
  Ir  Ir25  1  0.672285  0.328627  0.500079  1
  Ir  Ir26  1  0.000000  0.000000  0.000000  1
  Ir  Ir27  1  0.000000  0.000000  0.500000  1
