# generated using pymatgen
data_V11Si10Tc
_symmetry_space_group_name_H-M   'P 1'
_cell_length_a   4.83539951
_cell_length_b   7.49391680
_cell_length_c   9.14941770
_cell_angle_alpha   65.66220347
_cell_angle_beta   105.32216245
_cell_angle_gamma   90.00000500
_symmetry_Int_Tables_number   1
_chemical_formula_structural   V11Si10Tc
_chemical_formula_sum   'V11 Si10 Tc1'
_cell_volume   289.09269929
_cell_formula_units_Z   1
loop_
 _symmetry_equiv_pos_site_id
 _symmetry_equiv_pos_as_xyz
  1  'x, y, z'
loop_
 _atom_site_type_symbol
 _atom_site_label
 _atom_site_symmetry_multiplicity
 _atom_site_fract_x
 _atom_site_fract_y
 _atom_site_fract_z
 _atom_site_occupancy
  V  V0  1  0.065653  0.679963  0.131306  1
  V  V1  1  0.644523  0.738813  0.289046  1
  V  V2  1  0.146906  0.963762  0.293811  1
  V  V3  1  0.437517  0.312235  0.380703  1
  V  V4  1  0.943187  0.312235  0.380703  1
  V  V5  1  0.058033  0.690677  0.619851  1
  V  V6  1  0.561818  0.690677  0.619851  1
  V  V7  1  0.856466  0.027399  0.712932  1
  V  V8  1  0.356031  0.258645  0.712063  1
  V  V9  1  0.932962  0.322183  0.865925  1
  V  V10  1  0.435586  0.812443  0.871172  1
  Si  Si11  1  0.247581  0.999799  0.998536  1
  Si  Si12  1  0.750956  0.999799  0.998536  1
  Si  Si13  1  0.063814  0.342840  0.127629  1
  Si  Si14  1  0.563877  0.525995  0.127754  1
  Si  Si15  1  0.214146  0.584473  0.428293  1
  Si  Si16  1  0.713463  0.990179  0.426925  1
  Si  Si17  1  0.286511  0.010946  0.573021  1
  Si  Si18  1  0.786030  0.415950  0.572059  1
  Si  Si19  1  0.435106  0.477964  0.870214  1
  Si  Si20  1  0.936604  0.653534  0.873206  1
  Tc  Tc21  1  0.563230  0.189489  0.126459  1
