# generated using pymatgen
data_Sr2AgPd2
_symmetry_space_group_name_H-M   'P 1'
_cell_length_a   5.88199700
_cell_length_b   5.95386358
_cell_length_c   8.55517308
_cell_angle_alpha   102.57654271
_cell_angle_beta   90.00000000
_cell_angle_gamma   119.60149977
_symmetry_Int_Tables_number   1
_chemical_formula_structural   Sr2AgPd2
_chemical_formula_sum   'Sr4 Ag2 Pd4'
_cell_volume   252.20225092
_cell_formula_units_Z   2
loop_
 _symmetry_equiv_pos_site_id
 _symmetry_equiv_pos_as_xyz
  1  'x, y, z'
loop_
 _atom_site_type_symbol
 _atom_site_label
 _atom_site_symmetry_multiplicity
 _atom_site_fract_x
 _atom_site_fract_y
 _atom_site_fract_z
 _atom_site_occupancy
  Sr  Sr0  1  0.791379  0.297593  0.149365  1
  Sr  Sr1  1  0.493786  0.702408  0.350635  1
  Sr  Sr2  1  0.506215  0.297593  0.649365  1
  Sr  Sr3  1  0.208622  0.702408  0.850635  1
  Ag  Ag4  1  0.147413  0.000000  0.250000  1
  Ag  Ag5  1  0.852587  0.000000  0.750000  1
  Pd  Pd6  1  0.272394  0.269250  0.003189  1
  Pd  Pd7  1  0.003143  0.730748  0.496810  1
  Pd  Pd8  1  0.996856  0.269251  0.503190  1
  Pd  Pd9  1  0.727605  0.730749  0.996811  1
