# generated using pymatgen
data_ZrNp8Se17
_symmetry_space_group_name_H-M   'P 1'
_cell_length_a   8.24937956
_cell_length_b   8.24937793
_cell_length_c   11.01132203
_cell_angle_alpha   80.80680113
_cell_angle_beta   80.80680105
_cell_angle_gamma   65.48730843
_symmetry_Int_Tables_number   1
_chemical_formula_structural   ZrNp8Se17
_chemical_formula_sum   'Zr1 Np8 Se17'
_cell_volume   669.39359516
_cell_formula_units_Z   1
loop_
 _symmetry_equiv_pos_site_id
 _symmetry_equiv_pos_as_xyz
  1  'x, y, z'
loop_
 _atom_site_type_symbol
 _atom_site_label
 _atom_site_symmetry_multiplicity
 _atom_site_fract_x
 _atom_site_fract_y
 _atom_site_fract_z
 _atom_site_occupancy
  Zr  Zr0  1  0.000000  0.000000  0.000000  1
  Np  Np1  1  0.793367  0.793367  0.461149  1
  Np  Np2  1  0.206633  0.206633  0.538851  1
  Np  Np3  1  0.698400  0.183259  0.697494  1
  Np  Np4  1  0.183259  0.698400  0.697494  1
  Np  Np5  1  0.816741  0.301600  0.302506  1
  Np  Np6  1  0.678523  0.678523  0.981957  1
  Np  Np7  1  0.321477  0.321477  0.018043  1
  Np  Np8  1  0.301600  0.816741  0.302506  1
  Se  Se9  1  0.478887  0.478887  0.169418  1
  Se  Se10  1  0.695963  0.695963  0.247691  1
  Se  Se11  1  0.568757  0.175871  0.464818  1
  Se  Se12  1  0.058736  0.668569  0.964489  1
  Se  Se13  1  0.210432  0.210432  0.277749  1
  Se  Se14  1  0.431243  0.824129  0.535182  1
  Se  Se15  1  0.521113  0.521113  0.830582  1
  Se  Se16  1  0.668569  0.058736  0.964489  1
  Se  Se17  1  0.935734  0.935734  0.236295  1
  Se  Se18  1  0.064266  0.064266  0.763705  1
  Se  Se19  1  0.304037  0.304037  0.752309  1
  Se  Se20  1  0.331431  0.941264  0.035511  1
  Se  Se21  1  0.824129  0.431243  0.535182  1
  Se  Se22  1  0.941264  0.331431  0.035511  1
  Se  Se23  1  0.175871  0.568757  0.464818  1
  Se  Se24  1  0.000000  0.000000  0.500000  1
  Se  Se25  1  0.789568  0.789568  0.722251  1
