# generated using pymatgen
data_SrLa(CuH4)2
_symmetry_space_group_name_H-M   'P 1'
_cell_length_a   6.40090874
_cell_length_b   6.40090796
_cell_length_c   5.07207900
_cell_angle_alpha   90.00000000
_cell_angle_beta   90.00000000
_cell_angle_gamma   144.75930482
_symmetry_Int_Tables_number   1
_chemical_formula_structural   SrLa(CuH4)2
_chemical_formula_sum   'Sr1 La1 Cu2 H8'
_cell_volume   119.90974893
_cell_formula_units_Z   1
loop_
 _symmetry_equiv_pos_site_id
 _symmetry_equiv_pos_as_xyz
  1  'x, y, z'
loop_
 _atom_site_type_symbol
 _atom_site_label
 _atom_site_symmetry_multiplicity
 _atom_site_fract_x
 _atom_site_fract_y
 _atom_site_fract_z
 _atom_site_occupancy
  Sr  Sr0  1  0.866823  0.133178  0.750001  1
  La  La1  1  0.129882  0.870119  0.250000  1
  Cu  Cu2  1  0.404182  0.595820  0.250000  1
  Cu  Cu3  1  0.595575  0.404427  0.750001  1
  H  H4  1  0.502325  0.497677  0.004389  1
  H  H5  1  0.305321  0.694680  0.018322  1
  H  H6  1  0.922217  0.077785  0.250000  1
  H  H7  1  0.305321  0.694680  0.481677  1
  H  H8  1  0.502325  0.497677  0.495610  1
  H  H9  1  0.687637  0.312364  0.500489  1
  H  H10  1  0.090764  0.909238  0.750001  1
  H  H11  1  0.687637  0.312364  0.999511  1
