# generated using pymatgen
data_Er11TmTc3Ni
_symmetry_space_group_name_H-M   'P 1'
_cell_length_a   6.21572900
_cell_length_b   7.28942406
_cell_length_c   9.08790200
_cell_angle_alpha   90.00116596
_cell_angle_beta   89.99715560
_cell_angle_gamma   90.17302098
_symmetry_Int_Tables_number   1
_chemical_formula_structural   Er11TmTc3Ni
_chemical_formula_sum   'Er11 Tm1 Tc3 Ni1'
_cell_volume   411.76264229
_cell_formula_units_Z   1
loop_
 _symmetry_equiv_pos_site_id
 _symmetry_equiv_pos_as_xyz
  1  'x, y, z'
loop_
 _atom_site_type_symbol
 _atom_site_label
 _atom_site_symmetry_multiplicity
 _atom_site_fract_x
 _atom_site_fract_y
 _atom_site_fract_z
 _atom_site_occupancy
  Er  Er0  1  0.163203  0.176723  0.437458  1
  Er  Er1  1  0.665974  0.322953  0.562510  1
  Er  Er2  1  0.834825  0.823434  0.938656  1
  Er  Er3  1  0.665965  0.322956  0.937495  1
  Er  Er4  1  0.834825  0.823434  0.561351  1
  Er  Er5  1  0.329281  0.677603  0.433570  1
  Er  Er6  1  0.163213  0.176728  0.062533  1
  Er  Er7  1  0.872151  0.540339  0.249995  1
  Er  Er8  1  0.623288  0.039742  0.249995  1
  Er  Er9  1  0.139918  0.458000  0.750008  1
  Er  Er10  1  0.373795  0.957959  0.750005  1
  Tm  Tm11  1  0.329281  0.677596  0.066432  1
  Tc  Tc12  1  0.037436  0.885333  0.249993  1
  Tc  Tc13  1  0.461111  0.387745  0.249996  1
  Tc  Tc14  1  0.961437  0.113594  0.750001  1
  Ni  Ni15  1  0.544296  0.615862  0.750003  1
