# generated using pymatgen
data_Ta3VRe2Si3
_symmetry_space_group_name_H-M   'P 1'
_cell_length_a   7.61275109
_cell_length_b   7.61275162
_cell_length_c   7.61275231
_cell_angle_alpha   126.58492393
_cell_angle_beta   128.63495686
_cell_angle_gamma   77.26923832
_symmetry_Int_Tables_number   1
_chemical_formula_structural   Ta3VRe2Si3
_chemical_formula_sum   'Ta6 V2 Re4 Si6'
_cell_volume   268.50795742
_cell_formula_units_Z   2
loop_
 _symmetry_equiv_pos_site_id
 _symmetry_equiv_pos_as_xyz
  1  'x, y, z'
loop_
 _atom_site_type_symbol
 _atom_site_label
 _atom_site_symmetry_multiplicity
 _atom_site_fract_x
 _atom_site_fract_y
 _atom_site_fract_z
 _atom_site_occupancy
  Ta  Ta0  1  0.555466  0.098129  0.042665  1
  Ta  Ta1  1  0.444534  0.487199  0.542665  1
  Ta  Ta2  1  0.945869  0.487566  0.041698  1
  Ta  Ta3  1  0.054131  0.095829  0.541698  1
  Ta  Ta4  1  0.750702  0.909449  0.658747  1
  Ta  Ta5  1  0.249298  0.908045  0.158747  1
  V  V6  1  0.500000  0.240197  0.740197  1
  V  V7  1  0.000000  0.240197  0.240197  1
  Re  Re8  1  0.129827  0.755087  0.627714  1
  Re  Re9  1  0.870173  0.497887  0.625260  1
  Re  Re10  1  0.627373  0.755087  0.125260  1
  Re  Re11  1  0.372627  0.497887  0.127714  1
  Si  Si12  1  0.751047  0.494565  0.243518  1
  Si  Si13  1  0.248953  0.492471  0.743518  1
  Si  Si14  1  0.333656  0.828288  0.496669  1
  Si  Si15  1  0.666344  0.163013  0.494631  1
  Si  Si16  1  0.831618  0.828288  0.994631  1
  Si  Si17  1  0.168382  0.163013  0.996669  1
