# generated using pymatgen
data_Y3Pa(MoN2)4
_symmetry_space_group_name_H-M   'P 1'
_cell_length_a   3.22330200
_cell_length_b   5.69855646
_cell_length_c   10.74231153
_cell_angle_alpha   89.58187148
_cell_angle_beta   90.00000000
_cell_angle_gamma   90.00000000
_symmetry_Int_Tables_number   1
_chemical_formula_structural   Y3Pa(MoN2)4
_chemical_formula_sum   'Y3 Pa1 Mo4 N8'
_cell_volume   197.31133339
_cell_formula_units_Z   1
loop_
 _symmetry_equiv_pos_site_id
 _symmetry_equiv_pos_as_xyz
  1  'x, y, z'
loop_
 _atom_site_type_symbol
 _atom_site_label
 _atom_site_symmetry_multiplicity
 _atom_site_fract_x
 _atom_site_fract_y
 _atom_site_fract_z
 _atom_site_occupancy
  Y  Y0  1  0.250000  0.574227  0.643236  1
  Y  Y1  1  0.750000  0.924344  0.151463  1
  Y  Y2  1  0.750000  0.420351  0.352031  1
  Pa  Pa3  1  0.250000  0.075295  0.855078  1
  Mo  Mo4  1  0.250000  0.439854  0.096449  1
  Mo  Mo5  1  0.250000  0.930772  0.406086  1
  Mo  Mo6  1  0.750000  0.572228  0.901221  1
  Mo  Mo7  1  0.750000  0.063344  0.588786  1
  N  N8  1  0.250000  0.166148  0.248376  1
  N  N9  1  0.250000  0.665899  0.253185  1
  N  N10  1  0.750000  0.841563  0.753344  1
  N  N11  1  0.750000  0.322426  0.749458  1
  N  N12  1  0.250000  0.762413  0.995679  1
  N  N13  1  0.250000  0.254460  0.505552  1
  N  N14  1  0.750000  0.248749  0.005146  1
  N  N15  1  0.750000  0.737927  0.494908  1
