# generated using pymatgen
data_Dy3YRe5Ru3
_symmetry_space_group_name_H-M   'P 1'
_cell_length_a   5.33947649
_cell_length_b   5.20648324
_cell_length_c   9.13444114
_cell_angle_alpha   89.99510679
_cell_angle_beta   90.01891185
_cell_angle_gamma   119.03142661
_symmetry_Int_Tables_number   1
_chemical_formula_structural   Dy3YRe5Ru3
_chemical_formula_sum   'Dy3 Y1 Re5 Ru3'
_cell_volume   222.03029819
_cell_formula_units_Z   1
loop_
 _symmetry_equiv_pos_site_id
 _symmetry_equiv_pos_as_xyz
  1  'x, y, z'
loop_
 _atom_site_type_symbol
 _atom_site_label
 _atom_site_symmetry_multiplicity
 _atom_site_fract_x
 _atom_site_fract_y
 _atom_site_fract_z
 _atom_site_occupancy
  Dy  Dy0  1  0.328796  0.663989  0.435604  1
  Dy  Dy1  1  0.328797  0.663996  0.064173  1
  Dy  Dy2  1  0.668970  0.334527  0.937379  1
  Y  Y3  1  0.669134  0.334605  0.562842  1
  Re  Re4  1  0.170944  0.341969  0.750160  1
  Re  Re5  1  0.170629  0.833096  0.750180  1
  Re  Re6  1  0.656507  0.827870  0.750224  1
  Re  Re7  1  0.839317  0.666417  0.249905  1
  Re  Re8  1  0.838720  0.173653  0.249903  1
  Ru  Ru9  1  0.986409  0.991251  0.498013  1
  Ru  Ru10  1  0.986145  0.991272  0.001752  1
  Ru  Ru11  1  0.355635  0.177355  0.249868  1
