# generated using pymatgen
data_Lu4TiAlRe6
_symmetry_space_group_name_H-M   'P 1'
_cell_length_a   5.34646901
_cell_length_b   5.34675140
_cell_length_c   8.91858303
_cell_angle_alpha   90.00202748
_cell_angle_beta   90.00448858
_cell_angle_gamma   119.99639995
_symmetry_Int_Tables_number   1
_chemical_formula_structural   Lu4TiAlRe6
_chemical_formula_sum   'Lu4 Ti1 Al1 Re6'
_cell_volume   220.80011112
_cell_formula_units_Z   1
loop_
 _symmetry_equiv_pos_site_id
 _symmetry_equiv_pos_as_xyz
  1  'x, y, z'
loop_
 _atom_site_type_symbol
 _atom_site_label
 _atom_site_symmetry_multiplicity
 _atom_site_fract_x
 _atom_site_fract_y
 _atom_site_fract_z
 _atom_site_occupancy
  Lu  Lu0  1  0.666673  0.333355  0.569239  1
  Lu  Lu1  1  0.333327  0.666645  0.430761  1
  Lu  Lu2  1  0.333339  0.666681  0.064479  1
  Lu  Lu3  1  0.666661  0.333319  0.935521  1
  Ti  Ti4  1  0.000000  0.000000  0.500000  1
  Al  Al5  1  0.000000  0.000000  0.000000  1
  Re  Re6  1  0.169414  0.338773  0.750236  1
  Re  Re7  1  0.169410  0.830588  0.750253  1
  Re  Re8  1  0.661205  0.830590  0.750243  1
  Re  Re9  1  0.830586  0.661227  0.249764  1
  Re  Re10  1  0.830590  0.169412  0.249747  1
  Re  Re11  1  0.338795  0.169410  0.249757  1
