# generated using pymatgen
data_K2AsCl3F2
_symmetry_space_group_name_H-M   'P 1'
_cell_length_a   7.28481677
_cell_length_b   7.29289604
_cell_length_c   12.75271473
_cell_angle_alpha   84.52802659
_cell_angle_beta   78.85349633
_cell_angle_gamma   60.59785873
_symmetry_Int_Tables_number   1
_chemical_formula_structural   K2AsCl3F2
_chemical_formula_sum   'K6 As3 Cl9 F6'
_cell_volume   579.11670603
_cell_formula_units_Z   3
loop_
 _symmetry_equiv_pos_site_id
 _symmetry_equiv_pos_as_xyz
  1  'x, y, z'
loop_
 _atom_site_type_symbol
 _atom_site_label
 _atom_site_symmetry_multiplicity
 _atom_site_fract_x
 _atom_site_fract_y
 _atom_site_fract_z
 _atom_site_occupancy
  K  K0  1  0.305710  0.331922  0.089290  1
  K  K1  1  0.435902  0.337664  0.689223  1
  K  K2  1  0.101763  0.000524  0.681239  1
  K  K3  1  0.694290  0.668078  0.910710  1
  K  K4  1  0.564098  0.662336  0.310777  1
  K  K5  1  0.898237  0.999476  0.318761  1
  As  As6  1  0.202391  0.334203  0.391664  1
  As  As7  1  0.797609  0.665797  0.608336  1
  As  As8  1  0.000000  0.000000  0.000000  1
  Cl  Cl9  1  0.281940  0.785914  0.115112  1
  Cl  Cl10  1  0.184101  0.680453  0.498628  1
  Cl  Cl11  1  0.815899  0.319547  0.501372  1
  Cl  Cl12  1  0.857648  0.321570  0.114344  1
  Cl  Cl13  1  0.256529  0.103834  0.883764  1
  Cl  Cl14  1  0.718060  0.214086  0.884888  1
  Cl  Cl15  1  0.500000  0.000000  0.500000  1
  Cl  Cl16  1  0.743471  0.896166  0.116236  1
  Cl  Cl17  1  0.142352  0.678430  0.885656  1
  F  F18  1  0.567107  0.661961  0.695487  1
  F  F19  1  0.770070  0.869307  0.694363  1
  F  F20  1  0.020611  0.541152  0.308358  1
  F  F21  1  0.979389  0.458848  0.691642  1
  F  F22  1  0.229930  0.130693  0.305637  1
  F  F23  1  0.432893  0.338039  0.304513  1
