# generated using pymatgen
data_Nb12Fe5Si7C4
_symmetry_space_group_name_H-M   'P 1'
_cell_length_a   8.07446198
_cell_length_b   8.07446203
_cell_length_c   8.07446241
_cell_angle_alpha   60.35760277
_cell_angle_beta   60.35760340
_cell_angle_gamma   60.35760719
_symmetry_Int_Tables_number   1
_chemical_formula_structural   Nb12Fe5Si7C4
_chemical_formula_sum   'Nb12 Fe5 Si7 C4'
_cell_volume   375.25355606
_cell_formula_units_Z   1
loop_
 _symmetry_equiv_pos_site_id
 _symmetry_equiv_pos_as_xyz
  1  'x, y, z'
loop_
 _atom_site_type_symbol
 _atom_site_label
 _atom_site_symmetry_multiplicity
 _atom_site_fract_x
 _atom_site_fract_y
 _atom_site_fract_z
 _atom_site_occupancy
  Nb  Nb0  1  0.804459  0.804459  0.194725  1
  Nb  Nb1  1  0.194312  0.194312  0.805591  1
  Nb  Nb2  1  0.804459  0.194725  0.804459  1
  Nb  Nb3  1  0.194312  0.805591  0.194312  1
  Nb  Nb4  1  0.194725  0.804459  0.804459  1
  Nb  Nb5  1  0.805591  0.194312  0.194312  1
  Nb  Nb6  1  0.445427  0.445427  0.054629  1
  Nb  Nb7  1  0.054222  0.054222  0.447505  1
  Nb  Nb8  1  0.445427  0.054629  0.445427  1
  Nb  Nb9  1  0.054222  0.447505  0.054222  1
  Nb  Nb10  1  0.054629  0.445427  0.445427  1
  Nb  Nb11  1  0.447505  0.054222  0.054222  1
  Fe  Fe12  1  0.135774  0.618718  0.618718  1
  Fe  Fe13  1  0.618718  0.135774  0.618718  1
  Fe  Fe14  1  0.618718  0.618718  0.135774  1
  Fe  Fe15  1  0.624014  0.624014  0.624014  1
  Fe  Fe16  1  0.827863  0.827863  0.827863  1
  Si  Si17  1  0.749976  0.416478  0.416478  1
  Si  Si18  1  0.416478  0.749976  0.416478  1
  Si  Si19  1  0.416478  0.416478  0.749976  1
  Si  Si20  1  0.416105  0.416105  0.416105  1
  Si  Si21  1  0.508604  0.834155  0.834155  1
  Si  Si22  1  0.834155  0.508604  0.834155  1
  Si  Si23  1  0.834155  0.834155  0.508604  1
  C  C24  1  0.626193  0.124104  0.124104  1
  C  C25  1  0.124104  0.626193  0.124104  1
  C  C26  1  0.124104  0.124104  0.626193  1
  C  C27  1  0.125276  0.125276  0.125276  1
