# generated using pymatgen
data_Lu8Mn(B8Ir)3
_symmetry_space_group_name_H-M   'P 1'
_cell_length_a   3.56660500
_cell_length_b   9.03200301
_cell_length_c   11.39143535
_cell_angle_alpha   89.96621182
_cell_angle_beta   90.00000000
_cell_angle_gamma   90.00000000
_symmetry_Int_Tables_number   1
_chemical_formula_structural   Lu8Mn(B8Ir)3
_chemical_formula_sum   'Lu8 Mn1 B24 Ir3'
_cell_volume   366.95893099
_cell_formula_units_Z   1
loop_
 _symmetry_equiv_pos_site_id
 _symmetry_equiv_pos_as_xyz
  1  'x, y, z'
loop_
 _atom_site_type_symbol
 _atom_site_label
 _atom_site_symmetry_multiplicity
 _atom_site_fract_x
 _atom_site_fract_y
 _atom_site_fract_z
 _atom_site_occupancy
  Lu  Lu0  1  0.000000  0.325544  0.411985  1
  Lu  Lu1  1  0.000000  0.678785  0.580587  1
  Lu  Lu2  1  0.000000  0.815391  0.091403  1
  Lu  Lu3  1  0.000000  0.180561  0.913925  1
  Lu  Lu4  1  0.000000  0.937987  0.374182  1
  Lu  Lu5  1  0.000000  0.056307  0.624587  1
  Lu  Lu6  1  0.000000  0.447763  0.128951  1
  Lu  Lu7  1  0.000000  0.556789  0.874512  1
  Mn  Mn8  1  0.000000  0.637991  0.320631  1
  B  B9  1  0.500000  0.554014  0.432283  1
  B  B10  1  0.500000  0.447590  0.564448  1
  B  B11  1  0.500000  0.052710  0.065791  1
  B  B12  1  0.500000  0.946774  0.935298  1
  B  B13  1  0.500000  0.746928  0.418216  1
  B  B14  1  0.500000  0.250221  0.577591  1
  B  B15  1  0.500000  0.251262  0.079563  1
  B  B16  1  0.500000  0.749890  0.922077  1
  B  B17  1  0.500000  0.790399  0.266322  1
  B  B18  1  0.500000  0.206840  0.735795  1
  B  B19  1  0.500000  0.293529  0.235259  1
  B  B20  1  0.500000  0.707367  0.763932  1
  B  B21  1  0.500000  0.630946  0.186553  1
  B  B22  1  0.500000  0.368541  0.817342  1
  B  B23  1  0.500000  0.130657  0.316622  1
  B  B24  1  0.500000  0.868778  0.682341  1
  B  B25  1  0.500000  0.979356  0.213234  1
  B  B26  1  0.500000  0.020189  0.786390  1
  B  B27  1  0.500000  0.483836  0.288144  1
  B  B28  1  0.500000  0.520396  0.712653  1
  B  B29  1  0.500000  0.606891  0.029568  1
  B  B30  1  0.500000  0.393649  0.970949  1
  B  B31  1  0.500000  0.107053  0.470219  1
  B  B32  1  0.500000  0.892337  0.529379  1
  Ir  Ir33  1  0.000000  0.362319  0.678723  1
  Ir  Ir34  1  0.000000  0.137723  0.178824  1
  Ir  Ir35  1  0.000000  0.862691  0.821722  1
