# generated using pymatgen
data_Ba8Yb3Y9Pb16
_symmetry_space_group_name_H-M   'P 1'
_cell_length_a   8.27195500
_cell_length_b   8.80308424
_cell_length_c   16.74412500
_cell_angle_alpha   90.00000000
_cell_angle_beta   90.00000000
_cell_angle_gamma   89.84982032
_symmetry_Int_Tables_number   1
_chemical_formula_structural   Ba8Yb3Y9Pb16
_chemical_formula_sum   'Ba8 Yb3 Y9 Pb16'
_cell_volume   1219.28150623
_cell_formula_units_Z   1
loop_
 _symmetry_equiv_pos_site_id
 _symmetry_equiv_pos_as_xyz
  1  'x, y, z'
loop_
 _atom_site_type_symbol
 _atom_site_label
 _atom_site_symmetry_multiplicity
 _atom_site_fract_x
 _atom_site_fract_y
 _atom_site_fract_z
 _atom_site_occupancy
  Ba  Ba0  1  0.502527  0.677345  0.595192  1
  Ba  Ba1  1  0.004491  0.826239  0.906322  1
  Ba  Ba2  1  0.495435  0.322788  0.094024  1
  Ba  Ba3  1  0.995404  0.177959  0.406042  1
  Ba  Ba4  1  0.495435  0.322788  0.405976  1
  Ba  Ba5  1  0.995404  0.177959  0.093958  1
  Ba  Ba6  1  0.502527  0.677345  0.904808  1
  Ba  Ba7  1  0.004491  0.826239  0.593678  1
  Yb  Yb8  1  0.338158  0.995828  0.750000  1
  Yb  Yb9  1  0.162251  0.495128  0.250000  1
  Yb  Yb10  1  0.661757  0.004068  0.250000  1
  Y  Y11  1  0.673063  0.164347  0.623415  1
  Y  Y12  1  0.174354  0.332957  0.876317  1
  Y  Y13  1  0.327453  0.831807  0.123085  1
  Y  Y14  1  0.827756  0.666708  0.377116  1
  Y  Y15  1  0.327453  0.831807  0.376915  1
  Y  Y16  1  0.827756  0.666708  0.122884  1
  Y  Y17  1  0.673063  0.164347  0.876585  1
  Y  Y18  1  0.174354  0.332957  0.623683  1
  Y  Y19  1  0.839146  0.501483  0.750000  1
  Pb  Pb20  1  0.663651  0.955410  0.457892  1
  Pb  Pb21  1  0.163084  0.544001  0.041025  1
  Pb  Pb22  1  0.337450  0.044970  0.957908  1
  Pb  Pb23  1  0.836254  0.457632  0.545082  1
  Pb  Pb24  1  0.337450  0.044970  0.542092  1
  Pb  Pb25  1  0.836254  0.457632  0.954918  1
  Pb  Pb26  1  0.663651  0.955410  0.042108  1
  Pb  Pb27  1  0.163084  0.544001  0.458975  1
  Pb  Pb28  1  0.477686  0.369074  0.750000  1
  Pb  Pb29  1  0.972860  0.139609  0.750000  1
  Pb  Pb30  1  0.526742  0.634725  0.250000  1
  Pb  Pb31  1  0.025941  0.863666  0.250000  1
  Pb  Pb32  1  0.713541  0.873819  0.750000  1
  Pb  Pb33  1  0.202783  0.619931  0.750000  1
  Pb  Pb34  1  0.288167  0.116034  0.250000  1
  Pb  Pb35  1  0.789125  0.382313  0.250000  1
