# generated using pymatgen
data_Pr18Nd2Si15Pd
_symmetry_space_group_name_H-M   'P 1'
_cell_length_a   7.95213039
_cell_length_b   7.94525556
_cell_length_c   15.34133924
_cell_angle_alpha   89.95728599
_cell_angle_beta   89.66872102
_cell_angle_gamma   90.16853878
_symmetry_Int_Tables_number   1
_chemical_formula_structural   Pr18Nd2Si15Pd
_chemical_formula_sum   'Pr18 Nd2 Si15 Pd1'
_cell_volume   969.27134212
_cell_formula_units_Z   1
loop_
 _symmetry_equiv_pos_site_id
 _symmetry_equiv_pos_as_xyz
  1  'x, y, z'
loop_
 _atom_site_type_symbol
 _atom_site_label
 _atom_site_symmetry_multiplicity
 _atom_site_fract_x
 _atom_site_fract_y
 _atom_site_fract_z
 _atom_site_occupancy
  Pr  Pr0  1  0.808629  0.186359  0.751334  1
  Pr  Pr1  1  0.692167  0.688212  0.499089  1
  Pr  Pr2  1  0.374740  0.010316  0.447644  1
  Pr  Pr3  1  0.491997  0.871718  0.698570  1
  Pr  Pr4  1  0.509710  0.123755  0.197339  1
  Pr  Pr5  1  0.876223  0.488527  0.300302  1
  Pr  Pr6  1  0.122226  0.513491  0.801636  1
  Pr  Pr7  1  0.626491  0.988118  0.949454  1
  Pr  Pr8  1  0.002269  0.378224  0.550284  1
  Pr  Pr9  1  0.988896  0.625225  0.052002  1
  Pr  Pr10  1  0.133833  0.986609  0.876184  1
  Pr  Pr11  1  0.516880  0.630623  0.125969  1
  Pr  Pr12  1  0.478273  0.366739  0.627705  1
  Pr  Pr13  1  0.628284  0.517703  0.874420  1
  Pr  Pr14  1  0.371859  0.482887  0.373105  1
  Pr  Pr15  1  0.872238  0.019656  0.376249  1
  Pr  Pr16  1  0.982613  0.126997  0.124322  1
  Pr  Pr17  1  0.020000  0.873875  0.623338  1
  Nd  Nd18  1  0.307147  0.306981  0.998912  1
  Nd  Nd19  1  0.190128  0.808570  0.249819  1
  Si  Si20  1  0.332324  0.694961  0.951212  1
  Si  Si21  1  0.664151  0.303893  0.451670  1
  Si  Si22  1  0.697086  0.334705  0.049539  1
  Si  Si23  1  0.304984  0.668551  0.548171  1
  Si  Si24  1  0.805398  0.832365  0.202591  1
  Si  Si25  1  0.167975  0.196246  0.298173  1
  Si  Si26  1  0.835706  0.803504  0.798541  1
  Si  Si27  1  0.288053  0.922571  0.059795  1
  Si  Si28  1  0.577872  0.787388  0.309496  1
  Si  Si29  1  0.429419  0.208873  0.813698  1
  Si  Si30  1  0.786754  0.579190  0.690270  1
  Si  Si31  1  0.212669  0.422937  0.189951  1
  Si  Si32  1  0.706578  0.075890  0.558843  1
  Si  Si33  1  0.921946  0.289196  0.941601  1
  Si  Si34  1  0.079547  0.714384  0.440538  1
  Pd  Pd35  1  0.194934  0.170764  0.698232  1
