# generated using pymatgen
data_Dy3Er3Tm2(CdPt)2
_symmetry_space_group_name_H-M   'P 1'
_cell_length_a   9.61795220
_cell_length_b   9.61570743
_cell_length_c   9.61570626
_cell_angle_alpha   60.01544587
_cell_angle_beta   59.99227901
_cell_angle_gamma   59.99227666
_symmetry_Int_Tables_number   1
_chemical_formula_structural   Dy3Er3Tm2(CdPt)2
_chemical_formula_sum   'Dy6 Er6 Tm4 Cd4 Pt4'
_cell_volume   628.82529520
_cell_formula_units_Z   2
loop_
 _symmetry_equiv_pos_site_id
 _symmetry_equiv_pos_as_xyz
  1  'x, y, z'
loop_
 _atom_site_type_symbol
 _atom_site_label
 _atom_site_symmetry_multiplicity
 _atom_site_fract_x
 _atom_site_fract_y
 _atom_site_fract_z
 _atom_site_occupancy
  Dy  Dy0  1  0.935690  0.564310  0.564310  1
  Dy  Dy1  1  0.564310  0.935690  0.935690  1
  Dy  Dy2  1  0.564331  0.935669  0.564331  1
  Dy  Dy3  1  0.935669  0.564330  0.935669  1
  Dy  Dy4  1  0.564331  0.564331  0.935669  1
  Dy  Dy5  1  0.935669  0.935669  0.564330  1
  Er  Er6  1  0.351852  0.352206  0.352206  1
  Er  Er7  1  0.352206  0.351852  0.943737  1
  Er  Er8  1  0.352206  0.943737  0.351852  1
  Er  Er9  1  0.943737  0.352206  0.352206  1
  Er  Er10  1  0.811134  0.188866  0.188866  1
  Er  Er11  1  0.188866  0.811134  0.811134  1
  Tm  Tm12  1  0.188909  0.811091  0.188909  1
  Tm  Tm13  1  0.811091  0.188909  0.811091  1
  Tm  Tm14  1  0.188909  0.188909  0.811091  1
  Tm  Tm15  1  0.811091  0.811091  0.188909  1
  Cd  Cd16  1  0.581617  0.581568  0.581568  1
  Cd  Cd17  1  0.581568  0.581617  0.255246  1
  Cd  Cd18  1  0.581568  0.255246  0.581617  1
  Cd  Cd19  1  0.255246  0.581568  0.581568  1
  Pt  Pt20  1  0.143309  0.142821  0.142821  1
  Pt  Pt21  1  0.142821  0.143309  0.571051  1
  Pt  Pt22  1  0.142821  0.571051  0.143309  1
  Pt  Pt23  1  0.571051  0.142821  0.142821  1
