# generated using pymatgen
data_Ta7Ti2Si6W
_symmetry_space_group_name_H-M   'P 1'
_cell_length_a   7.52700364
_cell_length_b   7.51321492
_cell_length_c   7.52332264
_cell_angle_alpha   128.81182629
_cell_angle_beta   128.85785266
_cell_angle_gamma   75.22423661
_symmetry_Int_Tables_number   1
_chemical_formula_structural   Ta7Ti2Si6W
_chemical_formula_sum   'Ta7 Ti2 Si6 W1'
_cell_volume   251.37307623
_cell_formula_units_Z   1
loop_
 _symmetry_equiv_pos_site_id
 _symmetry_equiv_pos_as_xyz
  1  'x, y, z'
loop_
 _atom_site_type_symbol
 _atom_site_label
 _atom_site_symmetry_multiplicity
 _atom_site_fract_x
 _atom_site_fract_y
 _atom_site_fract_z
 _atom_site_occupancy
  Ta  Ta0  1  0.685082  0.514468  0.500247  1
  Ta  Ta1  1  0.514919  0.014589  0.829288  1
  Ta  Ta2  1  0.185138  0.685820  0.170706  1
  Ta  Ta3  1  0.986371  0.815930  0.501214  1
  Ta  Ta4  1  0.315724  0.484297  0.499525  1
  Ta  Ta5  1  0.483857  0.986103  0.170119  1
  Ta  Ta6  1  0.814497  0.315498  0.830017  1
  Ti  Ti7  1  0.014623  0.184248  0.498501  1
  Ti  Ti8  1  0.501535  0.500317  0.000946  1
  Si  Si9  1  0.750748  0.752547  0.003926  1
  Si  Si10  1  0.249175  0.251390  0.995947  1
  Si  Si11  1  0.366438  0.133643  0.503691  1
  Si  Si12  1  0.630170  0.867496  0.496503  1
  Si  Si13  1  0.868233  0.368727  0.238970  1
  Si  Si14  1  0.132817  0.625579  0.760831  1
  W  W15  1  0.000675  0.999349  0.999569  1
