# generated using pymatgen
data_TcRhF7
_symmetry_space_group_name_H-M   'P 1'
_cell_length_a   7.55319829
_cell_length_b   7.55319809
_cell_length_c   7.55319800
_cell_angle_alpha   122.56978275
_cell_angle_beta   121.10020679
_cell_angle_gamma   86.85501500
_symmetry_Int_Tables_number   1
_chemical_formula_structural   TcRhF7
_chemical_formula_sum   'Tc2 Rh2 F14'
_cell_volume   295.70251049
_cell_formula_units_Z   2
loop_
 _symmetry_equiv_pos_site_id
 _symmetry_equiv_pos_as_xyz
  1  'x, y, z'
loop_
 _atom_site_type_symbol
 _atom_site_label
 _atom_site_symmetry_multiplicity
 _atom_site_fract_x
 _atom_site_fract_y
 _atom_site_fract_z
 _atom_site_occupancy
  Tc  Tc0  1  0.000000  0.500000  0.500000  1
  Tc  Tc1  1  0.500000  0.000000  0.500000  1
  Rh  Rh2  1  0.500000  0.500000  0.500000  1
  Rh  Rh3  1  0.000000  0.500000  0.000000  1
  F  F4  1  0.043299  0.796887  0.753588  1
  F  F5  1  0.564455  0.824329  0.639126  1
  F  F6  1  0.185203  0.824329  0.259874  1
  F  F7  1  0.543299  0.789711  0.246412  1
  F  F8  1  0.250000  0.391917  0.141917  1
  F  F9  1  0.064455  0.425330  0.740126  1
  F  F10  1  0.685203  0.425330  0.360874  1
  F  F11  1  0.314797  0.574670  0.639126  1
  F  F12  1  0.935545  0.574670  0.259874  1
  F  F13  1  0.750000  0.608083  0.858083  1
  F  F14  1  0.456701  0.210289  0.753588  1
  F  F15  1  0.814797  0.175671  0.740126  1
  F  F16  1  0.435545  0.175671  0.360874  1
  F  F17  1  0.956701  0.203113  0.246412  1
