# generated using pymatgen
data_DyYMgNi7B2
_symmetry_space_group_name_H-M   'P 1'
_cell_length_a   5.01779798
_cell_length_b   5.01777825
_cell_length_c   14.18147100
_cell_angle_alpha   90.00000000
_cell_angle_beta   90.00000000
_cell_angle_gamma   119.99905290
_symmetry_Int_Tables_number   1
_chemical_formula_structural   DyYMgNi7B2
_chemical_formula_sum   'Dy2 Y2 Mg2 Ni14 B4'
_cell_volume   309.22934091
_cell_formula_units_Z   2
loop_
 _symmetry_equiv_pos_site_id
 _symmetry_equiv_pos_as_xyz
  1  'x, y, z'
loop_
 _atom_site_type_symbol
 _atom_site_label
 _atom_site_symmetry_multiplicity
 _atom_site_fract_x
 _atom_site_fract_y
 _atom_site_fract_z
 _atom_site_occupancy
  Dy  Dy0  1  0.666621  0.333366  0.755735  1
  Dy  Dy1  1  0.333379  0.666634  0.255735  1
  Y  Y2  1  0.666758  0.333284  0.529399  1
  Y  Y3  1  0.333242  0.666716  0.029399  1
  Mg  Mg4  1  0.333467  0.666660  0.468552  1
  Mg  Mg5  1  0.666533  0.333340  0.968552  1
  Ni  Ni6  1  0.834999  0.669890  0.351970  1
  Ni  Ni7  1  0.330121  0.165007  0.351978  1
  Ni  Ni8  1  0.999986  0.000017  0.999099  1
  Ni  Ni9  1  0.000014  0.999983  0.499099  1
  Ni  Ni10  1  0.833850  0.166194  0.147876  1
  Ni  Ni11  1  0.667535  0.833788  0.647847  1
  Ni  Ni12  1  0.166144  0.332395  0.647881  1
  Ni  Ni13  1  0.833856  0.667605  0.147881  1
  Ni  Ni14  1  0.332465  0.166212  0.147847  1
  Ni  Ni15  1  0.669879  0.834993  0.851978  1
  Ni  Ni16  1  0.165001  0.330110  0.851970  1
  Ni  Ni17  1  0.166150  0.833806  0.647876  1
  Ni  Ni18  1  0.165010  0.834992  0.851975  1
  Ni  Ni19  1  0.834990  0.165008  0.351975  1
  B  B20  1  0.666668  0.333325  0.250170  1
  B  B21  1  0.333332  0.666675  0.750170  1
  B  B22  1  0.999893  0.000019  0.747517  1
  B  B23  1  0.000107  0.999981  0.247517  1
