# generated using pymatgen
data_Ho3ErIn2HgAu3
_symmetry_space_group_name_H-M   'P 1'
_cell_length_a   8.03017713
_cell_length_b   8.03017699
_cell_length_c   3.72591100
_cell_angle_alpha   90.00000000
_cell_angle_beta   90.00000000
_cell_angle_gamma   89.89397301
_symmetry_Int_Tables_number   1
_chemical_formula_structural   Ho3ErIn2HgAu3
_chemical_formula_sum   'Ho3 Er1 In2 Hg1 Au3'
_cell_volume   240.26027844
_cell_formula_units_Z   1
loop_
 _symmetry_equiv_pos_site_id
 _symmetry_equiv_pos_as_xyz
  1  'x, y, z'
loop_
 _atom_site_type_symbol
 _atom_site_label
 _atom_site_symmetry_multiplicity
 _atom_site_fract_x
 _atom_site_fract_y
 _atom_site_fract_z
 _atom_site_occupancy
  Ho  Ho0  1  0.670610  0.170610  0.500000  1
  Ho  Ho1  1  0.165767  0.319385  0.500000  1
  Ho  Ho2  1  0.819385  0.665767  0.500000  1
  Er  Er3  1  0.339776  0.839776  0.500000  1
  In  In4  1  0.502570  0.498132  0.000000  1
  In  In5  1  0.998132  0.002570  0.000000  1
  Hg  Hg6  1  0.130036  0.630036  0.000000  1
  Au  Au7  1  0.871440  0.371440  0.000000  1
  Au  Au8  1  0.629740  0.872542  0.000000  1
  Au  Au9  1  0.372542  0.129740  0.000000  1
