# generated using pymatgen
data_Nb4Fe2PdSe12
_symmetry_space_group_name_H-M   'P 1'
_cell_length_a   7.32158871
_cell_length_b   7.32158898
_cell_length_c   19.57989314
_cell_angle_alpha   69.79678452
_cell_angle_beta   69.79678390
_cell_angle_gamma   26.76396103
_symmetry_Int_Tables_number   1
_chemical_formula_structural   Nb4Fe2PdSe12
_chemical_formula_sum   'Nb4 Fe2 Pd1 Se12'
_cell_volume   441.86517928
_cell_formula_units_Z   1
loop_
 _symmetry_equiv_pos_site_id
 _symmetry_equiv_pos_as_xyz
  1  'x, y, z'
loop_
 _atom_site_type_symbol
 _atom_site_label
 _atom_site_symmetry_multiplicity
 _atom_site_fract_x
 _atom_site_fract_y
 _atom_site_fract_z
 _atom_site_occupancy
  Nb  Nb0  1  0.622987  0.622987  0.849280  1
  Nb  Nb1  1  0.377013  0.377013  0.150720  1
  Nb  Nb2  1  0.746267  0.746267  0.591833  1
  Nb  Nb3  1  0.253733  0.253733  0.408167  1
  Fe  Fe4  1  0.229720  0.229720  0.715047  1
  Fe  Fe5  1  0.770280  0.770280  0.284953  1
  Pd  Pd6  1  0.000000  0.000000  0.000000  1
  Se  Se7  1  0.972215  0.972215  0.882495  1
  Se  Se8  1  0.027785  0.027785  0.117505  1
  Se  Se9  1  0.625048  0.625048  0.394557  1
  Se  Se10  1  0.374952  0.374952  0.605443  1
  Se  Se11  1  0.135089  0.135089  0.549805  1
  Se  Se12  1  0.864911  0.864911  0.450195  1
  Se  Se13  1  0.807634  0.807634  0.765252  1
  Se  Se14  1  0.192366  0.192366  0.234748  1
  Se  Se15  1  0.183156  0.183156  0.927691  1
  Se  Se16  1  0.816844  0.816844  0.072309  1
  Se  Se17  1  0.604960  0.604960  0.719721  1
  Se  Se18  1  0.395040  0.395040  0.280279  1
