# generated using pymatgen
data_Dy3HoCu5Ni9
_symmetry_space_group_name_H-M   'P 1'
_cell_length_a   4.99416973
_cell_length_b   4.99417091
_cell_length_c   12.38434557
_cell_angle_alpha   78.61021445
_cell_angle_beta   78.61021086
_cell_angle_gamma   60.20367309
_symmetry_Int_Tables_number   1
_chemical_formula_structural   Dy3HoCu5Ni9
_chemical_formula_sum   'Dy3 Ho1 Cu5 Ni9'
_cell_volume   260.97439318
_cell_formula_units_Z   1
loop_
 _symmetry_equiv_pos_site_id
 _symmetry_equiv_pos_as_xyz
  1  'x, y, z'
loop_
 _atom_site_type_symbol
 _atom_site_label
 _atom_site_symmetry_multiplicity
 _atom_site_fract_x
 _atom_site_fract_y
 _atom_site_fract_z
 _atom_site_occupancy
  Dy  Dy0  1  0.949994  0.949994  0.152236  1
  Dy  Dy1  1  0.050037  0.050037  0.847678  1
  Dy  Dy2  1  0.852035  0.852035  0.441318  1
  Ho  Ho3  1  0.147937  0.147937  0.558756  1
  Cu  Cu4  1  0.723975  0.723975  0.832960  1
  Cu  Cu5  1  0.276020  0.276020  0.167037  1
  Cu  Cu6  1  0.613659  0.613659  0.167553  1
  Cu  Cu7  1  0.386341  0.386341  0.832474  1
  Cu  Cu8  1  0.499998  0.499998  0.000008  1
  Ni  Ni9  1  0.499964  0.499964  0.500085  1
  Ni  Ni10  1  0.999991  0.499999  0.000011  1
  Ni  Ni11  1  0.499999  0.999991  0.000011  1
  Ni  Ni12  1  0.387672  0.387672  0.332284  1
  Ni  Ni13  1  0.890174  0.385972  0.333092  1
  Ni  Ni14  1  0.385972  0.890174  0.333092  1
  Ni  Ni15  1  0.612302  0.612302  0.667674  1
  Ni  Ni16  1  0.109939  0.613994  0.666865  1
  Ni  Ni17  1  0.613994  0.109939  0.666865  1
