# generated using pymatgen
data_Tb11YCo4CuBi
_symmetry_space_group_name_H-M   'P 1'
_cell_length_a   8.40999186
_cell_length_b   8.40999189
_cell_length_c   8.40420209
_cell_angle_alpha   111.35197901
_cell_angle_beta   109.71017895
_cell_angle_gamma   107.40499887
_symmetry_Int_Tables_number   1
_chemical_formula_structural   Tb11YCo4CuBi
_chemical_formula_sum   'Tb11 Y1 Co4 Cu1 Bi1'
_cell_volume   456.86677041
_cell_formula_units_Z   1
loop_
 _symmetry_equiv_pos_site_id
 _symmetry_equiv_pos_as_xyz
  1  'x, y, z'
loop_
 _atom_site_type_symbol
 _atom_site_label
 _atom_site_symmetry_multiplicity
 _atom_site_fract_x
 _atom_site_fract_y
 _atom_site_fract_z
 _atom_site_occupancy
  Tb  Tb0  1  0.183154  0.290749  0.473904  1
  Tb  Tb1  1  0.183095  0.709204  0.892300  1
  Tb  Tb2  1  0.816839  0.290798  0.107636  1
  Tb  Tb3  1  0.686267  0.377559  0.691297  1
  Tb  Tb4  1  0.313759  0.622461  0.308694  1
  Tb  Tb5  1  0.686233  0.994935  0.308694  1
  Tb  Tb6  1  0.313738  0.005030  0.691297  1
  Tb  Tb7  1  0.589037  0.790301  0.798777  1
  Tb  Tb8  1  0.410925  0.209709  0.201210  1
  Tb  Tb9  1  0.991501  0.790286  0.201210  1
  Tb  Tb10  1  0.008476  0.209738  0.798777  1
  Y  Y11  1  0.816609  0.709458  0.526066  1
  Co  Co12  1  0.623317  0.999838  0.623155  1
  Co  Co13  1  0.376691  0.000070  0.376761  1
  Co  Co14  1  0.112232  0.611996  0.500076  1
  Co  Co15  1  0.888080  0.387844  0.500076  1
  Cu  Cu16  1  0.999999  0.999987  0.999986  1
  Bi  Bi17  1  0.500050  0.500036  0.000086  1
