# generated using pymatgen
data_Tb12InCo3NiRh
_symmetry_space_group_name_H-M   'P 1'
_cell_length_a   8.35191137
_cell_length_b   8.35191068
_cell_length_c   8.35191118
_cell_angle_alpha   110.70860591
_cell_angle_beta   110.15306958
_cell_angle_gamma   107.56906598
_symmetry_Int_Tables_number   1
_chemical_formula_structural   Tb12InCo3NiRh
_chemical_formula_sum   'Tb12 In1 Co3 Ni1 Rh1'
_cell_volume   448.09228615
_cell_formula_units_Z   1
loop_
 _symmetry_equiv_pos_site_id
 _symmetry_equiv_pos_as_xyz
  1  'x, y, z'
loop_
 _atom_site_type_symbol
 _atom_site_label
 _atom_site_symmetry_multiplicity
 _atom_site_fract_x
 _atom_site_fract_y
 _atom_site_fract_z
 _atom_site_occupancy
  Tb  Tb0  1  0.405369  0.212824  0.192545  1
  Tb  Tb1  1  0.595103  0.788805  0.806299  1
  Tb  Tb2  1  0.017495  0.211195  0.806299  1
  Tb  Tb3  1  0.979720  0.787176  0.192545  1
  Tb  Tb4  1  0.184078  0.294507  0.478585  1
  Tb  Tb5  1  0.814548  0.706771  0.521319  1
  Tb  Tb6  1  0.184078  0.705493  0.889570  1
  Tb  Tb7  1  0.814548  0.293229  0.107778  1
  Tb  Tb8  1  0.317818  0.621519  0.307309  1
  Tb  Tb9  1  0.685790  0.378481  0.696298  1
  Tb  Tb10  1  0.317818  0.010510  0.696298  1
  Tb  Tb11  1  0.685790  0.989490  0.307309  1
  In  In12  1  0.499663  0.500000  0.999663  1
  Co  Co13  1  0.625595  0.000000  0.625595  1
  Co  Co14  1  0.112946  0.613127  0.499819  1
  Co  Co15  1  0.886693  0.386873  0.499819  1
  Ni  Ni16  1  0.372939  0.000000  0.372939  1
  Rh  Rh17  1  0.000011  0.000000  0.000011  1
