# generated using pymatgen
data_La8Mn3Si12Pt
_symmetry_space_group_name_H-M   'P 1'
_cell_length_a   8.31650800
_cell_length_b   8.31650733
_cell_length_c   8.73611500
_cell_angle_alpha   90.00000000
_cell_angle_beta   90.00000000
_cell_angle_gamma   119.99999472
_symmetry_Int_Tables_number   1
_chemical_formula_structural   La8Mn3Si12Pt
_chemical_formula_sum   'La8 Mn3 Si12 Pt1'
_cell_volume   523.27619877
_cell_formula_units_Z   1
loop_
 _symmetry_equiv_pos_site_id
 _symmetry_equiv_pos_as_xyz
  1  'x, y, z'
loop_
 _atom_site_type_symbol
 _atom_site_label
 _atom_site_symmetry_multiplicity
 _atom_site_fract_x
 _atom_site_fract_y
 _atom_site_fract_z
 _atom_site_occupancy
  La  La0  1  0.000000  0.000000  0.250221  1
  La  La1  1  0.000000  0.000000  0.749709  1
  La  La2  1  0.500414  0.499586  0.249312  1
  La  La3  1  0.500414  0.000830  0.249312  1
  La  La4  1  0.999170  0.499586  0.249312  1
  La  La5  1  0.499350  0.500650  0.750783  1
  La  La6  1  0.499350  0.998699  0.750783  1
  La  La7  1  0.001301  0.500650  0.750783  1
  Mn  Mn8  1  0.333333  0.666667  0.497360  1
  Mn  Mn9  1  0.666667  0.333333  0.503225  1
  Mn  Mn10  1  0.666667  0.333333  0.997305  1
  Si  Si11  1  0.168500  0.831500  0.500134  1
  Si  Si12  1  0.168500  0.337001  0.500134  1
  Si  Si13  1  0.662999  0.831500  0.500134  1
  Si  Si14  1  0.833992  0.166008  0.499880  1
  Si  Si15  1  0.833992  0.667983  0.499880  1
  Si  Si16  1  0.332017  0.166008  0.499880  1
  Si  Si17  1  0.831817  0.168183  0.000247  1
  Si  Si18  1  0.831817  0.663632  0.000247  1
  Si  Si19  1  0.336368  0.168183  0.000247  1
  Si  Si20  1  0.164460  0.835540  0.999724  1
  Si  Si21  1  0.164460  0.328921  0.999724  1
  Si  Si22  1  0.671079  0.835540  0.999724  1
  Pt  Pt23  1  0.333333  0.666667  0.001941  1
