# generated using pymatgen
data_YAl7Ag5
_symmetry_space_group_name_H-M   'P 1'
_cell_length_a   7.05949969
_cell_length_b   7.05949932
_cell_length_c   7.05949955
_cell_angle_alpha   133.76574497
_cell_angle_beta   100.10975248
_cell_angle_gamma   97.62877750
_symmetry_Int_Tables_number   1
_chemical_formula_structural   YAl7Ag5
_chemical_formula_sum   'Y1 Al7 Ag5'
_cell_volume   233.59996156
_cell_formula_units_Z   1
loop_
 _symmetry_equiv_pos_site_id
 _symmetry_equiv_pos_as_xyz
  1  'x, y, z'
loop_
 _atom_site_type_symbol
 _atom_site_label
 _atom_site_symmetry_multiplicity
 _atom_site_fract_x
 _atom_site_fract_y
 _atom_site_fract_z
 _atom_site_occupancy
  Y  Y0  1  0.001283  0.000000  0.001283  1
  Al  Al1  1  0.357308  0.000000  0.357308  1
  Al  Al2  1  0.650182  0.000000  0.650182  1
  Al  Al3  1  0.651398  0.647316  0.004082  1
  Al  Al4  1  0.356765  0.352684  0.004082  1
  Al  Al5  1  0.223027  0.500000  0.723027  1
  Al  Al6  1  0.204733  0.710355  0.494378  1
  Al  Al7  1  0.784023  0.289645  0.494378  1
  Ag  Ag8  1  0.486844  0.989383  0.995562  1
  Ag  Ag9  1  0.486844  0.491282  0.497461  1
  Ag  Ag10  1  0.006179  0.508718  0.995562  1
  Ag  Ag11  1  0.006179  0.010617  0.497461  1
  Ag  Ag12  1  0.785235  0.500000  0.285235  1
