# generated using pymatgen
data_KIn2(H6Ir)2
_symmetry_space_group_name_H-M   'P 1'
_cell_length_a   5.02412800
_cell_length_b   5.02412845
_cell_length_c   8.23195800
_cell_angle_alpha   90.00000000
_cell_angle_beta   90.00000000
_cell_angle_gamma   119.99999703
_symmetry_Int_Tables_number   1
_chemical_formula_structural   KIn2(H6Ir)2
_chemical_formula_sum   'K1 In2 H12 Ir2'
_cell_volume   179.95139612
_cell_formula_units_Z   1
loop_
 _symmetry_equiv_pos_site_id
 _symmetry_equiv_pos_as_xyz
  1  'x, y, z'
loop_
 _atom_site_type_symbol
 _atom_site_label
 _atom_site_symmetry_multiplicity
 _atom_site_fract_x
 _atom_site_fract_y
 _atom_site_fract_z
 _atom_site_occupancy
  K  K0  1  0.000000  0.000000  0.000000  1
  In  In1  1  0.666667  0.333333  0.371717  1
  In  In2  1  0.333333  0.666667  0.628283  1
  H  H3  1  0.156214  0.843786  0.367168  1
  H  H4  1  0.687573  0.843786  0.367168  1
  H  H5  1  0.156214  0.312427  0.367168  1
  H  H6  1  0.843786  0.156214  0.632832  1
  H  H7  1  0.312427  0.156214  0.632832  1
  H  H8  1  0.843786  0.687573  0.632832  1
  H  H9  1  0.523520  0.047039  0.847113  1
  H  H10  1  0.523520  0.476480  0.847113  1
  H  H11  1  0.952961  0.476480  0.847113  1
  H  H12  1  0.476480  0.952961  0.152887  1
  H  H13  1  0.476480  0.523520  0.152887  1
  H  H14  1  0.047039  0.523520  0.152887  1
  Ir  Ir15  1  0.666667  0.333333  0.713967  1
  Ir  Ir16  1  0.333333  0.666667  0.286033  1
