# generated using pymatgen
data_Cs4Ge23
_symmetry_space_group_name_H-M   'P 1'
_cell_length_a   11.10333000
_cell_length_b   11.10333000
_cell_length_c   11.10333000
_cell_angle_alpha   90.00000000
_cell_angle_beta   90.00000000
_cell_angle_gamma   90.00000000
_symmetry_Int_Tables_number   1
_chemical_formula_structural   Cs4Ge23
_chemical_formula_sum   'Cs8 Ge46'
_cell_volume   1368.86223720
_cell_formula_units_Z   2
loop_
 _symmetry_equiv_pos_site_id
 _symmetry_equiv_pos_as_xyz
  1  'x, y, z'
loop_
 _atom_site_type_symbol
 _atom_site_label
 _atom_site_symmetry_multiplicity
 _atom_site_fract_x
 _atom_site_fract_y
 _atom_site_fract_z
 _atom_site_occupancy
  Cs  Cs0  1  0.000000  0.000000  0.000000  1
  Cs  Cs1  1  0.500000  0.500000  0.500000  1
  Cs  Cs2  1  0.250000  0.500000  0.000000  1
  Cs  Cs3  1  0.750000  0.500000  0.000000  1
  Cs  Cs4  1  0.500000  0.000000  0.250000  1
  Cs  Cs5  1  0.500000  0.000000  0.750000  1
  Cs  Cs6  1  0.000000  0.750000  0.500000  1
  Cs  Cs7  1  0.000000  0.250000  0.500000  1
  Ge  Ge8  1  0.250000  0.000000  0.500000  1
  Ge  Ge9  1  0.750000  0.000000  0.500000  1
  Ge  Ge10  1  0.000000  0.500000  0.250000  1
  Ge  Ge11  1  0.000000  0.500000  0.750000  1
  Ge  Ge12  1  0.500000  0.750000  0.000000  1
  Ge  Ge13  1  0.500000  0.250000  0.000000  1
  Ge  Ge14  1  0.184993  0.184993  0.184993  1
  Ge  Ge15  1  0.684993  0.315007  0.684993  1
  Ge  Ge16  1  0.684993  0.684993  0.315007  1
  Ge  Ge17  1  0.315007  0.684993  0.684993  1
  Ge  Ge18  1  0.815007  0.815007  0.184993  1
  Ge  Ge19  1  0.184993  0.815007  0.815007  1
  Ge  Ge20  1  0.815007  0.184993  0.815007  1
  Ge  Ge21  1  0.315007  0.315007  0.315007  1
  Ge  Ge22  1  0.815007  0.815007  0.815007  1
  Ge  Ge23  1  0.315007  0.684993  0.315007  1
  Ge  Ge24  1  0.315007  0.315007  0.684993  1
  Ge  Ge25  1  0.684993  0.315007  0.315007  1
  Ge  Ge26  1  0.184993  0.184993  0.815007  1
  Ge  Ge27  1  0.815007  0.184993  0.184993  1
  Ge  Ge28  1  0.184993  0.815007  0.184993  1
  Ge  Ge29  1  0.684993  0.684993  0.684993  1
  Ge  Ge30  1  0.000000  0.306312  0.120084  1
  Ge  Ge31  1  0.500000  0.379916  0.806312  1
  Ge  Ge32  1  0.500000  0.620084  0.193688  1
  Ge  Ge33  1  0.620084  0.806312  0.500000  1
  Ge  Ge34  1  0.379916  0.806312  0.500000  1
  Ge  Ge35  1  0.193688  0.500000  0.620084  1
  Ge  Ge36  1  0.806312  0.500000  0.620084  1
  Ge  Ge37  1  0.120084  0.000000  0.306312  1
  Ge  Ge38  1  0.306312  0.120084  0.000000  1
  Ge  Ge39  1  0.693688  0.879916  0.000000  1
  Ge  Ge40  1  0.120084  0.000000  0.693688  1
  Ge  Ge41  1  0.693688  0.120084  0.000000  1
  Ge  Ge42  1  0.879916  0.000000  0.306312  1
  Ge  Ge43  1  0.879916  0.000000  0.693688  1
  Ge  Ge44  1  0.306312  0.879916  0.000000  1
  Ge  Ge45  1  0.000000  0.693688  0.879916  1
  Ge  Ge46  1  0.000000  0.306312  0.879916  1
  Ge  Ge47  1  0.000000  0.693688  0.120084  1
  Ge  Ge48  1  0.806312  0.500000  0.379916  1
  Ge  Ge49  1  0.193688  0.500000  0.379916  1
  Ge  Ge50  1  0.620084  0.193688  0.500000  1
  Ge  Ge51  1  0.379916  0.193688  0.500000  1
  Ge  Ge52  1  0.500000  0.620084  0.806312  1
  Ge  Ge53  1  0.500000  0.379916  0.193688  1
