# generated using pymatgen
data_NdGd(Zn9Cu2)2
_symmetry_space_group_name_H-M   'P 1'
_cell_length_a   8.21673578
_cell_length_b   8.21891157
_cell_length_c   8.21673600
_cell_angle_alpha   99.69976441
_cell_angle_beta   99.82231604
_cell_angle_gamma   131.35339892
_symmetry_Int_Tables_number   1
_chemical_formula_structural   NdGd(Zn9Cu2)2
_chemical_formula_sum   'Nd1 Gd1 Zn18 Cu4'
_cell_volume   379.60996788
_cell_formula_units_Z   1
loop_
 _symmetry_equiv_pos_site_id
 _symmetry_equiv_pos_as_xyz
  1  'x, y, z'
loop_
 _atom_site_type_symbol
 _atom_site_label
 _atom_site_symmetry_multiplicity
 _atom_site_fract_x
 _atom_site_fract_y
 _atom_site_fract_z
 _atom_site_occupancy
  Nd  Nd0  1  0.999999  0.999982  0.999984  1
  Gd  Gd1  1  0.250223  0.750318  0.500095  1
  Zn  Zn2  1  0.895819  0.569971  0.083017  1
  Zn  Zn3  1  0.429976  0.513000  0.325901  1
  Zn  Zn4  1  0.486953  0.569971  0.674152  1
  Zn  Zn5  1  0.429901  0.103997  0.916949  1
  Zn  Zn6  1  0.762087  0.179468  0.825346  1
  Zn  Zn7  1  0.487003  0.812792  0.916922  1
  Zn  Zn8  1  0.499925  0.499853  0.999928  1
  Zn  Zn9  1  0.762036  0.936705  0.582636  1
  Zn  Zn10  1  0.750044  0.250093  0.500050  1
  Zn  Zn11  1  0.063366  0.645974  0.825410  1
  Zn  Zn12  1  0.354123  0.179468  0.417383  1
  Zn  Zn13  1  0.820564  0.645974  0.582609  1
  Zn  Zn14  1  0.895870  0.812792  0.325790  1
  Zn  Zn15  1  0.187048  0.103997  0.674097  1
  Zn  Zn16  1  0.063312  0.237858  0.417373  1
  Zn  Zn17  1  0.354068  0.936705  0.174669  1
  Zn  Zn18  1  0.820487  0.237858  0.174548  1
  Zn  Zn19  1  0.187098  0.513000  0.083024  1
  Cu  Cu20  1  0.625475  0.875365  0.249890  1
  Cu  Cu21  1  0.124859  0.374814  0.750318  1
  Cu  Cu22  1  0.624497  0.374814  0.249955  1
  Cu  Cu23  1  0.625268  0.375226  0.749958  1
