# generated using pymatgen
data_Ho8CdHgRuPt
_symmetry_space_group_name_H-M   'P 1'
_cell_length_a   9.58445289
_cell_length_b   9.58445364
_cell_length_c   9.62675900
_cell_angle_alpha   59.85388323
_cell_angle_beta   59.85388063
_cell_angle_gamma   59.82421074
_symmetry_Int_Tables_number   1
_chemical_formula_structural   Ho8CdHgRuPt
_chemical_formula_sum   'Ho16 Cd2 Hg2 Ru2 Pt2'
_cell_volume   623.10227807
_cell_formula_units_Z   2
loop_
 _symmetry_equiv_pos_site_id
 _symmetry_equiv_pos_as_xyz
  1  'x, y, z'
loop_
 _atom_site_type_symbol
 _atom_site_label
 _atom_site_symmetry_multiplicity
 _atom_site_fract_x
 _atom_site_fract_y
 _atom_site_fract_z
 _atom_site_occupancy
  Ho  Ho0  1  0.600147  0.600147  0.602308  1
  Ho  Ho1  1  0.600147  0.600147  0.197400  1
  Ho  Ho2  1  0.597843  0.200759  0.600699  1
  Ho  Ho3  1  0.200759  0.597843  0.600699  1
  Ho  Ho4  1  0.064723  0.437933  0.440735  1
  Ho  Ho5  1  0.437933  0.064723  0.056608  1
  Ho  Ho6  1  0.437933  0.064723  0.440735  1
  Ho  Ho7  1  0.064723  0.437933  0.056608  1
  Ho  Ho8  1  0.437885  0.437885  0.062115  1
  Ho  Ho9  1  0.057143  0.057143  0.442857  1
  Ho  Ho10  1  0.186205  0.808821  0.816717  1
  Ho  Ho11  1  0.808821  0.186205  0.188258  1
  Ho  Ho12  1  0.808821  0.186205  0.816717  1
  Ho  Ho13  1  0.186205  0.808821  0.188258  1
  Ho  Ho14  1  0.813043  0.813043  0.186957  1
  Ho  Ho15  1  0.187708  0.187708  0.812292  1
  Cd  Cd16  1  0.831495  0.505273  0.831616  1
  Cd  Cd17  1  0.505273  0.831495  0.831616  1
  Hg  Hg18  1  0.833401  0.833401  0.836433  1
  Hg  Hg19  1  0.833401  0.833401  0.496765  1
  Ru  Ru20  1  0.394264  0.394264  0.388189  1
  Ru  Ru21  1  0.394264  0.394264  0.823283  1
  Pt  Pt22  1  0.394259  0.823607  0.391067  1
  Pt  Pt23  1  0.823607  0.394259  0.391067  1
