# generated using pymatgen
data_Zr15Ti(Ir2O)4
_symmetry_space_group_name_H-M   'P 1'
_cell_length_a   8.83151363
_cell_length_b   8.83151490
_cell_length_c   8.83151400
_cell_angle_alpha   59.67399944
_cell_angle_beta   59.67400212
_cell_angle_gamma   59.67399480
_symmetry_Int_Tables_number   1
_chemical_formula_structural   Zr15Ti(Ir2O)4
_chemical_formula_sum   'Zr15 Ti1 Ir8 O4'
_cell_volume   483.46166318
_cell_formula_units_Z   1
loop_
 _symmetry_equiv_pos_site_id
 _symmetry_equiv_pos_as_xyz
  1  'x, y, z'
loop_
 _atom_site_type_symbol
 _atom_site_label
 _atom_site_symmetry_multiplicity
 _atom_site_fract_x
 _atom_site_fract_y
 _atom_site_fract_z
 _atom_site_occupancy
  Zr  Zr0  1  0.125000  0.625000  0.625000  1
  Zr  Zr1  1  0.625000  0.125000  0.625000  1
  Zr  Zr2  1  0.625000  0.625000  0.125000  1
  Zr  Zr3  1  0.811831  0.811831  0.189617  1
  Zr  Zr4  1  0.183732  0.183732  0.815950  1
  Zr  Zr5  1  0.811831  0.189617  0.811831  1
  Zr  Zr6  1  0.183732  0.815950  0.183732  1
  Zr  Zr7  1  0.189617  0.811831  0.811831  1
  Zr  Zr8  1  0.815950  0.183732  0.183732  1
  Zr  Zr9  1  0.438169  0.438169  0.060383  1
  Zr  Zr10  1  0.066268  0.066268  0.434050  1
  Zr  Zr11  1  0.438169  0.060383  0.438169  1
  Zr  Zr12  1  0.066268  0.434050  0.066268  1
  Zr  Zr13  1  0.060383  0.438169  0.438169  1
  Zr  Zr14  1  0.434050  0.066268  0.066268  1
  Ti  Ti15  1  0.625000  0.625000  0.625000  1
  Ir  Ir16  1  0.770755  0.416860  0.416860  1
  Ir  Ir17  1  0.416860  0.770755  0.416860  1
  Ir  Ir18  1  0.416860  0.416860  0.770755  1
  Ir  Ir19  1  0.403240  0.403240  0.403240  1
  Ir  Ir20  1  0.479245  0.833140  0.833140  1
  Ir  Ir21  1  0.833140  0.479245  0.833140  1
  Ir  Ir22  1  0.833140  0.833140  0.479245  1
  Ir  Ir23  1  0.846760  0.846760  0.846760  1
  O  O24  1  0.625000  0.125000  0.125000  1
  O  O25  1  0.125000  0.625000  0.125000  1
  O  O26  1  0.125000  0.125000  0.625000  1
  O  O27  1  0.125000  0.125000  0.125000  1
