# generated using pymatgen
data_ZnAsF7
_symmetry_space_group_name_H-M   'P 1'
_cell_length_a   7.43611396
_cell_length_b   7.43611254
_cell_length_c   7.43611334
_cell_angle_alpha   123.71096211
_cell_angle_beta   122.71778715
_cell_angle_gamma   84.51960784
_symmetry_Int_Tables_number   1
_chemical_formula_structural   ZnAsF7
_chemical_formula_sum   'Zn2 As2 F14'
_cell_volume   275.22030756
_cell_formula_units_Z   2
loop_
 _symmetry_equiv_pos_site_id
 _symmetry_equiv_pos_as_xyz
  1  'x, y, z'
loop_
 _atom_site_type_symbol
 _atom_site_label
 _atom_site_symmetry_multiplicity
 _atom_site_fract_x
 _atom_site_fract_y
 _atom_site_fract_z
 _atom_site_occupancy
  Zn  Zn0  1  0.500000  0.000000  0.000000  1
  Zn  Zn1  1  0.000000  0.000000  0.500000  1
  As  As2  1  0.500000  0.000000  0.500000  1
  As  As3  1  0.000000  0.500000  0.500000  1
  F  F4  1  0.250000  0.096341  0.846341  1
  F  F5  1  0.750000  0.903659  0.153659  1
  F  F6  1  0.529796  0.273059  0.743263  1
  F  F7  1  0.970204  0.713465  0.743263  1
  F  F8  1  0.065151  0.352663  0.645374  1
  F  F9  1  0.434849  0.080223  0.287512  1
  F  F10  1  0.292712  0.647337  0.712488  1
  F  F11  1  0.207288  0.919777  0.354626  1
  F  F12  1  0.934849  0.647337  0.354626  1
  F  F13  1  0.565151  0.919777  0.712488  1
  F  F14  1  0.707288  0.352663  0.287512  1
  F  F15  1  0.792712  0.080223  0.645374  1
  F  F16  1  0.029796  0.286535  0.256737  1
  F  F17  1  0.470204  0.726941  0.256737  1
