# generated using pymatgen
data_Pr15Nd(ErSn4)4
_symmetry_space_group_name_H-M   'P 1'
_cell_length_a   8.24350716
_cell_length_b   8.41424639
_cell_length_c   15.98126500
_cell_angle_alpha   90.06893134
_cell_angle_beta   89.66827578
_cell_angle_gamma   90.09835039
_symmetry_Int_Tables_number   1
_chemical_formula_structural   Pr15Nd(ErSn4)4
_chemical_formula_sum   'Pr15 Nd1 Er4 Sn16'
_cell_volume   1108.48589075
_cell_formula_units_Z   1
loop_
 _symmetry_equiv_pos_site_id
 _symmetry_equiv_pos_as_xyz
  1  'x, y, z'
loop_
 _atom_site_type_symbol
 _atom_site_label
 _atom_site_symmetry_multiplicity
 _atom_site_fract_x
 _atom_site_fract_y
 _atom_site_fract_z
 _atom_site_occupancy
  Pr  Pr0  1  0.863316  0.661297  0.621198  1
  Pr  Pr1  1  0.636640  0.161091  0.379096  1
  Pr  Pr2  1  0.139787  0.337091  0.120640  1
  Pr  Pr3  1  0.638918  0.163094  0.121884  1
  Pr  Pr4  1  0.136597  0.338374  0.379243  1
  Pr  Pr5  1  0.363157  0.838849  0.621212  1
  Pr  Pr6  1  0.861392  0.662838  0.878766  1
  Pr  Pr7  1  0.514685  0.319296  0.902249  1
  Pr  Pr8  1  0.017323  0.181023  0.598991  1
  Pr  Pr9  1  0.483211  0.681205  0.401850  1
  Pr  Pr10  1  0.985892  0.818584  0.097381  1
  Pr  Pr11  1  0.486046  0.681276  0.096717  1
  Pr  Pr12  1  0.983232  0.818527  0.401341  1
  Pr  Pr13  1  0.517407  0.318971  0.599155  1
  Pr  Pr14  1  0.013541  0.180762  0.902471  1
  Nd  Nd15  1  0.359865  0.837610  0.877122  1
  Er  Er16  1  0.194029  0.501819  0.750085  1
  Er  Er17  1  0.693441  0.998114  0.750046  1
  Er  Er18  1  0.806422  0.497977  0.250153  1
  Er  Er19  1  0.305800  0.001658  0.249735  1
  Sn  Sn20  1  0.299227  0.034042  0.043239  1
  Sn  Sn21  1  0.794321  0.465943  0.455128  1
  Sn  Sn22  1  0.706240  0.965741  0.545029  1
  Sn  Sn23  1  0.203278  0.536754  0.955246  1
  Sn  Sn24  1  0.698185  0.964107  0.955701  1
  Sn  Sn25  1  0.206036  0.533883  0.545438  1
  Sn  Sn26  1  0.293885  0.033965  0.455061  1
  Sn  Sn27  1  0.798490  0.465027  0.044619  1
  Sn  Sn28  1  0.558040  0.616541  0.750286  1
  Sn  Sn29  1  0.057842  0.884855  0.750437  1
  Sn  Sn30  1  0.441433  0.384527  0.250256  1
  Sn  Sn31  1  0.941899  0.115869  0.249640  1
  Sn  Sn32  1  0.320414  0.148297  0.751062  1
  Sn  Sn33  1  0.820411  0.351731  0.750997  1
  Sn  Sn34  1  0.679682  0.851574  0.249371  1
  Sn  Sn35  1  0.179917  0.647689  0.249154  1
