# generated using pymatgen
data_Yb4Si12Pd19Pt
_symmetry_space_group_name_H-M   'P 1'
_cell_length_a   4.03928300
_cell_length_b   19.68741327
_cell_length_c   7.30125702
_cell_angle_alpha   90.10466674
_cell_angle_beta   90.00000000
_cell_angle_gamma   90.00000000
_symmetry_Int_Tables_number   1
_chemical_formula_structural   Yb4Si12Pd19Pt
_chemical_formula_sum   'Yb4 Si12 Pd19 Pt1'
_cell_volume   580.61713986
_cell_formula_units_Z   1
loop_
 _symmetry_equiv_pos_site_id
 _symmetry_equiv_pos_as_xyz
  1  'x, y, z'
loop_
 _atom_site_type_symbol
 _atom_site_label
 _atom_site_symmetry_multiplicity
 _atom_site_fract_x
 _atom_site_fract_y
 _atom_site_fract_z
 _atom_site_occupancy
  Yb  Yb0  1  0.750000  0.643399  0.121265  1
  Yb  Yb1  1  0.250000  0.356864  0.878553  1
  Yb  Yb2  1  0.250000  0.856911  0.620817  1
  Yb  Yb3  1  0.750000  0.143082  0.378729  1
  Si  Si4  1  0.750000  0.740520  0.626352  1
  Si  Si5  1  0.250000  0.260142  0.371919  1
  Si  Si6  1  0.250000  0.760626  0.131373  1
  Si  Si7  1  0.750000  0.239705  0.872148  1
  Si  Si8  1  0.750000  0.922810  0.348625  1
  Si  Si9  1  0.250000  0.076464  0.651404  1
  Si  Si10  1  0.250000  0.576706  0.848302  1
  Si  Si11  1  0.750000  0.423573  0.151205  1
  Si  Si12  1  0.750000  0.916085  0.906393  1
  Si  Si13  1  0.250000  0.084015  0.093369  1
  Si  Si14  1  0.250000  0.583761  0.407653  1
  Si  Si15  1  0.750000  0.415778  0.592514  1
  Pd  Pd16  1  0.250000  0.200035  0.672657  1
  Pd  Pd17  1  0.250000  0.700381  0.828552  1
  Pd  Pd18  1  0.750000  0.299950  0.172530  1
  Pd  Pd19  1  0.750000  0.992172  0.625410  1
  Pd  Pd20  1  0.250000  0.007065  0.374432  1
  Pd  Pd21  1  0.250000  0.507337  0.125606  1
  Pd  Pd22  1  0.750000  0.492780  0.874297  1
  Pd  Pd23  1  0.750000  0.513267  0.377365  1
  Pd  Pd24  1  0.250000  0.486621  0.622801  1
  Pd  Pd25  1  0.250000  0.986895  0.876763  1
  Pd  Pd26  1  0.750000  0.012843  0.123164  1
  Pd  Pd27  1  0.750000  0.796415  0.929540  1
  Pd  Pd28  1  0.250000  0.203824  0.069108  1
  Pd  Pd29  1  0.250000  0.703165  0.431193  1
  Pd  Pd30  1  0.750000  0.295936  0.569279  1
  Pd  Pd31  1  0.750000  0.617401  0.645204  1
  Pd  Pd32  1  0.250000  0.383146  0.354204  1
  Pd  Pd33  1  0.250000  0.883427  0.142172  1
  Pd  Pd34  1  0.750000  0.116589  0.854827  1
  Pt  Pt35  1  0.750000  0.800306  0.330276  1
