# generated using pymatgen
data_Er2TmSc2Pb3
_symmetry_space_group_name_H-M   'P 1'
_cell_length_a   6.33128800
_cell_length_b   8.83526970
_cell_length_c   8.83798407
_cell_angle_alpha   119.98984049
_cell_angle_beta   89.99997799
_cell_angle_gamma   90.00004614
_symmetry_Int_Tables_number   1
_chemical_formula_structural   Er2TmSc2Pb3
_chemical_formula_sum   'Er4 Tm2 Sc4 Pb6'
_cell_volume   428.19360632
_cell_formula_units_Z   2
loop_
 _symmetry_equiv_pos_site_id
 _symmetry_equiv_pos_as_xyz
  1  'x, y, z'
loop_
 _atom_site_type_symbol
 _atom_site_label
 _atom_site_symmetry_multiplicity
 _atom_site_fract_x
 _atom_site_fract_y
 _atom_site_fract_z
 _atom_site_occupancy
  Er  Er0  1  0.750030  0.238026  0.000000  1
  Er  Er1  1  0.750004  0.761875  0.761842  1
  Er  Er2  1  0.750004  0.000033  0.238158  1
  Er  Er3  1  0.249980  0.762019  0.000000  1
  Tm  Tm4  1  0.249991  0.238164  0.238088  1
  Tm  Tm5  1  0.249991  0.000076  0.761912  1
  Sc  Sc6  1  0.499972  0.333304  0.666690  1
  Sc  Sc7  1  0.499972  0.666613  0.333310  1
  Sc  Sc8  1  0.000031  0.666644  0.333306  1
  Sc  Sc9  1  0.000031  0.333338  0.666694  1
  Pb  Pb10  1  0.749993  0.601775  0.000000  1
  Pb  Pb11  1  0.750004  0.398188  0.398188  1
  Pb  Pb12  1  0.750004  0.000000  0.601812  1
  Pb  Pb13  1  0.249991  0.397920  0.000000  1
  Pb  Pb14  1  0.250001  0.601887  0.601750  1
  Pb  Pb15  1  0.250001  0.000137  0.398250  1
