# generated using pymatgen
data_LiSn3(PN2)6
_symmetry_space_group_name_H-M   'P 1'
_cell_length_a   7.23323066
_cell_length_b   7.23322958
_cell_length_c   7.23323100
_cell_angle_alpha   109.42746612
_cell_angle_beta   109.42745470
_cell_angle_gamma   109.42743424
_symmetry_Int_Tables_number   1
_chemical_formula_structural   LiSn3(PN2)6
_chemical_formula_sum   'Li1 Sn3 P6 N12'
_cell_volume   291.79429257
_cell_formula_units_Z   1
loop_
 _symmetry_equiv_pos_site_id
 _symmetry_equiv_pos_as_xyz
  1  'x, y, z'
loop_
 _atom_site_type_symbol
 _atom_site_label
 _atom_site_symmetry_multiplicity
 _atom_site_fract_x
 _atom_site_fract_y
 _atom_site_fract_z
 _atom_site_occupancy
  Li  Li0  1  0.650471  0.650471  0.650471  1
  Sn  Sn1  1  0.023447  0.298186  0.023447  1
  Sn  Sn2  1  0.023447  0.023447  0.298186  1
  Sn  Sn3  1  0.298186  0.023447  0.023447  1
  P  P4  1  0.519959  0.272394  0.770232  1
  P  P5  1  0.272394  0.770232  0.519959  1
  P  P6  1  0.770232  0.519959  0.272394  1
  P  P7  1  0.770232  0.272394  0.519959  1
  P  P8  1  0.519959  0.770232  0.272394  1
  P  P9  1  0.272394  0.519959  0.770232  1
  N  N10  1  0.460285  0.738140  0.460285  1
  N  N11  1  0.738140  0.460285  0.460285  1
  N  N12  1  0.460285  0.460285  0.738140  1
  N  N13  1  0.743102  0.303504  0.743102  1
  N  N14  1  0.020352  0.583451  0.291627  1
  N  N15  1  0.291627  0.583451  0.020352  1
  N  N16  1  0.291627  0.020352  0.583451  1
  N  N17  1  0.020352  0.291627  0.583451  1
  N  N18  1  0.743102  0.743102  0.303504  1
  N  N19  1  0.583451  0.020352  0.291627  1
  N  N20  1  0.303504  0.743102  0.743102  1
  N  N21  1  0.583451  0.291627  0.020352  1
