# generated using pymatgen
data_Tb3Ho2Re2C7
_symmetry_space_group_name_H-M   'P 1'
_cell_length_a   8.36307680
_cell_length_b   8.34662381
_cell_length_c   3.42650100
_cell_angle_alpha   90.00000000
_cell_angle_beta   90.00000000
_cell_angle_gamma   122.81603737
_symmetry_Int_Tables_number   1
_chemical_formula_structural   Tb3Ho2Re2C7
_chemical_formula_sum   'Tb3 Ho2 Re2 C7'
_cell_volume   201.01180061
_cell_formula_units_Z   1
loop_
 _symmetry_equiv_pos_site_id
 _symmetry_equiv_pos_as_xyz
  1  'x, y, z'
loop_
 _atom_site_type_symbol
 _atom_site_label
 _atom_site_symmetry_multiplicity
 _atom_site_fract_x
 _atom_site_fract_y
 _atom_site_fract_z
 _atom_site_occupancy
  Tb  Tb0  1  0.500000  0.500000  0.000000  1
  Tb  Tb1  1  0.075116  0.332811  0.500000  1
  Tb  Tb2  1  0.924884  0.667189  0.500000  1
  Ho  Ho3  1  0.663588  0.924254  0.500000  1
  Ho  Ho4  1  0.336412  0.075746  0.500000  1
  Re  Re5  1  0.715080  0.285229  0.000000  1
  Re  Re6  1  0.284920  0.714771  0.000000  1
  C  C7  1  0.627700  0.371903  0.500000  1
  C  C8  1  0.372300  0.628097  0.500000  1
  C  C9  1  0.000000  0.000000  0.000000  1
  C  C10  1  0.171502  0.167572  0.000000  1
  C  C11  1  0.828498  0.832428  0.000000  1
  C  C12  1  0.000000  0.500000  0.000000  1
  C  C13  1  0.500000  0.000000  0.000000  1
