# generated using pymatgen
data_HfZr9GaSn6Ge
_symmetry_space_group_name_H-M   'P 1'
_cell_length_a   8.72355300
_cell_length_b   8.72355417
_cell_length_c   5.90443200
_cell_angle_alpha   90.00000000
_cell_angle_beta   90.00000000
_cell_angle_gamma   120.00000692
_symmetry_Int_Tables_number   1
_chemical_formula_structural   HfZr9GaSn6Ge
_chemical_formula_sum   'Hf1 Zr9 Ga1 Sn6 Ge1'
_cell_volume   389.13078767
_cell_formula_units_Z   1
loop_
 _symmetry_equiv_pos_site_id
 _symmetry_equiv_pos_as_xyz
  1  'x, y, z'
loop_
 _atom_site_type_symbol
 _atom_site_label
 _atom_site_symmetry_multiplicity
 _atom_site_fract_x
 _atom_site_fract_y
 _atom_site_fract_z
 _atom_site_occupancy
  Hf  Hf0  1  0.666667  0.333333  0.500000  1
  Zr  Zr1  1  0.734911  0.734623  0.751143  1
  Zr  Zr2  1  0.265377  0.000288  0.751143  1
  Zr  Zr3  1  0.999712  0.265089  0.751143  1
  Zr  Zr4  1  0.265377  0.265089  0.248857  1
  Zr  Zr5  1  0.734911  0.000288  0.248857  1
  Zr  Zr6  1  0.999712  0.734623  0.248857  1
  Zr  Zr7  1  0.666667  0.333333  0.000000  1
  Zr  Zr8  1  0.333333  0.666667  0.000000  1
  Zr  Zr9  1  0.333333  0.666667  0.500000  1
  Ga  Ga10  1  0.000000  0.000000  0.500000  1
  Sn  Sn11  1  0.390671  0.390239  0.748257  1
  Sn  Sn12  1  0.609761  0.000432  0.748257  1
  Sn  Sn13  1  0.999568  0.609329  0.748257  1
  Sn  Sn14  1  0.609761  0.609329  0.251743  1
  Sn  Sn15  1  0.390671  0.000432  0.251743  1
  Sn  Sn16  1  0.999568  0.390239  0.251743  1
  Ge  Ge17  1  0.000000  0.000000  0.000000  1
