# generated using pymatgen
data_Nd2Er3Ta2BiO14
_symmetry_space_group_name_H-M   'P 1'
_cell_length_a   6.48714139
_cell_length_b   6.59168371
_cell_length_c   7.60632300
_cell_angle_alpha   90.00000000
_cell_angle_beta   90.00000000
_cell_angle_gamma   109.34363243
_symmetry_Int_Tables_number   1
_chemical_formula_structural   Nd2Er3Ta2BiO14
_chemical_formula_sum   'Nd2 Er3 Ta2 Bi1 O14'
_cell_volume   306.89438138
_cell_formula_units_Z   1
loop_
 _symmetry_equiv_pos_site_id
 _symmetry_equiv_pos_as_xyz
  1  'x, y, z'
loop_
 _atom_site_type_symbol
 _atom_site_label
 _atom_site_symmetry_multiplicity
 _atom_site_fract_x
 _atom_site_fract_y
 _atom_site_fract_z
 _atom_site_occupancy
  Nd  Nd0  1  0.510241  0.504915  0.503000  1
  Nd  Nd1  1  0.510241  0.504915  0.997000  1
  Er  Er2  1  0.002639  0.465196  0.750000  1
  Er  Er3  1  0.531987  0.001681  0.750000  1
  Er  Er4  1  0.457689  0.996917  0.250000  1
  Ta  Ta5  1  0.996869  0.993987  0.503282  1
  Ta  Ta6  1  0.996869  0.993987  0.996718  1
  Bi  Bi7  1  0.007682  0.509822  0.250000  1
  O  O8  1  0.930648  0.072207  0.750000  1
  O  O9  1  0.062345  0.959779  0.250000  1
  O  O10  1  0.368328  0.643551  0.250000  1
  O  O11  1  0.644746  0.352323  0.750000  1
  O  O12  1  0.367702  0.638969  0.750000  1
  O  O13  1  0.614520  0.347173  0.250000  1
  O  O14  1  0.316040  0.059522  0.964534  1
  O  O15  1  0.679006  0.935371  0.465025  1
  O  O16  1  0.316040  0.059522  0.535466  1
  O  O17  1  0.679006  0.935371  0.034975  1
  O  O18  1  0.077442  0.325121  0.477066  1
  O  O19  1  0.926260  0.687273  0.952573  1
  O  O20  1  0.926260  0.687273  0.547427  1
  O  O21  1  0.077442  0.325121  0.022934  1
