# generated using pymatgen
data_BeSiSn5Rh6
_symmetry_space_group_name_H-M   'P 1'
_cell_length_a   6.80078900
_cell_length_b   6.80078972
_cell_length_c   5.70545700
_cell_angle_alpha   90.00000000
_cell_angle_beta   90.00000000
_cell_angle_gamma   120.00001111
_symmetry_Int_Tables_number   1
_chemical_formula_structural   BeSiSn5Rh6
_chemical_formula_sum   'Be1 Si1 Sn5 Rh6'
_cell_volume   228.52813047
_cell_formula_units_Z   1
loop_
 _symmetry_equiv_pos_site_id
 _symmetry_equiv_pos_as_xyz
  1  'x, y, z'
loop_
 _atom_site_type_symbol
 _atom_site_label
 _atom_site_symmetry_multiplicity
 _atom_site_fract_x
 _atom_site_fract_y
 _atom_site_fract_z
 _atom_site_occupancy
  Be  Be0  1  0.000000  0.000000  0.000000  1
  Si  Si1  1  0.000000  0.000000  0.500000  1
  Sn  Sn2  1  0.385860  0.385860  0.000000  1
  Sn  Sn3  1  0.614140  0.000000  0.000000  1
  Sn  Sn4  1  0.000000  0.614140  0.000000  1
  Sn  Sn5  1  0.666667  0.333333  0.500000  1
  Sn  Sn6  1  0.333333  0.666667  0.500000  1
  Rh  Rh7  1  0.279096  0.000000  0.748814  1
  Rh  Rh8  1  0.720904  0.720904  0.251186  1
  Rh  Rh9  1  0.000000  0.279096  0.251186  1
  Rh  Rh10  1  0.279096  0.000000  0.251186  1
  Rh  Rh11  1  0.720904  0.720904  0.748814  1
  Rh  Rh12  1  0.000000  0.279096  0.748814  1
