# generated using pymatgen
data_Er3ScZn2Ir3
_symmetry_space_group_name_H-M   'P 1'
_cell_length_a   7.16681910
_cell_length_b   7.16681793
_cell_length_c   4.00799400
_cell_angle_alpha   90.00000000
_cell_angle_beta   90.00000000
_cell_angle_gamma   120.10186512
_symmetry_Int_Tables_number   1
_chemical_formula_structural   Er3ScZn2Ir3
_chemical_formula_sum   'Er3 Sc1 Zn2 Ir3'
_cell_volume   178.09995381
_cell_formula_units_Z   1
loop_
 _symmetry_equiv_pos_site_id
 _symmetry_equiv_pos_as_xyz
  1  'x, y, z'
loop_
 _atom_site_type_symbol
 _atom_site_label
 _atom_site_symmetry_multiplicity
 _atom_site_fract_x
 _atom_site_fract_y
 _atom_site_fract_z
 _atom_site_occupancy
  Er  Er0  1  0.392296  0.392296  0.500000  1
  Er  Er1  1  0.581652  0.011368  0.500000  1
  Er  Er2  1  0.011368  0.581652  0.500000  1
  Sc  Sc3  1  0.762433  0.762433  0.000000  1
  Zn  Zn4  1  0.247026  0.995724  0.000000  1
  Zn  Zn5  1  0.995724  0.247026  0.000000  1
  Ir  Ir6  1  0.667972  0.341333  0.000000  1
  Ir  Ir7  1  0.341333  0.667972  0.000000  1
  Ir  Ir8  1  0.000201  0.000201  0.500000  1
