# generated using pymatgen
data_FeSbPtO6
_symmetry_space_group_name_H-M   'P 1'
_cell_length_a   4.66837300
_cell_length_b   9.33337500
_cell_length_c   9.44595800
_cell_angle_alpha   90.00000000
_cell_angle_beta   90.00000000
_cell_angle_gamma   90.00000000
_symmetry_Int_Tables_number   1
_chemical_formula_structural   FeSbPtO6
_chemical_formula_sum   'Fe4 Sb4 Pt4 O24'
_cell_volume   411.57622006
_cell_formula_units_Z   4
loop_
 _symmetry_equiv_pos_site_id
 _symmetry_equiv_pos_as_xyz
  1  'x, y, z'
loop_
 _atom_site_type_symbol
 _atom_site_label
 _atom_site_symmetry_multiplicity
 _atom_site_fract_x
 _atom_site_fract_y
 _atom_site_fract_z
 _atom_site_occupancy
  Fe  Fe0  1  0.000000  0.500000  0.000163  1
  Fe  Fe1  1  0.500000  0.750000  0.500163  1
  Fe  Fe2  1  0.000000  0.000000  0.000163  1
  Fe  Fe3  1  0.500000  0.250000  0.500163  1
  Sb  Sb4  1  0.500000  0.250000  0.167921  1
  Sb  Sb5  1  0.500000  0.750000  0.167921  1
  Sb  Sb6  1  0.000000  0.000000  0.667921  1
  Sb  Sb7  1  0.000000  0.500000  0.667921  1
  Pt  Pt8  1  0.000000  0.000000  0.333235  1
  Pt  Pt9  1  0.000000  0.500000  0.333235  1
  Pt  Pt10  1  0.500000  0.250000  0.833235  1
  Pt  Pt11  1  0.500000  0.750000  0.833235  1
  O  O12  1  0.308275  0.154006  0.001157  1
  O  O13  1  0.308275  0.654006  0.001157  1
  O  O14  1  0.191725  0.404006  0.501157  1
  O  O15  1  0.191725  0.904006  0.501157  1
  O  O16  1  0.808275  0.095994  0.501157  1
  O  O17  1  0.808275  0.595994  0.501157  1
  O  O18  1  0.691725  0.345994  0.001157  1
  O  O19  1  0.691725  0.845994  0.001157  1
  O  O20  1  0.307185  0.153691  0.333510  1
  O  O21  1  0.307185  0.653691  0.333510  1
  O  O22  1  0.192815  0.403691  0.833510  1
  O  O23  1  0.192815  0.903691  0.833510  1
  O  O24  1  0.807185  0.096309  0.833510  1
  O  O25  1  0.807185  0.596309  0.833510  1
  O  O26  1  0.807177  0.096448  0.164673  1
  O  O27  1  0.807177  0.596448  0.164673  1
  O  O28  1  0.192823  0.403552  0.164673  1
  O  O29  1  0.192823  0.903552  0.164673  1
  O  O30  1  0.692815  0.346309  0.333510  1
  O  O31  1  0.692815  0.846309  0.333510  1
  O  O32  1  0.307177  0.153552  0.664673  1
  O  O33  1  0.307177  0.653552  0.664673  1
  O  O34  1  0.692823  0.346448  0.664673  1
  O  O35  1  0.692823  0.846448  0.664673  1
