# generated using pymatgen
data_CaLa(SnRh2)2
_symmetry_space_group_name_H-M   'P 1'
_cell_length_a   7.30089100
_cell_length_b   4.43306300
_cell_length_c   9.97397800
_cell_angle_alpha   90.00000000
_cell_angle_beta   90.00000000
_cell_angle_gamma   90.00000000
_symmetry_Int_Tables_number   1
_chemical_formula_structural   CaLa(SnRh2)2
_chemical_formula_sum   'Ca2 La2 Sn4 Rh8'
_cell_volume   322.81088750
_cell_formula_units_Z   2
loop_
 _symmetry_equiv_pos_site_id
 _symmetry_equiv_pos_as_xyz
  1  'x, y, z'
loop_
 _atom_site_type_symbol
 _atom_site_label
 _atom_site_symmetry_multiplicity
 _atom_site_fract_x
 _atom_site_fract_y
 _atom_site_fract_z
 _atom_site_occupancy
  Ca  Ca0  1  0.669032  0.250001  0.592065  1
  Ca  Ca1  1  0.169032  0.750000  0.907935  1
  La  La2  1  0.830887  0.250001  0.089356  1
  La  La3  1  0.330887  0.750000  0.410644  1
  Sn  Sn4  1  0.315073  0.250001  0.134314  1
  Sn  Sn5  1  0.815073  0.750000  0.365686  1
  Sn  Sn6  1  0.187336  0.250001  0.653776  1
  Sn  Sn7  1  0.687336  0.750000  0.846224  1
  Rh  Rh8  1  0.518380  0.750000  0.093149  1
  Rh  Rh9  1  0.114542  0.750000  0.201687  1
  Rh  Rh10  1  0.614542  0.250001  0.298312  1
  Rh  Rh11  1  0.018380  0.250001  0.406851  1
  Rh  Rh12  1  0.969951  0.750000  0.629307  1
  Rh  Rh13  1  0.394799  0.750000  0.683869  1
  Rh  Rh14  1  0.894800  0.250001  0.816131  1
  Rh  Rh15  1  0.469951  0.250001  0.870693  1
