# generated using pymatgen
data_Na2Cr4Ni8P7
_symmetry_space_group_name_H-M   'P 1'
_cell_length_a   9.13856216
_cell_length_b   9.10590592
_cell_length_c   3.60511800
_cell_angle_alpha   90.00000000
_cell_angle_beta   90.00000000
_cell_angle_gamma   119.70755544
_symmetry_Int_Tables_number   1
_chemical_formula_structural   Na2Cr4Ni8P7
_chemical_formula_sum   'Na2 Cr4 Ni8 P7'
_cell_volume   260.56940683
_cell_formula_units_Z   1
loop_
 _symmetry_equiv_pos_site_id
 _symmetry_equiv_pos_as_xyz
  1  'x, y, z'
loop_
 _atom_site_type_symbol
 _atom_site_label
 _atom_site_symmetry_multiplicity
 _atom_site_fract_x
 _atom_site_fract_y
 _atom_site_fract_z
 _atom_site_occupancy
  Na  Na0  1  0.665381  0.332669  0.000000  1
  Na  Na1  1  0.335561  0.665602  0.500000  1
  Cr  Cr2  1  0.123090  0.840852  0.500000  1
  Cr  Cr3  1  0.211988  0.095218  0.000000  1
  Cr  Cr4  1  0.903813  0.122406  0.000000  1
  Cr  Cr5  1  0.876913  0.782145  0.000000  1
  Ni  Ni6  1  0.437304  0.064525  0.500000  1
  Ni  Ni7  1  0.941774  0.375779  0.500000  1
  Ni  Ni8  1  0.623073  0.565712  0.500000  1
  Ni  Ni9  1  0.156663  0.280316  0.500000  1
  Ni  Ni10  1  0.722168  0.877502  0.500000  1
  Ni  Ni11  1  0.384614  0.437303  0.000000  1
  Ni  Ni12  1  0.566185  0.948567  0.000000  1
  Ni  Ni13  1  0.050386  0.612116  0.000000  1
  P  P14  1  0.113309  0.403610  0.000000  1
  P  P15  1  0.594642  0.709749  0.000000  1
  P  P16  1  0.295808  0.885239  0.000000  1
  P  P17  1  0.999821  0.000220  0.500000  1
  P  P18  1  0.407009  0.292164  0.500000  1
  P  P19  1  0.709600  0.117408  0.500000  1
  P  P20  1  0.880901  0.590898  0.500000  1
