# generated using pymatgen
data_Be3V16GeTe16
_symmetry_space_group_name_H-M   'P 1'
_cell_length_a   4.51221300
_cell_length_b   10.61929577
_cell_length_c   18.38625700
_cell_angle_alpha   90.04140461
_cell_angle_beta   90.00000000
_cell_angle_gamma   90.00000000
_symmetry_Int_Tables_number   1
_chemical_formula_structural   Be3V16GeTe16
_chemical_formula_sum   'Be3 V16 Ge1 Te16'
_cell_volume   881.00530280
_cell_formula_units_Z   1
loop_
 _symmetry_equiv_pos_site_id
 _symmetry_equiv_pos_as_xyz
  1  'x, y, z'
loop_
 _atom_site_type_symbol
 _atom_site_label
 _atom_site_symmetry_multiplicity
 _atom_site_fract_x
 _atom_site_fract_y
 _atom_site_fract_z
 _atom_site_occupancy
  Be  Be0  1  0.253607  0.500000  0.500000  1
  Be  Be1  1  0.749998  0.000000  0.000000  1
  Be  Be2  1  0.746383  0.500000  0.500000  1
  V  V3  1  0.499976  0.559327  0.388902  1
  V  V4  1  0.499976  0.440673  0.611098  1
  V  V5  1  0.510887  0.061197  0.113844  1
  V  V6  1  0.510887  0.938803  0.886156  1
  V  V7  1  0.499811  0.693203  0.534591  1
  V  V8  1  0.499811  0.306797  0.465409  1
  V  V9  1  0.510850  0.197865  0.964880  1
  V  V10  1  0.510850  0.802135  0.035120  1
  V  V11  1  0.000065  0.675235  0.446174  1
  V  V12  1  0.000065  0.324765  0.553826  1
  V  V13  1  0.988848  0.183049  0.056145  1
  V  V14  1  0.988848  0.816951  0.943855  1
  V  V15  1  0.000027  0.407581  0.399063  1
  V  V16  1  0.000027  0.592419  0.600937  1
  V  V17  1  0.989470  0.903705  0.105328  1
  V  V18  1  0.989470  0.096295  0.894672  1
  Ge  Ge19  1  0.249892  0.000000  0.000000  1
  Te  Te20  1  0.999950  0.837161  0.559994  1
  Te  Te21  1  0.999950  0.162839  0.440006  1
  Te  Te22  1  0.003036  0.340470  0.939455  1
  Te  Te23  1  0.003036  0.659530  0.060545  1
  Te  Te24  1  0.500116  0.335544  0.319924  1
  Te  Te25  1  0.500116  0.664456  0.680076  1
  Te  Te26  1  0.497350  0.834449  0.181592  1
  Te  Te27  1  0.497350  0.165551  0.818408  1
  Te  Te28  1  0.500068  0.811822  0.404852  1
  Te  Te29  1  0.500068  0.188178  0.595148  1
  Te  Te30  1  0.496630  0.315446  0.096365  1
  Te  Te31  1  0.496630  0.684554  0.903635  1
  Te  Te32  1  0.999849  0.603502  0.305304  1
  Te  Te33  1  0.999849  0.396498  0.694696  1
  Te  Te34  1  0.003128  0.104847  0.196457  1
  Te  Te35  1  0.003128  0.895153  0.803543  1
