# generated using pymatgen
data_Tb3Yb(PrSn)16
_symmetry_space_group_name_H-M   'P 1'
_cell_length_a   8.22273603
_cell_length_b   8.48332003
_cell_length_c   16.09157900
_cell_angle_alpha   90.00000000
_cell_angle_beta   90.00000000
_cell_angle_gamma   90.00963106
_symmetry_Int_Tables_number   1
_chemical_formula_structural   Tb3Yb(PrSn)16
_chemical_formula_sum   'Tb3 Yb1 Pr16 Sn16'
_cell_volume   1122.48579824
_cell_formula_units_Z   1
loop_
 _symmetry_equiv_pos_site_id
 _symmetry_equiv_pos_as_xyz
  1  'x, y, z'
loop_
 _atom_site_type_symbol
 _atom_site_label
 _atom_site_symmetry_multiplicity
 _atom_site_fract_x
 _atom_site_fract_y
 _atom_site_fract_z
 _atom_site_occupancy
  Tb  Tb0  1  0.821735  0.502231  0.750000  1
  Tb  Tb1  1  0.322948  0.998878  0.750000  1
  Tb  Tb2  1  0.177240  0.496728  0.250000  1
  Yb  Yb3  1  0.677049  0.002273  0.250000  1
  Pr  Pr4  1  0.653717  0.168087  0.624408  1
  Pr  Pr5  1  0.154185  0.335095  0.876980  1
  Pr  Pr6  1  0.349315  0.832661  0.122827  1
  Pr  Pr7  1  0.845781  0.668455  0.377064  1
  Pr  Pr8  1  0.349315  0.832661  0.377173  1
  Pr  Pr9  1  0.845781  0.668455  0.122936  1
  Pr  Pr10  1  0.653717  0.168087  0.875592  1
  Pr  Pr11  1  0.154185  0.335095  0.623020  1
  Pr  Pr12  1  0.496650  0.680900  0.597382  1
  Pr  Pr13  1  0.996455  0.819703  0.902330  1
  Pr  Pr14  1  0.503577  0.316669  0.097021  1
  Pr  Pr15  1  0.000701  0.180104  0.403797  1
  Pr  Pr16  1  0.503577  0.316669  0.402979  1
  Pr  Pr17  1  0.000701  0.180104  0.096203  1
  Pr  Pr18  1  0.496650  0.680900  0.902618  1
  Pr  Pr19  1  0.996455  0.819703  0.597670  1
  Sn  Sn20  1  0.687691  0.962154  0.461487  1
  Sn  Sn21  1  0.186768  0.533856  0.044415  1
  Sn  Sn22  1  0.313989  0.036105  0.957160  1
  Sn  Sn23  1  0.812208  0.466121  0.543233  1
  Sn  Sn24  1  0.313989  0.036105  0.542840  1
  Sn  Sn25  1  0.812208  0.466121  0.956767  1
  Sn  Sn26  1  0.687691  0.962154  0.038513  1
  Sn  Sn27  1  0.186768  0.533856  0.455585  1
  Sn  Sn28  1  0.457398  0.389467  0.750000  1
  Sn  Sn29  1  0.959205  0.112140  0.750000  1
  Sn  Sn30  1  0.542774  0.605020  0.250000  1
  Sn  Sn31  1  0.046096  0.887556  0.250000  1
  Sn  Sn32  1  0.692317  0.852255  0.750000  1
  Sn  Sn33  1  0.191576  0.648573  0.750000  1
  Sn  Sn34  1  0.299532  0.146651  0.250000  1
  Sn  Sn35  1  0.810052  0.358407  0.250000  1
