# generated using pymatgen
data_Er5Tm5Os4
_symmetry_space_group_name_H-M   'P 1'
_cell_length_a   6.28515925
_cell_length_b   7.32453880
_cell_length_c   8.32045182
_cell_angle_alpha   97.01188306
_cell_angle_beta   112.19313429
_cell_angle_gamma   89.98793057
_symmetry_Int_Tables_number   1
_chemical_formula_structural   Er5Tm5Os4
_chemical_formula_sum   'Er5 Tm5 Os4'
_cell_volume   351.57035536
_cell_formula_units_Z   1
loop_
 _symmetry_equiv_pos_site_id
 _symmetry_equiv_pos_as_xyz
  1  'x, y, z'
loop_
 _atom_site_type_symbol
 _atom_site_label
 _atom_site_symmetry_multiplicity
 _atom_site_fract_x
 _atom_site_fract_y
 _atom_site_fract_z
 _atom_site_occupancy
  Er  Er0  1  0.792501  0.083663  0.816883  1
  Er  Er1  1  0.975455  0.416245  0.183040  1
  Er  Er2  1  0.207672  0.916206  0.183090  1
  Er  Er3  1  0.024391  0.583866  0.816958  1
  Er  Er4  1  0.203500  0.182831  0.564175  1
  Tm  Tm5  1  0.639589  0.317288  0.435804  1
  Tm  Tm6  1  0.796352  0.817191  0.435691  1
  Tm  Tm7  1  0.360482  0.682781  0.564111  1
  Tm  Tm8  1  0.420441  0.249877  0.000079  1
  Tm  Tm9  1  0.579679  0.750181  0.000093  1
  Os  Os10  1  0.602508  0.422325  0.780430  1
  Os  Os11  1  0.821519  0.077860  0.219457  1
  Os  Os12  1  0.397792  0.577848  0.219745  1
  Os  Os13  1  0.178120  0.921839  0.780442  1
