# generated using pymatgen
data_NaTm(TlCl3)2
_symmetry_space_group_name_H-M   'P 1'
_cell_length_a   7.24230433
_cell_length_b   7.78365100
_cell_length_c   12.76192500
_cell_angle_alpha   90.00000000
_cell_angle_beta   123.81148091
_cell_angle_gamma   90.00000000
_symmetry_Int_Tables_number   1
_chemical_formula_structural   NaTm(TlCl3)2
_chemical_formula_sum   'Na2 Tm2 Tl4 Cl12'
_cell_volume   597.73811648
_cell_formula_units_Z   2
loop_
 _symmetry_equiv_pos_site_id
 _symmetry_equiv_pos_as_xyz
  1  'x, y, z'
loop_
 _atom_site_type_symbol
 _atom_site_label
 _atom_site_symmetry_multiplicity
 _atom_site_fract_x
 _atom_site_fract_y
 _atom_site_fract_z
 _atom_site_occupancy
  Na  Na0  1  0.500000  0.500001  0.000000  1
  Na  Na1  1  0.499999  0.000000  0.500000  1
  Tm  Tm2  1  0.000000  0.000000  0.000000  1
  Tm  Tm3  1  0.000000  0.500001  0.500000  1
  Tl  Tl4  1  0.276838  0.417606  0.249350  1
  Tl  Tl5  1  0.723162  0.917607  0.250651  1
  Tl  Tl6  1  0.276837  0.082394  0.749349  1
  Tl  Tl7  1  0.723162  0.582393  0.750651  1
  Cl  Cl8  1  0.221009  0.712105  0.042500  1
  Cl  Cl9  1  0.341540  0.179859  0.042704  1
  Cl  Cl10  1  0.149177  0.016487  0.240028  1
  Cl  Cl11  1  0.850823  0.516487  0.259972  1
  Cl  Cl12  1  0.658462  0.679860  0.457296  1
  Cl  Cl13  1  0.778990  0.212104  0.457500  1
  Cl  Cl14  1  0.221011  0.787896  0.542500  1
  Cl  Cl15  1  0.341539  0.320141  0.542704  1
  Cl  Cl16  1  0.149177  0.483514  0.740028  1
  Cl  Cl17  1  0.850824  0.983513  0.759972  1
  Cl  Cl18  1  0.658461  0.820141  0.957296  1
  Cl  Cl19  1  0.778990  0.287895  0.957500  1
