# generated using pymatgen
data_Cs4Fe2CoMoS8
_symmetry_space_group_name_H-M   'P 1'
_cell_length_a   5.48533444
_cell_length_b   7.32231717
_cell_length_c   12.48455344
_cell_angle_alpha   87.87010034
_cell_angle_beta   83.39979578
_cell_angle_gamma   79.37179874
_symmetry_Int_Tables_number   1
_chemical_formula_structural   Cs4Fe2CoMoS8
_chemical_formula_sum   'Cs4 Fe2 Co1 Mo1 S8'
_cell_volume   489.51223028
_cell_formula_units_Z   1
loop_
 _symmetry_equiv_pos_site_id
 _symmetry_equiv_pos_as_xyz
  1  'x, y, z'
loop_
 _atom_site_type_symbol
 _atom_site_label
 _atom_site_symmetry_multiplicity
 _atom_site_fract_x
 _atom_site_fract_y
 _atom_site_fract_z
 _atom_site_occupancy
  Cs  Cs0  1  0.070031  0.025245  0.691521  1
  Cs  Cs1  1  0.578101  0.530160  0.161492  1
  Cs  Cs2  1  0.421280  0.469326  0.837868  1
  Cs  Cs3  1  0.931069  0.974147  0.308684  1
  Fe  Fe4  1  0.749325  0.501797  0.500550  1
  Fe  Fe5  1  0.249874  0.001601  0.000587  1
  Co  Co6  1  0.750533  0.998181  0.999404  1
  Mo  Mo7  1  0.250377  0.498611  0.499525  1
  S  S8  1  0.946918  0.559981  0.638956  1
  S  S9  1  0.452720  0.060021  0.135703  1
  S  S10  1  0.950794  0.232691  0.959710  1
  S  S11  1  0.452211  0.740208  0.462589  1
  S  S12  1  0.548096  0.938729  0.864512  1
  S  S13  1  0.044347  0.441927  0.360777  1
  S  S14  1  0.555217  0.260258  0.538254  1
  S  S15  1  0.049105  0.767114  0.039867  1
