# generated using pymatgen
data_BeV12Zn3(GaN)4
_symmetry_space_group_name_H-M   'P 1'
_cell_length_a   6.55518943
_cell_length_b   6.55518943
_cell_length_c   6.55518943
_cell_angle_alpha   90.05360182
_cell_angle_beta   90.05360182
_cell_angle_gamma   90.05360182
_symmetry_Int_Tables_number   1
_chemical_formula_structural   BeV12Zn3(GaN)4
_chemical_formula_sum   'Be1 V12 Zn3 Ga4 N4'
_cell_volume   281.67945349
_cell_formula_units_Z   1
loop_
 _symmetry_equiv_pos_site_id
 _symmetry_equiv_pos_as_xyz
  1  'x, y, z'
loop_
 _atom_site_type_symbol
 _atom_site_label
 _atom_site_symmetry_multiplicity
 _atom_site_fract_x
 _atom_site_fract_y
 _atom_site_fract_z
 _atom_site_occupancy
  Be  Be0  1  0.676737  0.676737  0.676737  1
  V  V1  1  0.789082  0.957886  0.377541  1
  V  V2  1  0.709701  0.035876  0.871097  1
  V  V3  1  0.210022  0.458931  0.125894  1
  V  V4  1  0.293553  0.541410  0.626226  1
  V  V5  1  0.957886  0.377541  0.789082  1
  V  V6  1  0.035876  0.871097  0.709701  1
  V  V7  1  0.458931  0.125894  0.210022  1
  V  V8  1  0.541410  0.626226  0.293553  1
  V  V9  1  0.377541  0.789082  0.957886  1
  V  V10  1  0.871097  0.709701  0.035876  1
  V  V11  1  0.125894  0.210022  0.458931  1
  V  V12  1  0.626226  0.293553  0.541410  1
  Zn  Zn13  1  0.179726  0.819537  0.321271  1
  Zn  Zn14  1  0.321271  0.179726  0.819537  1
  Zn  Zn15  1  0.819537  0.321271  0.179726  1
  Ga  Ga16  1  0.576032  0.436211  0.920024  1
  Ga  Ga17  1  0.436211  0.920024  0.576032  1
  Ga  Ga18  1  0.920024  0.576032  0.436211  1
  Ga  Ga19  1  0.071696  0.071696  0.071696  1
  N  N20  1  0.876482  0.124858  0.623834  1
  N  N21  1  0.623834  0.876482  0.124858  1
  N  N22  1  0.124858  0.623834  0.876482  1
  N  N23  1  0.376372  0.376372  0.376372  1
