# generated using pymatgen
data_Ac3Si2Cl3O7
_symmetry_space_group_name_H-M   'P 1'
_cell_length_a   5.44779874
_cell_length_b   12.30346700
_cell_length_c   8.04723100
_cell_angle_alpha   90.00000000
_cell_angle_beta   108.92892891
_cell_angle_gamma   90.00000000
_symmetry_Int_Tables_number   1
_chemical_formula_structural   Ac3Si2Cl3O7
_chemical_formula_sum   'Ac6 Si4 Cl6 O14'
_cell_volume   510.21146862
_cell_formula_units_Z   2
loop_
 _symmetry_equiv_pos_site_id
 _symmetry_equiv_pos_as_xyz
  1  'x, y, z'
loop_
 _atom_site_type_symbol
 _atom_site_label
 _atom_site_symmetry_multiplicity
 _atom_site_fract_x
 _atom_site_fract_y
 _atom_site_fract_z
 _atom_site_occupancy
  Ac  Ac0  1  0.419478  0.254682  0.300315  1
  Ac  Ac1  1  0.580522  0.754683  0.699684  1
  Ac  Ac2  1  0.991903  0.493999  0.581252  1
  Ac  Ac3  1  0.008098  0.994000  0.418748  1
  Ac  Ac4  1  0.724027  0.471911  0.027111  1
  Ac  Ac5  1  0.275974  0.971911  0.972890  1
  Si  Si6  1  0.775511  0.156657  0.064886  1
  Si  Si7  1  0.224490  0.656658  0.935115  1
  Si  Si8  1  0.399664  0.546435  0.315014  1
  Si  Si9  1  0.600335  0.046436  0.684986  1
  Cl  Cl10  1  0.985385  0.243073  0.509212  1
  Cl  Cl11  1  0.014615  0.743074  0.490787  1
  Cl  Cl12  1  0.166882  0.364935  0.934417  1
  Cl  Cl13  1  0.833117  0.864935  0.065583  1
  Cl  Cl14  1  0.542351  0.373720  0.661721  1
  Cl  Cl15  1  0.457649  0.873720  0.338278  1
  O  O16  1  0.076561  0.114615  0.131880  1
  O  O17  1  0.923439  0.614616  0.868119  1
  O  O18  1  0.599411  0.447749  0.303238  1
  O  O19  1  0.400589  0.947748  0.696762  1
  O  O20  1  0.116593  0.498139  0.304834  1
  O  O21  1  0.883406  0.998138  0.695166  1
  O  O22  1  0.740641  0.283073  0.101193  1
  O  O23  1  0.259360  0.783072  0.898808  1
  O  O24  1  0.380340  0.620439  0.139320  1
  O  O25  1  0.619661  0.120439  0.860681  1
  O  O26  1  0.447420  0.107209  0.503321  1
  O  O27  1  0.552581  0.607210  0.496680  1
  O  O28  1  0.627171  0.091464  0.184926  1
  O  O29  1  0.372828  0.591464  0.815075  1
