# generated using pymatgen
data_BeSe23
_symmetry_space_group_name_H-M   'P 1'
_cell_length_a   5.96811026
_cell_length_b   9.84349145
_cell_length_c   15.83245300
_cell_angle_alpha   89.63402248
_cell_angle_beta   90.46347019
_cell_angle_gamma   87.71809577
_symmetry_Int_Tables_number   1
_chemical_formula_structural   BeSe23
_chemical_formula_sum   'Be1 Se23'
_cell_volume   929.32086823
_cell_formula_units_Z   1
loop_
 _symmetry_equiv_pos_site_id
 _symmetry_equiv_pos_as_xyz
  1  'x, y, z'
loop_
 _atom_site_type_symbol
 _atom_site_label
 _atom_site_symmetry_multiplicity
 _atom_site_fract_x
 _atom_site_fract_y
 _atom_site_fract_z
 _atom_site_occupancy
  Be  Be0  1  0.527891  0.277898  0.442965  1
  Se  Se1  1  0.425364  0.824971  0.381576  1
  Se  Se2  1  0.994292  0.320670  0.122683  1
  Se  Se3  1  0.860130  0.291778  0.483920  1
  Se  Se4  1  0.259414  0.795771  0.514802  1
  Se  Se5  1  0.196362  0.257833  0.000563  1
  Se  Se6  1  0.766841  0.725062  0.006233  1
  Se  Se7  1  0.238974  0.306738  0.367179  1
  Se  Se8  1  0.615910  0.617007  0.345687  1
  Se  Se9  1  0.797515  0.129069  0.167824  1
  Se  Se10  1  0.237560  0.849157  0.137776  1
  Se  Se11  1  0.749629  0.634534  0.634095  1
  Se  Se12  1  0.323205  0.375386  0.627566  1
  Se  Se13  1  0.201327  0.843983  0.853880  1
  Se  Se14  1  0.767538  0.130563  0.843555  1
  Se  Se15  1  0.007058  0.661362  0.120229  1
  Se  Se16  1  0.535064  0.839852  0.618394  1
  Se  Se17  1  0.560285  0.191978  0.572356  1
  Se  Se18  1  0.965268  0.662693  0.882960  1
  Se  Se19  1  0.977497  0.320667  0.880533  1
  Se  Se20  1  0.379175  0.475591  0.271646  1
  Se  Se21  1  0.061449  0.986753  0.241389  1
  Se  Se22  1  0.549137  0.489352  0.723349  1
  Se  Se23  1  0.003116  0.991333  0.758840  1
