# generated using pymatgen
data_Rb8ScNb2RhBr24
_symmetry_space_group_name_H-M   'P 1'
_cell_length_a   13.24794504
_cell_length_b   13.24812999
_cell_length_c   13.24622000
_cell_angle_alpha   131.64531866
_cell_angle_beta   131.54816044
_cell_angle_gamma   70.87771990
_symmetry_Int_Tables_number   1
_chemical_formula_structural   Rb8ScNb2RhBr24
_chemical_formula_sum   'Rb8 Sc1 Nb2 Rh1 Br24'
_cell_volume   1273.29907192
_cell_formula_units_Z   1
loop_
 _symmetry_equiv_pos_site_id
 _symmetry_equiv_pos_as_xyz
  1  'x, y, z'
loop_
 _atom_site_type_symbol
 _atom_site_label
 _atom_site_symmetry_multiplicity
 _atom_site_fract_x
 _atom_site_fract_y
 _atom_site_fract_z
 _atom_site_occupancy
  Rb  Rb0  1  0.374870  0.339635  0.463922  1
  Rb  Rb1  1  0.088685  0.624695  0.964338  1
  Rb  Rb2  1  0.875699  0.910974  0.536038  1
  Rb  Rb3  1  0.088512  0.126465  0.465867  1
  Rb  Rb4  1  0.377791  0.911484  0.038090  1
  Rb  Rb5  1  0.660702  0.622622  0.534200  1
  Rb  Rb6  1  0.660372  0.124371  0.035692  1
  Rb  Rb7  1  0.873509  0.339720  0.962037  1
  Sc  Sc8  1  0.000018  0.000054  0.999935  1
  Nb  Nb9  1  0.249966  0.749973  0.500027  1
  Nb  Nb10  1  0.500055  0.500056  0.000006  1
  Rh  Rh11  1  0.749968  0.249955  0.500016  1
  Br  Br12  1  0.013053  0.767071  0.284894  1
  Br  Br13  1  0.016600  0.248962  0.259844  1
  Br  Br14  1  0.271665  0.987291  0.754350  1
  Br  Br15  1  0.983869  0.241813  0.721849  1
  Br  Br16  1  0.132084  0.632075  0.499963  1
  Br  Br17  1  0.267932  0.522775  0.786402  1
  Br  Br18  1  0.482217  0.728216  0.715140  1
  Br  Br19  1  0.519971  0.261998  0.278181  1
  Br  Br20  1  0.477339  0.263305  0.744826  1
  Br  Br21  1  0.618228  0.618246  0.000092  1
  Br  Br22  1  0.518482  0.732531  0.255188  1
  Br  Br23  1  0.124274  0.124263  0.000055  1
  Br  Br24  1  0.875796  0.875800  0.999926  1
  Br  Br25  1  0.989124  0.756681  0.740047  1
  Br  Br26  1  0.751347  0.011063  0.768030  1
  Br  Br27  1  0.242765  0.983315  0.231697  1
  Br  Br28  1  0.736400  0.481540  0.213575  1
  Br  Br29  1  0.232958  0.517343  0.245697  1
  Br  Br30  1  0.367829  0.867864  0.500058  1
  Br  Br31  1  0.866863  0.366861  0.500041  1
  Br  Br32  1  0.381904  0.381874  0.999972  1
  Br  Br33  1  0.633058  0.133043  0.499979  1
  Br  Br34  1  0.758037  0.480399  0.742369  1
  Br  Br35  1  0.738055  0.015661  0.257658  1
