# generated using pymatgen
data_Er16AlCd2HgPdPt3
_symmetry_space_group_name_H-M   'P 1'
_cell_length_a   9.58174150
_cell_length_b   9.58174028
_cell_length_c   9.58399200
_cell_angle_alpha   60.00151999
_cell_angle_beta   60.00152422
_cell_angle_gamma   60.05260941
_symmetry_Int_Tables_number   1
_chemical_formula_structural   Er16AlCd2HgPdPt3
_chemical_formula_sum   'Er16 Al1 Cd2 Hg1 Pd1 Pt3'
_cell_volume   622.44741100
_cell_formula_units_Z   1
loop_
 _symmetry_equiv_pos_site_id
 _symmetry_equiv_pos_as_xyz
  1  'x, y, z'
loop_
 _atom_site_type_symbol
 _atom_site_label
 _atom_site_symmetry_multiplicity
 _atom_site_fract_x
 _atom_site_fract_y
 _atom_site_fract_z
 _atom_site_occupancy
  Er  Er0  1  0.350508  0.350508  0.350201  1
  Er  Er1  1  0.357213  0.357213  0.937457  1
  Er  Er2  1  0.359751  0.932275  0.358107  1
  Er  Er3  1  0.932275  0.359751  0.358107  1
  Er  Er4  1  0.808835  0.189865  0.190186  1
  Er  Er5  1  0.193653  0.808739  0.808755  1
  Er  Er6  1  0.189865  0.808835  0.190186  1
  Er  Er7  1  0.808739  0.193653  0.808755  1
  Er  Er8  1  0.189495  0.189495  0.809070  1
  Er  Er9  1  0.808497  0.808497  0.193987  1
  Er  Er10  1  0.932442  0.566730  0.566479  1
  Er  Er11  1  0.565102  0.935495  0.936766  1
  Er  Er12  1  0.566730  0.932442  0.566479  1
  Er  Er13  1  0.935495  0.565102  0.936766  1
  Er  Er14  1  0.566602  0.566602  0.933641  1
  Er  Er15  1  0.936545  0.936545  0.564986  1
  Al  Al16  1  0.581524  0.581524  0.583027  1
  Cd  Cd17  1  0.579596  0.255752  0.581840  1
  Cd  Cd18  1  0.255752  0.579596  0.581840  1
  Hg  Hg19  1  0.584753  0.584753  0.242390  1
  Pd  Pd20  1  0.144635  0.144635  0.147419  1
  Pt  Pt21  1  0.141022  0.141022  0.569056  1
  Pt  Pt22  1  0.140736  0.570230  0.142251  1
  Pt  Pt23  1  0.570230  0.140736  0.142251  1
