# generated using pymatgen
data_Y4ReSi4Ir
_symmetry_space_group_name_H-M   'P 1'
_cell_length_a   5.75769935
_cell_length_b   5.75769855
_cell_length_c   10.09456470
_cell_angle_alpha   62.97267320
_cell_angle_beta   62.97267842
_cell_angle_gamma   43.21849456
_symmetry_Int_Tables_number   1
_chemical_formula_structural   Y4ReSi4Ir
_chemical_formula_sum   'Y4 Re1 Si4 Ir1'
_cell_volume   199.92208791
_cell_formula_units_Z   1
loop_
 _symmetry_equiv_pos_site_id
 _symmetry_equiv_pos_as_xyz
  1  'x, y, z'
loop_
 _atom_site_type_symbol
 _atom_site_label
 _atom_site_symmetry_multiplicity
 _atom_site_fract_x
 _atom_site_fract_y
 _atom_site_fract_z
 _atom_site_occupancy
  Y  Y0  1  0.007177  0.007177  0.320411  1
  Y  Y1  1  0.990012  0.990012  0.679925  1
  Y  Y2  1  0.816253  0.816253  0.108430  1
  Y  Y3  1  0.186115  0.186115  0.889323  1
  Re  Re4  1  0.272734  0.272734  0.374486  1
  Si  Si5  1  0.644878  0.644878  0.438924  1
  Si  Si6  1  0.357769  0.357769  0.562048  1
  Si  Si7  1  0.502945  0.502945  0.122983  1
  Si  Si8  1  0.494090  0.494090  0.875573  1
  Ir  Ir9  1  0.728029  0.728029  0.627896  1
