# generated using pymatgen
data_Y3Lu7Ag3Ru
_symmetry_space_group_name_H-M   'P 1'
_cell_length_a   9.35670700
_cell_length_b   9.35670765
_cell_length_c   9.49918000
_cell_angle_alpha   90.00000000
_cell_angle_beta   90.00000000
_cell_angle_gamma   119.99999416
_symmetry_Int_Tables_number   1
_chemical_formula_structural   Y3Lu7Ag3Ru
_chemical_formula_sum   'Y6 Lu14 Ag6 Ru2'
_cell_volume   720.21616505
_cell_formula_units_Z   2
loop_
 _symmetry_equiv_pos_site_id
 _symmetry_equiv_pos_as_xyz
  1  'x, y, z'
loop_
 _atom_site_type_symbol
 _atom_site_label
 _atom_site_symmetry_multiplicity
 _atom_site_fract_x
 _atom_site_fract_y
 _atom_site_fract_z
 _atom_site_occupancy
  Y  Y0  1  0.540383  0.459617  0.250000  1
  Y  Y1  1  0.540383  0.080766  0.250000  1
  Y  Y2  1  0.919234  0.459617  0.250000  1
  Y  Y3  1  0.459617  0.540383  0.750000  1
  Y  Y4  1  0.459617  0.919234  0.750000  1
  Y  Y5  1  0.080766  0.540383  0.750000  1
  Lu  Lu6  1  0.000000  0.000000  0.500000  1
  Lu  Lu7  1  0.000000  0.000000  0.000000  1
  Lu  Lu8  1  0.209074  0.790926  0.441973  1
  Lu  Lu9  1  0.209074  0.418149  0.441973  1
  Lu  Lu10  1  0.581851  0.790926  0.441973  1
  Lu  Lu11  1  0.790926  0.209074  0.558027  1
  Lu  Lu12  1  0.790926  0.581851  0.558027  1
  Lu  Lu13  1  0.418149  0.209074  0.558027  1
  Lu  Lu14  1  0.790926  0.209074  0.941973  1
  Lu  Lu15  1  0.790926  0.581851  0.941973  1
  Lu  Lu16  1  0.418149  0.209074  0.941973  1
  Lu  Lu17  1  0.209074  0.790926  0.058027  1
  Lu  Lu18  1  0.209074  0.418149  0.058027  1
  Lu  Lu19  1  0.581851  0.790926  0.058027  1
  Ag  Ag20  1  0.886071  0.113929  0.250000  1
  Ag  Ag21  1  0.886071  0.772143  0.250000  1
  Ag  Ag22  1  0.227857  0.113929  0.250000  1
  Ag  Ag23  1  0.113929  0.886071  0.750000  1
  Ag  Ag24  1  0.113929  0.227857  0.750000  1
  Ag  Ag25  1  0.772143  0.886071  0.750000  1
  Ru  Ru26  1  0.333333  0.666667  0.250000  1
  Ru  Ru27  1  0.666667  0.333333  0.750000  1
