# generated using pymatgen
data_NdHo7AlPd24
_symmetry_space_group_name_H-M   'P 1'
_cell_length_a   8.35205676
_cell_length_b   8.35205651
_cell_length_c   8.35205703
_cell_angle_alpha   90.09593856
_cell_angle_beta   89.90405505
_cell_angle_gamma   89.90406527
_symmetry_Int_Tables_number   1
_chemical_formula_structural   NdHo7AlPd24
_chemical_formula_sum   'Nd1 Ho7 Al1 Pd24'
_cell_volume   582.61073691
_cell_formula_units_Z   1
loop_
 _symmetry_equiv_pos_site_id
 _symmetry_equiv_pos_as_xyz
  1  'x, y, z'
loop_
 _atom_site_type_symbol
 _atom_site_label
 _atom_site_symmetry_multiplicity
 _atom_site_fract_x
 _atom_site_fract_y
 _atom_site_fract_z
 _atom_site_occupancy
  Nd  Nd0  1  0.747792  0.252208  0.252208  1
  Ho  Ho1  1  0.251963  0.251812  0.251812  1
  Ho  Ho2  1  0.748260  0.748400  0.748400  1
  Ho  Ho3  1  0.748188  0.748037  0.251812  1
  Ho  Ho4  1  0.748188  0.251812  0.748037  1
  Ho  Ho5  1  0.251600  0.251740  0.748400  1
  Ho  Ho6  1  0.251600  0.748400  0.251740  1
  Ho  Ho7  1  0.252121  0.747879  0.747879  1
  Al  Al8  1  0.000242  0.999758  0.999758  1
  Pd  Pd9  1  0.259728  0.500488  0.999766  1
  Pd  Pd10  1  0.740581  0.502255  0.996930  1
  Pd  Pd11  1  0.003070  0.259419  0.502255  1
  Pd  Pd12  1  0.497745  0.259419  0.996930  1
  Pd  Pd13  1  0.000234  0.740272  0.500488  1
  Pd  Pd14  1  0.499512  0.740272  0.999766  1
  Pd  Pd15  1  0.497745  0.996930  0.259419  1
  Pd  Pd16  1  0.259728  0.999766  0.500488  1
  Pd  Pd17  1  0.499512  0.999766  0.740272  1
  Pd  Pd18  1  0.740581  0.996930  0.502255  1
  Pd  Pd19  1  0.003070  0.502255  0.259419  1
  Pd  Pd20  1  0.000234  0.500488  0.740272  1
  Pd  Pd21  1  0.252298  0.500223  0.500223  1
  Pd  Pd22  1  0.747614  0.502981  0.502981  1
  Pd  Pd23  1  0.497019  0.252386  0.502981  1
  Pd  Pd24  1  0.499777  0.747702  0.500223  1
  Pd  Pd25  1  0.497019  0.502981  0.252386  1
  Pd  Pd26  1  0.499777  0.500223  0.747702  1
  Pd  Pd27  1  0.287976  0.999833  0.999833  1
  Pd  Pd28  1  0.711492  0.997500  0.997500  1
  Pd  Pd29  1  0.002500  0.288508  0.997500  1
  Pd  Pd30  1  0.000167  0.712024  0.999833  1
  Pd  Pd31  1  0.002500  0.997500  0.288508  1
  Pd  Pd32  1  0.000167  0.999833  0.712024  1
