# generated using pymatgen
data_Nd7YCd2PdRu
_symmetry_space_group_name_H-M   'P 1'
_cell_length_a   9.92514642
_cell_length_b   9.90570489
_cell_length_c   9.92514628
_cell_angle_alpha   60.06478425
_cell_angle_beta   60.22871088
_cell_angle_gamma   60.06477940
_symmetry_Int_Tables_number   1
_chemical_formula_structural   Nd7YCd2PdRu
_chemical_formula_sum   'Nd14 Y2 Cd4 Pd2 Ru2'
_cell_volume   691.85535744
_cell_formula_units_Z   2
loop_
 _symmetry_equiv_pos_site_id
 _symmetry_equiv_pos_as_xyz
  1  'x, y, z'
loop_
 _atom_site_type_symbol
 _atom_site_label
 _atom_site_symmetry_multiplicity
 _atom_site_fract_x
 _atom_site_fract_y
 _atom_site_fract_z
 _atom_site_occupancy
  Nd  Nd0  1  0.438758  0.436959  0.064819  1
  Nd  Nd1  1  0.064819  0.059465  0.438758  1
  Nd  Nd2  1  0.438758  0.059465  0.064819  1
  Nd  Nd3  1  0.850126  0.847163  0.850126  1
  Nd  Nd4  1  0.688696  0.317510  0.304950  1
  Nd  Nd5  1  0.064819  0.436959  0.438758  1
  Nd  Nd6  1  0.304950  0.688844  0.688696  1
  Nd  Nd7  1  0.304950  0.317510  0.688696  1
  Nd  Nd8  1  0.860841  0.847305  0.444550  1
  Nd  Nd9  1  0.688696  0.688844  0.304950  1
  Nd  Nd10  1  0.444550  0.847305  0.860841  1
  Nd  Nd11  1  0.061575  0.438425  0.061575  1
  Nd  Nd12  1  0.850126  0.452584  0.850126  1
  Nd  Nd13  1  0.439294  0.060706  0.439294  1
  Y  Y14  1  0.310432  0.689568  0.310432  1
  Y  Y15  1  0.692357  0.307643  0.692357  1
  Cd  Cd16  1  0.081143  0.758547  0.081143  1
  Cd  Cd17  1  0.077541  0.081348  0.759762  1
  Cd  Cd18  1  0.759762  0.081348  0.077541  1
  Cd  Cd19  1  0.081143  0.079167  0.081143  1
  Pd  Pd20  1  0.641477  0.074259  0.641477  1
  Pd  Pd21  1  0.641477  0.642785  0.641477  1
  Ru  Ru22  1  0.638992  0.643146  0.074716  1
  Ru  Ru23  1  0.074716  0.643146  0.638992  1
