# generated using pymatgen
data_Tm2Al4Pt3
_symmetry_space_group_name_H-M   'P 1'
_cell_length_a   13.67876700
_cell_length_b   13.67876650
_cell_length_c   4.20661200
_cell_angle_alpha   90.00000000
_cell_angle_beta   90.00000000
_cell_angle_gamma   119.99999396
_symmetry_Int_Tables_number   1
_chemical_formula_structural   Tm2Al4Pt3
_chemical_formula_sum   'Tm8 Al16 Pt12'
_cell_volume   681.64303662
_cell_formula_units_Z   4
loop_
 _symmetry_equiv_pos_site_id
 _symmetry_equiv_pos_as_xyz
  1  'x, y, z'
loop_
 _atom_site_type_symbol
 _atom_site_label
 _atom_site_symmetry_multiplicity
 _atom_site_fract_x
 _atom_site_fract_y
 _atom_site_fract_z
 _atom_site_occupancy
  Tm  Tm0  1  0.176930  0.000000  0.500000  1
  Tm  Tm1  1  0.823070  0.823070  0.500000  1
  Tm  Tm2  1  0.000000  0.176930  0.500000  1
  Tm  Tm3  1  0.666667  0.333333  0.000000  1
  Tm  Tm4  1  0.333333  0.666667  0.000000  1
  Tm  Tm5  1  0.542982  0.000000  0.000000  1
  Tm  Tm6  1  0.457018  0.457018  0.000000  1
  Tm  Tm7  1  0.000000  0.542982  0.000000  1
  Al  Al8  1  0.464973  0.125409  0.500000  1
  Al  Al9  1  0.874591  0.339565  0.500000  1
  Al  Al10  1  0.660435  0.535027  0.500000  1
  Al  Al11  1  0.535027  0.660435  0.500000  1
  Al  Al12  1  0.339565  0.874591  0.500000  1
  Al  Al13  1  0.125409  0.464973  0.500000  1
  Al  Al14  1  0.380373  0.201635  0.000000  1
  Al  Al15  1  0.798365  0.178741  0.000000  1
  Al  Al16  1  0.821259  0.619627  0.000000  1
  Al  Al17  1  0.619627  0.821259  0.000000  1
  Al  Al18  1  0.000000  0.000000  0.000000  1
  Al  Al19  1  0.178741  0.798365  0.000000  1
  Al  Al20  1  0.718618  0.000000  0.500000  1
  Al  Al21  1  0.281382  0.281382  0.500000  1
  Al  Al22  1  0.000000  0.718618  0.500000  1
  Al  Al23  1  0.201635  0.380373  0.000000  1
  Pt  Pt24  1  0.000000  0.343029  0.000000  1
  Pt  Pt25  1  0.343029  0.000000  0.000000  1
  Pt  Pt26  1  0.491544  0.324606  0.500000  1
  Pt  Pt27  1  0.675394  0.166937  0.500000  1
  Pt  Pt28  1  0.833063  0.508456  0.500000  1
  Pt  Pt29  1  0.508456  0.833063  0.500000  1
  Pt  Pt30  1  0.166937  0.675394  0.500000  1
  Pt  Pt31  1  0.324606  0.491544  0.500000  1
  Pt  Pt32  1  0.000000  0.819958  0.000000  1
  Pt  Pt33  1  0.180042  0.180042  0.000000  1
  Pt  Pt34  1  0.819958  0.000000  0.000000  1
  Pt  Pt35  1  0.656971  0.656971  0.000000  1
