# generated using pymatgen
data_Hf2Zr3(Re3Tc)6
_symmetry_space_group_name_H-M   'P 1'
_cell_length_a   8.47764525
_cell_length_b   8.47764620
_cell_length_c   8.46627203
_cell_angle_alpha   109.47051812
_cell_angle_beta   109.47051794
_cell_angle_gamma   109.52698685
_symmetry_Int_Tables_number   1
_chemical_formula_structural   Hf2Zr3(Re3Tc)6
_chemical_formula_sum   'Hf2 Zr3 Re18 Tc6'
_cell_volume   468.08965693
_cell_formula_units_Z   1
loop_
 _symmetry_equiv_pos_site_id
 _symmetry_equiv_pos_as_xyz
  1  'x, y, z'
loop_
 _atom_site_type_symbol
 _atom_site_label
 _atom_site_symmetry_multiplicity
 _atom_site_fract_x
 _atom_site_fract_y
 _atom_site_fract_z
 _atom_site_occupancy
  Hf  Hf0  1  0.999781  0.999781  0.627735  1
  Hf  Hf1  1  0.372046  0.372046  0.372265  1
  Zr  Zr2  1  0.999849  0.999849  0.000000  1
  Zr  Zr3  1  0.625939  0.999870  0.000000  1
  Zr  Zr4  1  0.999870  0.625939  0.000000  1
  Re  Re5  1  0.324091  0.324091  0.720670  1
  Re  Re6  1  0.001025  0.676298  0.396486  1
  Re  Re7  1  0.676298  0.001025  0.396486  1
  Re  Re8  1  0.603423  0.603423  0.279330  1
  Re  Re9  1  0.279811  0.604539  0.603514  1
  Re  Re10  1  0.604539  0.279811  0.603514  1
  Re  Re11  1  0.375853  0.195097  0.000000  1
  Re  Re12  1  0.180405  0.805838  0.805031  1
  Re  Re13  1  0.375373  0.000806  0.194969  1
  Re  Re14  1  0.195097  0.375853  0.000000  1
  Re  Re15  1  0.000806  0.375373  0.194969  1
  Re  Re16  1  0.805838  0.180405  0.805031  1
  Re  Re17  1  0.806558  0.806558  0.182533  1
  Re  Re18  1  0.000944  0.194321  0.377529  1
  Re  Re19  1  0.194321  0.000944  0.377529  1
  Re  Re20  1  0.624027  0.624027  0.817467  1
  Re  Re21  1  0.816792  0.623414  0.622471  1
  Re  Re22  1  0.623414  0.816792  0.622471  1
  Tc  Tc23  1  0.396227  0.677021  0.000000  1
  Tc  Tc24  1  0.719430  0.323109  0.322212  1
  Tc  Tc25  1  0.397217  0.000898  0.677788  1
  Tc  Tc26  1  0.677021  0.396227  0.000000  1
  Tc  Tc27  1  0.000898  0.397217  0.677788  1
  Tc  Tc28  1  0.323109  0.719430  0.322212  1
