# generated using pymatgen
data_Eu2HoEr(Ga2Ag)4
_symmetry_space_group_name_H-M   'P 1'
_cell_length_a   4.43621600
_cell_length_b   7.07483193
_cell_length_c   10.47099830
_cell_angle_alpha   89.96894193
_cell_angle_beta   90.00000000
_cell_angle_gamma   90.00000000
_symmetry_Int_Tables_number   1
_chemical_formula_structural   Eu2HoEr(Ga2Ag)4
_chemical_formula_sum   'Eu2 Ho1 Er1 Ga8 Ag4'
_cell_volume   328.63728697
_cell_formula_units_Z   1
loop_
 _symmetry_equiv_pos_site_id
 _symmetry_equiv_pos_as_xyz
  1  'x, y, z'
loop_
 _atom_site_type_symbol
 _atom_site_label
 _atom_site_symmetry_multiplicity
 _atom_site_fract_x
 _atom_site_fract_y
 _atom_site_fract_z
 _atom_site_occupancy
  Eu  Eu0  1  0.750000  0.218509  0.171857  1
  Eu  Eu1  1  0.750000  0.717458  0.327964  1
  Ho  Ho2  1  0.250000  0.283325  0.671210  1
  Er  Er3  1  0.250000  0.783883  0.828498  1
  Ga  Ga4  1  0.250000  0.921147  0.146411  1
  Ga  Ga5  1  0.750000  0.077624  0.843647  1
  Ga  Ga6  1  0.750000  0.576949  0.656402  1
  Ga  Ga7  1  0.250000  0.419670  0.353565  1
  Ga  Ga8  1  0.250000  0.702161  0.540254  1
  Ga  Ga9  1  0.750000  0.295320  0.469298  1
  Ga  Ga10  1  0.750000  0.797573  0.030373  1
  Ga  Ga11  1  0.250000  0.203874  0.959746  1
  Ag  Ag12  1  0.250000  0.541569  0.093640  1
  Ag  Ag13  1  0.750000  0.462189  0.898284  1
  Ag  Ag14  1  0.750000  0.959884  0.602231  1
  Ag  Ag15  1  0.250000  0.038863  0.406620  1
