# generated using pymatgen
data_Sc16In6CoPt
_symmetry_space_group_name_H-M   'P 1'
_cell_length_a   9.84263900
_cell_length_b   9.84260900
_cell_length_c   6.46322700
_cell_angle_alpha   89.99996402
_cell_angle_beta   89.99951616
_cell_angle_gamma   119.99958009
_symmetry_Int_Tables_number   1
_chemical_formula_structural   Sc16In6CoPt
_chemical_formula_sum   'Sc16 In6 Co1 Pt1'
_cell_volume   542.25512875
_cell_formula_units_Z   1
loop_
 _symmetry_equiv_pos_site_id
 _symmetry_equiv_pos_as_xyz
  1  'x, y, z'
loop_
 _atom_site_type_symbol
 _atom_site_label
 _atom_site_symmetry_multiplicity
 _atom_site_fract_x
 _atom_site_fract_y
 _atom_site_fract_z
 _atom_site_occupancy
  Sc  Sc0  1  0.525678  0.051352  0.505891  1
  Sc  Sc1  1  0.948648  0.474322  0.505889  1
  Sc  Sc2  1  0.525677  0.474323  0.505892  1
  Sc  Sc3  1  0.468994  0.937990  0.003910  1
  Sc  Sc4  1  0.062009  0.531003  0.003908  1
  Sc  Sc5  1  0.468996  0.531005  0.003913  1
  Sc  Sc6  1  0.179799  0.359594  0.721662  1
  Sc  Sc7  1  0.640409  0.820204  0.721662  1
  Sc  Sc8  1  0.179800  0.820201  0.721661  1
  Sc  Sc9  1  0.824393  0.648798  0.219291  1
  Sc  Sc10  1  0.351196  0.175597  0.219291  1
  Sc  Sc11  1  0.824399  0.175603  0.219295  1
  Sc  Sc12  1  0.666666  0.333334  0.873780  1
  Sc  Sc13  1  0.333336  0.666665  0.393102  1
  Sc  Sc14  1  0.000001  0.000000  0.493767  1
  Sc  Sc15  1  0.000002  0.999999  0.992637  1
  In  In16  1  0.838031  0.676056  0.746319  1
  In  In17  1  0.323943  0.161969  0.746319  1
  In  In18  1  0.838034  0.161986  0.746355  1
  In  In19  1  0.163741  0.327496  0.248870  1
  In  In20  1  0.672507  0.836262  0.248869  1
  In  In21  1  0.163742  0.836244  0.248870  1
  Co  Co22  1  0.333334  0.666666  0.783713  1
  Pt  Pt23  1  0.666667  0.333333  0.283170  1
