# generated using pymatgen
data_Ac2Tb3Tl4
_symmetry_space_group_name_H-M   'P 1'
_cell_length_a   8.59479100
_cell_length_b   8.59479100
_cell_length_c   15.86910300
_cell_angle_alpha   90.00000000
_cell_angle_beta   90.00000000
_cell_angle_gamma   90.00000000
_symmetry_Int_Tables_number   1
_chemical_formula_structural   Ac2Tb3Tl4
_chemical_formula_sum   'Ac8 Tb12 Tl16'
_cell_volume   1172.25749936
_cell_formula_units_Z   4
loop_
 _symmetry_equiv_pos_site_id
 _symmetry_equiv_pos_as_xyz
  1  'x, y, z'
loop_
 _atom_site_type_symbol
 _atom_site_label
 _atom_site_symmetry_multiplicity
 _atom_site_fract_x
 _atom_site_fract_y
 _atom_site_fract_z
 _atom_site_occupancy
  Ac  Ac0  1  0.643478  0.994206  0.465377  1
  Ac  Ac1  1  0.356522  0.005794  0.965377  1
  Ac  Ac2  1  0.994206  0.643478  0.534623  1
  Ac  Ac3  1  0.494206  0.856522  0.215377  1
  Ac  Ac4  1  0.505794  0.143478  0.715377  1
  Ac  Ac5  1  0.856522  0.494206  0.784623  1
  Ac  Ac6  1  0.143478  0.505794  0.284623  1
  Ac  Ac7  1  0.005794  0.356522  0.034623  1
  Tb  Tb8  1  0.500565  0.340835  0.125140  1
  Tb  Tb9  1  0.000565  0.159165  0.624860  1
  Tb  Tb10  1  0.840835  0.999435  0.875140  1
  Tb  Tb11  1  0.159165  0.000565  0.375140  1
  Tb  Tb12  1  0.499435  0.659165  0.625140  1
  Tb  Tb13  1  0.340835  0.500565  0.874860  1
  Tb  Tb14  1  0.659165  0.499435  0.374860  1
  Tb  Tb15  1  0.999435  0.840835  0.124860  1
  Tb  Tb16  1  0.325819  0.325819  0.500000  1
  Tb  Tb17  1  0.174181  0.825819  0.750000  1
  Tb  Tb18  1  0.825819  0.174181  0.250000  1
  Tb  Tb19  1  0.674181  0.674181  0.000000  1
  Tl  Tl20  1  0.279758  0.949747  0.567345  1
  Tl  Tl21  1  0.720242  0.050253  0.067345  1
  Tl  Tl22  1  0.949747  0.279758  0.432655  1
  Tl  Tl23  1  0.449747  0.220242  0.317345  1
  Tl  Tl24  1  0.550253  0.779758  0.817345  1
  Tl  Tl25  1  0.220242  0.449747  0.682655  1
  Tl  Tl26  1  0.779758  0.550253  0.182655  1
  Tl  Tl27  1  0.050253  0.720242  0.932655  1
  Tl  Tl28  1  0.803097  0.863455  0.679973  1
  Tl  Tl29  1  0.196903  0.136545  0.179973  1
  Tl  Tl30  1  0.863455  0.803097  0.320027  1
  Tl  Tl31  1  0.363455  0.696903  0.429973  1
  Tl  Tl32  1  0.636545  0.303097  0.929973  1
  Tl  Tl33  1  0.696903  0.363455  0.570027  1
  Tl  Tl34  1  0.303097  0.636545  0.070027  1
  Tl  Tl35  1  0.136545  0.196903  0.820027  1
