# generated using pymatgen
data_Y12ZnCdCo4
_symmetry_space_group_name_H-M   'P 1'
_cell_length_a   8.34517262
_cell_length_b   8.34517264
_cell_length_c   8.34517303
_cell_angle_alpha   112.13249373
_cell_angle_beta   109.98022797
_cell_angle_gamma   106.35300796
_symmetry_Int_Tables_number   1
_chemical_formula_structural   Y12ZnCdCo4
_chemical_formula_sum   'Y12 Zn1 Cd1 Co4'
_cell_volume   446.23378516
_cell_formula_units_Z   1
loop_
 _symmetry_equiv_pos_site_id
 _symmetry_equiv_pos_as_xyz
  1  'x, y, z'
loop_
 _atom_site_type_symbol
 _atom_site_label
 _atom_site_symmetry_multiplicity
 _atom_site_fract_x
 _atom_site_fract_y
 _atom_site_fract_z
 _atom_site_occupancy
  Y  Y0  1  0.428357  0.229860  0.198497  1
  Y  Y1  1  0.571643  0.770140  0.801503  1
  Y  Y2  1  0.031364  0.229860  0.801503  1
  Y  Y3  1  0.968636  0.770140  0.198497  1
  Y  Y4  1  0.181863  0.283696  0.465559  1
  Y  Y5  1  0.818137  0.716304  0.534441  1
  Y  Y6  1  0.181863  0.716304  0.898167  1
  Y  Y7  1  0.818137  0.283696  0.101833  1
  Y  Y8  1  0.321583  0.631217  0.309634  1
  Y  Y9  1  0.678417  0.368783  0.690366  1
  Y  Y10  1  0.321583  0.011950  0.690366  1
  Y  Y11  1  0.678417  0.988050  0.309634  1
  Zn  Zn12  1  0.000000  0.000000  0.000000  1
  Cd  Cd13  1  0.500000  0.500000  0.000000  1
  Co  Co14  1  0.354891  0.000000  0.354891  1
  Co  Co15  1  0.645109  0.000000  0.645109  1
  Co  Co16  1  0.112123  0.612123  0.500000  1
  Co  Co17  1  0.887877  0.387877  0.500000  1
