# generated using pymatgen
data_Sr6Cd2IrRuO12
_symmetry_space_group_name_H-M   'P 1'
_cell_length_a   6.85577359
_cell_length_b   6.85577356
_cell_length_c   6.85577367
_cell_angle_alpha   90.23625409
_cell_angle_beta   90.23625525
_cell_angle_gamma   90.23624785
_symmetry_Int_Tables_number   1
_chemical_formula_structural   Sr6Cd2IrRuO12
_chemical_formula_sum   'Sr6 Cd2 Ir1 Ru1 O12'
_cell_volume   322.22430569
_cell_formula_units_Z   1
loop_
 _symmetry_equiv_pos_site_id
 _symmetry_equiv_pos_as_xyz
  1  'x, y, z'
loop_
 _atom_site_type_symbol
 _atom_site_label
 _atom_site_symmetry_multiplicity
 _atom_site_fract_x
 _atom_site_fract_y
 _atom_site_fract_z
 _atom_site_occupancy
  Sr  Sr0  1  0.389709  0.746329  0.114118  1
  Sr  Sr1  1  0.885882  0.610291  0.253671  1
  Sr  Sr2  1  0.746328  0.114118  0.389709  1
  Sr  Sr3  1  0.253671  0.885881  0.610291  1
  Sr  Sr4  1  0.114118  0.389709  0.746329  1
  Sr  Sr5  1  0.610291  0.253671  0.885882  1
  Cd  Cd6  1  0.249813  0.249813  0.249813  1
  Cd  Cd7  1  0.750187  0.750187  0.750187  1
  Ir  Ir8  1  0.500000  0.500000  0.500000  1
  Ru  Ru9  1  0.000000  0.000000  0.000000  1
  O  O10  1  0.720468  0.920166  0.053754  1
  O  O11  1  0.946244  0.279533  0.079835  1
  O  O12  1  0.550002  0.413461  0.214636  1
  O  O13  1  0.079834  0.946245  0.279532  1
  O  O14  1  0.214636  0.550002  0.413461  1
  O  O15  1  0.586539  0.785363  0.449998  1
  O  O16  1  0.413461  0.214636  0.550002  1
  O  O17  1  0.785363  0.449998  0.586538  1
  O  O18  1  0.920166  0.053754  0.720467  1
  O  O19  1  0.449998  0.586538  0.785363  1
  O  O20  1  0.053755  0.720467  0.920165  1
  O  O21  1  0.279532  0.079834  0.946246  1
