# generated using pymatgen
data_Nd2Mn(Si3Pd10)2
_symmetry_space_group_name_H-M   'P 1'
_cell_length_a   8.71455970
_cell_length_b   8.71455970
_cell_length_c   8.71456000
_cell_angle_alpha   59.99999886
_cell_angle_beta   59.99999887
_cell_angle_gamma   59.99999705
_symmetry_Int_Tables_number   1
_chemical_formula_structural   Nd2Mn(Si3Pd10)2
_chemical_formula_sum   'Nd2 Mn1 Si6 Pd20'
_cell_volume   467.97359433
_cell_formula_units_Z   1
loop_
 _symmetry_equiv_pos_site_id
 _symmetry_equiv_pos_as_xyz
  1  'x, y, z'
loop_
 _atom_site_type_symbol
 _atom_site_label
 _atom_site_symmetry_multiplicity
 _atom_site_fract_x
 _atom_site_fract_y
 _atom_site_fract_z
 _atom_site_occupancy
  Nd  Nd0  1  0.250000  0.250000  0.250000  1
  Nd  Nd1  1  0.750000  0.750000  0.750000  1
  Mn  Mn2  1  0.000000  0.000000  0.000000  1
  Si  Si3  1  0.734631  0.265369  0.265369  1
  Si  Si4  1  0.265369  0.734631  0.734631  1
  Si  Si5  1  0.265369  0.734631  0.265369  1
  Si  Si6  1  0.734631  0.265369  0.734631  1
  Si  Si7  1  0.265369  0.265369  0.734631  1
  Si  Si8  1  0.734631  0.734631  0.265369  1
  Pd  Pd9  1  0.342907  0.000000  0.000000  1
  Pd  Pd10  1  0.657093  0.000000  0.000000  1
  Pd  Pd11  1  0.000000  0.342907  0.657093  1
  Pd  Pd12  1  0.000000  0.657093  0.342907  1
  Pd  Pd13  1  0.000000  0.342907  0.000000  1
  Pd  Pd14  1  0.657093  0.000000  0.342907  1
  Pd  Pd15  1  0.000000  0.657093  0.000000  1
  Pd  Pd16  1  0.342907  0.000000  0.657093  1
  Pd  Pd17  1  0.000000  0.000000  0.342907  1
  Pd  Pd18  1  0.000000  0.000000  0.657093  1
  Pd  Pd19  1  0.657093  0.342907  0.000000  1
  Pd  Pd20  1  0.342907  0.657093  0.000000  1
  Pd  Pd21  1  0.385127  0.385127  0.385127  1
  Pd  Pd22  1  0.614873  0.614873  0.614873  1
  Pd  Pd23  1  0.385127  0.385127  0.844618  1
  Pd  Pd24  1  0.385127  0.844618  0.385127  1
  Pd  Pd25  1  0.614873  0.614873  0.155382  1
  Pd  Pd26  1  0.614873  0.155382  0.614873  1
  Pd  Pd27  1  0.844618  0.385127  0.385127  1
  Pd  Pd28  1  0.155382  0.614873  0.614873  1
