# generated using pymatgen
data_Ac2YbRh2
_symmetry_space_group_name_H-M   'P 1'
_cell_length_a   7.83308328
_cell_length_b   7.83308374
_cell_length_c   7.83308402
_cell_angle_alpha   70.45080305
_cell_angle_beta   70.45080009
_cell_angle_gamma   70.45079409
_symmetry_Int_Tables_number   1
_chemical_formula_structural   Ac2YbRh2
_chemical_formula_sum   'Ac6 Yb3 Rh6'
_cell_volume   413.17013709
_cell_formula_units_Z   3
loop_
 _symmetry_equiv_pos_site_id
 _symmetry_equiv_pos_as_xyz
  1  'x, y, z'
loop_
 _atom_site_type_symbol
 _atom_site_label
 _atom_site_symmetry_multiplicity
 _atom_site_fract_x
 _atom_site_fract_y
 _atom_site_fract_z
 _atom_site_occupancy
  Ac  Ac0  1  0.148807  0.394486  0.679776  1
  Ac  Ac1  1  0.679776  0.148807  0.394486  1
  Ac  Ac2  1  0.394486  0.679776  0.148807  1
  Ac  Ac3  1  0.851193  0.605514  0.320224  1
  Ac  Ac4  1  0.320224  0.851193  0.605514  1
  Ac  Ac5  1  0.605514  0.320224  0.851193  1
  Yb  Yb6  1  0.000000  0.000000  0.000000  1
  Yb  Yb7  1  0.806799  0.806799  0.806799  1
  Yb  Yb8  1  0.193201  0.193201  0.193201  1
  Rh  Rh9  1  0.954643  0.170830  0.583414  1
  Rh  Rh10  1  0.583414  0.954643  0.170830  1
  Rh  Rh11  1  0.170830  0.583414  0.954643  1
  Rh  Rh12  1  0.045357  0.829170  0.416586  1
  Rh  Rh13  1  0.416586  0.045357  0.829170  1
  Rh  Rh14  1  0.829170  0.416586  0.045357  1
