# generated using pymatgen
data_Sc5In4CuRh
_symmetry_space_group_name_H-M   'P 1'
_cell_length_a   3.38268100
_cell_length_b   7.71510911
_cell_length_c   17.54894075
_cell_angle_alpha   89.86777724
_cell_angle_beta   90.00000000
_cell_angle_gamma   90.00000000
_symmetry_Int_Tables_number   1
_chemical_formula_structural   Sc5In4CuRh
_chemical_formula_sum   'Sc10 In8 Cu2 Rh2'
_cell_volume   457.98670134
_cell_formula_units_Z   2
loop_
 _symmetry_equiv_pos_site_id
 _symmetry_equiv_pos_as_xyz
  1  'x, y, z'
loop_
 _atom_site_type_symbol
 _atom_site_label
 _atom_site_symmetry_multiplicity
 _atom_site_fract_x
 _atom_site_fract_y
 _atom_site_fract_z
 _atom_site_occupancy
  Sc  Sc0  1  0.000000  0.000000  0.000000  1
  Sc  Sc1  1  0.000000  0.500000  0.500000  1
  Sc  Sc2  1  0.000000  0.737162  0.779955  1
  Sc  Sc3  1  0.000000  0.262838  0.220045  1
  Sc  Sc4  1  0.000000  0.256037  0.721006  1
  Sc  Sc5  1  0.000000  0.743963  0.278994  1
  Sc  Sc6  1  0.000000  0.873841  0.582254  1
  Sc  Sc7  1  0.000000  0.126159  0.417746  1
  Sc  Sc8  1  0.000000  0.374237  0.915560  1
  Sc  Sc9  1  0.000000  0.625763  0.084440  1
  In  In10  1  0.500000  0.797909  0.432659  1
  In  In11  1  0.500000  0.202091  0.567341  1
  In  In12  1  0.500000  0.296623  0.066625  1
  In  In13  1  0.500000  0.703377  0.933375  1
  In  In14  1  0.500000  0.930181  0.150862  1
  In  In15  1  0.500000  0.069819  0.849138  1
  In  In16  1  0.500000  0.427781  0.351840  1
  In  In17  1  0.500000  0.572219  0.648160  1
  Cu  Cu18  1  0.500000  0.963130  0.696287  1
  Cu  Cu19  1  0.500000  0.036870  0.303713  1
  Rh  Rh20  1  0.500000  0.460922  0.804732  1
  Rh  Rh21  1  0.500000  0.539078  0.195268  1
