# generated using pymatgen
data_Tm8Al3Si8Ge
_symmetry_space_group_name_H-M   'P 1'
_cell_length_a   5.52062746
_cell_length_b   5.52062836
_cell_length_c   19.32342415
_cell_angle_alpha   81.78228225
_cell_angle_beta   81.78228034
_cell_angle_gamma   42.70687180
_symmetry_Int_Tables_number   1
_chemical_formula_structural   Tm8Al3Si8Ge
_chemical_formula_sum   'Tm8 Al3 Si8 Ge1'
_cell_volume   394.70600747
_cell_formula_units_Z   1
loop_
 _symmetry_equiv_pos_site_id
 _symmetry_equiv_pos_as_xyz
  1  'x, y, z'
loop_
 _atom_site_type_symbol
 _atom_site_label
 _atom_site_symmetry_multiplicity
 _atom_site_fract_x
 _atom_site_fract_y
 _atom_site_fract_z
 _atom_site_occupancy
  Tm  Tm0  1  0.462446  0.462446  0.676504  1
  Tm  Tm1  1  0.703259  0.703259  0.928522  1
  Tm  Tm2  1  0.974268  0.974268  0.179242  1
  Tm  Tm3  1  0.217105  0.217105  0.428013  1
  Tm  Tm4  1  0.782895  0.782895  0.571987  1
  Tm  Tm5  1  0.025732  0.025732  0.820758  1
  Tm  Tm6  1  0.296741  0.296741  0.071478  1
  Tm  Tm7  1  0.537554  0.537554  0.323496  1
  Al  Al8  1  0.255016  0.255016  0.252402  1
  Al  Al9  1  0.500000  0.500000  0.500000  1
  Al  Al10  1  0.744984  0.744984  0.747598  1
  Si  Si11  1  0.172473  0.172473  0.676312  1
  Si  Si12  1  0.415646  0.415646  0.923263  1
  Si  Si13  1  0.687472  0.687472  0.180073  1
  Si  Si14  1  0.928318  0.928318  0.427961  1
  Si  Si15  1  0.071682  0.071682  0.572039  1
  Si  Si16  1  0.312528  0.312528  0.819927  1
  Si  Si17  1  0.584354  0.584354  0.076737  1
  Si  Si18  1  0.827527  0.827527  0.323688  1
  Ge  Ge19  1  0.000000  0.000000  0.000000  1
