# generated using pymatgen
data_Hf2Sc(GaNi)3
_symmetry_space_group_name_H-M   'P 1'
_cell_length_a   6.92822667
_cell_length_b   6.92822637
_cell_length_c   3.36297000
_cell_angle_alpha   90.00000000
_cell_angle_beta   90.00000000
_cell_angle_gamma   119.94960252
_symmetry_Int_Tables_number   1
_chemical_formula_structural   Hf2Sc(GaNi)3
_chemical_formula_sum   'Hf2 Sc1 Ga3 Ni3'
_cell_volume   139.86791777
_cell_formula_units_Z   1
loop_
 _symmetry_equiv_pos_site_id
 _symmetry_equiv_pos_as_xyz
  1  'x, y, z'
loop_
 _atom_site_type_symbol
 _atom_site_label
 _atom_site_symmetry_multiplicity
 _atom_site_fract_x
 _atom_site_fract_y
 _atom_site_fract_z
 _atom_site_occupancy
  Hf  Hf0  1  0.597556  0.000570  0.500000  1
  Hf  Hf1  1  0.000570  0.597556  0.500000  1
  Sc  Sc2  1  0.402225  0.402225  0.500000  1
  Ga  Ga3  1  0.733808  0.733808  0.000000  1
  Ga  Ga4  1  0.263569  0.002910  0.000000  1
  Ga  Ga5  1  0.002910  0.263569  0.000000  1
  Ni  Ni6  1  0.671121  0.332199  0.000000  1
  Ni  Ni7  1  0.332199  0.671121  0.000000  1
  Ni  Ni8  1  0.996041  0.996041  0.500000  1
