# generated using pymatgen
data_Th10CdSn7
_symmetry_space_group_name_H-M   'P 1'
_cell_length_a   9.64795300
_cell_length_b   9.64795241
_cell_length_c   6.62963600
_cell_angle_alpha   90.00000000
_cell_angle_beta   90.00000000
_cell_angle_gamma   119.99999859
_symmetry_Int_Tables_number   1
_chemical_formula_structural   Th10CdSn7
_chemical_formula_sum   'Th10 Cd1 Sn7'
_cell_volume   534.42978417
_cell_formula_units_Z   1
loop_
 _symmetry_equiv_pos_site_id
 _symmetry_equiv_pos_as_xyz
  1  'x, y, z'
loop_
 _atom_site_type_symbol
 _atom_site_label
 _atom_site_symmetry_multiplicity
 _atom_site_fract_x
 _atom_site_fract_y
 _atom_site_fract_z
 _atom_site_occupancy
  Th  Th0  1  0.000000  0.718525  0.745999  1
  Th  Th1  1  0.281475  0.281475  0.745999  1
  Th  Th2  1  0.333333  0.666667  0.500000  1
  Th  Th3  1  0.666667  0.333333  0.500000  1
  Th  Th4  1  0.718525  0.718525  0.254001  1
  Th  Th5  1  0.718525  0.000000  0.745999  1
  Th  Th6  1  0.000000  0.281475  0.254001  1
  Th  Th7  1  0.281475  0.000000  0.254001  1
  Th  Th8  1  0.333333  0.666667  0.000000  1
  Th  Th9  1  0.666667  0.333333  0.000000  1
  Cd  Cd10  1  0.000000  0.000000  0.000000  1
  Sn  Sn11  1  0.624186  0.624186  0.751754  1
  Sn  Sn12  1  0.000000  0.375814  0.751754  1
  Sn  Sn13  1  0.375814  0.000000  0.751754  1
  Sn  Sn14  1  0.624186  0.000000  0.248246  1
  Sn  Sn15  1  0.375814  0.375814  0.248246  1
  Sn  Sn16  1  0.000000  0.624186  0.248246  1
  Sn  Sn17  1  0.000000  0.000000  0.500000  1
