# generated using pymatgen
data_La2Pr10Ir3PtBr12
_symmetry_space_group_name_H-M   'P 1'
_cell_length_a   10.62499543
_cell_length_b   10.62631865
_cell_length_c   10.59893089
_cell_angle_alpha   109.22622234
_cell_angle_beta   109.84718952
_cell_angle_gamma   109.87219186
_symmetry_Int_Tables_number   1
_chemical_formula_structural   La2Pr10Ir3PtBr12
_chemical_formula_sum   'La2 Pr10 Ir3 Pt1 Br12'
_cell_volume   915.07002093
_cell_formula_units_Z   1
loop_
 _symmetry_equiv_pos_site_id
 _symmetry_equiv_pos_as_xyz
  1  'x, y, z'
loop_
 _atom_site_type_symbol
 _atom_site_label
 _atom_site_symmetry_multiplicity
 _atom_site_fract_x
 _atom_site_fract_y
 _atom_site_fract_z
 _atom_site_occupancy
  La  La0  1  0.466114  0.487580  0.230078  1
  La  La1  1  0.750336  0.232434  0.267354  1
  Pr  Pr2  1  0.751171  0.015444  0.485933  1
  Pr  Pr3  1  0.233090  0.470233  0.487981  1
  Pr  Pr4  1  0.267712  0.753383  0.235484  1
  Pr  Pr5  1  0.027654  0.265988  0.010669  1
  Pr  Pr6  1  0.014350  0.030992  0.266314  1
  Pr  Pr7  1  0.485195  0.750612  0.015208  1
  Pr  Pr8  1  0.488811  0.232308  0.470606  1
  Pr  Pr9  1  0.018822  0.486041  0.754571  1
  Pr  Pr10  1  0.265700  0.011941  0.029385  1
  Pr  Pr11  1  0.231535  0.264457  0.745916  1
  Ir  Ir12  1  0.501831  0.001091  0.250256  1
  Ir  Ir13  1  0.998682  0.250025  0.499090  1
  Ir  Ir14  1  0.251438  0.499895  0.001517  1
  Pt  Pt15  1  0.249724  0.250531  0.249567  1
  Br  Br16  1  0.250201  0.754742  0.745997  1
  Br  Br17  1  0.507588  0.503147  0.752922  1
  Br  Br18  1  0.992194  0.746457  0.996465  1
  Br  Br19  1  0.745726  0.249660  0.754800  1
  Br  Br20  1  0.996001  0.992136  0.746462  1
  Br  Br21  1  0.250051  0.996289  0.503531  1
  Br  Br22  1  0.754046  0.507279  0.506693  1
  Br  Br23  1  0.500026  0.247569  0.993540  1
  Br  Br24  1  0.755195  0.747255  0.249981  1
  Br  Br25  1  0.746665  0.993964  0.991146  1
  Br  Br26  1  0.997924  0.504042  0.249997  1
  Br  Br27  1  0.502217  0.754508  0.508537  1
