# generated using pymatgen
data_Nd2SmMn(Co4P3)2
_symmetry_space_group_name_H-M   'P 1'
_cell_length_a   3.76423600
_cell_length_b   10.70118800
_cell_length_c   12.39523100
_cell_angle_alpha   90.00000000
_cell_angle_beta   90.00000000
_cell_angle_gamma   90.00000000
_symmetry_Int_Tables_number   1
_chemical_formula_structural   Nd2SmMn(Co4P3)2
_chemical_formula_sum   'Nd4 Sm2 Mn2 Co16 P12'
_cell_volume   499.30218030
_cell_formula_units_Z   2
loop_
 _symmetry_equiv_pos_site_id
 _symmetry_equiv_pos_as_xyz
  1  'x, y, z'
loop_
 _atom_site_type_symbol
 _atom_site_label
 _atom_site_symmetry_multiplicity
 _atom_site_fract_x
 _atom_site_fract_y
 _atom_site_fract_z
 _atom_site_occupancy
  Nd  Nd0  1  0.000000  0.500000  0.522085  1
  Nd  Nd1  1  0.500000  0.000000  0.477322  1
  Nd  Nd2  1  0.000000  0.681437  0.794964  1
  Nd  Nd3  1  0.000000  0.318563  0.794964  1
  Sm  Sm4  1  0.500000  0.818439  0.204940  1
  Sm  Sm5  1  0.500000  0.181561  0.204940  1
  Mn  Mn6  1  0.500000  0.500000  0.157190  1
  Mn  Mn7  1  0.000000  0.000000  0.843049  1
  Co  Co8  1  0.500000  0.500000  0.704349  1
  Co  Co9  1  0.000000  0.000000  0.294785  1
  Co  Co10  1  0.000000  0.500000  0.989317  1
  Co  Co11  1  0.500000  0.000000  0.012476  1
  Co  Co12  1  0.500000  0.332905  0.996437  1
  Co  Co13  1  0.500000  0.667095  0.996437  1
  Co  Co14  1  0.000000  0.166255  0.005047  1
  Co  Co15  1  0.000000  0.833745  0.005047  1
  Co  Co16  1  0.500000  0.296019  0.429188  1
  Co  Co17  1  0.500000  0.703981  0.429188  1
  Co  Co18  1  0.000000  0.203493  0.569564  1
  Co  Co19  1  0.000000  0.796507  0.569564  1
  Co  Co20  1  0.500000  0.881637  0.710606  1
  Co  Co21  1  0.500000  0.118363  0.710606  1
  Co  Co22  1  0.000000  0.619130  0.288923  1
  Co  Co23  1  0.000000  0.380870  0.288923  1
  P  P24  1  0.500000  0.500000  0.887944  1
  P  P25  1  0.000000  0.000000  0.113995  1
  P  P26  1  0.500000  0.500000  0.341338  1
  P  P27  1  0.000000  0.000000  0.658465  1
  P  P28  1  0.500000  0.306527  0.614042  1
  P  P29  1  0.500000  0.693473  0.614042  1
  P  P30  1  0.000000  0.192916  0.384252  1
  P  P31  1  0.000000  0.807084  0.384252  1
  P  P32  1  0.500000  0.847962  0.895448  1
  P  P33  1  0.500000  0.152038  0.895448  1
  P  P34  1  0.000000  0.653319  0.105432  1
  P  P35  1  0.000000  0.346681  0.105432  1
