# generated using pymatgen
data_Y4HgPd(PtPb)2
_symmetry_space_group_name_H-M   'P 1'
_cell_length_a   8.16130125
_cell_length_b   8.16129999
_cell_length_c   3.60599800
_cell_angle_alpha   90.00000000
_cell_angle_beta   90.00000000
_cell_angle_gamma   89.29876207
_symmetry_Int_Tables_number   1
_chemical_formula_structural   Y4HgPd(PtPb)2
_chemical_formula_sum   'Y4 Hg1 Pd1 Pt2 Pb2'
_cell_volume   240.16609938
_cell_formula_units_Z   1
loop_
 _symmetry_equiv_pos_site_id
 _symmetry_equiv_pos_as_xyz
  1  'x, y, z'
loop_
 _atom_site_type_symbol
 _atom_site_label
 _atom_site_symmetry_multiplicity
 _atom_site_fract_x
 _atom_site_fract_y
 _atom_site_fract_z
 _atom_site_occupancy
  Y  Y0  1  0.650072  0.150072  0.500000  1
  Y  Y1  1  0.191370  0.332220  0.500000  1
  Y  Y2  1  0.832220  0.691370  0.500000  1
  Y  Y3  1  0.333538  0.833538  0.500000  1
  Hg  Hg4  1  0.875482  0.375482  0.000000  1
  Pd  Pd5  1  0.124547  0.624547  0.000000  1
  Pt  Pt6  1  0.369080  0.121806  0.000000  1
  Pt  Pt7  1  0.621806  0.869080  0.000000  1
  Pb  Pb8  1  0.005194  0.996689  0.000000  1
  Pb  Pb9  1  0.496689  0.505194  0.000000  1
