# generated using pymatgen
data_Fe12Mo10W2CN
_symmetry_space_group_name_H-M   'P 1'
_cell_length_a   7.71608564
_cell_length_b   7.70913727
_cell_length_c   7.72228503
_cell_angle_alpha   59.95109632
_cell_angle_beta   59.97072408
_cell_angle_gamma   60.08145213
_symmetry_Int_Tables_number   1
_chemical_formula_structural   Fe12Mo10W2CN
_chemical_formula_sum   'Fe12 Mo10 W2 C1 N1'
_cell_volume   324.82023806
_cell_formula_units_Z   1
loop_
 _symmetry_equiv_pos_site_id
 _symmetry_equiv_pos_as_xyz
  1  'x, y, z'
loop_
 _atom_site_type_symbol
 _atom_site_label
 _atom_site_symmetry_multiplicity
 _atom_site_fract_x
 _atom_site_fract_y
 _atom_site_fract_z
 _atom_site_occupancy
  Fe  Fe0  1  0.920474  0.237217  0.921112  1
  Fe  Fe1  1  0.329211  0.011965  0.329450  1
  Fe  Fe2  1  0.329275  0.329228  0.329756  1
  Fe  Fe3  1  0.011849  0.329234  0.329438  1
  Fe  Fe4  1  0.920943  0.920884  0.236762  1
  Fe  Fe5  1  0.237078  0.920584  0.921169  1
  Fe  Fe6  1  0.329252  0.329319  0.011612  1
  Fe  Fe7  1  0.125063  0.125154  0.625250  1
  Fe  Fe8  1  0.920888  0.920903  0.921365  1
  Fe  Fe9  1  0.125643  0.624896  0.124706  1
  Fe  Fe10  1  0.125106  0.125187  0.124518  1
  Fe  Fe11  1  0.624901  0.125659  0.124681  1
  Mo  Mo12  1  0.302383  0.696610  0.697776  1
  Mo  Mo13  1  0.303153  0.303187  0.696856  1
  Mo  Mo14  1  0.552012  0.947043  0.552995  1
  Mo  Mo15  1  0.947071  0.551920  0.553016  1
  Mo  Mo16  1  0.552078  0.947072  0.947945  1
  Mo  Mo17  1  0.696662  0.302475  0.303229  1
  Mo  Mo18  1  0.947094  0.551982  0.947994  1
  Mo  Mo19  1  0.302450  0.696605  0.303232  1
  Mo  Mo20  1  0.553386  0.553257  0.946662  1
  Mo  Mo21  1  0.696669  0.302400  0.697713  1
  W  W22  1  0.697578  0.697475  0.302444  1
  W  W23  1  0.947721  0.947753  0.552341  1
  C  C24  1  0.500541  0.500481  0.499484  1
  N  N25  1  0.751519  0.751511  0.748494  1
