# generated using pymatgen
data_Dy6Y14Cd3Ru2Au3
_symmetry_space_group_name_H-M   'P 1'
_cell_length_a   9.62430586
_cell_length_b   9.62430521
_cell_length_c   9.64939295
_cell_angle_alpha   90.04403874
_cell_angle_beta   89.95595946
_cell_angle_gamma   120.01993703
_symmetry_Int_Tables_number   1
_chemical_formula_structural   Dy6Y14Cd3Ru2Au3
_chemical_formula_sum   'Dy6 Y14 Cd3 Ru2 Au3'
_cell_volume   773.89487729
_cell_formula_units_Z   1
loop_
 _symmetry_equiv_pos_site_id
 _symmetry_equiv_pos_as_xyz
  1  'x, y, z'
loop_
 _atom_site_type_symbol
 _atom_site_label
 _atom_site_symmetry_multiplicity
 _atom_site_fract_x
 _atom_site_fract_y
 _atom_site_fract_z
 _atom_site_occupancy
  Dy  Dy0  1  0.000170  0.999830  0.461042  1
  Dy  Dy1  1  0.000002  0.999998  0.038843  1
  Dy  Dy2  1  0.209506  0.790494  0.439404  1
  Dy  Dy3  1  0.540782  0.459218  0.249964  1
  Dy  Dy4  1  0.540705  0.081483  0.250073  1
  Dy  Dy5  1  0.918517  0.459295  0.250073  1
  Y  Y6  1  0.209191  0.418463  0.440015  1
  Y  Y7  1  0.581537  0.790809  0.440015  1
  Y  Y8  1  0.791703  0.208297  0.558441  1
  Y  Y9  1  0.791732  0.583315  0.558419  1
  Y  Y10  1  0.416685  0.208268  0.558419  1
  Y  Y11  1  0.791666  0.208334  0.941573  1
  Y  Y12  1  0.791685  0.583333  0.941513  1
  Y  Y13  1  0.416667  0.208315  0.941513  1
  Y  Y14  1  0.209173  0.790827  0.060106  1
  Y  Y15  1  0.209302  0.418497  0.060028  1
  Y  Y16  1  0.581503  0.790698  0.060028  1
  Y  Y17  1  0.458892  0.541108  0.750006  1
  Y  Y18  1  0.458777  0.917603  0.749895  1
  Y  Y19  1  0.082397  0.541223  0.749895  1
  Cd  Cd20  1  0.109963  0.890037  0.750075  1
  Cd  Cd21  1  0.109951  0.219957  0.750006  1
  Cd  Cd22  1  0.780043  0.890049  0.750006  1
  Ru  Ru23  1  0.332839  0.667161  0.250652  1
  Ru  Ru24  1  0.666609  0.333391  0.749953  1
  Au  Au25  1  0.869624  0.130376  0.250043  1
  Au  Au26  1  0.869621  0.739241  0.249999  1
  Au  Au27  1  0.260759  0.130379  0.249999  1
