# generated using pymatgen
data_Ho2ThSiPd5
_symmetry_space_group_name_H-M   'P 1'
_cell_length_a   8.29314714
_cell_length_b   8.29314656
_cell_length_c   8.29314692
_cell_angle_alpha   128.11705244
_cell_angle_beta   125.61284140
_cell_angle_gamma   78.48786938
_symmetry_Int_Tables_number   1
_chemical_formula_structural   Ho2ThSiPd5
_chemical_formula_sum   'Ho4 Th2 Si2 Pd10'
_cell_volume   353.23408469
_cell_formula_units_Z   2
loop_
 _symmetry_equiv_pos_site_id
 _symmetry_equiv_pos_as_xyz
  1  'x, y, z'
loop_
 _atom_site_type_symbol
 _atom_site_label
 _atom_site_symmetry_multiplicity
 _atom_site_fract_x
 _atom_site_fract_y
 _atom_site_fract_z
 _atom_site_occupancy
  Ho  Ho0  1  0.223609  0.449607  0.774003  1
  Ho  Ho1  1  0.776391  0.550393  0.225997  1
  Ho  Ho2  1  0.824395  0.050393  0.774003  1
  Ho  Ho3  1  0.175605  0.949607  0.225997  1
  Th  Th4  1  0.380392  0.250000  0.130392  1
  Th  Th5  1  0.619608  0.750000  0.869608  1
  Si  Si6  1  0.787917  0.250000  0.537917  1
  Si  Si7  1  0.212083  0.750000  0.462083  1
  Pd  Pd8  1  0.166297  0.398222  0.355420  1
  Pd  Pd9  1  0.833703  0.189122  0.231925  1
  Pd  Pd10  1  0.457198  0.101778  0.768075  1
  Pd  Pd11  1  0.542802  0.310878  0.644580  1
  Pd  Pd12  1  0.000000  0.500000  0.000000  1
  Pd  Pd13  1  0.000000  0.000000  0.500000  1
  Pd  Pd14  1  0.457198  0.689122  0.355420  1
  Pd  Pd15  1  0.542802  0.898222  0.231925  1
  Pd  Pd16  1  0.166297  0.810878  0.768075  1
  Pd  Pd17  1  0.833703  0.601778  0.644580  1
