# generated using pymatgen
data_Pr10Sn6Se
_symmetry_space_group_name_H-M   'P 1'
_cell_length_a   9.48148300
_cell_length_b   9.48148522
_cell_length_c   6.92002200
_cell_angle_alpha   90.00000000
_cell_angle_beta   90.00000000
_cell_angle_gamma   119.99998875
_symmetry_Int_Tables_number   1
_chemical_formula_structural   Pr10Sn6Se
_chemical_formula_sum   'Pr10 Sn6 Se1'
_cell_volume   538.75436190
_cell_formula_units_Z   1
loop_
 _symmetry_equiv_pos_site_id
 _symmetry_equiv_pos_as_xyz
  1  'x, y, z'
loop_
 _atom_site_type_symbol
 _atom_site_label
 _atom_site_symmetry_multiplicity
 _atom_site_fract_x
 _atom_site_fract_y
 _atom_site_fract_z
 _atom_site_occupancy
  Pr  Pr0  1  0.666667  0.333333  0.500000  1
  Pr  Pr1  1  0.333333  0.666667  0.500000  1
  Pr  Pr2  1  0.333333  0.666667  0.000000  1
  Pr  Pr3  1  0.666667  0.333333  0.000000  1
  Pr  Pr4  1  0.748905  0.748905  0.244369  1
  Pr  Pr5  1  0.251095  0.000000  0.244369  1
  Pr  Pr6  1  0.000000  0.251095  0.244369  1
  Pr  Pr7  1  0.251095  0.251095  0.755631  1
  Pr  Pr8  1  0.748905  0.000000  0.755631  1
  Pr  Pr9  1  0.000000  0.748905  0.755631  1
  Sn  Sn10  1  0.393598  0.393598  0.249418  1
  Sn  Sn11  1  0.606402  0.000000  0.249418  1
  Sn  Sn12  1  0.000000  0.606402  0.249418  1
  Sn  Sn13  1  0.606402  0.606402  0.750582  1
  Sn  Sn14  1  0.393598  0.000000  0.750582  1
  Sn  Sn15  1  0.000000  0.393598  0.750582  1
  Se  Se16  1  0.000000  0.000000  0.500000  1
