# generated using pymatgen
data_Th2Be4Ru5
_symmetry_space_group_name_H-M   'P 1'
_cell_length_a   3.34587300
_cell_length_b   8.97609523
_cell_length_c   10.61551823
_cell_angle_alpha   90.02504991
_cell_angle_beta   90.00000000
_cell_angle_gamma   90.00000000
_symmetry_Int_Tables_number   1
_chemical_formula_structural   Th2Be4Ru5
_chemical_formula_sum   'Th4 Be8 Ru10'
_cell_volume   318.81449833
_cell_formula_units_Z   2
loop_
 _symmetry_equiv_pos_site_id
 _symmetry_equiv_pos_as_xyz
  1  'x, y, z'
loop_
 _atom_site_type_symbol
 _atom_site_label
 _atom_site_symmetry_multiplicity
 _atom_site_fract_x
 _atom_site_fract_y
 _atom_site_fract_z
 _atom_site_occupancy
  Th  Th0  1  0.500000  0.843186  0.180719  1
  Th  Th1  1  0.500000  0.156814  0.819281  1
  Th  Th2  1  0.500000  0.656899  0.680696  1
  Th  Th3  1  0.500000  0.343101  0.319304  1
  Be  Be4  1  0.500000  0.965911  0.591178  1
  Be  Be5  1  0.500000  0.034089  0.408822  1
  Be  Be6  1  0.500000  0.840397  0.904853  1
  Be  Be7  1  0.500000  0.159603  0.095147  1
  Be  Be8  1  0.500000  0.659631  0.404889  1
  Be  Be9  1  0.500000  0.340369  0.595111  1
  Be  Be10  1  0.500000  0.465880  0.908869  1
  Be  Be11  1  0.500000  0.534120  0.091131  1
  Ru  Ru12  1  0.000000  0.656763  0.954646  1
  Ru  Ru13  1  0.000000  0.343237  0.045354  1
  Ru  Ru14  1  0.000000  0.843232  0.454602  1
  Ru  Ru15  1  0.000000  0.156768  0.545398  1
  Ru  Ru16  1  0.000000  0.000000  0.000000  1
  Ru  Ru17  1  0.000000  0.401408  0.757301  1
  Ru  Ru18  1  0.000000  0.598592  0.242699  1
  Ru  Ru19  1  0.000000  0.500000  0.500000  1
  Ru  Ru20  1  0.000000  0.901470  0.742705  1
  Ru  Ru21  1  0.000000  0.098530  0.257295  1
