# generated using pymatgen
data_CsDyTe3O8
_symmetry_space_group_name_H-M   'P 1'
_cell_length_a   6.11628014
_cell_length_b   8.01796596
_cell_length_c   11.74415949
_cell_angle_alpha   100.82956393
_cell_angle_beta   89.18764937
_cell_angle_gamma   110.00757023
_symmetry_Int_Tables_number   1
_chemical_formula_structural   CsDyTe3O8
_chemical_formula_sum   'Cs2 Dy2 Te6 O16'
_cell_volume   530.75381200
_cell_formula_units_Z   2
loop_
 _symmetry_equiv_pos_site_id
 _symmetry_equiv_pos_as_xyz
  1  'x, y, z'
loop_
 _atom_site_type_symbol
 _atom_site_label
 _atom_site_symmetry_multiplicity
 _atom_site_fract_x
 _atom_site_fract_y
 _atom_site_fract_z
 _atom_site_occupancy
  Cs  Cs0  1  0.820623  0.111790  0.164651  1
  Cs  Cs1  1  0.179377  0.888210  0.835349  1
  Dy  Dy2  1  0.500000  0.500000  0.000000  1
  Dy  Dy3  1  0.000000  0.500000  0.500000  1
  Te  Te4  1  0.211926  0.990467  0.420958  1
  Te  Te5  1  0.788074  0.009533  0.579042  1
  Te  Te6  1  0.080250  0.684452  0.154474  1
  Te  Te7  1  0.919750  0.315548  0.845526  1
  Te  Te8  1  0.510498  0.519389  0.334048  1
  Te  Te9  1  0.489502  0.480611  0.665952  1
  O  O10  1  0.179610  0.749679  0.426093  1
  O  O11  1  0.820390  0.250321  0.573907  1
  O  O12  1  0.227632  0.930738  0.238005  1
  O  O13  1  0.772368  0.069262  0.761995  1
  O  O14  1  0.888372  0.961410  0.399541  1
  O  O15  1  0.111628  0.038590  0.600459  1
  O  O16  1  0.291101  0.693609  0.035342  1
  O  O17  1  0.708899  0.306391  0.964658  1
  O  O18  1  0.841552  0.723350  0.075582  1
  O  O19  1  0.158448  0.276650  0.924418  1
  O  O20  1  0.411237  0.429870  0.175546  1
  O  O21  1  0.588763  0.570130  0.824454  1
  O  O22  1  0.247176  0.371524  0.400945  1
  O  O23  1  0.752824  0.628476  0.599055  1
  O  O24  1  0.724435  0.400130  0.348121  1
  O  O25  1  0.275565  0.599870  0.651879  1
