# generated using pymatgen
data_Zr4BeAlRe6
_symmetry_space_group_name_H-M   'P 1'
_cell_length_a   5.24804600
_cell_length_b   5.24804586
_cell_length_c   8.55670700
_cell_angle_alpha   90.00000000
_cell_angle_beta   90.00000000
_cell_angle_gamma   120.00000085
_symmetry_Int_Tables_number   1
_chemical_formula_structural   Zr4BeAlRe6
_chemical_formula_sum   'Zr4 Be1 Al1 Re6'
_cell_volume   204.09508393
_cell_formula_units_Z   1
loop_
 _symmetry_equiv_pos_site_id
 _symmetry_equiv_pos_as_xyz
  1  'x, y, z'
loop_
 _atom_site_type_symbol
 _atom_site_label
 _atom_site_symmetry_multiplicity
 _atom_site_fract_x
 _atom_site_fract_y
 _atom_site_fract_z
 _atom_site_occupancy
  Zr  Zr0  1  0.333333  0.666667  0.434058  1
  Zr  Zr1  1  0.666667  0.333333  0.936841  1
  Zr  Zr2  1  0.666667  0.333333  0.565942  1
  Zr  Zr3  1  0.333333  0.666667  0.063159  1
  Be  Be4  1  0.000000  0.000000  0.000000  1
  Al  Al5  1  0.000000  0.000000  0.500000  1
  Re  Re6  1  0.662965  0.831483  0.755167  1
  Re  Re7  1  0.337035  0.168517  0.244833  1
  Re  Re8  1  0.831483  0.168517  0.244833  1
  Re  Re9  1  0.168517  0.337035  0.755167  1
  Re  Re10  1  0.168517  0.831483  0.755167  1
  Re  Re11  1  0.831483  0.662965  0.244833  1
