# generated using pymatgen
data_Nd16InAg3Rh4
_symmetry_space_group_name_H-M   'P 1'
_cell_length_a   9.84159751
_cell_length_b   9.84159615
_cell_length_c   9.84159716
_cell_angle_alpha   60.59029374
_cell_angle_beta   60.59029860
_cell_angle_gamma   60.59029597
_symmetry_Int_Tables_number   1
_chemical_formula_structural   Nd16InAg3Rh4
_chemical_formula_sum   'Nd16 In1 Ag3 Rh4'
_cell_volume   683.02059460
_cell_formula_units_Z   1
loop_
 _symmetry_equiv_pos_site_id
 _symmetry_equiv_pos_as_xyz
  1  'x, y, z'
loop_
 _atom_site_type_symbol
 _atom_site_label
 _atom_site_symmetry_multiplicity
 _atom_site_fract_x
 _atom_site_fract_y
 _atom_site_fract_z
 _atom_site_occupancy
  Nd  Nd0  1  0.601406  0.601406  0.601406  1
  Nd  Nd1  1  0.599769  0.599769  0.197329  1
  Nd  Nd2  1  0.599769  0.197329  0.599769  1
  Nd  Nd3  1  0.197329  0.599769  0.599769  1
  Nd  Nd4  1  0.059852  0.438781  0.438781  1
  Nd  Nd5  1  0.443417  0.057543  0.057543  1
  Nd  Nd6  1  0.438781  0.059852  0.438781  1
  Nd  Nd7  1  0.057543  0.443417  0.057543  1
  Nd  Nd8  1  0.438781  0.438781  0.059852  1
  Nd  Nd9  1  0.057543  0.057543  0.443417  1
  Nd  Nd10  1  0.191464  0.813477  0.813477  1
  Nd  Nd11  1  0.813883  0.187953  0.187953  1
  Nd  Nd12  1  0.813477  0.191464  0.813477  1
  Nd  Nd13  1  0.187953  0.813883  0.187953  1
  Nd  Nd14  1  0.813477  0.813477  0.191464  1
  Nd  Nd15  1  0.187953  0.187953  0.813883  1
  In  In16  1  0.827486  0.827486  0.827486  1
  Ag  Ag17  1  0.832372  0.832372  0.505470  1
  Ag  Ag18  1  0.832372  0.505470  0.832372  1
  Ag  Ag19  1  0.505470  0.832372  0.832372  1
  Rh  Rh20  1  0.391610  0.391610  0.391610  1
  Rh  Rh21  1  0.393331  0.393331  0.821632  1
  Rh  Rh22  1  0.393331  0.821632  0.393331  1
  Rh  Rh23  1  0.821632  0.393331  0.393331  1
