# generated using pymatgen
data_Sr2CoH10Pt
_symmetry_space_group_name_H-M   'P 1'
_cell_length_a   4.69320900
_cell_length_b   6.51488327
_cell_length_c   9.21777284
_cell_angle_alpha   86.13848976
_cell_angle_beta   90.00000000
_cell_angle_gamma   90.00000000
_symmetry_Int_Tables_number   1
_chemical_formula_structural   Sr2CoH10Pt
_chemical_formula_sum   'Sr4 Co2 H20 Pt2'
_cell_volume   281.20008969
_cell_formula_units_Z   2
loop_
 _symmetry_equiv_pos_site_id
 _symmetry_equiv_pos_as_xyz
  1  'x, y, z'
loop_
 _atom_site_type_symbol
 _atom_site_label
 _atom_site_symmetry_multiplicity
 _atom_site_fract_x
 _atom_site_fract_y
 _atom_site_fract_z
 _atom_site_occupancy
  Sr  Sr0  1  0.236257  0.334100  0.151669  1
  Sr  Sr1  1  0.736257  0.665900  0.848331  1
  Sr  Sr2  1  0.735199  0.856946  0.307300  1
  Sr  Sr3  1  0.235199  0.143054  0.692700  1
  Co  Co4  1  0.729777  0.149651  0.951939  1
  Co  Co5  1  0.229777  0.850349  0.048061  1
  H  H6  1  0.981144  0.500742  0.501026  1
  H  H7  1  0.481144  0.499258  0.498974  1
  H  H8  1  0.424609  0.038206  0.979360  1
  H  H9  1  0.924609  0.961794  0.020640  1
  H  H10  1  0.017974  0.681886  0.099462  1
  H  H11  1  0.517974  0.318114  0.900538  1
  H  H12  1  0.451600  0.182297  0.391160  1
  H  H13  1  0.951600  0.817703  0.608840  1
  H  H14  1  0.470972  0.700049  0.092826  1
  H  H15  1  0.970972  0.299951  0.907174  1
  H  H16  1  0.017795  0.185051  0.391586  1
  H  H17  1  0.517795  0.814949  0.608414  1
  H  H18  1  0.231797  0.772491  0.895413  1
  H  H19  1  0.731797  0.227509  0.104587  1
  H  H20  1  0.733460  0.196411  0.591046  1
  H  H21  1  0.233460  0.803589  0.408954  1
  H  H22  1  0.236915  0.936070  0.201687  1
  H  H23  1  0.736915  0.063930  0.798313  1
  H  H24  1  0.733373  0.458859  0.271400  1
  H  H25  1  0.233373  0.541141  0.728600  1
  Pt  Pt26  1  0.233130  0.672694  0.566634  1
  Pt  Pt27  1  0.733130  0.327306  0.433366  1
