# generated using pymatgen
data_Ba3FeH12Pt
_symmetry_space_group_name_H-M   'P 1'
_cell_length_a   5.49110100
_cell_length_b   5.49110215
_cell_length_c   8.87976100
_cell_angle_alpha   90.00000000
_cell_angle_beta   90.00000000
_cell_angle_gamma   119.99999910
_symmetry_Int_Tables_number   1
_chemical_formula_structural   Ba3FeH12Pt
_chemical_formula_sum   'Ba3 Fe1 H12 Pt1'
_cell_volume   231.87336642
_cell_formula_units_Z   1
loop_
 _symmetry_equiv_pos_site_id
 _symmetry_equiv_pos_as_xyz
  1  'x, y, z'
loop_
 _atom_site_type_symbol
 _atom_site_label
 _atom_site_symmetry_multiplicity
 _atom_site_fract_x
 _atom_site_fract_y
 _atom_site_fract_z
 _atom_site_occupancy
  Ba  Ba0  1  0.000000  0.000000  0.944290  1
  Ba  Ba1  1  0.666667  0.333333  0.386817  1
  Ba  Ba2  1  0.333333  0.666667  0.661610  1
  Fe  Fe3  1  0.666667  0.333333  0.762473  1
  H  H4  1  0.185884  0.814116  0.344774  1
  H  H5  1  0.628233  0.814116  0.344774  1
  H  H6  1  0.185884  0.371767  0.344774  1
  H  H7  1  0.809049  0.190951  0.658305  1
  H  H8  1  0.381902  0.190951  0.658305  1
  H  H9  1  0.809049  0.618098  0.658305  1
  H  H10  1  0.529941  0.059882  0.870173  1
  H  H11  1  0.529941  0.470059  0.870173  1
  H  H12  1  0.940118  0.470059  0.870173  1
  H  H13  1  0.469262  0.938522  0.128025  1
  H  H14  1  0.469262  0.530738  0.128025  1
  H  H15  1  0.061478  0.530738  0.128025  1
  Pt  Pt16  1  0.333333  0.666667  0.240976  1
