# generated using pymatgen
data_Dy5Sc5(Si5Rh2)4
_symmetry_space_group_name_H-M   'P 1'
_cell_length_a   12.51554300
_cell_length_b   12.51554300
_cell_length_c   4.13276900
_cell_angle_alpha   90.00000000
_cell_angle_beta   90.00000000
_cell_angle_gamma   90.00000000
_symmetry_Int_Tables_number   1
_chemical_formula_structural   Dy5Sc5(Si5Rh2)4
_chemical_formula_sum   'Dy5 Sc5 Si20 Rh8'
_cell_volume   647.35204538
_cell_formula_units_Z   1
loop_
 _symmetry_equiv_pos_site_id
 _symmetry_equiv_pos_as_xyz
  1  'x, y, z'
loop_
 _atom_site_type_symbol
 _atom_site_label
 _atom_site_symmetry_multiplicity
 _atom_site_fract_x
 _atom_site_fract_y
 _atom_site_fract_z
 _atom_site_occupancy
  Dy  Dy0  1  0.000000  0.000000  0.000000  1
  Dy  Dy1  1  0.884584  0.385823  0.500000  1
  Dy  Dy2  1  0.115416  0.614177  0.500000  1
  Dy  Dy3  1  0.385823  0.115416  0.500000  1
  Dy  Dy4  1  0.614177  0.884584  0.500000  1
  Sc  Sc5  1  0.500000  0.500000  0.000000  1
  Sc  Sc6  1  0.672842  0.174764  0.500000  1
  Sc  Sc7  1  0.327158  0.825236  0.500000  1
  Sc  Sc8  1  0.174764  0.327158  0.500000  1
  Sc  Sc9  1  0.825236  0.672842  0.500000  1
  Si  Si10  1  0.566234  0.067996  0.000000  1
  Si  Si11  1  0.433766  0.932004  0.000000  1
  Si  Si12  1  0.067996  0.433766  0.000000  1
  Si  Si13  1  0.932004  0.566234  0.000000  1
  Si  Si14  1  0.664867  0.698864  0.000000  1
  Si  Si15  1  0.335133  0.301136  0.000000  1
  Si  Si16  1  0.165304  0.800644  0.000000  1
  Si  Si17  1  0.834696  0.199356  0.000000  1
  Si  Si18  1  0.301136  0.664867  0.000000  1
  Si  Si19  1  0.698864  0.335133  0.000000  1
  Si  Si20  1  0.199356  0.165304  0.000000  1
  Si  Si21  1  0.800644  0.834696  0.000000  1
  Si  Si22  1  0.651568  0.506674  0.500000  1
  Si  Si23  1  0.348432  0.493326  0.500000  1
  Si  Si24  1  0.158392  0.993881  0.500000  1
  Si  Si25  1  0.841608  0.006119  0.500000  1
  Si  Si26  1  0.493326  0.651568  0.500000  1
  Si  Si27  1  0.506674  0.348432  0.500000  1
  Si  Si28  1  0.006119  0.158392  0.500000  1
  Si  Si29  1  0.993881  0.841608  0.500000  1
  Rh  Rh30  1  0.742987  0.520062  0.000000  1
  Rh  Rh31  1  0.257013  0.479938  0.000000  1
  Rh  Rh32  1  0.246640  0.979636  0.000000  1
  Rh  Rh33  1  0.753360  0.020364  0.000000  1
  Rh  Rh34  1  0.479938  0.742987  0.000000  1
  Rh  Rh35  1  0.520062  0.257013  0.000000  1
  Rh  Rh36  1  0.020364  0.246640  0.000000  1
  Rh  Rh37  1  0.979636  0.753360  0.000000  1
