# generated using pymatgen
data_La2TbCuSe5
_symmetry_space_group_name_H-M   'P 1'
_cell_length_a   12.30543800
_cell_length_b   4.14192800
_cell_length_c   17.88016500
_cell_angle_alpha   90.00000000
_cell_angle_beta   90.00000000
_cell_angle_gamma   90.00000000
_symmetry_Int_Tables_number   1
_chemical_formula_structural   La2TbCuSe5
_chemical_formula_sum   'La8 Tb4 Cu4 Se20'
_cell_volume   911.32050886
_cell_formula_units_Z   4
loop_
 _symmetry_equiv_pos_site_id
 _symmetry_equiv_pos_as_xyz
  1  'x, y, z'
loop_
 _atom_site_type_symbol
 _atom_site_label
 _atom_site_symmetry_multiplicity
 _atom_site_fract_x
 _atom_site_fract_y
 _atom_site_fract_z
 _atom_site_occupancy
  La  La0  1  0.356134  0.249999  0.104297  1
  La  La1  1  0.008072  0.249999  0.174781  1
  La  La2  1  0.508072  0.249999  0.325219  1
  La  La3  1  0.856134  0.249999  0.395703  1
  La  La4  1  0.143865  0.750001  0.604297  1
  La  La5  1  0.491928  0.750001  0.674781  1
  La  La6  1  0.991928  0.750001  0.825219  1
  La  La7  1  0.643866  0.750001  0.895703  1
  Tb  Tb8  1  0.695809  0.750001  0.134596  1
  Tb  Tb9  1  0.195810  0.750001  0.365405  1
  Tb  Tb10  1  0.804190  0.249999  0.634596  1
  Tb  Tb11  1  0.304191  0.249999  0.865404  1
  Cu  Cu12  1  0.824464  0.249999  0.020613  1
  Cu  Cu13  1  0.324463  0.249999  0.479387  1
  Cu  Cu14  1  0.675536  0.750001  0.520612  1
  Cu  Cu15  1  0.175536  0.750001  0.979388  1
  Se  Se16  1  0.617120  0.249999  0.029938  1
  Se  Se17  1  0.904967  0.750001  0.070624  1
  Se  Se18  1  0.177898  0.750001  0.114856  1
  Se  Se19  1  0.481731  0.750001  0.198292  1
  Se  Se20  1  0.757490  0.249999  0.232097  1
  Se  Se21  1  0.257490  0.249999  0.267903  1
  Se  Se22  1  0.981732  0.750001  0.301707  1
  Se  Se23  1  0.677897  0.750001  0.385145  1
  Se  Se24  1  0.404967  0.750001  0.429376  1
  Se  Se25  1  0.117120  0.249999  0.470062  1
  Se  Se26  1  0.882880  0.750001  0.529938  1
  Se  Se27  1  0.595033  0.249999  0.570625  1
  Se  Se28  1  0.322103  0.249999  0.614856  1
  Se  Se29  1  0.018268  0.249999  0.698292  1
  Se  Se30  1  0.742510  0.750001  0.732097  1
  Se  Se31  1  0.242510  0.750001  0.767902  1
  Se  Se32  1  0.518269  0.249999  0.801707  1
  Se  Se33  1  0.822103  0.249999  0.885145  1
  Se  Se34  1  0.095034  0.249999  0.929376  1
  Se  Se35  1  0.382880  0.750001  0.970062  1
