# generated using pymatgen
data_YBeSi2Pd
_symmetry_space_group_name_H-M   'P 1'
_cell_length_a   3.94746367
_cell_length_b   3.94746413
_cell_length_c   5.83127734
_cell_angle_alpha   109.78388733
_cell_angle_beta   109.78389418
_cell_angle_gamma   89.99998998
_symmetry_Int_Tables_number   1
_chemical_formula_structural   YBeSi2Pd
_chemical_formula_sum   'Y1 Be1 Si2 Pd1'
_cell_volume   79.77945276
_cell_formula_units_Z   1
loop_
 _symmetry_equiv_pos_site_id
 _symmetry_equiv_pos_as_xyz
  1  'x, y, z'
loop_
 _atom_site_type_symbol
 _atom_site_label
 _atom_site_symmetry_multiplicity
 _atom_site_fract_x
 _atom_site_fract_y
 _atom_site_fract_z
 _atom_site_occupancy
  Y  Y0  1  0.000000  0.000000  0.000000  1
  Be  Be1  1  0.750001  0.250000  0.500001  1
  Si  Si2  1  0.615359  0.615359  0.230717  1
  Si  Si3  1  0.384643  0.384643  0.769284  1
  Pd  Pd4  1  0.250000  0.750001  0.500001  1
