# generated using pymatgen
data_Mg3Fe4Co5P6
_symmetry_space_group_name_H-M   'P 1'
_cell_length_a   3.62251800
_cell_length_b   10.45846600
_cell_length_c   11.72079300
_cell_angle_alpha   90.00000000
_cell_angle_beta   90.00000000
_cell_angle_gamma   90.00000000
_symmetry_Int_Tables_number   1
_chemical_formula_structural   Mg3Fe4Co5P6
_chemical_formula_sum   'Mg6 Fe8 Co10 P12'
_cell_volume   444.05374486
_cell_formula_units_Z   2
loop_
 _symmetry_equiv_pos_site_id
 _symmetry_equiv_pos_as_xyz
  1  'x, y, z'
loop_
 _atom_site_type_symbol
 _atom_site_label
 _atom_site_symmetry_multiplicity
 _atom_site_fract_x
 _atom_site_fract_y
 _atom_site_fract_z
 _atom_site_occupancy
  Mg  Mg0  1  0.000000  0.500000  0.524008  1
  Mg  Mg1  1  0.500000  0.000000  0.475992  1
  Mg  Mg2  1  0.500000  0.821128  0.207386  1
  Mg  Mg3  1  0.500000  0.178872  0.207386  1
  Mg  Mg4  1  0.000000  0.678872  0.792614  1
  Mg  Mg5  1  0.000000  0.321128  0.792614  1
  Fe  Fe6  1  0.000000  0.500000  0.980575  1
  Fe  Fe7  1  0.500000  0.000000  0.019425  1
  Fe  Fe8  1  0.500000  0.306896  0.431765  1
  Fe  Fe9  1  0.500000  0.693104  0.431765  1
  Fe  Fe10  1  0.000000  0.193104  0.568235  1
  Fe  Fe11  1  0.000000  0.806896  0.568235  1
  Fe  Fe12  1  0.500000  0.500000  0.153558  1
  Fe  Fe13  1  0.000000  0.000000  0.846442  1
  Co  Co14  1  0.500000  0.880176  0.711125  1
  Co  Co15  1  0.500000  0.119824  0.711125  1
  Co  Co16  1  0.000000  0.619824  0.288875  1
  Co  Co17  1  0.000000  0.380176  0.288875  1
  Co  Co18  1  0.500000  0.330695  0.988910  1
  Co  Co19  1  0.500000  0.669305  0.988910  1
  Co  Co20  1  0.000000  0.169305  0.011090  1
  Co  Co21  1  0.000000  0.830695  0.011090  1
  Co  Co22  1  0.500000  0.500000  0.690573  1
  Co  Co23  1  0.000000  0.000000  0.309427  1
  P  P24  1  0.500000  0.305453  0.618730  1
  P  P25  1  0.500000  0.694547  0.618730  1
  P  P26  1  0.000000  0.194547  0.381270  1
  P  P27  1  0.000000  0.805453  0.381270  1
  P  P28  1  0.500000  0.500000  0.873586  1
  P  P29  1  0.000000  0.000000  0.126414  1
  P  P30  1  0.500000  0.849336  0.893516  1
  P  P31  1  0.500000  0.150664  0.893516  1
  P  P32  1  0.000000  0.650664  0.106484  1
  P  P33  1  0.000000  0.349336  0.106484  1
  P  P34  1  0.500000  0.500000  0.343003  1
  P  P35  1  0.000000  0.000000  0.656997  1
