# generated using pymatgen
data_CsVNiS4
_symmetry_space_group_name_H-M   'P 1'
_cell_length_a   7.95089000
_cell_length_b   7.95089000
_cell_length_c   13.16571400
_cell_angle_alpha   90.00000000
_cell_angle_beta   90.00000000
_cell_angle_gamma   90.00000000
_symmetry_Int_Tables_number   1
_chemical_formula_structural   CsVNiS4
_chemical_formula_sum   'Cs4 V4 Ni4 S16'
_cell_volume   832.29235753
_cell_formula_units_Z   4
loop_
 _symmetry_equiv_pos_site_id
 _symmetry_equiv_pos_as_xyz
  1  'x, y, z'
loop_
 _atom_site_type_symbol
 _atom_site_label
 _atom_site_symmetry_multiplicity
 _atom_site_fract_x
 _atom_site_fract_y
 _atom_site_fract_z
 _atom_site_occupancy
  Cs  Cs0  1  0.000000  0.500000  0.250000  1
  Cs  Cs1  1  0.500000  0.000000  0.750000  1
  Cs  Cs2  1  0.500000  0.000000  0.250000  1
  Cs  Cs3  1  0.000000  0.500000  0.750000  1
  V  V4  1  0.250204  0.749796  0.500000  1
  V  V5  1  0.749796  0.250204  0.500000  1
  V  V6  1  0.249796  0.249796  0.000000  1
  V  V7  1  0.750204  0.750204  0.000000  1
  Ni  Ni8  1  0.500000  0.500000  0.500000  1
  Ni  Ni9  1  0.000000  0.000000  0.000000  1
  Ni  Ni10  1  0.000000  0.000000  0.500000  1
  Ni  Ni11  1  0.500000  0.500000  0.000000  1
  S  S12  1  0.277604  0.980605  0.000000  1
  S  S13  1  0.019395  0.722396  0.000000  1
  S  S14  1  0.480605  0.222396  0.500000  1
  S  S15  1  0.980605  0.277604  0.000000  1
  S  S16  1  0.519395  0.777604  0.500000  1
  S  S17  1  0.871153  0.128847  0.627509  1
  S  S18  1  0.722396  0.019395  0.000000  1
  S  S19  1  0.371153  0.371153  0.127509  1
  S  S20  1  0.222396  0.480605  0.500000  1
  S  S21  1  0.871153  0.128847  0.372491  1
  S  S22  1  0.777604  0.519395  0.500000  1
  S  S23  1  0.371153  0.371153  0.872491  1
  S  S24  1  0.628847  0.628847  0.872491  1
  S  S25  1  0.628847  0.628847  0.127509  1
  S  S26  1  0.128847  0.871153  0.372491  1
  S  S27  1  0.128847  0.871153  0.627509  1
