# generated using pymatgen
data_Tl8PtO8
_symmetry_space_group_name_H-M   'P 1'
_cell_length_a   7.64353793
_cell_length_b   7.64354011
_cell_length_c   7.64353800
_cell_angle_alpha   60.00000913
_cell_angle_beta   59.99999969
_cell_angle_gamma   60.00000423
_symmetry_Int_Tables_number   1
_chemical_formula_structural   Tl8PtO8
_chemical_formula_sum   'Tl8 Pt1 O8'
_cell_volume   315.76824096
_cell_formula_units_Z   1
loop_
 _symmetry_equiv_pos_site_id
 _symmetry_equiv_pos_as_xyz
  1  'x, y, z'
loop_
 _atom_site_type_symbol
 _atom_site_label
 _atom_site_symmetry_multiplicity
 _atom_site_fract_x
 _atom_site_fract_y
 _atom_site_fract_z
 _atom_site_occupancy
  Tl  Tl0  1  0.747812  0.747812  0.252188  1
  Tl  Tl1  1  0.747812  0.252188  0.747812  1
  Tl  Tl2  1  0.252188  0.747812  0.252188  1
  Tl  Tl3  1  0.747812  0.252188  0.252188  1
  Tl  Tl4  1  0.252188  0.747812  0.747812  1
  Tl  Tl5  1  0.252188  0.252188  0.747812  1
  Tl  Tl6  1  0.250000  0.250000  0.250000  1
  Tl  Tl7  1  0.750000  0.750000  0.750000  1
  Pt  Pt8  1  0.000000  0.000000  0.000000  1
  O  O9  1  0.366863  0.899413  0.366863  1
  O  O10  1  0.633137  0.633137  0.100587  1
  O  O11  1  0.633137  0.633137  0.633137  1
  O  O12  1  0.100587  0.633137  0.633137  1
  O  O13  1  0.366863  0.366863  0.366863  1
  O  O14  1  0.899413  0.366863  0.366863  1
  O  O15  1  0.366863  0.366863  0.899413  1
  O  O16  1  0.633137  0.100587  0.633137  1
