# generated using pymatgen
data_Lu3Pa(Ga3Rh)6
_symmetry_space_group_name_H-M   'P 1'
_cell_length_a   7.57747592
_cell_length_b   7.56328292
_cell_length_c   9.42054500
_cell_angle_alpha   90.00000000
_cell_angle_beta   90.00000000
_cell_angle_gamma   119.95850634
_symmetry_Int_Tables_number   1
_chemical_formula_structural   Lu3Pa(Ga3Rh)6
_chemical_formula_sum   'Lu3 Pa1 Ga18 Rh6'
_cell_volume   467.75991955
_cell_formula_units_Z   1
loop_
 _symmetry_equiv_pos_site_id
 _symmetry_equiv_pos_as_xyz
  1  'x, y, z'
loop_
 _atom_site_type_symbol
 _atom_site_label
 _atom_site_symmetry_multiplicity
 _atom_site_fract_x
 _atom_site_fract_y
 _atom_site_fract_z
 _atom_site_occupancy
  Lu  Lu0  1  0.003079  0.330477  0.750000  1
  Lu  Lu1  1  0.671131  0.997600  0.250000  1
  Lu  Lu2  1  0.329717  0.001990  0.750000  1
  Pa  Pa3  1  0.997796  0.669553  0.250000  1
  Ga  Ga4  1  0.338532  0.546767  0.250000  1
  Ga  Ga5  1  0.660999  0.449845  0.750000  1
  Ga  Ga6  1  0.546044  0.339535  0.250000  1
  Ga  Ga7  1  0.450956  0.661845  0.750000  1
  Ga  Ga8  1  0.998548  0.330684  0.079131  1
  Ga  Ga9  1  0.001183  0.665067  0.915532  1
  Ga  Ga10  1  0.001183  0.665067  0.584468  1
  Ga  Ga11  1  0.339161  0.002680  0.420542  1
  Ga  Ga12  1  0.998548  0.330684  0.420869  1
  Ga  Ga13  1  0.665226  0.001848  0.581815  1
  Ga  Ga14  1  0.665226  0.001848  0.918185  1
  Ga  Ga15  1  0.339161  0.002680  0.079458  1
  Ga  Ga16  1  0.330857  0.330857  0.570400  1
  Ga  Ga17  1  0.664199  0.668340  0.434464  1
  Ga  Ga18  1  0.664199  0.668340  0.065536  1
  Ga  Ga19  1  0.330857  0.330857  0.929600  1
  Ga  Ga20  1  0.129272  0.128855  0.250000  1
  Ga  Ga21  1  0.874683  0.875634  0.750000  1
  Rh  Rh22  1  0.673394  0.330560  0.001327  1
  Rh  Rh23  1  0.326429  0.671385  0.001152  1
  Rh  Rh24  1  0.326429  0.671385  0.498848  1
  Rh  Rh25  1  0.673394  0.330560  0.498673  1
  Rh  Rh26  1  0.999897  0.997530  0.001724  1
  Rh  Rh27  1  0.999897  0.997530  0.498276  1
