# generated using pymatgen
data_Sc(TaC)5
_symmetry_space_group_name_H-M   'P 1'
_cell_length_a   5.48191442
_cell_length_b   5.50562285
_cell_length_c   5.51815888
_cell_angle_alpha   99.49850217
_cell_angle_beta   100.20257334
_cell_angle_gamma   119.71520475
_symmetry_Int_Tables_number   1
_chemical_formula_structural   Sc(TaC)5
_chemical_formula_sum   'Sc1 Ta5 C5'
_cell_volume   135.98797372
_cell_formula_units_Z   1
loop_
 _symmetry_equiv_pos_site_id
 _symmetry_equiv_pos_as_xyz
  1  'x, y, z'
loop_
 _atom_site_type_symbol
 _atom_site_label
 _atom_site_symmetry_multiplicity
 _atom_site_fract_x
 _atom_site_fract_y
 _atom_site_fract_z
 _atom_site_occupancy
  Sc  Sc0  1  0.420901  0.081185  0.244800  1
  Ta  Ta1  1  0.082136  0.438519  0.252632  1
  Ta  Ta2  1  0.735296  0.737686  0.269054  1
  Ta  Ta3  1  0.272706  0.265421  0.734380  1
  Ta  Ta4  1  0.917523  0.555980  0.743567  1
  Ta  Ta5  1  0.565813  0.917985  0.749379  1
  C  C6  1  0.669504  0.337752  0.999997  1
  C  C7  1  0.333491  0.662274  0.997996  1
  C  C8  1  0.836719  0.167275  0.501848  1
  C  C9  1  0.501654  0.503911  0.503733  1
  C  C10  1  0.164264  0.832020  0.502614  1
