# generated using pymatgen
data_YbHoAg2(Pt2O7)2
_symmetry_space_group_name_H-M   'P 1'
_cell_length_a   7.22416237
_cell_length_b   7.22416256
_cell_length_c   7.35005447
_cell_angle_alpha   59.29813305
_cell_angle_beta   59.29813100
_cell_angle_gamma   59.22935350
_symmetry_Int_Tables_number   1
_chemical_formula_structural   YbHoAg2(Pt2O7)2
_chemical_formula_sum   'Yb1 Ho1 Ag2 Pt4 O14'
_cell_volume   266.76068656
_cell_formula_units_Z   1
loop_
 _symmetry_equiv_pos_site_id
 _symmetry_equiv_pos_as_xyz
  1  'x, y, z'
loop_
 _atom_site_type_symbol
 _atom_site_label
 _atom_site_symmetry_multiplicity
 _atom_site_fract_x
 _atom_site_fract_y
 _atom_site_fract_z
 _atom_site_occupancy
  Yb  Yb0  1  0.625000  0.625000  0.625000  1
  Ho  Ho1  1  0.625000  0.625000  0.125000  1
  Ag  Ag2  1  0.625000  0.125000  0.625000  1
  Ag  Ag3  1  0.125000  0.625000  0.625000  1
  Pt  Pt4  1  0.125000  0.125000  0.125000  1
  Pt  Pt5  1  0.625000  0.125000  0.125000  1
  Pt  Pt6  1  0.125000  0.625000  0.125000  1
  Pt  Pt7  1  0.125000  0.125000  0.625000  1
  O  O8  1  0.038449  0.460323  0.455982  1
  O  O9  1  0.782865  0.782865  0.211505  1
  O  O10  1  0.789648  0.220929  0.196211  1
  O  O11  1  0.460323  0.038449  0.455982  1
  O  O12  1  0.765472  0.765472  0.740461  1
  O  O13  1  0.045345  0.045345  0.453739  1
  O  O14  1  0.029071  0.460352  0.053789  1
  O  O15  1  0.789677  0.211551  0.794018  1
  O  O16  1  0.220929  0.789648  0.196211  1
  O  O17  1  0.204655  0.204655  0.796261  1
  O  O18  1  0.484528  0.484528  0.509539  1
  O  O19  1  0.460352  0.029071  0.053789  1
  O  O20  1  0.467135  0.467135  0.038495  1
  O  O21  1  0.211551  0.789677  0.794018  1
