# generated using pymatgen
data_Zn3CoSi8(Pb2O7)4
_symmetry_space_group_name_H-M   'P 1'
_cell_length_a   11.53547800
_cell_length_b   11.53547800
_cell_length_c   5.34771800
_cell_angle_alpha   90.00000000
_cell_angle_beta   90.00000000
_cell_angle_gamma   90.00000000
_symmetry_Int_Tables_number   1
_chemical_formula_structural   Zn3CoSi8(Pb2O7)4
_chemical_formula_sum   'Zn3 Co1 Si8 Pb8 O28'
_cell_volume   711.60614241
_cell_formula_units_Z   1
loop_
 _symmetry_equiv_pos_site_id
 _symmetry_equiv_pos_as_xyz
  1  'x, y, z'
loop_
 _atom_site_type_symbol
 _atom_site_label
 _atom_site_symmetry_multiplicity
 _atom_site_fract_x
 _atom_site_fract_y
 _atom_site_fract_z
 _atom_site_occupancy
  Zn  Zn0  1  0.500000  0.000000  0.999933  1
  Zn  Zn1  1  0.000000  0.500000  0.000067  1
  Zn  Zn2  1  0.000000  0.000000  0.000000  1
  Co  Co3  1  0.500000  0.500000  0.000000  1
  Si  Si4  1  0.249941  0.890553  0.953108  1
  Si  Si5  1  0.750061  0.390400  0.952498  1
  Si  Si6  1  0.609600  0.750061  0.047502  1
  Si  Si7  1  0.109447  0.249941  0.046892  1
  Si  Si8  1  0.750059  0.109447  0.953108  1
  Si  Si9  1  0.249939  0.609600  0.952498  1
  Si  Si10  1  0.390400  0.249939  0.047502  1
  Si  Si11  1  0.890553  0.750059  0.046892  1
  Pb  Pb12  1  0.249981  0.073056  0.503995  1
  Pb  Pb13  1  0.749750  0.573243  0.504207  1
  Pb  Pb14  1  0.426757  0.749750  0.495793  1
  Pb  Pb15  1  0.926944  0.249981  0.496005  1
  Pb  Pb16  1  0.750019  0.926944  0.503995  1
  Pb  Pb17  1  0.250250  0.426757  0.504207  1
  Pb  Pb18  1  0.573243  0.250250  0.495793  1
  Pb  Pb19  1  0.073056  0.750019  0.496005  1
  O  O20  1  0.249969  0.249859  0.119190  1
  O  O21  1  0.750031  0.750141  0.119190  1
  O  O22  1  0.249859  0.750031  0.880810  1
  O  O23  1  0.750141  0.249969  0.880810  1
  O  O24  1  0.363577  0.945682  0.805327  1
  O  O25  1  0.863830  0.445496  0.805089  1
  O  O26  1  0.554515  0.636481  0.195408  1
  O  O27  1  0.054325  0.136340  0.194932  1
  O  O28  1  0.636423  0.054318  0.805327  1
  O  O29  1  0.136170  0.554504  0.805089  1
  O  O30  1  0.445485  0.363519  0.195408  1
  O  O31  1  0.945675  0.863660  0.194932  1
  O  O32  1  0.445496  0.136170  0.194911  1
  O  O33  1  0.945682  0.636423  0.194673  1
  O  O34  1  0.863660  0.054325  0.805068  1
  O  O35  1  0.363519  0.554515  0.804592  1
  O  O36  1  0.554504  0.863830  0.194911  1
  O  O37  1  0.054318  0.363577  0.194673  1
  O  O38  1  0.136340  0.945675  0.805068  1
  O  O39  1  0.636481  0.445485  0.804592  1
  O  O40  1  0.249850  0.904927  0.254668  1
  O  O41  1  0.749282  0.405140  0.254091  1
  O  O42  1  0.594860  0.749282  0.745909  1
  O  O43  1  0.095073  0.249850  0.745332  1
  O  O44  1  0.750150  0.095073  0.254668  1
  O  O45  1  0.250718  0.594860  0.254091  1
  O  O46  1  0.405140  0.250718  0.745909  1
  O  O47  1  0.904927  0.750150  0.745332  1
