# generated using pymatgen
data_Th10In3Sb3Se2
_symmetry_space_group_name_H-M   'P 1'
_cell_length_a   9.49842500
_cell_length_b   9.49842395
_cell_length_c   6.67294700
_cell_angle_alpha   90.00000000
_cell_angle_beta   90.00000000
_cell_angle_gamma   119.99999321
_symmetry_Int_Tables_number   1
_chemical_formula_structural   Th10In3Sb3Se2
_chemical_formula_sum   'Th10 In3 Sb3 Se2'
_cell_volume   521.37653880
_cell_formula_units_Z   1
loop_
 _symmetry_equiv_pos_site_id
 _symmetry_equiv_pos_as_xyz
  1  'x, y, z'
loop_
 _atom_site_type_symbol
 _atom_site_label
 _atom_site_symmetry_multiplicity
 _atom_site_fract_x
 _atom_site_fract_y
 _atom_site_fract_z
 _atom_site_occupancy
  Th  Th0  1  0.666667  0.333333  0.998058  1
  Th  Th1  1  0.333333  0.666667  0.998058  1
  Th  Th2  1  0.333333  0.666667  0.501942  1
  Th  Th3  1  0.666667  0.333333  0.501942  1
  Th  Th4  1  0.735362  0.735362  0.750000  1
  Th  Th5  1  0.264638  0.000000  0.750000  1
  Th  Th6  1  0.000000  0.264638  0.750000  1
  Th  Th7  1  0.264269  0.264269  0.250000  1
  Th  Th8  1  0.735731  0.000000  0.250000  1
  Th  Th9  1  0.000000  0.735731  0.250000  1
  In  In10  1  0.385684  0.385684  0.750000  1
  In  In11  1  0.614316  0.000000  0.750000  1
  In  In12  1  0.000000  0.614316  0.750000  1
  Sb  Sb13  1  0.610386  0.610386  0.250000  1
  Sb  Sb14  1  0.389614  0.000000  0.250000  1
  Sb  Sb15  1  0.000000  0.389614  0.250000  1
  Se  Se16  1  0.000000  0.000000  0.999721  1
  Se  Se17  1  0.000000  0.000000  0.500279  1
