# generated using pymatgen
data_Dy4Al4Ir3Pd
_symmetry_space_group_name_H-M   'P 1'
_cell_length_a   4.29015100
_cell_length_b   6.87419267
_cell_length_c   7.92186703
_cell_angle_alpha   89.89936451
_cell_angle_beta   90.00000000
_cell_angle_gamma   90.00000000
_symmetry_Int_Tables_number   1
_chemical_formula_structural   Dy4Al4Ir3Pd
_chemical_formula_sum   'Dy4 Al4 Ir3 Pd1'
_cell_volume   233.62599140
_cell_formula_units_Z   1
loop_
 _symmetry_equiv_pos_site_id
 _symmetry_equiv_pos_as_xyz
  1  'x, y, z'
loop_
 _atom_site_type_symbol
 _atom_site_label
 _atom_site_symmetry_multiplicity
 _atom_site_fract_x
 _atom_site_fract_y
 _atom_site_fract_z
 _atom_site_occupancy
  Dy  Dy0  1  0.250000  0.027720  0.323425  1
  Dy  Dy1  1  0.250000  0.539075  0.181448  1
  Dy  Dy2  1  0.750000  0.968902  0.679327  1
  Dy  Dy3  1  0.750000  0.471453  0.816386  1
  Al  Al4  1  0.250000  0.137473  0.935161  1
  Al  Al5  1  0.250000  0.639239  0.562272  1
  Al  Al6  1  0.750000  0.855922  0.060868  1
  Al  Al7  1  0.750000  0.362682  0.442435  1
  Ir  Ir8  1  0.250000  0.267232  0.620084  1
  Ir  Ir9  1  0.250000  0.767286  0.880379  1
  Ir  Ir10  1  0.750000  0.732700  0.378102  1
  Pd  Pd11  1  0.750000  0.230315  0.120113  1
