# generated using pymatgen
data_Nd2BeGaSi2
_symmetry_space_group_name_H-M   'P 1'
_cell_length_a   8.08395527
_cell_length_b   8.08395518
_cell_length_c   8.56688300
_cell_angle_alpha   89.99777258
_cell_angle_beta   90.00222829
_cell_angle_gamma   119.97038538
_symmetry_Int_Tables_number   1
_chemical_formula_structural   Nd2BeGaSi2
_chemical_formula_sum   'Nd8 Be4 Ga4 Si8'
_cell_volume   484.98777227
_cell_formula_units_Z   4
loop_
 _symmetry_equiv_pos_site_id
 _symmetry_equiv_pos_as_xyz
  1  'x, y, z'
loop_
 _atom_site_type_symbol
 _atom_site_label
 _atom_site_symmetry_multiplicity
 _atom_site_fract_x
 _atom_site_fract_y
 _atom_site_fract_z
 _atom_site_occupancy
  Nd  Nd0  1  0.000905  0.999095  0.747572  1
  Nd  Nd1  1  0.000863  0.999137  0.252322  1
  Nd  Nd2  1  0.498105  0.501895  0.747632  1
  Nd  Nd3  1  0.495660  0.994332  0.749063  1
  Nd  Nd4  1  0.005668  0.504340  0.749063  1
  Nd  Nd5  1  0.498612  0.501388  0.252451  1
  Nd  Nd6  1  0.004642  0.503832  0.251007  1
  Nd  Nd7  1  0.496168  0.995358  0.251007  1
  Be  Be8  1  0.666783  0.333217  0.997848  1
  Be  Be9  1  0.664483  0.335517  0.501894  1
  Be  Be10  1  0.334199  0.665801  0.498140  1
  Be  Be11  1  0.333680  0.666320  0.001788  1
  Ga  Ga12  1  0.826152  0.173848  0.999616  1
  Ga  Ga13  1  0.825342  0.651866  0.999627  1
  Ga  Ga14  1  0.348134  0.174658  0.999627  1
  Ga  Ga15  1  0.826210  0.173790  0.500442  1
  Si  Si16  1  0.826886  0.654766  0.500329  1
  Si  Si17  1  0.345234  0.173114  0.500329  1
  Si  Si18  1  0.172142  0.827858  0.499697  1
  Si  Si19  1  0.655779  0.825731  0.499628  1
  Si  Si20  1  0.174269  0.344221  0.499628  1
  Si  Si21  1  0.172503  0.827497  0.000445  1
  Si  Si22  1  0.654893  0.827311  0.000424  1
  Si  Si23  1  0.172689  0.345107  0.000424  1
