# generated using pymatgen
data_Ba3Ca7Bi8
_symmetry_space_group_name_H-M   'P 1'
_cell_length_a   9.01775629
_cell_length_b   8.62483600
_cell_length_c   8.80230090
_cell_angle_alpha   69.97251471
_cell_angle_beta   91.31866723
_cell_angle_gamma   91.60514151
_symmetry_Int_Tables_number   1
_chemical_formula_structural   Ba3Ca7Bi8
_chemical_formula_sum   'Ba3 Ca7 Bi8'
_cell_volume   642.89595306
_cell_formula_units_Z   1
loop_
 _symmetry_equiv_pos_site_id
 _symmetry_equiv_pos_as_xyz
  1  'x, y, z'
loop_
 _atom_site_type_symbol
 _atom_site_label
 _atom_site_symmetry_multiplicity
 _atom_site_fract_x
 _atom_site_fract_y
 _atom_site_fract_z
 _atom_site_occupancy
  Ba  Ba0  1  0.325522  0.053921  0.313888  1
  Ba  Ba1  1  0.186547  0.555504  0.315335  1
  Ba  Ba2  1  0.812144  0.447924  0.687331  1
  Ca  Ca3  1  0.355931  0.253485  0.736396  1
  Ca  Ca4  1  0.997897  0.998349  0.998945  1
  Ca  Ca5  1  0.680754  0.946520  0.692959  1
  Ca  Ca6  1  0.839590  0.254178  0.241557  1
  Ca  Ca7  1  0.156842  0.745179  0.755667  1
  Ca  Ca8  1  0.645984  0.742454  0.265037  1
  Ca  Ca9  1  0.502026  0.500208  0.998641  1
  Bi  Bi10  1  0.855230  0.648392  0.006251  1
  Bi  Bi11  1  0.956369  0.863661  0.413452  1
  Bi  Bi12  1  0.137131  0.358803  0.980465  1
  Bi  Bi13  1  0.554759  0.333884  0.410772  1
  Bi  Bi14  1  0.365781  0.860027  0.002085  1
  Bi  Bi15  1  0.460137  0.670509  0.599841  1
  Bi  Bi16  1  0.031311  0.135300  0.590309  1
  Bi  Bi17  1  0.636045  0.131699  0.991069  1
