# generated using pymatgen
data_Li2Pr7Ho(Si6Rh)2
_symmetry_space_group_name_H-M   'P 1'
_cell_length_a   8.30216260
_cell_length_b   8.29391443
_cell_length_c   8.43349018
_cell_angle_alpha   89.99999998
_cell_angle_beta   89.97934243
_cell_angle_gamma   119.96713906
_symmetry_Int_Tables_number   1
_chemical_formula_structural   Li2Pr7Ho(Si6Rh)2
_chemical_formula_sum   'Li2 Pr7 Ho1 Si12 Rh2'
_cell_volume   503.07465142
_cell_formula_units_Z   1
loop_
 _symmetry_equiv_pos_site_id
 _symmetry_equiv_pos_as_xyz
  1  'x, y, z'
loop_
 _atom_site_type_symbol
 _atom_site_label
 _atom_site_symmetry_multiplicity
 _atom_site_fract_x
 _atom_site_fract_y
 _atom_site_fract_z
 _atom_site_occupancy
  Li  Li0  1  0.332953  0.666477  0.490417  1
  Li  Li1  1  0.667252  0.333626  0.522426  1
  Pr  Pr2  1  0.000187  0.000094  0.250714  1
  Pr  Pr3  1  0.999529  0.999765  0.748937  1
  Pr  Pr4  1  0.503424  0.496529  0.244089  1
  Pr  Pr5  1  0.503424  0.006896  0.244089  1
  Pr  Pr6  1  0.993524  0.496761  0.244250  1
  Pr  Pr7  1  0.496150  0.503787  0.754805  1
  Pr  Pr8  1  0.496150  0.992363  0.754805  1
  Ho  Ho9  1  0.007735  0.503867  0.761011  1
  Si  Si10  1  0.164568  0.831869  0.507035  1
  Si  Si11  1  0.164568  0.332697  0.507035  1
  Si  Si12  1  0.669780  0.834890  0.503559  1
  Si  Si13  1  0.835069  0.167012  0.497678  1
  Si  Si14  1  0.835069  0.668058  0.497678  1
  Si  Si15  1  0.329304  0.164653  0.496836  1
  Si  Si16  1  0.833907  0.168199  0.994492  1
  Si  Si17  1  0.833907  0.665709  0.994492  1
  Si  Si18  1  0.334346  0.167174  0.995446  1
  Si  Si19  1  0.166039  0.832211  0.999129  1
  Si  Si20  1  0.166039  0.333827  0.999129  1
  Si  Si21  1  0.666531  0.833265  0.001477  1
  Rh  Rh22  1  0.668967  0.334483  0.983452  1
  Rh  Rh23  1  0.331577  0.665789  0.007018  1
