# generated using pymatgen
data_Y7Tm(InNi)2
_symmetry_space_group_name_H-M   'P 1'
_cell_length_a   9.64821522
_cell_length_b   9.64821654
_cell_length_c   9.72447800
_cell_angle_alpha   59.73818480
_cell_angle_beta   59.73818024
_cell_angle_gamma   59.90046907
_symmetry_Int_Tables_number   1
_chemical_formula_structural   Y7Tm(InNi)2
_chemical_formula_sum   'Y14 Tm2 In4 Ni4'
_cell_volume   637.07438197
_cell_formula_units_Z   2
loop_
 _symmetry_equiv_pos_site_id
 _symmetry_equiv_pos_as_xyz
  1  'x, y, z'
loop_
 _atom_site_type_symbol
 _atom_site_label
 _atom_site_symmetry_multiplicity
 _atom_site_fract_x
 _atom_site_fract_y
 _atom_site_fract_z
 _atom_site_occupancy
  Y  Y0  1  0.599040  0.203617  0.598670  1
  Y  Y1  1  0.203617  0.599040  0.598670  1
  Y  Y2  1  0.060941  0.439766  0.437844  1
  Y  Y3  1  0.439766  0.060941  0.061449  1
  Y  Y4  1  0.439766  0.060941  0.437844  1
  Y  Y5  1  0.060941  0.439766  0.061449  1
  Y  Y6  1  0.439907  0.439907  0.060093  1
  Y  Y7  1  0.062646  0.062646  0.437354  1
  Y  Y8  1  0.188691  0.811726  0.812484  1
  Y  Y9  1  0.811726  0.188691  0.187100  1
  Y  Y10  1  0.811726  0.188691  0.812484  1
  Y  Y11  1  0.188691  0.811726  0.187100  1
  Y  Y12  1  0.808816  0.808816  0.191184  1
  Y  Y13  1  0.187630  0.187630  0.812370  1
  Tm  Tm14  1  0.594339  0.594339  0.598092  1
  Tm  Tm15  1  0.594339  0.594339  0.213232  1
  In  In16  1  0.833480  0.833480  0.833302  1
  In  In17  1  0.833480  0.833480  0.499736  1
  In  In18  1  0.832941  0.503737  0.831660  1
  In  In19  1  0.503737  0.832941  0.831660  1
  Ni  Ni20  1  0.393302  0.393302  0.390721  1
  Ni  Ni21  1  0.393302  0.393302  0.822676  1
  Ni  Ni22  1  0.397412  0.819762  0.391414  1
  Ni  Ni23  1  0.819762  0.397412  0.391414  1
