# generated using pymatgen
data_LiZr(UPd6)2
_symmetry_space_group_name_H-M   'P 1'
_cell_length_a   5.78247800
_cell_length_b   5.78247813
_cell_length_c   9.33550000
_cell_angle_alpha   90.00000000
_cell_angle_beta   90.00000000
_cell_angle_gamma   119.99999923
_symmetry_Int_Tables_number   1
_chemical_formula_structural   LiZr(UPd6)2
_chemical_formula_sum   'Li1 Zr1 U2 Pd12'
_cell_volume   270.33122144
_cell_formula_units_Z   1
loop_
 _symmetry_equiv_pos_site_id
 _symmetry_equiv_pos_as_xyz
  1  'x, y, z'
loop_
 _atom_site_type_symbol
 _atom_site_label
 _atom_site_symmetry_multiplicity
 _atom_site_fract_x
 _atom_site_fract_y
 _atom_site_fract_z
 _atom_site_occupancy
  Li  Li0  1  0.333333  0.666667  0.250000  1
  Zr  Zr1  1  0.666667  0.333333  0.750000  1
  U  U2  1  0.000000  0.000000  0.492959  1
  U  U3  1  0.000000  0.000000  0.007041  1
  Pd  Pd4  1  0.500112  0.499888  0.500095  1
  Pd  Pd5  1  0.500112  0.000223  0.500095  1
  Pd  Pd6  1  0.999777  0.499888  0.500095  1
  Pd  Pd7  1  0.500112  0.499888  0.999905  1
  Pd  Pd8  1  0.500112  0.000223  0.999905  1
  Pd  Pd9  1  0.999777  0.499888  0.999905  1
  Pd  Pd10  1  0.829423  0.170577  0.250000  1
  Pd  Pd11  1  0.829423  0.658846  0.250000  1
  Pd  Pd12  1  0.341154  0.170577  0.250000  1
  Pd  Pd13  1  0.168795  0.831205  0.750000  1
  Pd  Pd14  1  0.168795  0.337590  0.750000  1
  Pd  Pd15  1  0.662410  0.831205  0.750000  1
