# generated using pymatgen
data_Dy3HoAl4Ir3Pt
_symmetry_space_group_name_H-M   'P 1'
_cell_length_a   4.28947900
_cell_length_b   6.84878725
_cell_length_c   7.90969400
_cell_angle_alpha   90.01380062
_cell_angle_beta   90.00000000
_cell_angle_gamma   90.00000000
_symmetry_Int_Tables_number   1
_chemical_formula_structural   Dy3HoAl4Ir3Pt
_chemical_formula_sum   'Dy3 Ho1 Al4 Ir3 Pt1'
_cell_volume   232.36884074
_cell_formula_units_Z   1
loop_
 _symmetry_equiv_pos_site_id
 _symmetry_equiv_pos_as_xyz
  1  'x, y, z'
loop_
 _atom_site_type_symbol
 _atom_site_label
 _atom_site_symmetry_multiplicity
 _atom_site_fract_x
 _atom_site_fract_y
 _atom_site_fract_z
 _atom_site_occupancy
  Dy  Dy0  1  0.250000  0.029212  0.677317  1
  Dy  Dy1  1  0.750000  0.968457  0.320832  1
  Dy  Dy2  1  0.750000  0.470053  0.182246  1
  Ho  Ho3  1  0.250000  0.536572  0.819041  1
  Al  Al4  1  0.250000  0.138139  0.063753  1
  Al  Al5  1  0.250000  0.639061  0.438530  1
  Al  Al6  1  0.750000  0.857529  0.938758  1
  Al  Al7  1  0.750000  0.362074  0.559478  1
  Ir  Ir8  1  0.250000  0.266962  0.379858  1
  Ir  Ir9  1  0.250000  0.766717  0.119067  1
  Ir  Ir10  1  0.750000  0.733252  0.621481  1
  Pt  Pt11  1  0.750000  0.231970  0.879638  1
