# generated using pymatgen
data_Ho4ErReMoC7
_symmetry_space_group_name_H-M   'P 1'
_cell_length_a   8.34173946
_cell_length_b   8.34173864
_cell_length_c   3.40744300
_cell_angle_alpha   90.00000000
_cell_angle_beta   90.00000000
_cell_angle_gamma   122.45447003
_symmetry_Int_Tables_number   1
_chemical_formula_structural   Ho4ErReMoC7
_chemical_formula_sum   'Ho4 Er1 Re1 Mo1 C7'
_cell_volume   200.07400179
_cell_formula_units_Z   1
loop_
 _symmetry_equiv_pos_site_id
 _symmetry_equiv_pos_as_xyz
  1  'x, y, z'
loop_
 _atom_site_type_symbol
 _atom_site_label
 _atom_site_symmetry_multiplicity
 _atom_site_fract_x
 _atom_site_fract_y
 _atom_site_fract_z
 _atom_site_occupancy
  Ho  Ho0  1  0.076787  0.334836  0.500000  1
  Ho  Ho1  1  0.925240  0.666014  0.500000  1
  Ho  Ho2  1  0.665164  0.923213  0.500000  1
  Ho  Ho3  1  0.333986  0.074760  0.500000  1
  Er  Er4  1  0.499043  0.500957  0.000000  1
  Re  Re5  1  0.286359  0.713641  0.000000  1
  Mo  Mo6  1  0.713688  0.286312  0.000000  1
  C  C7  1  0.622646  0.377354  0.500000  1
  C  C8  1  0.374899  0.625101  0.500000  1
  C  C9  1  0.999872  0.000128  0.000000  1
  C  C10  1  0.169343  0.168378  0.000000  1
  C  C11  1  0.831622  0.830657  0.000000  1
  C  C12  1  0.002132  0.500781  0.000000  1
  C  C13  1  0.499219  0.997868  0.000000  1
