# generated using pymatgen
data_CsCr4Tc2Se7
_symmetry_space_group_name_H-M   'P 1'
_cell_length_a   9.56723897
_cell_length_b   9.60446741
_cell_length_c   9.56008866
_cell_angle_alpha   61.27517499
_cell_angle_beta   61.58063930
_cell_angle_gamma   61.57048936
_symmetry_Int_Tables_number   1
_chemical_formula_structural   CsCr4Tc2Se7
_chemical_formula_sum   'Cs2 Cr8 Tc4 Se14'
_cell_volume   641.72989347
_cell_formula_units_Z   2
loop_
 _symmetry_equiv_pos_site_id
 _symmetry_equiv_pos_as_xyz
  1  'x, y, z'
loop_
 _atom_site_type_symbol
 _atom_site_label
 _atom_site_symmetry_multiplicity
 _atom_site_fract_x
 _atom_site_fract_y
 _atom_site_fract_z
 _atom_site_occupancy
  Cs  Cs0  1  0.378543  0.379072  0.382367  1
  Cs  Cs1  1  0.619031  0.618278  0.620677  1
  Cr  Cr2  1  0.290013  0.122097  0.997521  1
  Cr  Cr3  1  0.185915  0.895844  0.058700  1
  Cr  Cr4  1  0.892834  0.059466  0.188151  1
  Cr  Cr5  1  0.940641  0.812958  0.106957  1
  Cr  Cr6  1  0.809924  0.106894  0.941155  1
  Cr  Cr7  1  0.104868  0.942335  0.812269  1
  Cr  Cr8  1  0.999145  0.289179  0.121710  1
  Cr  Cr9  1  0.877695  0.002817  0.710279  1
  Tc  Tc10  1  0.122649  0.995742  0.293289  1
  Tc  Tc11  1  0.007421  0.705041  0.877541  1
  Tc  Tc12  1  0.704278  0.876470  0.006665  1
  Tc  Tc13  1  0.057830  0.192426  0.887755  1
  Se  Se14  1  0.977026  0.231398  0.645742  1
  Se  Se15  1  0.234132  0.652771  0.984512  1
  Se  Se16  1  0.650181  0.982815  0.234779  1
  Se  Se17  1  0.015416  0.766705  0.350086  1
  Se  Se18  1  0.762869  0.351034  0.022471  1
  Se  Se19  1  0.352822  0.015634  0.768182  1
  Se  Se20  1  0.172570  0.413238  0.821856  1
  Se  Se21  1  0.413244  0.817131  0.163459  1
  Se  Se22  1  0.820731  0.165649  0.413330  1
  Se  Se23  1  0.839074  0.580556  0.184510  1
  Se  Se24  1  0.586223  0.177705  0.833741  1
  Se  Se25  1  0.181849  0.839080  0.586186  1
  Se  Se26  1  0.779345  0.782167  0.771372  1
  Se  Se27  1  0.223733  0.225500  0.214739  1
