# generated using pymatgen
data_Sc10Ga3Si2Bi
_symmetry_space_group_name_H-M   'P 1'
_cell_length_a   8.08001700
_cell_length_b   8.09274548
_cell_length_c   5.99454700
_cell_angle_alpha   90.00000000
_cell_angle_beta   90.00000000
_cell_angle_gamma   119.94798089
_symmetry_Int_Tables_number   1
_chemical_formula_structural   Sc10Ga3Si2Bi
_chemical_formula_sum   'Sc10 Ga3 Si2 Bi1'
_cell_volume   339.64292076
_cell_formula_units_Z   1
loop_
 _symmetry_equiv_pos_site_id
 _symmetry_equiv_pos_as_xyz
  1  'x, y, z'
loop_
 _atom_site_type_symbol
 _atom_site_label
 _atom_site_symmetry_multiplicity
 _atom_site_fract_x
 _atom_site_fract_y
 _atom_site_fract_z
 _atom_site_occupancy
  Sc  Sc0  1  0.321126  0.650080  0.993704  1
  Sc  Sc1  1  0.671047  0.349920  0.506296  1
  Sc  Sc2  1  0.671047  0.349920  0.993704  1
  Sc  Sc3  1  0.321126  0.650080  0.506296  1
  Sc  Sc4  1  0.227714  0.000000  0.250000  1
  Sc  Sc5  1  0.241738  0.243400  0.750000  1
  Sc  Sc6  1  0.998338  0.756600  0.750000  1
  Sc  Sc7  1  0.016533  0.252425  0.250000  1
  Sc  Sc8  1  0.764109  0.747575  0.250000  1
  Sc  Sc9  1  0.764388  0.000000  0.750000  1
  Ga  Ga10  1  0.002279  0.600554  0.250000  1
  Ga  Ga11  1  0.401725  0.399446  0.250000  1
  Ga  Ga12  1  0.397020  0.000000  0.750000  1
  Si  Si13  1  0.603187  0.608634  0.750000  1
  Si  Si14  1  0.994552  0.391366  0.750000  1
  Bi  Bi15  1  0.604070  0.000000  0.250000  1
