# generated using pymatgen
data_Ca2Ta3As7Rh9
_symmetry_space_group_name_H-M   'P 1'
_cell_length_a   3.99775900
_cell_length_b   10.02543577
_cell_length_c   10.02543600
_cell_angle_alpha   120.00000074
_cell_angle_beta   90.00000000
_cell_angle_gamma   90.00000000
_symmetry_Int_Tables_number   1
_chemical_formula_structural   Ca2Ta3As7Rh9
_chemical_formula_sum   'Ca2 Ta3 As7 Rh9'
_cell_volume   347.97958525
_cell_formula_units_Z   1
loop_
 _symmetry_equiv_pos_site_id
 _symmetry_equiv_pos_as_xyz
  1  'x, y, z'
loop_
 _atom_site_type_symbol
 _atom_site_label
 _atom_site_symmetry_multiplicity
 _atom_site_fract_x
 _atom_site_fract_y
 _atom_site_fract_z
 _atom_site_occupancy
  Ca  Ca0  1  0.000000  0.666667  0.333333  1
  Ca  Ca1  1  0.500000  0.333333  0.666667  1
  Ta  Ta2  1  0.500000  0.779868  0.904144  1
  Ta  Ta3  1  0.500000  0.124277  0.220132  1
  Ta  Ta4  1  0.500000  0.095856  0.875723  1
  As  As5  1  0.500000  0.709069  0.123509  1
  As  As6  1  0.500000  0.414440  0.290931  1
  As  As7  1  0.500000  0.876491  0.585560  1
  As  As8  1  0.000000  0.000000  0.000000  1
  As  As9  1  0.000000  0.581590  0.700368  1
  As  As10  1  0.000000  0.118779  0.418410  1
  As  As11  1  0.000000  0.299632  0.881221  1
  Rh  Rh12  1  0.000000  0.567638  0.934959  1
  Rh  Rh13  1  0.000000  0.367321  0.432362  1
  Rh  Rh14  1  0.000000  0.065041  0.632679  1
  Rh  Rh15  1  0.000000  0.885680  0.158483  1
  Rh  Rh16  1  0.000000  0.272804  0.114320  1
  Rh  Rh17  1  0.000000  0.841517  0.727196  1
  Rh  Rh18  1  0.500000  0.952699  0.386617  1
  Rh  Rh19  1  0.500000  0.433917  0.047301  1
  Rh  Rh20  1  0.500000  0.613383  0.566083  1
