# generated using pymatgen
data_Rb4Nb8P5O34
_symmetry_space_group_name_H-M   'P 1'
_cell_length_a   10.78115900
_cell_length_b   10.78115900
_cell_length_c   6.52508000
_cell_angle_alpha   90.00000000
_cell_angle_beta   90.00000000
_cell_angle_gamma   90.00000000
_symmetry_Int_Tables_number   1
_chemical_formula_structural   Rb4Nb8P5O34
_chemical_formula_sum   'Rb4 Nb8 P5 O34'
_cell_volume   758.43216440
_cell_formula_units_Z   1
loop_
 _symmetry_equiv_pos_site_id
 _symmetry_equiv_pos_as_xyz
  1  'x, y, z'
loop_
 _atom_site_type_symbol
 _atom_site_label
 _atom_site_symmetry_multiplicity
 _atom_site_fract_x
 _atom_site_fract_y
 _atom_site_fract_z
 _atom_site_occupancy
  Rb  Rb0  1  0.500000  0.500000  0.500000  1
  Rb  Rb1  1  0.000000  0.500000  0.294011  1
  Rb  Rb2  1  0.500000  0.000000  0.705989  1
  Rb  Rb3  1  0.000000  0.000000  0.500000  1
  Nb  Nb4  1  0.177572  0.177572  0.000000  1
  Nb  Nb5  1  0.822428  0.822428  0.000000  1
  Nb  Nb6  1  0.822428  0.177572  0.000000  1
  Nb  Nb7  1  0.177572  0.822428  0.000000  1
  Nb  Nb8  1  0.500000  0.182731  0.200938  1
  Nb  Nb9  1  0.817269  0.500000  0.799062  1
  Nb  Nb10  1  0.182731  0.500000  0.799062  1
  Nb  Nb11  1  0.500000  0.817269  0.200938  1
  P  P12  1  0.500000  0.500000  0.000000  1
  P  P13  1  0.241365  0.241365  0.500000  1
  P  P14  1  0.241365  0.758635  0.500000  1
  P  P15  1  0.758635  0.758635  0.500000  1
  P  P16  1  0.758635  0.241365  0.500000  1
  O  O17  1  0.161938  0.198496  0.313133  1
  O  O18  1  0.838062  0.801504  0.313133  1
  O  O19  1  0.801504  0.161938  0.686867  1
  O  O20  1  0.198496  0.838062  0.686867  1
  O  O21  1  0.838062  0.198496  0.313133  1
  O  O22  1  0.801504  0.838062  0.686867  1
  O  O23  1  0.198496  0.161938  0.686867  1
  O  O24  1  0.161938  0.801504  0.313133  1
  O  O25  1  0.822673  0.000000  0.028500  1
  O  O26  1  0.000000  0.822673  0.971500  1
  O  O27  1  0.000000  0.177327  0.971500  1
  O  O28  1  0.177327  0.000000  0.028500  1
  O  O29  1  0.500000  0.382224  0.138724  1
  O  O30  1  0.617776  0.500000  0.861276  1
  O  O31  1  0.382224  0.500000  0.861276  1
  O  O32  1  0.500000  0.617776  0.138724  1
  O  O33  1  0.379096  0.216467  0.457140  1
  O  O34  1  0.500000  0.000000  0.252848  1
  O  O35  1  0.000000  0.500000  0.747152  1
  O  O36  1  0.364498  0.825656  0.021949  1
  O  O37  1  0.174344  0.364498  0.978051  1
  O  O38  1  0.825656  0.635502  0.978051  1
  O  O39  1  0.635502  0.174344  0.021949  1
  O  O40  1  0.174344  0.635502  0.978051  1
  O  O41  1  0.825656  0.364498  0.978051  1
  O  O42  1  0.635502  0.825656  0.021949  1
  O  O43  1  0.364498  0.174344  0.021949  1
  O  O44  1  0.379096  0.783533  0.457140  1
  O  O45  1  0.216467  0.379096  0.542860  1
  O  O46  1  0.783533  0.620904  0.542860  1
  O  O47  1  0.620904  0.216467  0.457140  1
  O  O48  1  0.216467  0.620904  0.542860  1
  O  O49  1  0.783533  0.379096  0.542860  1
  O  O50  1  0.620904  0.783533  0.457140  1
