# generated using pymatgen
data_HfMg(ZnPt)2
_symmetry_space_group_name_H-M   'P 1'
_cell_length_a   5.07334337
_cell_length_b   5.07334211
_cell_length_c   5.17264700
_cell_angle_alpha   90.00000000
_cell_angle_beta   90.00000000
_cell_angle_gamma   129.94706035
_symmetry_Int_Tables_number   1
_chemical_formula_structural   HfMg(ZnPt)2
_chemical_formula_sum   'Hf1 Mg1 Zn2 Pt2'
_cell_volume   102.06847084
_cell_formula_units_Z   1
loop_
 _symmetry_equiv_pos_site_id
 _symmetry_equiv_pos_as_xyz
  1  'x, y, z'
loop_
 _atom_site_type_symbol
 _atom_site_label
 _atom_site_symmetry_multiplicity
 _atom_site_fract_x
 _atom_site_fract_y
 _atom_site_fract_z
 _atom_site_occupancy
  Hf  Hf0  1  0.711016  0.288984  0.250000  1
  Mg  Mg1  1  0.288674  0.711326  0.750000  1
  Zn  Zn2  1  0.007512  0.992488  0.499101  1
  Zn  Zn3  1  0.007512  0.992488  0.000899  1
  Pt  Pt4  1  0.395935  0.604065  0.250000  1
  Pt  Pt5  1  0.589353  0.410647  0.750000  1
