# generated using pymatgen
data_TbU(GeRu)2
_symmetry_space_group_name_H-M   'P 1'
_cell_length_a   4.52257800
_cell_length_b   7.13917294
_cell_length_c   7.20317808
_cell_angle_alpha   94.84212967
_cell_angle_beta   90.00000000
_cell_angle_gamma   90.00000000
_symmetry_Int_Tables_number   1
_chemical_formula_structural   TbU(GeRu)2
_chemical_formula_sum   'Tb2 U2 Ge4 Ru4'
_cell_volume   231.74233429
_cell_formula_units_Z   2
loop_
 _symmetry_equiv_pos_site_id
 _symmetry_equiv_pos_as_xyz
  1  'x, y, z'
loop_
 _atom_site_type_symbol
 _atom_site_label
 _atom_site_symmetry_multiplicity
 _atom_site_fract_x
 _atom_site_fract_y
 _atom_site_fract_z
 _atom_site_occupancy
  Tb  Tb0  1  0.250000  0.983154  0.776013  1
  Tb  Tb1  1  0.750000  0.016846  0.223987  1
  U  U2  1  0.250000  0.493005  0.698964  1
  U  U3  1  0.750000  0.506995  0.301036  1
  Ge  Ge4  1  0.250000  0.280982  0.093553  1
  Ge  Ge5  1  0.750000  0.719018  0.906447  1
  Ge  Ge6  1  0.250000  0.803487  0.388488  1
  Ge  Ge7  1  0.750000  0.196513  0.611512  1
  Ru  Ru8  1  0.750000  0.740871  0.549608  1
  Ru  Ru9  1  0.250000  0.259129  0.450392  1
  Ru  Ru10  1  0.750000  0.359164  0.962620  1
  Ru  Ru11  1  0.250000  0.640836  0.037380  1
