# generated using pymatgen
data_Hf10Zn2Sn5Sb
_symmetry_space_group_name_H-M   'P 1'
_cell_length_a   8.62154100
_cell_length_b   8.61979062
_cell_length_c   5.82480400
_cell_angle_alpha   90.00000000
_cell_angle_beta   90.00000000
_cell_angle_gamma   120.00672142
_symmetry_Int_Tables_number   1
_chemical_formula_structural   Hf10Zn2Sn5Sb
_chemical_formula_sum   'Hf10 Zn2 Sn5 Sb1'
_cell_volume   374.85572135
_cell_formula_units_Z   1
loop_
 _symmetry_equiv_pos_site_id
 _symmetry_equiv_pos_as_xyz
  1  'x, y, z'
loop_
 _atom_site_type_symbol
 _atom_site_label
 _atom_site_symmetry_multiplicity
 _atom_site_fract_x
 _atom_site_fract_y
 _atom_site_fract_z
 _atom_site_occupancy
  Hf  Hf0  1  0.731924  0.732452  0.250000  1
  Hf  Hf1  1  0.731573  0.000000  0.750000  1
  Hf  Hf2  1  0.999473  0.267548  0.250000  1
  Hf  Hf3  1  0.000215  0.732147  0.750000  1
  Hf  Hf4  1  0.268069  0.267853  0.750000  1
  Hf  Hf5  1  0.268647  0.000000  0.250000  1
  Hf  Hf6  1  0.333661  0.667001  0.500291  1
  Hf  Hf7  1  0.666660  0.332999  0.999709  1
  Hf  Hf8  1  0.666660  0.332999  0.500291  1
  Hf  Hf9  1  0.333661  0.667001  0.999709  1
  Zn  Zn10  1  0.000535  0.000000  0.999500  1
  Zn  Zn11  1  0.000535  0.000000  0.500500  1
  Sn  Sn12  1  0.384403  0.000000  0.750000  1
  Sn  Sn13  1  0.385044  0.385173  0.250000  1
  Sn  Sn14  1  0.999871  0.614827  0.250000  1
  Sn  Sn15  1  0.000182  0.385499  0.750000  1
  Sn  Sn16  1  0.614683  0.614501  0.750000  1
  Sb  Sb17  1  0.614205  0.000000  0.250000  1
