# generated using pymatgen
data_Sc12Si12Rh3Au
_symmetry_space_group_name_H-M   'P 1'
_cell_length_a   4.03295300
_cell_length_b   10.28692867
_cell_length_c   11.72955278
_cell_angle_alpha   90.04151951
_cell_angle_beta   90.00000000
_cell_angle_gamma   90.00000000
_symmetry_Int_Tables_number   1
_chemical_formula_structural   Sc12Si12Rh3Au
_chemical_formula_sum   'Sc12 Si12 Rh3 Au1'
_cell_volume   486.62030751
_cell_formula_units_Z   1
loop_
 _symmetry_equiv_pos_site_id
 _symmetry_equiv_pos_as_xyz
  1  'x, y, z'
loop_
 _atom_site_type_symbol
 _atom_site_label
 _atom_site_symmetry_multiplicity
 _atom_site_fract_x
 _atom_site_fract_y
 _atom_site_fract_z
 _atom_site_occupancy
  Sc  Sc0  1  0.250000  0.877224  0.021378  1
  Sc  Sc1  1  0.250000  0.626204  0.518191  1
  Sc  Sc2  1  0.750000  0.123159  0.981355  1
  Sc  Sc3  1  0.750000  0.376518  0.477066  1
  Sc  Sc4  1  0.250000  0.921190  0.598377  1
  Sc  Sc5  1  0.250000  0.579688  0.101117  1
  Sc  Sc6  1  0.750000  0.079182  0.397954  1
  Sc  Sc7  1  0.750000  0.420525  0.901192  1
  Sc  Sc8  1  0.250000  0.663625  0.801613  1
  Sc  Sc9  1  0.250000  0.843008  0.299918  1
  Sc  Sc10  1  0.750000  0.342736  0.200326  1
  Sc  Sc11  1  0.750000  0.154496  0.700441  1
  Si  Si12  1  0.250000  0.012609  0.822929  1
  Si  Si13  1  0.250000  0.485297  0.324458  1
  Si  Si14  1  0.750000  0.985111  0.177385  1
  Si  Si15  1  0.750000  0.526276  0.674734  1
  Si  Si16  1  0.250000  0.243182  0.849240  1
  Si  Si17  1  0.250000  0.250169  0.340949  1
  Si  Si18  1  0.750000  0.750210  0.158547  1
  Si  Si19  1  0.750000  0.754431  0.657473  1
  Si  Si20  1  0.250000  0.181393  0.538594  1
  Si  Si21  1  0.250000  0.307009  0.046737  1
  Si  Si22  1  0.750000  0.806660  0.454360  1
  Si  Si23  1  0.750000  0.693749  0.956820  1
  Rh  Rh24  1  0.250000  0.110391  0.177822  1
  Rh  Rh25  1  0.750000  0.610669  0.321149  1
  Rh  Rh26  1  0.750000  0.889371  0.822157  1
  Au  Au27  1  0.250000  0.385918  0.677719  1
