# generated using pymatgen
data_Hf3Zr7(SiSn3)2
_symmetry_space_group_name_H-M   'P 1'
_cell_length_a   8.66476500
_cell_length_b   8.66476509
_cell_length_c   5.90323200
_cell_angle_alpha   90.00000000
_cell_angle_beta   90.00000000
_cell_angle_gamma   119.99999584
_symmetry_Int_Tables_number   1
_chemical_formula_structural   Hf3Zr7(SiSn3)2
_chemical_formula_sum   'Hf3 Zr7 Si2 Sn6'
_cell_volume   383.82572866
_cell_formula_units_Z   1
loop_
 _symmetry_equiv_pos_site_id
 _symmetry_equiv_pos_as_xyz
  1  'x, y, z'
loop_
 _atom_site_type_symbol
 _atom_site_label
 _atom_site_symmetry_multiplicity
 _atom_site_fract_x
 _atom_site_fract_y
 _atom_site_fract_z
 _atom_site_occupancy
  Hf  Hf0  1  0.666667  0.333333  0.000000  1
  Hf  Hf1  1  0.333333  0.666667  0.000000  1
  Hf  Hf2  1  0.333333  0.666667  0.500000  1
  Zr  Zr3  1  0.666667  0.333333  0.500000  1
  Zr  Zr4  1  0.742407  0.742777  0.749664  1
  Zr  Zr5  1  0.257223  0.999629  0.749664  1
  Zr  Zr6  1  0.000371  0.257593  0.749664  1
  Zr  Zr7  1  0.257223  0.257593  0.250336  1
  Zr  Zr8  1  0.742407  0.999629  0.250336  1
  Zr  Zr9  1  0.000371  0.742777  0.250336  1
  Si  Si10  1  0.000000  0.000000  0.000000  1
  Si  Si11  1  0.000000  0.000000  0.500000  1
  Sn  Sn12  1  0.394801  0.395385  0.750662  1
  Sn  Sn13  1  0.604615  0.999416  0.750662  1
  Sn  Sn14  1  0.000584  0.605199  0.750662  1
  Sn  Sn15  1  0.604615  0.605199  0.249338  1
  Sn  Sn16  1  0.394801  0.999416  0.249338  1
  Sn  Sn17  1  0.000584  0.395385  0.249338  1
