# generated using pymatgen
data_DyNpScO6
_symmetry_space_group_name_H-M   'P 1'
_cell_length_a   5.45475300
_cell_length_b   7.67090276
_cell_length_c   11.56912909
_cell_angle_alpha   76.34717113
_cell_angle_beta   90.00000000
_cell_angle_gamma   90.00000000
_symmetry_Int_Tables_number   1
_chemical_formula_structural   DyNpScO6
_chemical_formula_sum   'Dy4 Np4 Sc4 O24'
_cell_volume   470.40724577
_cell_formula_units_Z   4
loop_
 _symmetry_equiv_pos_site_id
 _symmetry_equiv_pos_as_xyz
  1  'x, y, z'
loop_
 _atom_site_type_symbol
 _atom_site_label
 _atom_site_symmetry_multiplicity
 _atom_site_fract_x
 _atom_site_fract_y
 _atom_site_fract_z
 _atom_site_occupancy
  Dy  Dy0  1  0.772935  0.000000  0.750000  1
  Dy  Dy1  1  0.227065  0.000000  0.250000  1
  Dy  Dy2  1  0.707023  0.500000  0.750000  1
  Dy  Dy3  1  0.292977  0.500000  0.250000  1
  Np  Np4  1  0.273497  0.730218  0.891873  1
  Np  Np5  1  0.726503  0.730218  0.391873  1
  Np  Np6  1  0.273497  0.269782  0.608127  1
  Np  Np7  1  0.726503  0.269782  0.108127  1
  Sc  Sc8  1  0.205258  0.775155  0.593925  1
  Sc  Sc9  1  0.794742  0.775155  0.093925  1
  Sc  Sc10  1  0.205258  0.224845  0.906075  1
  Sc  Sc11  1  0.794742  0.224845  0.406075  1
  O  O12  1  0.095544  0.968107  0.888178  1
  O  O13  1  0.598340  0.842215  0.939069  1
  O  O14  1  0.904456  0.968107  0.388178  1
  O  O15  1  0.469619  0.795232  0.726698  1
  O  O16  1  0.401660  0.842215  0.439069  1
  O  O17  1  0.983633  0.711953  0.773047  1
  O  O18  1  0.530381  0.795232  0.226698  1
  O  O19  1  0.886853  0.646969  0.558112  1
  O  O20  1  0.392220  0.481629  0.885881  1
  O  O21  1  0.016367  0.711953  0.273047  1
  O  O22  1  0.392220  0.518371  0.614119  1
  O  O23  1  0.886853  0.353031  0.941888  1
  O  O24  1  0.113147  0.646969  0.058112  1
  O  O25  1  0.607780  0.481629  0.385881  1
  O  O26  1  0.983633  0.288047  0.726953  1
  O  O27  1  0.607780  0.518371  0.114119  1
  O  O28  1  0.113147  0.353031  0.441888  1
  O  O29  1  0.469619  0.204768  0.773302  1
  O  O30  1  0.016367  0.288047  0.226953  1
  O  O31  1  0.598340  0.157785  0.560931  1
  O  O32  1  0.530381  0.204768  0.273302  1
  O  O33  1  0.095544  0.031893  0.611822  1
  O  O34  1  0.401660  0.157785  0.060931  1
  O  O35  1  0.904456  0.031893  0.111822  1
