# generated using pymatgen
data_Ba3TmFe2O9
_symmetry_space_group_name_H-M   'P 1'
_cell_length_a   5.87500900
_cell_length_b   5.87500871
_cell_length_c   14.49679200
_cell_angle_alpha   90.00000000
_cell_angle_beta   90.00000000
_cell_angle_gamma   119.99999598
_symmetry_Int_Tables_number   1
_chemical_formula_structural   Ba3TmFe2O9
_chemical_formula_sum   'Ba6 Tm2 Fe4 O18'
_cell_volume   433.33084960
_cell_formula_units_Z   2
loop_
 _symmetry_equiv_pos_site_id
 _symmetry_equiv_pos_as_xyz
  1  'x, y, z'
loop_
 _atom_site_type_symbol
 _atom_site_label
 _atom_site_symmetry_multiplicity
 _atom_site_fract_x
 _atom_site_fract_y
 _atom_site_fract_z
 _atom_site_occupancy
  Ba  Ba0  1  0.333333  0.666667  0.407719  1
  Ba  Ba1  1  0.666667  0.333333  0.907719  1
  Ba  Ba2  1  0.666667  0.333333  0.592281  1
  Ba  Ba3  1  0.333333  0.666667  0.092281  1
  Ba  Ba4  1  0.000000  0.000000  0.750000  1
  Ba  Ba5  1  0.000000  0.000000  0.250000  1
  Tm  Tm6  1  0.000000  0.000000  0.000000  1
  Tm  Tm7  1  0.000000  0.000000  0.500000  1
  Fe  Fe8  1  0.666667  0.333333  0.342546  1
  Fe  Fe9  1  0.333333  0.666667  0.842546  1
  Fe  Fe10  1  0.666667  0.333333  0.157454  1
  Fe  Fe11  1  0.333333  0.666667  0.657454  1
  O  O12  1  0.824769  0.649537  0.412513  1
  O  O13  1  0.350463  0.175231  0.412513  1
  O  O14  1  0.824769  0.175231  0.412513  1
  O  O15  1  0.175231  0.824769  0.912513  1
  O  O16  1  0.175231  0.824769  0.587487  1
  O  O17  1  0.175231  0.350463  0.912513  1
  O  O18  1  0.649537  0.824769  0.912513  1
  O  O19  1  0.350463  0.175231  0.087487  1
  O  O20  1  0.824769  0.649537  0.087487  1
  O  O21  1  0.175231  0.350463  0.587487  1
  O  O22  1  0.649537  0.824769  0.587487  1
  O  O23  1  0.824769  0.175231  0.087487  1
  O  O24  1  0.519801  0.480199  0.250000  1
  O  O25  1  0.039602  0.519801  0.750000  1
  O  O26  1  0.480199  0.960398  0.750000  1
  O  O27  1  0.519801  0.039602  0.250000  1
  O  O28  1  0.960398  0.480199  0.250000  1
  O  O29  1  0.480199  0.519801  0.750000  1
