# generated using pymatgen
data_CaPr15(TmSn4)4
_symmetry_space_group_name_H-M   'P 1'
_cell_length_a   8.16291124
_cell_length_b   8.45372435
_cell_length_c   16.02950665
_cell_angle_alpha   90.19495107
_cell_angle_beta   89.38336215
_cell_angle_gamma   90.24211725
_symmetry_Int_Tables_number   1
_chemical_formula_structural   CaPr15(TmSn4)4
_chemical_formula_sum   'Ca1 Pr15 Tm4 Sn16'
_cell_volume   1106.06802052
_cell_formula_units_Z   1
loop_
 _symmetry_equiv_pos_site_id
 _symmetry_equiv_pos_as_xyz
  1  'x, y, z'
loop_
 _atom_site_type_symbol
 _atom_site_label
 _atom_site_symmetry_multiplicity
 _atom_site_fract_x
 _atom_site_fract_y
 _atom_site_fract_z
 _atom_site_occupancy
  Ca  Ca0  1  0.328407  0.995114  0.249875  1
  Pr  Pr1  1  0.842206  0.666026  0.625378  1
  Pr  Pr2  1  0.653744  0.167013  0.377550  1
  Pr  Pr3  1  0.160157  0.328984  0.120952  1
  Pr  Pr4  1  0.659781  0.168778  0.122368  1
  Pr  Pr5  1  0.157491  0.331673  0.376899  1
  Pr  Pr6  1  0.344428  0.832660  0.625957  1
  Pr  Pr7  1  0.840976  0.667295  0.876453  1
  Pr  Pr8  1  0.498792  0.321496  0.902879  1
  Pr  Pr9  1  0.002769  0.180253  0.598014  1
  Pr  Pr10  1  0.499638  0.682499  0.404137  1
  Pr  Pr11  1  0.002969  0.818694  0.095290  1
  Pr  Pr12  1  0.500423  0.680181  0.094390  1
  Pr  Pr13  1  0.001267  0.818984  0.404182  1
  Pr  Pr14  1  0.501207  0.319824  0.598669  1
  Pr  Pr15  1  0.999109  0.180368  0.902856  1
  Tm  Tm16  1  0.336400  0.832604  0.872183  1
  Tm  Tm17  1  0.174152  0.498665  0.750143  1
  Tm  Tm18  1  0.671337  0.001837  0.750080  1
  Tm  Tm19  1  0.827886  0.502781  0.251223  1
  Sn  Sn20  1  0.321657  0.032691  0.033719  1
  Sn  Sn21  1  0.814151  0.465559  0.457355  1
  Sn  Sn22  1  0.687576  0.963733  0.543019  1
  Sn  Sn23  1  0.185943  0.539903  0.955026  1
  Sn  Sn24  1  0.666774  0.961841  0.955617  1
  Sn  Sn25  1  0.187572  0.535462  0.543279  1
  Sn  Sn26  1  0.311391  0.038563  0.462795  1
  Sn  Sn27  1  0.821747  0.466833  0.043496  1
  Sn  Sn28  1  0.533005  0.615124  0.753425  1
  Sn  Sn29  1  0.036675  0.890536  0.752739  1
  Sn  Sn30  1  0.464121  0.395231  0.249331  1
  Sn  Sn31  1  0.958954  0.110824  0.249205  1
  Sn  Sn32  1  0.305391  0.147133  0.752545  1
  Sn  Sn33  1  0.804791  0.351095  0.751333  1
  Sn  Sn34  1  0.704744  0.850569  0.249152  1
  Sn  Sn35  1  0.192365  0.639174  0.248486  1
