# generated using pymatgen
data_HoEr2(CdNi)2
_symmetry_space_group_name_H-M   'P 1'
_cell_length_a   10.74576800
_cell_length_b   10.74576764
_cell_length_c   3.55640300
_cell_angle_alpha   90.00000000
_cell_angle_beta   90.00000000
_cell_angle_gamma   157.86146389
_symmetry_Int_Tables_number   1
_chemical_formula_structural   HoEr2(CdNi)2
_chemical_formula_sum   'Ho1 Er2 Cd2 Ni2'
_cell_volume   154.75736717
_cell_formula_units_Z   1
loop_
 _symmetry_equiv_pos_site_id
 _symmetry_equiv_pos_as_xyz
  1  'x, y, z'
loop_
 _atom_site_type_symbol
 _atom_site_label
 _atom_site_symmetry_multiplicity
 _atom_site_fract_x
 _atom_site_fract_y
 _atom_site_fract_z
 _atom_site_occupancy
  Ho  Ho0  1  0.000000  0.000000  0.000000  1
  Er  Er1  1  0.823857  0.176143  0.000000  1
  Er  Er2  1  0.176143  0.823857  0.000000  1
  Cd  Cd3  1  0.415322  0.584678  0.500000  1
  Cd  Cd4  1  0.584678  0.415322  0.500000  1
  Ni  Ni5  1  0.280995  0.719005  0.500000  1
  Ni  Ni6  1  0.719005  0.280995  0.500000  1
