# generated using pymatgen
data_HoTh2In3Ir2Ru
_symmetry_space_group_name_H-M   'P 1'
_cell_length_a   7.72460901
_cell_length_b   7.62502549
_cell_length_c   3.93941000
_cell_angle_alpha   90.00000000
_cell_angle_beta   90.00000000
_cell_angle_gamma   119.57444027
_symmetry_Int_Tables_number   1
_chemical_formula_structural   HoTh2In3Ir2Ru
_chemical_formula_sum   'Ho1 Th2 In3 Ir2 Ru1'
_cell_volume   201.80226899
_cell_formula_units_Z   1
loop_
 _symmetry_equiv_pos_site_id
 _symmetry_equiv_pos_as_xyz
  1  'x, y, z'
loop_
 _atom_site_type_symbol
 _atom_site_label
 _atom_site_symmetry_multiplicity
 _atom_site_fract_x
 _atom_site_fract_y
 _atom_site_fract_z
 _atom_site_occupancy
  Ho  Ho0  1  0.000000  0.407367  0.000000  1
  Th  Th1  1  0.586921  0.589209  0.000000  1
  Th  Th2  1  0.413079  0.002289  0.000000  1
  In  In3  1  0.000000  0.733641  0.500000  1
  In  In4  1  0.239000  0.253323  0.500000  1
  In  In5  1  0.761000  0.014322  0.500000  1
  Ir  Ir6  1  0.650111  0.331147  0.500000  1
  Ir  Ir7  1  0.349889  0.681038  0.500000  1
  Ru  Ru8  1  0.000000  0.987663  0.000000  1
