# generated using pymatgen
data_Tb8Ti11Si16Mo
_symmetry_space_group_name_H-M   'P 1'
_cell_length_a   7.05669766
_cell_length_b   7.04844633
_cell_length_c   12.97259557
_cell_angle_alpha   89.90929495
_cell_angle_beta   90.11480724
_cell_angle_gamma   89.97926406
_symmetry_Int_Tables_number   1
_chemical_formula_structural   Tb8Ti11Si16Mo
_chemical_formula_sum   'Tb8 Ti11 Si16 Mo1'
_cell_volume   645.23860195
_cell_formula_units_Z   1
loop_
 _symmetry_equiv_pos_site_id
 _symmetry_equiv_pos_as_xyz
  1  'x, y, z'
loop_
 _atom_site_type_symbol
 _atom_site_label
 _atom_site_symmetry_multiplicity
 _atom_site_fract_x
 _atom_site_fract_y
 _atom_site_fract_z
 _atom_site_occupancy
  Tb  Tb0  1  0.340382  0.002565  0.466657  1
  Tb  Tb1  1  0.496355  0.840281  0.718049  1
  Tb  Tb2  1  0.502637  0.159651  0.216123  1
  Tb  Tb3  1  0.839405  0.496610  0.283167  1
  Tb  Tb4  1  0.160052  0.503355  0.783241  1
  Tb  Tb5  1  0.658607  0.996408  0.966424  1
  Tb  Tb6  1  0.002832  0.339178  0.533907  1
  Tb  Tb7  1  0.997631  0.661179  0.032321  1
  Ti  Ti8  1  0.324307  0.323609  0.999019  1
  Ti  Ti9  1  0.172547  0.827867  0.249751  1
  Ti  Ti10  1  0.830282  0.171018  0.751180  1
  Ti  Ti11  1  0.673205  0.672921  0.500107  1
  Ti  Ti12  1  0.491243  0.654059  0.125167  1
  Ti  Ti13  1  0.507280  0.346022  0.627647  1
  Ti  Ti14  1  0.653141  0.490687  0.873676  1
  Ti  Ti15  1  0.347573  0.508831  0.373898  1
  Ti  Ti16  1  0.846861  0.991812  0.376067  1
  Ti  Ti17  1  0.007450  0.153650  0.124246  1
  Ti  Ti18  1  0.992068  0.846654  0.623906  1
  Si  Si19  1  0.201510  0.129162  0.686411  1
  Si  Si20  1  0.370023  0.704747  0.934205  1
  Si  Si21  1  0.629612  0.297844  0.435052  1
  Si  Si22  1  0.702272  0.370137  0.065026  1
  Si  Si23  1  0.297850  0.629347  0.565148  1
  Si  Si24  1  0.798371  0.870178  0.184963  1
  Si  Si25  1  0.129583  0.202329  0.315047  1
  Si  Si26  1  0.872709  0.800330  0.815641  1
  Si  Si27  1  0.290492  0.954279  0.063567  1
  Si  Si28  1  0.546349  0.790822  0.314783  1
  Si  Si29  1  0.451846  0.209502  0.814599  1
  Si  Si30  1  0.791348  0.546976  0.684960  1
  Si  Si31  1  0.208778  0.452482  0.185203  1
  Si  Si32  1  0.709496  0.046409  0.564703  1
  Si  Si33  1  0.955095  0.289562  0.935435  1
  Si  Si34  1  0.046195  0.709331  0.435096  1
  Mo  Mo35  1  0.154613  0.010207  0.875609  1
