# generated using pymatgen
data_HoSb12(OsRu)2
_symmetry_space_group_name_H-M   'P 1'
_cell_length_a   8.15548863
_cell_length_b   8.14541870
_cell_length_c   8.15448041
_cell_angle_alpha   109.49619929
_cell_angle_beta   109.50655070
_cell_angle_gamma   109.46159162
_symmetry_Int_Tables_number   1
_chemical_formula_structural   HoSb12(OsRu)2
_chemical_formula_sum   'Ho1 Sb12 Os2 Ru2'
_cell_volume   416.74060540
_cell_formula_units_Z   1
loop_
 _symmetry_equiv_pos_site_id
 _symmetry_equiv_pos_as_xyz
  1  'x, y, z'
loop_
 _atom_site_type_symbol
 _atom_site_label
 _atom_site_symmetry_multiplicity
 _atom_site_fract_x
 _atom_site_fract_y
 _atom_site_fract_z
 _atom_site_occupancy
  Ho  Ho0  1  0.000000  0.000000  0.000000  1
  Sb  Sb1  1  0.336709  0.180183  0.843454  1
  Sb  Sb2  1  0.663290  0.819817  0.156546  1
  Sb  Sb3  1  0.662287  0.506251  0.843962  1
  Sb  Sb4  1  0.337713  0.493749  0.156038  1
  Sb  Sb5  1  0.180776  0.844452  0.337882  1
  Sb  Sb6  1  0.819224  0.155548  0.662119  1
  Sb  Sb7  1  0.506568  0.844437  0.663652  1
  Sb  Sb8  1  0.493432  0.155563  0.336349  1
  Sb  Sb9  1  0.843026  0.336550  0.180825  1
  Sb  Sb10  1  0.156974  0.663449  0.819175  1
  Sb  Sb11  1  0.844270  0.663470  0.506476  1
  Sb  Sb12  1  0.155730  0.336530  0.493524  1
  Os  Os13  1  0.000000  0.500000  0.000000  1
  Os  Os14  1  0.500000  0.500000  0.500000  1
  Ru  Ru15  1  0.000000  0.000000  0.500000  1
  Ru  Ru16  1  0.500000  0.000000  0.000000  1
