# generated using pymatgen
data_Rb2LiNb6(PO8)3
_symmetry_space_group_name_H-M   'P 1'
_cell_length_a   8.53040000
_cell_length_b   10.49637232
_cell_length_c   13.45962166
_cell_angle_alpha   90.04285931
_cell_angle_beta   90.01751274
_cell_angle_gamma   113.37710813
_symmetry_Int_Tables_number   1
_chemical_formula_structural   Rb2LiNb6(PO8)3
_chemical_formula_sum   'Rb4 Li2 Nb12 P6 O48'
_cell_volume   1106.22352390
_cell_formula_units_Z   2
loop_
 _symmetry_equiv_pos_site_id
 _symmetry_equiv_pos_as_xyz
  1  'x, y, z'
loop_
 _atom_site_type_symbol
 _atom_site_label
 _atom_site_symmetry_multiplicity
 _atom_site_fract_x
 _atom_site_fract_y
 _atom_site_fract_z
 _atom_site_occupancy
  Rb  Rb0  1  0.596631  0.106338  0.195772  1
  Rb  Rb1  1  0.697795  0.745114  0.657347  1
  Rb  Rb2  1  0.302133  0.253553  0.657006  1
  Rb  Rb3  1  0.089026  0.550564  0.146552  1
  Li  Li4  1  0.581774  0.579593  0.999203  1
  Li  Li5  1  0.417157  0.918622  0.499941  1
  Nb  Nb6  1  0.961121  0.240732  0.403961  1
  Nb  Nb7  1  0.837778  0.302730  0.659371  1
  Nb  Nb8  1  0.973315  0.751340  0.902959  1
  Nb  Nb9  1  0.647270  0.403309  0.438029  1
  Nb  Nb10  1  0.845588  0.811438  0.159411  1
  Nb  Nb11  1  0.355708  0.100303  0.939295  1
  Nb  Nb12  1  0.652755  0.908696  0.937602  1
  Nb  Nb13  1  0.158740  0.195534  0.159112  1
  Nb  Nb14  1  0.346066  0.590370  0.436388  1
  Nb  Nb15  1  0.036661  0.257941  0.902469  1
  Nb  Nb16  1  0.153435  0.686087  0.659271  1
  Nb  Nb17  1  0.029952  0.752136  0.403790  1
  P  P18  1  0.724891  0.388713  0.888169  1
  P  P19  1  0.499071  0.999002  0.723929  1
  P  P20  1  0.723116  0.887247  0.387670  1
  P  P21  1  0.500564  0.500438  0.224051  1
  P  P22  1  0.275386  0.111946  0.388770  1
  P  P23  1  0.277648  0.612566  0.887197  1
  O  O24  1  0.974987  0.266044  0.763340  1
  O  O25  1  0.936348  0.243425  0.553395  1
  O  O26  1  0.846239  0.077871  0.923664  1
  O  O27  1  0.765145  0.044667  0.400426  1
  O  O28  1  0.869457  0.356481  0.935945  1
  O  O29  1  0.793963  0.309423  0.375743  1
  O  O30  1  0.970560  0.761485  0.263840  1
  O  O31  1  0.642099  0.107535  0.660288  1
  O  O32  1  0.927446  0.737275  0.053494  1
  O  O33  1  0.847987  0.575810  0.423566  1
  O  O34  1  0.712031  0.360743  0.775141  1
  O  O35  1  0.686927  0.363764  0.569602  1
  O  O36  1  0.498935  0.000195  0.972296  1
  O  O37  1  0.752267  0.541214  0.909900  1
  O  O38  1  0.863506  0.851295  0.437284  1
  O  O39  1  0.552669  0.294433  0.937035  1
  O  O40  1  0.790768  0.806466  0.878140  1
  O  O41  1  0.412583  0.075032  0.787083  1
  O  O42  1  0.585317  0.423267  0.287570  1
  O  O43  1  0.446966  0.204510  0.439032  1
  O  O44  1  0.631345  0.601490  0.150693  1
  O  O45  1  0.706940  0.855134  0.275470  1
  O  O46  1  0.686882  0.862462  0.068378  1
  O  O47  1  0.502928  0.501993  0.473431  1
  O  O48  1  0.313564  0.136221  0.070825  1
  O  O49  1  0.289141  0.138832  0.275810  1
  O  O50  1  0.355336  0.394133  0.160441  1
  O  O51  1  0.550517  0.808666  0.441512  1
  O  O52  1  0.420607  0.580653  0.289033  1
  O  O53  1  0.579354  0.918771  0.788137  1
  O  O54  1  0.205335  0.189502  0.876382  1
  O  O55  1  0.451277  0.691903  0.939769  1
  O  O56  1  0.131569  0.144651  0.436631  1
  O  O57  1  0.233200  0.455677  0.902424  1
  O  O58  1  0.316827  0.640822  0.567989  1
  O  O59  1  0.999613  0.000325  0.153562  1
  O  O60  1  0.293601  0.646031  0.775117  1
  O  O61  1  0.153808  0.422287  0.423617  1
  O  O62  1  0.065878  0.259831  0.054060  1
  O  O63  1  0.370191  0.898252  0.649442  1
  O  O64  1  0.027766  0.236940  0.264076  1
  O  O65  1  0.207059  0.692072  0.378408  1
  O  O66  1  0.136818  0.649100  0.936560  1
  O  O67  1  0.247306  0.958679  0.409843  1
  O  O68  1  0.999507  0.499370  0.652485  1
  O  O69  1  0.152442  0.925100  0.923213  1
  O  O70  1  0.070919  0.759873  0.553128  1
  O  O71  1  0.024428  0.733767  0.763463  1
