# generated using pymatgen
data_Y12TcRu2Rh
_symmetry_space_group_name_H-M   'P 1'
_cell_length_a   6.35880609
_cell_length_b   7.36403409
_cell_length_c   9.23404200
_cell_angle_alpha   90.00000000
_cell_angle_beta   90.00000000
_cell_angle_gamma   89.95928928
_symmetry_Int_Tables_number   1
_chemical_formula_structural   Y12TcRu2Rh
_chemical_formula_sum   'Y12 Tc1 Ru2 Rh1'
_cell_volume   432.39743355
_cell_formula_units_Z   1
loop_
 _symmetry_equiv_pos_site_id
 _symmetry_equiv_pos_as_xyz
  1  'x, y, z'
loop_
 _atom_site_type_symbol
 _atom_site_label
 _atom_site_symmetry_multiplicity
 _atom_site_fract_x
 _atom_site_fract_y
 _atom_site_fract_z
 _atom_site_occupancy
  Y  Y0  1  0.633101  0.041716  0.250000  1
  Y  Y1  1  0.364164  0.957288  0.750000  1
  Y  Y2  1  0.134157  0.457479  0.750000  1
  Y  Y3  1  0.869287  0.539907  0.250000  1
  Y  Y4  1  0.169890  0.178351  0.063516  1
  Y  Y5  1  0.828088  0.823167  0.932774  1
  Y  Y6  1  0.667318  0.324695  0.936622  1
  Y  Y7  1  0.828088  0.823167  0.567226  1
  Y  Y8  1  0.332630  0.674755  0.063387  1
  Y  Y9  1  0.169890  0.178351  0.436484  1
  Y  Y10  1  0.332630  0.674755  0.436613  1
  Y  Y11  1  0.667318  0.324695  0.563378  1
  Tc  Tc12  1  0.462100  0.386127  0.250000  1
  Ru  Ru13  1  0.538679  0.616765  0.750000  1
  Ru  Ru14  1  0.962443  0.113808  0.750000  1
  Rh  Rh15  1  0.040217  0.884977  0.250000  1
