# generated using pymatgen
data_NdThMnCo16
_symmetry_space_group_name_H-M   'P 1'
_cell_length_a   6.33702658
_cell_length_b   6.33702600
_cell_length_c   6.33702721
_cell_angle_alpha   83.18214185
_cell_angle_beta   83.18214706
_cell_angle_gamma   83.18214088
_symmetry_Int_Tables_number   1
_chemical_formula_structural   NdThMnCo16
_chemical_formula_sum   'Nd1 Th1 Mn1 Co16'
_cell_volume   249.47872192
_cell_formula_units_Z   1
loop_
 _symmetry_equiv_pos_site_id
 _symmetry_equiv_pos_as_xyz
  1  'x, y, z'
loop_
 _atom_site_type_symbol
 _atom_site_label
 _atom_site_symmetry_multiplicity
 _atom_site_fract_x
 _atom_site_fract_y
 _atom_site_fract_z
 _atom_site_occupancy
  Nd  Nd0  1  0.344842  0.344842  0.344842  1
  Th  Th1  1  0.655638  0.655638  0.655638  1
  Mn  Mn2  1  0.096314  0.096314  0.096314  1
  Co  Co3  1  0.715196  0.286155  0.998409  1
  Co  Co4  1  0.998409  0.715196  0.286155  1
  Co  Co5  1  0.286155  0.998409  0.715196  1
  Co  Co6  1  0.998409  0.286155  0.715196  1
  Co  Co7  1  0.715196  0.998409  0.286155  1
  Co  Co8  1  0.286155  0.715196  0.998409  1
  Co  Co9  1  0.347210  0.347210  0.847650  1
  Co  Co10  1  0.847650  0.347210  0.347210  1
  Co  Co11  1  0.347210  0.847650  0.347210  1
  Co  Co12  1  0.656357  0.656357  0.147498  1
  Co  Co13  1  0.147498  0.656357  0.656357  1
  Co  Co14  1  0.656357  0.147498  0.656357  1
  Co  Co15  1  0.999770  0.999770  0.504123  1
  Co  Co16  1  0.504123  0.999770  0.999770  1
  Co  Co17  1  0.999770  0.504123  0.999770  1
  Co  Co18  1  0.897747  0.897747  0.897747  1
