# generated using pymatgen
data_La3NiSn3Rh2
_symmetry_space_group_name_H-M   'P 1'
_cell_length_a   7.57788500
_cell_length_b   7.57788569
_cell_length_c   4.15251800
_cell_angle_alpha   90.00000000
_cell_angle_beta   90.00000000
_cell_angle_gamma   119.99999263
_symmetry_Int_Tables_number   1
_chemical_formula_structural   La3NiSn3Rh2
_chemical_formula_sum   'La3 Ni1 Sn3 Rh2'
_cell_volume   206.50864997
_cell_formula_units_Z   1
loop_
 _symmetry_equiv_pos_site_id
 _symmetry_equiv_pos_as_xyz
  1  'x, y, z'
loop_
 _atom_site_type_symbol
 _atom_site_label
 _atom_site_symmetry_multiplicity
 _atom_site_fract_x
 _atom_site_fract_y
 _atom_site_fract_z
 _atom_site_occupancy
  La  La0  1  0.000000  0.584935  0.000000  1
  La  La1  1  0.415065  0.415065  0.000000  1
  La  La2  1  0.584935  0.000000  0.000000  1
  Ni  Ni3  1  0.000000  0.000000  0.000000  1
  Sn  Sn4  1  0.756767  0.756767  0.500000  1
  Sn  Sn5  1  0.000000  0.243233  0.500000  1
  Sn  Sn6  1  0.243233  0.000000  0.500000  1
  Rh  Rh7  1  0.333333  0.666667  0.500000  1
  Rh  Rh8  1  0.666667  0.333333  0.500000  1
