# generated using pymatgen
data_Fe5P6Pb2WO24
_symmetry_space_group_name_H-M   'P 1'
_cell_length_a   9.36740275
_cell_length_b   9.37517372
_cell_length_c   9.36740342
_cell_angle_alpha   138.49805906
_cell_angle_beta   109.59058806
_cell_angle_gamma   85.13656916
_symmetry_Int_Tables_number   1
_chemical_formula_structural   Fe5P6Pb2WO24
_chemical_formula_sum   'Fe5 P6 Pb2 W1 O24'
_cell_volume   495.00780790
_cell_formula_units_Z   1
loop_
 _symmetry_equiv_pos_site_id
 _symmetry_equiv_pos_as_xyz
  1  'x, y, z'
loop_
 _atom_site_type_symbol
 _atom_site_label
 _atom_site_symmetry_multiplicity
 _atom_site_fract_x
 _atom_site_fract_y
 _atom_site_fract_z
 _atom_site_occupancy
  Fe  Fe0  1  0.619813  0.621096  0.505762  1
  Fe  Fe1  1  0.380187  0.378904  0.494238  1
  Fe  Fe2  1  0.115334  0.621096  0.001283  1
  Fe  Fe3  1  0.884666  0.378904  0.998717  1
  Fe  Fe4  1  0.000000  0.000000  0.000000  1
  P  P5  1  0.322439  0.825789  0.999860  1
  P  P6  1  0.748021  0.651800  0.903779  1
  P  P7  1  0.174071  0.174211  0.496649  1
  P  P8  1  0.677561  0.174211  0.000140  1
  P  P9  1  0.251979  0.348200  0.096221  1
  P  P10  1  0.825929  0.825789  0.503351  1
  Pb  Pb11  1  0.754155  0.148599  0.394444  1
  Pb  Pb12  1  0.245845  0.851401  0.605556  1
  W  W13  1  0.500000  0.500000  0.000000  1
  O  O14  1  0.575800  0.931001  0.778860  1
  O  O15  1  0.079601  0.298073  0.649892  1
  O  O16  1  0.834121  0.883712  0.049592  1
  O  O17  1  0.351818  0.701927  0.781528  1
  O  O18  1  0.144251  0.207602  0.350927  1
  O  O19  1  0.346435  0.312530  0.966095  1
  O  O20  1  0.639120  0.708856  0.346489  1
  O  O21  1  0.855749  0.792398  0.649073  1
  O  O22  1  0.366706  0.488447  0.353213  1
  O  O23  1  0.152141  0.931001  0.355201  1
  O  O24  1  0.637634  0.291144  0.930264  1
  O  O25  1  0.633294  0.511553  0.646787  1
  O  O26  1  0.856675  0.207602  0.063352  1
  O  O27  1  0.847859  0.068999  0.644799  1
  O  O28  1  0.362366  0.708856  0.069736  1
  O  O29  1  0.360880  0.291144  0.653511  1
  O  O30  1  0.653565  0.687470  0.033905  1
  O  O31  1  0.920399  0.701927  0.350108  1
  O  O32  1  0.165879  0.116287  0.950408  1
  O  O33  1  0.864766  0.511553  0.878259  1
  O  O34  1  0.135234  0.488447  0.121741  1
  O  O35  1  0.143325  0.792398  0.936648  1
  O  O36  1  0.648182  0.298073  0.218472  1
  O  O37  1  0.424200  0.068999  0.221140  1
