# generated using pymatgen
data_Th3Nb(Co4P3)2
_symmetry_space_group_name_H-M   'P 1'
_cell_length_a   3.84321100
_cell_length_b   10.81381000
_cell_length_c   12.54573400
_cell_angle_alpha   90.00000000
_cell_angle_beta   90.00000000
_cell_angle_gamma   90.00000000
_symmetry_Int_Tables_number   1
_chemical_formula_structural   Th3Nb(Co4P3)2
_chemical_formula_sum   'Th6 Nb2 Co16 P12'
_cell_volume   521.39761307
_cell_formula_units_Z   2
loop_
 _symmetry_equiv_pos_site_id
 _symmetry_equiv_pos_as_xyz
  1  'x, y, z'
loop_
 _atom_site_type_symbol
 _atom_site_label
 _atom_site_symmetry_multiplicity
 _atom_site_fract_x
 _atom_site_fract_y
 _atom_site_fract_z
 _atom_site_occupancy
  Th  Th0  1  0.000000  0.500000  0.525158  1
  Th  Th1  1  0.500000  0.000000  0.474842  1
  Th  Th2  1  0.500000  0.819170  0.206756  1
  Th  Th3  1  0.500000  0.180830  0.206756  1
  Th  Th4  1  0.000000  0.680830  0.793244  1
  Th  Th5  1  0.000000  0.319170  0.793244  1
  Nb  Nb6  1  0.500000  0.500000  0.151178  1
  Nb  Nb7  1  0.000000  0.000000  0.848822  1
  Co  Co8  1  0.500000  0.500000  0.702543  1
  Co  Co9  1  0.000000  0.000000  0.297457  1
  Co  Co10  1  0.000000  0.500000  0.985390  1
  Co  Co11  1  0.500000  0.000000  0.014610  1
  Co  Co12  1  0.500000  0.332242  0.992139  1
  Co  Co13  1  0.500000  0.667758  0.992139  1
  Co  Co14  1  0.000000  0.167758  0.007861  1
  Co  Co15  1  0.000000  0.832242  0.007861  1
  Co  Co16  1  0.500000  0.299263  0.429154  1
  Co  Co17  1  0.500000  0.700737  0.429154  1
  Co  Co18  1  0.000000  0.200737  0.570846  1
  Co  Co19  1  0.000000  0.799263  0.570846  1
  Co  Co20  1  0.500000  0.879602  0.710638  1
  Co  Co21  1  0.500000  0.120398  0.710638  1
  Co  Co22  1  0.000000  0.620398  0.289362  1
  Co  Co23  1  0.000000  0.379602  0.289362  1
  P  P24  1  0.500000  0.500000  0.887515  1
  P  P25  1  0.000000  0.000000  0.112485  1
  P  P26  1  0.500000  0.500000  0.348309  1
  P  P27  1  0.000000  0.000000  0.651691  1
  P  P28  1  0.500000  0.304219  0.612153  1
  P  P29  1  0.500000  0.695781  0.612153  1
  P  P30  1  0.000000  0.195781  0.387847  1
  P  P31  1  0.000000  0.804219  0.387847  1
  P  P32  1  0.500000  0.844372  0.898502  1
  P  P33  1  0.500000  0.155628  0.898502  1
  P  P34  1  0.000000  0.655628  0.101498  1
  P  P35  1  0.000000  0.344372  0.101498  1
