# generated using pymatgen
data_Nd(Tc2As)2
_symmetry_space_group_name_H-M   'P 1'
_cell_length_a   4.10637500
_cell_length_b   7.57846600
_cell_length_c   15.62126500
_cell_angle_alpha   90.00000000
_cell_angle_beta   90.00000000
_cell_angle_gamma   90.00000000
_symmetry_Int_Tables_number   1
_chemical_formula_structural   Nd(Tc2As)2
_chemical_formula_sum   'Nd4 Tc16 As8'
_cell_volume   486.13413110
_cell_formula_units_Z   4
loop_
 _symmetry_equiv_pos_site_id
 _symmetry_equiv_pos_as_xyz
  1  'x, y, z'
loop_
 _atom_site_type_symbol
 _atom_site_label
 _atom_site_symmetry_multiplicity
 _atom_site_fract_x
 _atom_site_fract_y
 _atom_site_fract_z
 _atom_site_occupancy
  Nd  Nd0  1  0.000000  0.579637  0.122157  1
  Nd  Nd1  1  0.000000  0.420363  0.877843  1
  Nd  Nd2  1  0.500000  0.079637  0.377843  1
  Nd  Nd3  1  0.500000  0.920363  0.622157  1
  Tc  Tc4  1  0.000000  0.133274  0.051183  1
  Tc  Tc5  1  0.000000  0.866726  0.948817  1
  Tc  Tc6  1  0.500000  0.633274  0.448817  1
  Tc  Tc7  1  0.500000  0.366726  0.551183  1
  Tc  Tc8  1  0.000000  0.722157  0.324345  1
  Tc  Tc9  1  0.000000  0.277843  0.675655  1
  Tc  Tc10  1  0.500000  0.222157  0.175655  1
  Tc  Tc11  1  0.500000  0.777843  0.824345  1
  Tc  Tc12  1  0.000000  0.428423  0.420250  1
  Tc  Tc13  1  0.000000  0.571577  0.579750  1
  Tc  Tc14  1  0.500000  0.928423  0.079750  1
  Tc  Tc15  1  0.500000  0.071577  0.920250  1
  Tc  Tc16  1  0.000000  0.996467  0.202722  1
  Tc  Tc17  1  0.000000  0.003533  0.797278  1
  Tc  Tc18  1  0.500000  0.496467  0.297278  1
  Tc  Tc19  1  0.500000  0.503533  0.702722  1
  As  As20  1  0.000000  0.827526  0.474372  1
  As  As21  1  0.000000  0.172474  0.525628  1
  As  As22  1  0.500000  0.327526  0.025628  1
  As  As23  1  0.500000  0.672474  0.974372  1
  As  As24  1  0.000000  0.295418  0.271337  1
  As  As25  1  0.000000  0.704582  0.728663  1
  As  As26  1  0.500000  0.795418  0.228663  1
  As  As27  1  0.500000  0.204582  0.771337  1
