# generated using pymatgen
data_K2GeP3Rh4
_symmetry_space_group_name_H-M   'P 1'
_cell_length_a   7.24963774
_cell_length_b   7.24963753
_cell_length_c   5.65578800
_cell_angle_alpha   90.00000000
_cell_angle_beta   90.00000000
_cell_angle_gamma   134.30965253
_symmetry_Int_Tables_number   1
_chemical_formula_structural   K2GeP3Rh4
_chemical_formula_sum   'K2 Ge1 P3 Rh4'
_cell_volume   212.70657659
_cell_formula_units_Z   1
loop_
 _symmetry_equiv_pos_site_id
 _symmetry_equiv_pos_as_xyz
  1  'x, y, z'
loop_
 _atom_site_type_symbol
 _atom_site_label
 _atom_site_symmetry_multiplicity
 _atom_site_fract_x
 _atom_site_fract_y
 _atom_site_fract_z
 _atom_site_occupancy
  K  K0  1  0.495305  0.504695  0.500000  1
  K  K1  1  0.994021  0.005979  0.000000  1
  Ge  Ge2  1  0.142604  0.857396  0.500000  1
  P  P3  1  0.659286  0.340714  0.000000  1
  P  P4  1  0.342599  0.657401  0.000000  1
  P  P5  1  0.842912  0.157088  0.500000  1
  Rh  Rh6  1  0.504650  0.000064  0.247994  1
  Rh  Rh7  1  0.999936  0.495350  0.752006  1
  Rh  Rh8  1  0.999936  0.495350  0.247994  1
  Rh  Rh9  1  0.504650  0.000064  0.752006  1
