# generated using pymatgen
data_Yb5SiGe11Ir19
_symmetry_space_group_name_H-M   'P 1'
_cell_length_a   13.07993021
_cell_length_b   13.11199522
_cell_length_c   4.05873600
_cell_angle_alpha   90.00000000
_cell_angle_beta   90.00000000
_cell_angle_gamma   120.08180767
_symmetry_Int_Tables_number   1
_chemical_formula_structural   Yb5SiGe11Ir19
_chemical_formula_sum   'Yb5 Si1 Ge11 Ir19'
_cell_volume   602.33353555
_cell_formula_units_Z   1
loop_
 _symmetry_equiv_pos_site_id
 _symmetry_equiv_pos_as_xyz
  1  'x, y, z'
loop_
 _atom_site_type_symbol
 _atom_site_label
 _atom_site_symmetry_multiplicity
 _atom_site_fract_x
 _atom_site_fract_y
 _atom_site_fract_z
 _atom_site_occupancy
  Yb  Yb0  1  0.333540  0.668167  0.000000  1
  Yb  Yb1  1  0.667122  0.334072  0.000000  1
  Yb  Yb2  1  0.179771  0.179707  0.500000  1
  Yb  Yb3  1  0.819812  0.999672  0.500000  1
  Yb  Yb4  1  0.000015  0.819779  0.500000  1
  Si  Si5  1  0.314134  0.833406  0.500000  1
  Ge  Ge6  1  0.818145  0.818619  0.000000  1
  Ge  Ge7  1  0.181946  0.998610  0.000000  1
  Ge  Ge8  1  0.999884  0.181594  0.000000  1
  Ge  Ge9  1  0.169585  0.485992  0.500000  1
  Ge  Ge10  1  0.513332  0.684212  0.500000  1
  Ge  Ge11  1  0.830424  0.316168  0.500000  1
  Ge  Ge12  1  0.485710  0.169647  0.500000  1
  Ge  Ge13  1  0.684003  0.514776  0.500000  1
  Ge  Ge14  1  0.362734  0.362420  0.000000  1
  Ge  Ge15  1  0.636223  0.999076  0.000000  1
  Ge  Ge16  1  0.001726  0.638213  0.000000  1
  Ir  Ir17  1  0.202715  0.818337  0.000000  1
  Ir  Ir18  1  0.182074  0.378936  0.000000  1
  Ir  Ir19  1  0.619596  0.803229  0.000000  1
  Ir  Ir20  1  0.817617  0.197054  0.000000  1
  Ir  Ir21  1  0.378819  0.181171  0.000000  1
  Ir  Ir22  1  0.804006  0.621806  0.000000  1
  Ir  Ir23  1  0.712263  0.712927  0.500000  1
  Ir  Ir24  1  0.287860  0.998002  0.500000  1
  Ir  Ir25  1  0.999957  0.287097  0.500000  1
  Ir  Ir26  1  0.129337  0.645856  0.500000  1
  Ir  Ir27  1  0.358058  0.482070  0.500000  1
  Ir  Ir28  1  0.509448  0.872671  0.500000  1
  Ir  Ir29  1  0.641316  0.123058  0.500000  1
  Ir  Ir30  1  0.482156  0.357674  0.500000  1
  Ir  Ir31  1  0.876575  0.518022  0.500000  1
  Ir  Ir32  1  0.551856  0.551941  0.000000  1
  Ir  Ir33  1  0.446102  0.996243  0.000000  1
  Ir  Ir34  1  0.001402  0.449605  0.000000  1
  Ir  Ir35  1  0.000737  0.000171  0.000000  1
