# generated using pymatgen
data_LiEr16Cd2InIrPt3
_symmetry_space_group_name_H-M   'P 1'
_cell_length_a   9.61133679
_cell_length_b   9.60055421
_cell_length_c   9.59112700
_cell_angle_alpha   60.03248060
_cell_angle_beta   60.06953595
_cell_angle_gamma   60.24312480
_symmetry_Int_Tables_number   1
_chemical_formula_structural   LiEr16Cd2InIrPt3
_chemical_formula_sum   'Li1 Er16 Cd2 In1 Ir1 Pt3'
_cell_volume   627.42515206
_cell_formula_units_Z   1
loop_
 _symmetry_equiv_pos_site_id
 _symmetry_equiv_pos_as_xyz
  1  'x, y, z'
loop_
 _atom_site_type_symbol
 _atom_site_label
 _atom_site_symmetry_multiplicity
 _atom_site_fract_x
 _atom_site_fract_y
 _atom_site_fract_z
 _atom_site_occupancy
  Li  Li0  1  0.718311  0.429427  0.426638  1
  Er  Er1  1  0.062796  0.060681  0.437934  1
  Er  Er2  1  0.643196  0.059564  0.648463  1
  Er  Er3  1  0.192825  0.807590  0.191271  1
  Er  Er4  1  0.435237  0.062715  0.435086  1
  Er  Er5  1  0.188450  0.192769  0.809509  1
  Er  Er6  1  0.651911  0.648383  0.653148  1
  Er  Er7  1  0.058597  0.642105  0.649233  1
  Er  Er8  1  0.435044  0.064119  0.065513  1
  Er  Er9  1  0.650607  0.648175  0.047288  1
  Er  Er10  1  0.192014  0.808230  0.809440  1
  Er  Er11  1  0.812311  0.189950  0.812581  1
  Er  Er12  1  0.810731  0.191232  0.186121  1
  Er  Er13  1  0.812350  0.810784  0.188795  1
  Er  Er14  1  0.063945  0.433369  0.437655  1
  Er  Er15  1  0.436130  0.433464  0.063667  1
  Er  Er16  1  0.063818  0.433365  0.064042  1
  Cd  Cd17  1  0.420762  0.417777  0.747115  1
  Cd  Cd18  1  0.422374  0.745916  0.416559  1
  In  In19  1  0.420334  0.417815  0.415535  1
  Ir  Ir20  1  0.861954  0.426394  0.856365  1
  Pt  Pt21  1  0.858993  0.858437  0.852388  1
  Pt  Pt22  1  0.428127  0.859086  0.856064  1
  Pt  Pt23  1  0.859186  0.858656  0.429596  1
