# generated using pymatgen
data_HgPd3PbS2
_symmetry_space_group_name_H-M   'P 1'
_cell_length_a   5.75121765
_cell_length_b   5.75121859
_cell_length_c   5.75121848
_cell_angle_alpha   63.54158453
_cell_angle_beta   63.54158576
_cell_angle_gamma   63.54158549
_symmetry_Int_Tables_number   1
_chemical_formula_structural   HgPd3PbS2
_chemical_formula_sum   'Hg1 Pd3 Pb1 S2'
_cell_volume   145.04414464
_cell_formula_units_Z   1
loop_
 _symmetry_equiv_pos_site_id
 _symmetry_equiv_pos_as_xyz
  1  'x, y, z'
loop_
 _atom_site_type_symbol
 _atom_site_label
 _atom_site_symmetry_multiplicity
 _atom_site_fract_x
 _atom_site_fract_y
 _atom_site_fract_z
 _atom_site_occupancy
  Hg  Hg0  1  0.000000  0.000000  0.000000  1
  Pd  Pd1  1  0.000000  0.000000  0.500000  1
  Pd  Pd2  1  0.000000  0.500000  0.000000  1
  Pd  Pd3  1  0.500000  0.000000  0.000000  1
  Pb  Pb4  1  0.500000  0.500000  0.500000  1
  S  S5  1  0.719848  0.719848  0.719848  1
  S  S6  1  0.280152  0.280152  0.280152  1
