# generated using pymatgen
data_Er4Sc4OsPt3
_symmetry_space_group_name_H-M   'P 1'
_cell_length_a   4.50420100
_cell_length_b   7.00782482
_cell_length_c   8.42630176
_cell_angle_alpha   88.22691287
_cell_angle_beta   90.00000000
_cell_angle_gamma   90.00000000
_symmetry_Int_Tables_number   1
_chemical_formula_structural   Er4Sc4OsPt3
_chemical_formula_sum   'Er4 Sc4 Os1 Pt3'
_cell_volume   265.84593199
_cell_formula_units_Z   1
loop_
 _symmetry_equiv_pos_site_id
 _symmetry_equiv_pos_as_xyz
  1  'x, y, z'
loop_
 _atom_site_type_symbol
 _atom_site_label
 _atom_site_symmetry_multiplicity
 _atom_site_fract_x
 _atom_site_fract_y
 _atom_site_fract_z
 _atom_site_occupancy
  Er  Er0  1  0.250000  0.477065  0.176827  1
  Er  Er1  1  0.750000  0.532763  0.816912  1
  Er  Er2  1  0.750000  0.010433  0.668385  1
  Er  Er3  1  0.250000  0.979151  0.330547  1
  Sc  Sc4  1  0.250000  0.862743  0.928214  1
  Sc  Sc5  1  0.750000  0.140657  0.068630  1
  Sc  Sc6  1  0.750000  0.644461  0.433015  1
  Sc  Sc7  1  0.250000  0.355235  0.574604  1
  Os  Os8  1  0.250000  0.737956  0.610878  1
  Pt  Pt9  1  0.750000  0.258463  0.388510  1
  Pt  Pt10  1  0.750000  0.753009  0.102765  1
  Pt  Pt11  1  0.250000  0.248063  0.900713  1
