# generated using pymatgen
data_Sm6Mg4Pt13
_symmetry_space_group_name_H-M   'P 1'
_cell_length_a   8.42282025
_cell_length_b   8.42282060
_cell_length_c   8.42282100
_cell_angle_alpha   109.47122159
_cell_angle_beta   109.47122244
_cell_angle_gamma   109.47122139
_symmetry_Int_Tables_number   1
_chemical_formula_structural   Sm6Mg4Pt13
_chemical_formula_sum   'Sm6 Mg4 Pt13'
_cell_volume   459.99249387
_cell_formula_units_Z   1
loop_
 _symmetry_equiv_pos_site_id
 _symmetry_equiv_pos_as_xyz
  1  'x, y, z'
loop_
 _atom_site_type_symbol
 _atom_site_label
 _atom_site_symmetry_multiplicity
 _atom_site_fract_x
 _atom_site_fract_y
 _atom_site_fract_z
 _atom_site_occupancy
  Sm  Sm0  1  0.696414  0.696414  0.000000  1
  Sm  Sm1  1  0.303586  0.000000  0.303586  1
  Sm  Sm2  1  0.000000  0.303586  0.303586  1
  Sm  Sm3  1  0.303586  0.303586  0.000000  1
  Sm  Sm4  1  0.696414  0.000000  0.696414  1
  Sm  Sm5  1  0.000000  0.696414  0.696414  1
  Mg  Mg6  1  0.000000  0.000000  0.500000  1
  Mg  Mg7  1  0.000000  0.500000  0.000000  1
  Mg  Mg8  1  0.500000  0.000000  0.000000  1
  Mg  Mg9  1  0.500000  0.500000  0.500000  1
  Pt  Pt10  1  0.333174  0.333174  0.666348  1
  Pt  Pt11  1  0.666826  0.000000  0.333174  1
  Pt  Pt12  1  0.000000  0.666826  0.333174  1
  Pt  Pt13  1  0.666826  0.333174  0.000000  1
  Pt  Pt14  1  0.333174  0.666348  0.333174  1
  Pt  Pt15  1  0.000000  0.333174  0.666826  1
  Pt  Pt16  1  0.333174  0.666826  0.000000  1
  Pt  Pt17  1  0.333174  0.000000  0.666826  1
  Pt  Pt18  1  0.666348  0.333174  0.333174  1
  Pt  Pt19  1  0.666826  0.666826  0.333652  1
  Pt  Pt20  1  0.666826  0.333652  0.666826  1
  Pt  Pt21  1  0.333652  0.666826  0.666826  1
  Pt  Pt22  1  0.000000  0.000000  0.000000  1
