# generated using pymatgen
data_Ba2Zr3P7Pd9
_symmetry_space_group_name_H-M   'P 1'
_cell_length_a   10.19052000
_cell_length_b   10.19052033
_cell_length_c   4.06955100
_cell_angle_alpha   90.00000000
_cell_angle_beta   90.00000000
_cell_angle_gamma   120.00000543
_symmetry_Int_Tables_number   1
_chemical_formula_structural   Ba2Zr3P7Pd9
_chemical_formula_sum   'Ba2 Zr3 P7 Pd9'
_cell_volume   365.99049680
_cell_formula_units_Z   1
loop_
 _symmetry_equiv_pos_site_id
 _symmetry_equiv_pos_as_xyz
  1  'x, y, z'
loop_
 _atom_site_type_symbol
 _atom_site_label
 _atom_site_symmetry_multiplicity
 _atom_site_fract_x
 _atom_site_fract_y
 _atom_site_fract_z
 _atom_site_occupancy
  Ba  Ba0  1  0.000000  0.000000  0.763642  1
  Ba  Ba1  1  0.333333  0.666667  0.263715  1
  Zr  Zr2  1  0.788767  0.556249  0.763960  1
  Zr  Zr3  1  0.443751  0.232518  0.763960  1
  Zr  Zr4  1  0.767482  0.211233  0.763960  1
  P  P5  1  0.666667  0.333333  0.264150  1
  P  P6  1  0.068136  0.628186  0.763740  1
  P  P7  1  0.371814  0.439950  0.763740  1
  P  P8  1  0.560050  0.931864  0.763740  1
  P  P9  1  0.263170  0.035768  0.263838  1
  P  P10  1  0.964232  0.227402  0.263838  1
  P  P11  1  0.772598  0.736830  0.263838  1
  Pd  Pd12  1  0.513887  0.056030  0.263835  1
  Pd  Pd13  1  0.943970  0.457857  0.263835  1
  Pd  Pd14  1  0.542143  0.486113  0.263835  1
  Pd  Pd15  1  0.099468  0.378389  0.763734  1
  Pd  Pd16  1  0.621611  0.721079  0.763734  1
  Pd  Pd17  1  0.278921  0.900532  0.763734  1
  Pd  Pd18  1  0.233849  0.270691  0.263704  1
  Pd  Pd19  1  0.729309  0.963158  0.263704  1
  Pd  Pd20  1  0.036842  0.766151  0.263704  1
