# generated using pymatgen
data_Dy16HoLu3Pb16
_symmetry_space_group_name_H-M   'P 1'
_cell_length_a   8.17654912
_cell_length_b   8.26318212
_cell_length_c   15.63508300
_cell_angle_alpha   90.00000000
_cell_angle_beta   90.00000000
_cell_angle_gamma   90.01979591
_symmetry_Int_Tables_number   1
_chemical_formula_structural   Dy16HoLu3Pb16
_chemical_formula_sum   'Dy16 Ho1 Lu3 Pb16'
_cell_volume   1056.37360255
_cell_formula_units_Z   1
loop_
 _symmetry_equiv_pos_site_id
 _symmetry_equiv_pos_as_xyz
  1  'x, y, z'
loop_
 _atom_site_type_symbol
 _atom_site_label
 _atom_site_symmetry_multiplicity
 _atom_site_fract_x
 _atom_site_fract_y
 _atom_site_fract_z
 _atom_site_occupancy
  Dy  Dy0  1  0.376782  0.841641  0.879149  1
  Dy  Dy1  1  0.876416  0.658615  0.620835  1
  Dy  Dy2  1  0.623364  0.158479  0.379149  1
  Dy  Dy3  1  0.123344  0.341530  0.120884  1
  Dy  Dy4  1  0.623364  0.158479  0.120851  1
  Dy  Dy5  1  0.123344  0.341530  0.379116  1
  Dy  Dy6  1  0.376782  0.841641  0.620851  1
  Dy  Dy7  1  0.876416  0.658615  0.879165  1
  Dy  Dy8  1  0.536044  0.323462  0.900148  1
  Dy  Dy9  1  0.035872  0.176361  0.599875  1
  Dy  Dy10  1  0.464033  0.676463  0.400107  1
  Dy  Dy11  1  0.964067  0.823531  0.099863  1
  Dy  Dy12  1  0.464033  0.676463  0.099893  1
  Dy  Dy13  1  0.964067  0.823531  0.400137  1
  Dy  Dy14  1  0.536044  0.323462  0.599852  1
  Dy  Dy15  1  0.035872  0.176361  0.900125  1
  Ho  Ho16  1  0.208363  0.504256  0.750000  1
  Lu  Lu17  1  0.708562  0.995581  0.750000  1
  Lu  Lu18  1  0.791463  0.495631  0.250000  1
  Lu  Lu19  1  0.291451  0.004324  0.250000  1
  Pb  Pb20  1  0.281212  0.032767  0.043600  1
  Pb  Pb21  1  0.781222  0.467251  0.456400  1
  Pb  Pb22  1  0.718781  0.967231  0.543567  1
  Pb  Pb23  1  0.218790  0.532790  0.956629  1
  Pb  Pb24  1  0.718781  0.967231  0.956433  1
  Pb  Pb25  1  0.218790  0.532790  0.543371  1
  Pb  Pb26  1  0.281212  0.032767  0.456400  1
  Pb  Pb27  1  0.781222  0.467251  0.043600  1
  Pb  Pb28  1  0.571575  0.626262  0.750000  1
  Pb  Pb29  1  0.071009  0.874195  0.750000  1
  Pb  Pb30  1  0.428955  0.373919  0.250000  1
  Pb  Pb31  1  0.928958  0.126064  0.250000  1
  Pb  Pb32  1  0.347765  0.154439  0.750000  1
  Pb  Pb33  1  0.847592  0.344956  0.750000  1
  Pb  Pb34  1  0.652229  0.845040  0.250000  1
  Pb  Pb35  1  0.152222  0.655087  0.250000  1
