# generated using pymatgen
data_K6RbTaIn3As5
_symmetry_space_group_name_H-M   'P 1'
_cell_length_a   8.47665527
_cell_length_b   9.38954277
_cell_length_c   14.22726542
_cell_angle_alpha   85.26842833
_cell_angle_beta   83.44889867
_cell_angle_gamma   87.63311315
_symmetry_Int_Tables_number   1
_chemical_formula_structural   K6RbTaIn3As5
_chemical_formula_sum   'K12 Rb2 Ta2 In6 As10'
_cell_volume   1120.56602730
_cell_formula_units_Z   2
loop_
 _symmetry_equiv_pos_site_id
 _symmetry_equiv_pos_as_xyz
  1  'x, y, z'
loop_
 _atom_site_type_symbol
 _atom_site_label
 _atom_site_symmetry_multiplicity
 _atom_site_fract_x
 _atom_site_fract_y
 _atom_site_fract_z
 _atom_site_occupancy
  K  K0  1  0.817711  0.810490  0.131948  1
  K  K1  1  0.182289  0.189510  0.868052  1
  K  K2  1  0.273031  0.255631  0.251057  1
  K  K3  1  0.726969  0.744369  0.748943  1
  K  K4  1  0.740166  0.498876  0.973713  1
  K  K5  1  0.259834  0.501124  0.026287  1
  K  K6  1  0.683848  0.082689  0.884618  1
  K  K7  1  0.316152  0.917311  0.115382  1
  K  K8  1  0.665747  0.660888  0.392757  1
  K  K9  1  0.334253  0.339112  0.607243  1
  K  K10  1  0.757487  0.990914  0.531672  1
  K  K11  1  0.242513  0.009086  0.468328  1
  Rb  Rb12  1  0.832237  0.363581  0.643116  1
  Rb  Rb13  1  0.167763  0.636419  0.356884  1
  Ta  Ta14  1  0.647314  0.396447  0.223793  1
  Ta  Ta15  1  0.352686  0.603553  0.776207  1
  In  In16  1  0.913851  0.276270  0.378814  1
  In  In17  1  0.086149  0.723730  0.621186  1
  In  In18  1  0.953904  0.180779  0.125064  1
  In  In19  1  0.046096  0.819221  0.874936  1
  In  In20  1  0.631819  0.038856  0.300869  1
  In  In21  1  0.368181  0.961144  0.699131  1
  As  As22  1  0.485845  0.606344  0.182958  1
  As  As23  1  0.514155  0.393656  0.817042  1
  As  As24  1  0.935253  0.458379  0.204650  1
  As  As25  1  0.064747  0.541621  0.795350  1
  As  As26  1  0.574532  0.300373  0.394828  1
  As  As27  1  0.425468  0.699627  0.605172  1
  As  As28  1  0.617769  0.192980  0.119926  1
  As  As29  1  0.382231  0.807020  0.880074  1
  As  As30  1  0.979573  0.993018  0.300141  1
  As  As31  1  0.020427  0.006982  0.699859  1
