# generated using pymatgen
data_Ta3TiCo3Si4Rh
_symmetry_space_group_name_H-M   'P 1'
_cell_length_a   6.28533333
_cell_length_b   3.69626700
_cell_length_c   7.13286211
_cell_angle_alpha   90.00000000
_cell_angle_beta   89.66117590
_cell_angle_gamma   90.00000000
_symmetry_Int_Tables_number   1
_chemical_formula_structural   Ta3TiCo3Si4Rh
_chemical_formula_sum   'Ta3 Ti1 Co3 Si4 Rh1'
_cell_volume   165.70968220
_cell_formula_units_Z   1
loop_
 _symmetry_equiv_pos_site_id
 _symmetry_equiv_pos_as_xyz
  1  'x, y, z'
loop_
 _atom_site_type_symbol
 _atom_site_label
 _atom_site_symmetry_multiplicity
 _atom_site_fract_x
 _atom_site_fract_y
 _atom_site_fract_z
 _atom_site_occupancy
  Ta  Ta0  1  0.017649  0.250000  0.821961  1
  Ta  Ta1  1  0.527590  0.250000  0.681360  1
  Ta  Ta2  1  0.481410  0.750000  0.318495  1
  Ti  Ti3  1  0.976509  0.750000  0.175071  1
  Co  Co4  1  0.641277  0.250000  0.062518  1
  Co  Co5  1  0.852125  0.750000  0.566248  1
  Co  Co6  1  0.360538  0.750000  0.938833  1
  Si  Si7  1  0.770245  0.250000  0.376570  1
  Si  Si8  1  0.274152  0.250000  0.110543  1
  Si  Si9  1  0.230047  0.750000  0.629309  1
  Si  Si10  1  0.725283  0.750000  0.885451  1
  Rh  Rh11  1  0.143175  0.250000  0.433642  1
