# generated using pymatgen
data_YbYPa2(Al8Pt3)3
_symmetry_space_group_name_H-M   'P 1'
_cell_length_a   7.56731329
_cell_length_b   7.56493732
_cell_length_c   13.13136937
_cell_angle_alpha   84.45882016
_cell_angle_beta   101.09701509
_cell_angle_gamma   119.90094038
_symmetry_Int_Tables_number   1
_chemical_formula_structural   YbYPa2(Al8Pt3)3
_chemical_formula_sum   'Yb1 Y1 Pa2 Al24 Pt9'
_cell_volume   639.47448156
_cell_formula_units_Z   1
loop_
 _symmetry_equiv_pos_site_id
 _symmetry_equiv_pos_as_xyz
  1  'x, y, z'
loop_
 _atom_site_type_symbol
 _atom_site_label
 _atom_site_symmetry_multiplicity
 _atom_site_fract_x
 _atom_site_fract_y
 _atom_site_fract_z
 _atom_site_occupancy
  Yb  Yb0  1  0.232479  0.498747  0.192553  1
  Y  Y1  1  0.768379  0.501721  0.808336  1
  Pa  Pa2  1  0.435058  0.830761  0.804572  1
  Pa  Pa3  1  0.564620  0.168156  0.195854  1
  Al  Al4  1  0.482338  0.166710  0.944626  1
  Al  Al5  1  0.517378  0.833000  0.055656  1
  Al  Al6  1  0.022005  0.167528  0.560970  1
  Al  Al7  1  0.978226  0.832664  0.438825  1
  Al  Al8  1  0.351921  0.832054  0.558127  1
  Al  Al9  1  0.647982  0.167335  0.441996  1
  Al  Al10  1  0.616152  0.830581  0.331100  1
  Al  Al11  1  0.382650  0.168199  0.669021  1
  Al  Al12  1  0.052776  0.490338  0.669708  1
  Al  Al13  1  0.948715  0.509914  0.330056  1
  Al  Al14  1  0.732295  0.840133  0.668210  1
  Al  Al15  1  0.267199  0.161013  0.331686  1
  Al  Al16  1  0.147563  0.499896  0.945331  1
  Al  Al17  1  0.853285  0.499667  0.056154  1
  Al  Al18  1  0.816689  0.832168  0.953180  1
  Al  Al19  1  0.183587  0.168220  0.047460  1
  Al  Al20  1  0.313663  0.499510  0.440603  1
  Al  Al21  1  0.685616  0.500586  0.558536  1
  Al  Al22  1  0.102706  0.840900  0.182463  1
  Al  Al23  1  0.897709  0.160647  0.817278  1
  Al  Al24  1  0.305112  0.369487  0.815970  1
  Al  Al25  1  0.695738  0.630070  0.183672  1
  Al  Al26  1  0.105719  0.961257  0.816931  1
  Al  Al27  1  0.892907  0.038429  0.182727  1
  Pt  Pt28  1  0.388416  0.508917  0.639946  1
  Pt  Pt29  1  0.612727  0.491008  0.360391  1
  Pt  Pt30  1  0.171132  0.828244  0.999191  1
  Pt  Pt31  1  0.827965  0.171631  0.999205  1
  Pt  Pt32  1  0.296635  0.835351  0.360826  1
  Pt  Pt33  1  0.703562  0.165833  0.639513  1
  Pt  Pt34  1  0.047246  0.824817  0.639106  1
  Pt  Pt35  1  0.951744  0.174358  0.361144  1
  Pt  Pt36  1  0.500112  0.500149  0.999074  1
