# generated using pymatgen
data_TbTh2In2GaRh3
_symmetry_space_group_name_H-M   'P 1'
_cell_length_a   7.58267650
_cell_length_b   7.65782342
_cell_length_c   3.89224800
_cell_angle_alpha   90.00000000
_cell_angle_beta   90.00000000
_cell_angle_gamma   119.45624793
_symmetry_Int_Tables_number   1
_chemical_formula_structural   TbTh2In2GaRh3
_chemical_formula_sum   'Tb1 Th2 In2 Ga1 Rh3'
_cell_volume   196.79434699
_cell_formula_units_Z   1
loop_
 _symmetry_equiv_pos_site_id
 _symmetry_equiv_pos_as_xyz
  1  'x, y, z'
loop_
 _atom_site_type_symbol
 _atom_site_label
 _atom_site_symmetry_multiplicity
 _atom_site_fract_x
 _atom_site_fract_y
 _atom_site_fract_z
 _atom_site_occupancy
  Tb  Tb0  1  0.593529  0.991232  0.500000  1
  Th  Th1  1  0.993261  0.589436  0.500000  1
  Th  Th2  1  0.428298  0.432999  0.500000  1
  In  In3  1  0.992506  0.239156  0.000000  1
  In  In4  1  0.265863  0.007009  0.000000  1
  Ga  Ga5  1  0.748289  0.758757  0.000000  1
  Rh  Rh6  1  0.325935  0.652962  0.000000  1
  Rh  Rh7  1  0.981948  0.969688  0.500000  1
  Rh  Rh8  1  0.670371  0.358760  0.000000  1
