# generated using pymatgen
data_Mo5W7I24
_symmetry_space_group_name_H-M   'P 1'
_cell_length_a   10.63536841
_cell_length_b   10.63536794
_cell_length_c   12.94706848
_cell_angle_alpha   89.92698283
_cell_angle_beta   89.92698142
_cell_angle_gamma   106.13301246
_symmetry_Int_Tables_number   1
_chemical_formula_structural   Mo5W7I24
_chemical_formula_sum   'Mo5 W7 I24'
_cell_volume   1406.78197268
_cell_formula_units_Z   1
loop_
 _symmetry_equiv_pos_site_id
 _symmetry_equiv_pos_as_xyz
  1  'x, y, z'
loop_
 _atom_site_type_symbol
 _atom_site_label
 _atom_site_symmetry_multiplicity
 _atom_site_fract_x
 _atom_site_fract_y
 _atom_site_fract_z
 _atom_site_occupancy
  Mo  Mo0  1  0.069267  0.069267  0.868136  1
  Mo  Mo1  1  0.431568  0.431568  0.367038  1
  Mo  Mo2  1  0.567318  0.567318  0.632371  1
  Mo  Mo3  1  0.932261  0.932261  0.132527  1
  Mo  Mo4  1  0.867284  0.867284  0.933020  1
  W  W5  1  0.631480  0.631480  0.433575  1
  W  W6  1  0.367352  0.367352  0.565771  1
  W  W7  1  0.132529  0.132529  0.066665  1
  W  W8  1  0.388434  0.610407  0.499693  1
  W  W9  1  0.111314  0.890046  0.000351  1
  W  W10  1  0.610407  0.388434  0.499693  1
  W  W11  1  0.890046  0.111314  0.000351  1
  I  I12  1  0.655074  0.655074  0.843600  1
  I  I13  1  0.843300  0.843300  0.344639  1
  I  I14  1  0.156331  0.156331  0.655420  1
  I  I15  1  0.344011  0.344011  0.154836  1
  I  I16  1  0.221359  0.777147  0.500156  1
  I  I17  1  0.278360  0.723386  0.000887  1
  I  I18  1  0.777147  0.221359  0.500156  1
  I  I19  1  0.723386  0.278360  0.000887  1
  I  I20  1  0.326890  0.094246  0.932537  1
  I  I21  1  0.173476  0.405960  0.431508  1
  I  I22  1  0.592880  0.825346  0.567825  1
  I  I23  1  0.907027  0.675205  0.067611  1
  I  I24  1  0.952568  0.184837  0.207644  1
  I  I25  1  0.546368  0.313693  0.706742  1
  I  I26  1  0.685195  0.452439  0.292553  1
  I  I27  1  0.816714  0.048934  0.793694  1
  I  I28  1  0.048934  0.816714  0.793694  1
  I  I29  1  0.452439  0.685195  0.292553  1
  I  I30  1  0.313693  0.546368  0.706742  1
  I  I31  1  0.184837  0.952568  0.207644  1
  I  I32  1  0.094246  0.326890  0.932537  1
  I  I33  1  0.405960  0.173476  0.431508  1
  I  I34  1  0.825346  0.592880  0.567825  1
  I  I35  1  0.675205  0.907027  0.067611  1
