# generated using pymatgen
data_Dy2Ho8(InSb)3
_symmetry_space_group_name_H-M   'P 1'
_cell_length_a   8.95727618
_cell_length_b   8.94586500
_cell_length_c   6.52991900
_cell_angle_alpha   90.00000000
_cell_angle_beta   90.00000000
_cell_angle_gamma   120.15281204
_symmetry_Int_Tables_number   1
_chemical_formula_structural   Dy2Ho8(InSb)3
_chemical_formula_sum   'Dy2 Ho8 In3 Sb3'
_cell_volume   452.44514001
_cell_formula_units_Z   1
loop_
 _symmetry_equiv_pos_site_id
 _symmetry_equiv_pos_as_xyz
  1  'x, y, z'
loop_
 _atom_site_type_symbol
 _atom_site_label
 _atom_site_symmetry_multiplicity
 _atom_site_fract_x
 _atom_site_fract_y
 _atom_site_fract_z
 _atom_site_occupancy
  Dy  Dy0  1  0.760718  0.999862  0.750000  1
  Dy  Dy1  1  0.763082  0.759763  0.250000  1
  Ho  Ho2  1  0.330852  0.665924  0.001128  1
  Ho  Ho3  1  0.665060  0.333848  0.499335  1
  Ho  Ho4  1  0.665060  0.333848  0.000665  1
  Ho  Ho5  1  0.330852  0.665924  0.498872  1
  Ho  Ho6  1  0.003656  0.240333  0.250000  1
  Ho  Ho7  1  0.002109  0.762930  0.750000  1
  Ho  Ho8  1  0.239226  0.236606  0.750000  1
  Ho  Ho9  1  0.238006  0.000406  0.250000  1
  In  In10  1  0.396319  0.000202  0.750000  1
  In  In11  1  0.394720  0.396124  0.250000  1
  In  In12  1  0.998931  0.603552  0.250000  1
  Sb  Sb13  1  0.997747  0.392368  0.750000  1
  Sb  Sb14  1  0.606009  0.607932  0.750000  1
  Sb  Sb15  1  0.607649  0.000378  0.250000  1
