# generated using pymatgen
data_Ti3Co4Si2MoP2
_symmetry_space_group_name_H-M   'P 1'
_cell_length_a   3.59331500
_cell_length_b   6.08544959
_cell_length_c   6.90136837
_cell_angle_alpha   90.23348597
_cell_angle_beta   90.00000000
_cell_angle_gamma   90.00000000
_symmetry_Int_Tables_number   1
_chemical_formula_structural   Ti3Co4Si2MoP2
_chemical_formula_sum   'Ti3 Co4 Si2 Mo1 P2'
_cell_volume   150.91053642
_cell_formula_units_Z   1
loop_
 _symmetry_equiv_pos_site_id
 _symmetry_equiv_pos_as_xyz
  1  'x, y, z'
loop_
 _atom_site_type_symbol
 _atom_site_label
 _atom_site_symmetry_multiplicity
 _atom_site_fract_x
 _atom_site_fract_y
 _atom_site_fract_z
 _atom_site_occupancy
  Ti  Ti0  1  0.250000  0.980163  0.318966  1
  Ti  Ti1  1  0.250000  0.479401  0.181439  1
  Ti  Ti2  1  0.750000  0.526039  0.821231  1
  Co  Co3  1  0.250000  0.854832  0.946057  1
  Co  Co4  1  0.250000  0.358217  0.555705  1
  Co  Co5  1  0.750000  0.138345  0.070150  1
  Co  Co6  1  0.750000  0.639840  0.430809  1
  Si  Si7  1  0.250000  0.227753  0.878076  1
  Si  Si8  1  0.250000  0.730099  0.621271  1
  Mo  Mo9  1  0.750000  0.025992  0.674151  1
  P  P10  1  0.750000  0.769128  0.120623  1
  P  P11  1  0.750000  0.270191  0.381523  1
