# generated using pymatgen
data_Ac5(MoO6)2
_symmetry_space_group_name_H-M   'P 1'
_cell_length_a   7.39817959
_cell_length_b   7.39817802
_cell_length_c   8.05286765
_cell_angle_alpha   74.55144429
_cell_angle_beta   74.55145029
_cell_angle_gamma   51.14377653
_symmetry_Int_Tables_number   1
_chemical_formula_structural   Ac5(MoO6)2
_chemical_formula_sum   'Ac5 Mo2 O12'
_cell_volume   327.92194452
_cell_formula_units_Z   1
loop_
 _symmetry_equiv_pos_site_id
 _symmetry_equiv_pos_as_xyz
  1  'x, y, z'
loop_
 _atom_site_type_symbol
 _atom_site_label
 _atom_site_symmetry_multiplicity
 _atom_site_fract_x
 _atom_site_fract_y
 _atom_site_fract_z
 _atom_site_occupancy
  Ac  Ac0  1  0.309816  0.309816  0.357165  1
  Ac  Ac1  1  0.690184  0.690184  0.642835  1
  Ac  Ac2  1  0.307214  0.307214  0.833836  1
  Ac  Ac3  1  0.692786  0.692786  0.166164  1
  Ac  Ac4  1  0.000000  0.000000  0.500000  1
  Mo  Mo5  1  0.757764  0.242236  0.000000  1
  Mo  Mo6  1  0.242236  0.757764  0.000000  1
  O  O7  1  0.891148  0.420094  0.923695  1
  O  O8  1  0.420094  0.891148  0.923695  1
  O  O9  1  0.108852  0.579906  0.076305  1
  O  O10  1  0.579906  0.108852  0.076305  1
  O  O11  1  0.093517  0.596211  0.579409  1
  O  O12  1  0.596211  0.093517  0.579409  1
  O  O13  1  0.906483  0.403789  0.420591  1
  O  O14  1  0.403789  0.906483  0.420591  1
  O  O15  1  0.000952  0.000952  0.831699  1
  O  O16  1  0.999048  0.999048  0.168301  1
  O  O17  1  0.498516  0.498516  0.832139  1
  O  O18  1  0.501484  0.501484  0.167861  1
