# generated using pymatgen
data_KCuSe4
_symmetry_space_group_name_H-M   'P 1'
_cell_length_a   5.54422100
_cell_length_b   8.86833100
_cell_length_c   13.40283500
_cell_angle_alpha   90.00000000
_cell_angle_beta   90.00000000
_cell_angle_gamma   90.00000000
_symmetry_Int_Tables_number   1
_chemical_formula_structural   KCuSe4
_chemical_formula_sum   'K4 Cu4 Se16'
_cell_volume   658.99041658
_cell_formula_units_Z   4
loop_
 _symmetry_equiv_pos_site_id
 _symmetry_equiv_pos_as_xyz
  1  'x, y, z'
loop_
 _atom_site_type_symbol
 _atom_site_label
 _atom_site_symmetry_multiplicity
 _atom_site_fract_x
 _atom_site_fract_y
 _atom_site_fract_z
 _atom_site_occupancy
  K  K0  1  0.689728  0.060169  0.334135  1
  K  K1  1  0.189728  0.439831  0.665865  1
  K  K2  1  0.310272  0.560169  0.165865  1
  K  K3  1  0.810272  0.939831  0.834135  1
  Cu  Cu4  1  0.967895  0.862453  0.565983  1
  Cu  Cu5  1  0.532105  0.137547  0.065983  1
  Cu  Cu6  1  0.032105  0.362453  0.934017  1
  Cu  Cu7  1  0.467895  0.637547  0.434017  1
  Se  Se8  1  0.657647  0.879602  0.098244  1
  Se  Se9  1  0.842353  0.120398  0.598244  1
  Se  Se10  1  0.342353  0.379602  0.401756  1
  Se  Se11  1  0.157647  0.620398  0.901756  1
  Se  Se12  1  0.636180  0.693151  0.598723  1
  Se  Se13  1  0.136180  0.806849  0.401277  1
  Se  Se14  1  0.363820  0.193151  0.901277  1
  Se  Se15  1  0.863820  0.306849  0.098723  1
  Se  Se16  1  0.341510  0.868114  0.666846  1
  Se  Se17  1  0.841510  0.631886  0.333154  1
  Se  Se18  1  0.658490  0.368114  0.833154  1
  Se  Se19  1  0.158490  0.131886  0.166846  1
  Se  Se20  1  0.416042  0.090922  0.564241  1
  Se  Se21  1  0.916042  0.409078  0.435759  1
  Se  Se22  1  0.583958  0.590922  0.935759  1
  Se  Se23  1  0.083958  0.909078  0.064241  1
