# generated using pymatgen
data_Hf6Be4FeIr9
_symmetry_space_group_name_H-M   'P 1'
_cell_length_a   9.43471743
_cell_length_b   9.43471743
_cell_length_c   3.29382800
_cell_angle_alpha   90.00000000
_cell_angle_beta   90.00000000
_cell_angle_gamma   89.83798801
_symmetry_Int_Tables_number   1
_chemical_formula_structural   Hf6Be4FeIr9
_chemical_formula_sum   'Hf6 Be4 Fe1 Ir9'
_cell_volume   293.19528093
_cell_formula_units_Z   1
loop_
 _symmetry_equiv_pos_site_id
 _symmetry_equiv_pos_as_xyz
  1  'x, y, z'
loop_
 _atom_site_type_symbol
 _atom_site_label
 _atom_site_symmetry_multiplicity
 _atom_site_fract_x
 _atom_site_fract_y
 _atom_site_fract_z
 _atom_site_occupancy
  Hf  Hf0  1  0.169304  0.669304  0.000000  1
  Hf  Hf1  1  0.322798  0.177202  0.000000  1
  Hf  Hf2  1  0.830696  0.330696  0.000000  1
  Hf  Hf3  1  0.500000  0.500000  0.000000  1
  Hf  Hf4  1  0.677202  0.822798  0.000000  1
  Hf  Hf5  1  0.000000  0.000000  0.000000  1
  Be  Be6  1  0.379504  0.879504  0.000000  1
  Be  Be7  1  0.112215  0.387785  0.000000  1
  Be  Be8  1  0.887785  0.612215  0.000000  1
  Be  Be9  1  0.620496  0.120496  0.000000  1
  Fe  Fe10  1  0.000000  0.500000  0.500000  1
  Ir  Ir11  1  0.216205  0.928926  0.500000  1
  Ir  Ir12  1  0.931236  0.778752  0.500000  1
  Ir  Ir13  1  0.428926  0.716205  0.500000  1
  Ir  Ir14  1  0.571074  0.283795  0.500000  1
  Ir  Ir15  1  0.721248  0.568764  0.500000  1
  Ir  Ir16  1  0.278752  0.431236  0.500000  1
  Ir  Ir17  1  0.068764  0.221248  0.500000  1
  Ir  Ir18  1  0.500000  0.000000  0.500000  1
  Ir  Ir19  1  0.783795  0.071074  0.500000  1
