# generated using pymatgen
data_KRb2DyBr6
_symmetry_space_group_name_H-M   'P 1'
_cell_length_a   8.21144442
_cell_length_b   8.21144511
_cell_length_c   8.38995080
_cell_angle_alpha   119.21621679
_cell_angle_beta   119.21622075
_cell_angle_gamma   60.38433765
_symmetry_Int_Tables_number   1
_chemical_formula_structural   KRb2DyBr6
_chemical_formula_sum   'K1 Rb2 Dy1 Br6'
_cell_volume   405.88505307
_cell_formula_units_Z   1
loop_
 _symmetry_equiv_pos_site_id
 _symmetry_equiv_pos_as_xyz
  1  'x, y, z'
loop_
 _atom_site_type_symbol
 _atom_site_label
 _atom_site_symmetry_multiplicity
 _atom_site_fract_x
 _atom_site_fract_y
 _atom_site_fract_z
 _atom_site_occupancy
  K  K0  1  0.500000  0.500000  0.500001  1
  Rb  Rb1  1  0.749173  0.749173  0.232449  1
  Rb  Rb2  1  0.250827  0.250827  0.767553  1
  Dy  Dy3  1  0.000000  0.000000  0.000000  1
  Br  Br4  1  0.702352  0.181689  0.167616  1
  Br  Br5  1  0.181689  0.702352  0.167616  1
  Br  Br6  1  0.226609  0.226609  0.327931  1
  Br  Br7  1  0.773391  0.773391  0.672069  1
  Br  Br8  1  0.818311  0.297649  0.832383  1
  Br  Br9  1  0.297649  0.818311  0.832383  1
