# generated using pymatgen
data_HoLu5Ni2
_symmetry_space_group_name_H-M   'P 1'
_cell_length_a   6.20226802
_cell_length_b   6.68425407
_cell_length_c   9.35808100
_cell_angle_alpha   90.00000000
_cell_angle_beta   90.00000000
_cell_angle_gamma   89.99565120
_symmetry_Int_Tables_number   1
_chemical_formula_structural   HoLu5Ni2
_chemical_formula_sum   'Ho2 Lu10 Ni4'
_cell_volume   387.96297179
_cell_formula_units_Z   2
loop_
 _symmetry_equiv_pos_site_id
 _symmetry_equiv_pos_as_xyz
  1  'x, y, z'
loop_
 _atom_site_type_symbol
 _atom_site_label
 _atom_site_symmetry_multiplicity
 _atom_site_fract_x
 _atom_site_fract_y
 _atom_site_fract_z
 _atom_site_occupancy
  Ho  Ho0  1  0.633950  0.030078  0.250000  1
  Ho  Ho1  1  0.366050  0.969922  0.750000  1
  Lu  Lu2  1  0.134599  0.466937  0.750000  1
  Lu  Lu3  1  0.865401  0.533063  0.250000  1
  Lu  Lu4  1  0.179567  0.180764  0.065253  1
  Lu  Lu5  1  0.820433  0.819236  0.934747  1
  Lu  Lu6  1  0.682594  0.321539  0.935409  1
  Lu  Lu7  1  0.820433  0.819236  0.565253  1
  Lu  Lu8  1  0.317406  0.678461  0.064591  1
  Lu  Lu9  1  0.179567  0.180764  0.434747  1
  Lu  Lu10  1  0.317406  0.678461  0.435409  1
  Lu  Lu11  1  0.682594  0.321539  0.564591  1
  Ni  Ni12  1  0.446524  0.398451  0.250000  1
  Ni  Ni13  1  0.553476  0.601549  0.750000  1
  Ni  Ni14  1  0.943329  0.104205  0.750000  1
  Ni  Ni15  1  0.056671  0.895795  0.250000  1
