# generated using pymatgen
data_La16MgHg3Rh4
_symmetry_space_group_name_H-M   'P 1'
_cell_length_a   10.08395421
_cell_length_b   10.14303781
_cell_length_c   10.14566102
_cell_angle_alpha   59.99042550
_cell_angle_beta   59.80384805
_cell_angle_gamma   59.81805122
_symmetry_Int_Tables_number   1
_chemical_formula_structural   La16MgHg3Rh4
_chemical_formula_sum   'La16 Mg1 Hg3 Rh4'
_cell_volume   731.62084277
_cell_formula_units_Z   1
loop_
 _symmetry_equiv_pos_site_id
 _symmetry_equiv_pos_as_xyz
  1  'x, y, z'
loop_
 _atom_site_type_symbol
 _atom_site_label
 _atom_site_symmetry_multiplicity
 _atom_site_fract_x
 _atom_site_fract_y
 _atom_site_fract_z
 _atom_site_occupancy
  La  La0  1  0.347575  0.346941  0.347082  1
  La  La1  1  0.347885  0.346851  0.958277  1
  La  La2  1  0.347701  0.958397  0.347185  1
  La  La3  1  0.949886  0.349852  0.350093  1
  La  La4  1  0.808047  0.191365  0.191583  1
  La  La5  1  0.186851  0.812226  0.811695  1
  La  La6  1  0.187043  0.811903  0.189190  1
  La  La7  1  0.807734  0.191482  0.809201  1
  La  La8  1  0.187422  0.189022  0.811776  1
  La  La9  1  0.807718  0.808657  0.191840  1
  La  La10  1  0.938844  0.561867  0.561832  1
  La  La11  1  0.561654  0.938594  0.938805  1
  La  La12  1  0.561787  0.938809  0.560815  1
  La  La13  1  0.938920  0.562017  0.937258  1
  La  La14  1  0.561779  0.560667  0.938879  1
  La  La15  1  0.939145  0.937537  0.561662  1
  Mg  Mg16  1  0.289750  0.570129  0.569904  1
  Hg  Hg17  1  0.578850  0.586692  0.586854  1
  Hg  Hg18  1  0.578925  0.586655  0.247675  1
  Hg  Hg19  1  0.578874  0.247625  0.586824  1
  Rh  Rh20  1  0.140291  0.142081  0.142144  1
  Rh  Rh21  1  0.139630  0.143019  0.575099  1
  Rh  Rh22  1  0.139393  0.575529  0.142072  1
  Rh  Rh23  1  0.574295  0.142083  0.142255  1
