# generated using pymatgen
data_TmLu7(HfIr3)2
_symmetry_space_group_name_H-M   'P 1'
_cell_length_a   10.66150402
_cell_length_b   10.66825200
_cell_length_c   6.18036901
_cell_angle_alpha   90.00000000
_cell_angle_beta   89.99318125
_cell_angle_gamma   90.00000000
_symmetry_Int_Tables_number   1
_chemical_formula_structural   TmLu7(HfIr3)2
_chemical_formula_sum   'Tm2 Lu14 Hf4 Ir12'
_cell_volume   702.95276570
_cell_formula_units_Z   2
loop_
 _symmetry_equiv_pos_site_id
 _symmetry_equiv_pos_as_xyz
  1  'x, y, z'
loop_
 _atom_site_type_symbol
 _atom_site_label
 _atom_site_symmetry_multiplicity
 _atom_site_fract_x
 _atom_site_fract_y
 _atom_site_fract_z
 _atom_site_occupancy
  Tm  Tm0  1  0.086190  0.710084  0.626317  1
  Tm  Tm1  1  0.086190  0.289916  0.126317  1
  Lu  Lu2  1  0.290300  0.085840  0.374078  1
  Lu  Lu3  1  0.290300  0.914160  0.874078  1
  Lu  Lu4  1  0.709814  0.086000  0.873902  1
  Lu  Lu5  1  0.709814  0.914000  0.373902  1
  Lu  Lu6  1  0.585998  0.790164  0.873940  1
  Lu  Lu7  1  0.585998  0.209836  0.373940  1
  Lu  Lu8  1  0.414031  0.790187  0.373881  1
  Lu  Lu9  1  0.414031  0.209813  0.873881  1
  Lu  Lu10  1  0.209960  0.413908  0.626084  1
  Lu  Lu11  1  0.209960  0.586092  0.126084  1
  Lu  Lu12  1  0.789983  0.414067  0.126051  1
  Lu  Lu13  1  0.789983  0.585933  0.626051  1
  Lu  Lu14  1  0.913851  0.709842  0.126115  1
  Lu  Lu15  1  0.913851  0.290158  0.626115  1
  Hf  Hf16  1  0.999913  0.000120  0.499925  1
  Hf  Hf17  1  0.999913  0.999880  0.999925  1
  Hf  Hf18  1  0.499984  0.499999  0.999988  1
  Hf  Hf19  1  0.499984  0.500001  0.499988  1
  Ir  Ir20  1  0.854526  0.145252  0.250071  1
  Ir  Ir21  1  0.854526  0.854748  0.750071  1
  Ir  Ir22  1  0.145414  0.145158  0.749615  1
  Ir  Ir23  1  0.145414  0.854842  0.249615  1
  Ir  Ir24  1  0.645333  0.354690  0.749984  1
  Ir  Ir25  1  0.645333  0.645310  0.249984  1
  Ir  Ir26  1  0.354863  0.354722  0.250086  1
  Ir  Ir27  1  0.354863  0.645278  0.750086  1
  Ir  Ir28  1  0.500008  0.000000  0.122835  1
  Ir  Ir29  1  0.500008  0.000000  0.622835  1
  Ir  Ir30  1  0.999832  0.500011  0.877128  1
  Ir  Ir31  1  0.999832  0.499989  0.377128  1
