# generated using pymatgen
data_La2Gd5AsI12
_symmetry_space_group_name_H-M   'P 1'
_cell_length_a   9.82965781
_cell_length_b   9.80972022
_cell_length_c   9.79855000
_cell_angle_alpha   107.44194756
_cell_angle_beta   107.56277774
_cell_angle_gamma   107.65861051
_symmetry_Int_Tables_number   1
_chemical_formula_structural   La2Gd5AsI12
_chemical_formula_sum   'La2 Gd5 As1 I12'
_cell_volume   774.65785400
_cell_formula_units_Z   1
loop_
 _symmetry_equiv_pos_site_id
 _symmetry_equiv_pos_as_xyz
  1  'x, y, z'
loop_
 _atom_site_type_symbol
 _atom_site_label
 _atom_site_symmetry_multiplicity
 _atom_site_fract_x
 _atom_site_fract_y
 _atom_site_fract_z
 _atom_site_occupancy
  La  La0  1  0.816496  0.533235  0.606818  1
  La  La1  1  0.996487  0.997517  0.997796  1
  Gd  Gd2  1  0.534965  0.604513  0.810031  1
  Gd  Gd3  1  0.185804  0.468005  0.395844  1
  Gd  Gd4  1  0.468417  0.395762  0.184716  1
  Gd  Gd5  1  0.605132  0.810107  0.534264  1
  Gd  Gd6  1  0.395678  0.186352  0.468624  1
  As  As7  1  0.493134  0.495676  0.494661  1
  I  I8  1  0.723582  0.175412  0.576578  1
  I  I9  1  0.967553  0.893964  0.643580  1
  I  I10  1  0.576027  0.728796  0.183891  1
  I  I11  1  0.118786  0.357940  0.035594  1
  I  I12  1  0.641644  0.965060  0.882036  1
  I  I13  1  0.881549  0.646552  0.976483  1
  I  I14  1  0.035981  0.119119  0.359233  1
  I  I15  1  0.814031  0.419425  0.260167  1
  I  I16  1  0.356515  0.035735  0.117765  1
  I  I17  1  0.271978  0.815141  0.425342  1
  I  I18  1  0.192275  0.577997  0.731748  1
  I  I19  1  0.423968  0.273690  0.814828  1
