# generated using pymatgen
data_CaY3Nb(ReN4)3
_symmetry_space_group_name_H-M   'P 1'
_cell_length_a   11.21410223
_cell_length_b   11.21410187
_cell_length_c   11.21410200
_cell_angle_alpha   109.47122087
_cell_angle_beta   109.47122022
_cell_angle_gamma   109.47121914
_symmetry_Int_Tables_number   1
_chemical_formula_structural   CaY3Nb(ReN4)3
_chemical_formula_sum   'Ca4 Y12 Nb4 Re12 N48'
_cell_volume   1085.60448260
_cell_formula_units_Z   4
loop_
 _symmetry_equiv_pos_site_id
 _symmetry_equiv_pos_as_xyz
  1  'x, y, z'
loop_
 _atom_site_type_symbol
 _atom_site_label
 _atom_site_symmetry_multiplicity
 _atom_site_fract_x
 _atom_site_fract_y
 _atom_site_fract_z
 _atom_site_occupancy
  Ca  Ca0  1  0.000000  0.000000  0.000000  1
  Ca  Ca1  1  0.500000  0.500000  0.000000  1
  Ca  Ca2  1  0.500000  0.000000  0.500000  1
  Ca  Ca3  1  0.000000  0.500000  0.500000  1
  Y  Y4  1  0.250000  0.375146  0.125146  1
  Y  Y5  1  0.374854  0.750000  0.124854  1
  Y  Y6  1  0.375146  0.125146  0.250000  1
  Y  Y7  1  0.875146  0.625146  0.250000  1
  Y  Y8  1  0.750000  0.124854  0.374854  1
  Y  Y9  1  0.125146  0.250000  0.375146  1
  Y  Y10  1  0.874854  0.750000  0.624854  1
  Y  Y11  1  0.250000  0.875146  0.625146  1
  Y  Y12  1  0.124854  0.374854  0.750000  1
  Y  Y13  1  0.624854  0.874854  0.750000  1
  Y  Y14  1  0.625146  0.250000  0.875146  1
  Y  Y15  1  0.750000  0.624854  0.874854  1
  Nb  Nb16  1  0.500000  0.000000  0.000000  1
  Nb  Nb17  1  0.000000  0.500000  0.000000  1
  Nb  Nb18  1  0.000000  0.000000  0.500000  1
  Nb  Nb19  1  0.500000  0.500000  0.500000  1
  Re  Re20  1  0.876068  0.249999  0.126068  1
  Re  Re21  1  0.750000  0.873932  0.123932  1
  Re  Re22  1  0.626068  0.376068  0.250000  1
  Re  Re23  1  0.126068  0.876068  0.249999  1
  Re  Re24  1  0.250000  0.626068  0.376068  1
  Re  Re25  1  0.623931  0.750000  0.373932  1
  Re  Re26  1  0.376068  0.250000  0.626068  1
  Re  Re27  1  0.750000  0.373932  0.623931  1
  Re  Re28  1  0.873932  0.123932  0.750000  1
  Re  Re29  1  0.373932  0.623931  0.750000  1
  Re  Re30  1  0.249999  0.126068  0.876068  1
  Re  Re31  1  0.123932  0.750000  0.873932  1
  N  N32  1  0.313191  0.902860  0.020198  1
  N  N33  1  0.228165  0.130049  0.029343  1
  N  N34  1  0.882662  0.402860  0.089670  1
  N  N35  1  0.728164  0.698822  0.098116  1
  N  N36  1  0.630049  0.401884  0.100706  1
  N  N37  1  0.979801  0.686809  0.097139  1
  N  N38  1  0.597139  0.910330  0.117337  1
  N  N39  1  0.029343  0.228165  0.130049  1
  N  N40  1  0.207007  0.589669  0.186809  1
  N  N41  1  0.470658  0.600707  0.198822  1
  N  N42  1  0.130049  0.029343  0.228165  1
  N  N43  1  0.589669  0.186809  0.207007  1
  N  N44  1  0.479802  0.382663  0.292993  1
  N  N45  1  0.301178  0.901884  0.271836  1
  N  N46  1  0.902860  0.020198  0.313191  1
  N  N47  1  0.901884  0.271836  0.301178  1
  N  N48  1  0.292993  0.479802  0.382663  1
  N  N49  1  0.598115  0.899294  0.369952  1
  N  N50  1  0.801178  0.529342  0.399294  1
  N  N51  1  0.089670  0.882662  0.402860  1
  N  N52  1  0.100706  0.630049  0.401884  1
  N  N53  1  0.813190  0.792992  0.410330  1
  N  N54  1  0.600707  0.198822  0.470658  1
  N  N55  1  0.382663  0.292993  0.479802  1
  N  N56  1  0.617337  0.707007  0.520198  1
  N  N57  1  0.399294  0.801178  0.529342  1
  N  N58  1  0.186809  0.207007  0.589669  1
  N  N59  1  0.899294  0.369952  0.598115  1
  N  N60  1  0.910330  0.117337  0.597139  1
  N  N61  1  0.198822  0.470658  0.600707  1
  N  N62  1  0.401884  0.100706  0.630049  1
  N  N63  1  0.707007  0.520198  0.617337  1
  N  N64  1  0.098116  0.728164  0.698822  1
  N  N65  1  0.097139  0.979801  0.686809  1
  N  N66  1  0.698822  0.098116  0.728164  1
  N  N67  1  0.520198  0.617337  0.707007  1
  N  N68  1  0.410330  0.813190  0.792992  1
  N  N69  1  0.869952  0.970658  0.771836  1
  N  N70  1  0.529342  0.399294  0.801178  1
  N  N71  1  0.792992  0.410330  0.813190  1
  N  N72  1  0.402860  0.089670  0.882662  1
  N  N73  1  0.970658  0.771836  0.869952  1
  N  N74  1  0.020198  0.313191  0.902860  1
  N  N75  1  0.369952  0.598115  0.899294  1
  N  N76  1  0.271836  0.301178  0.901884  1
  N  N77  1  0.117337  0.597139  0.910330  1
  N  N78  1  0.686809  0.097139  0.979801  1
  N  N79  1  0.771836  0.869952  0.970658  1
