# generated using pymatgen
data_NdScFe3Co9P7
_symmetry_space_group_name_H-M   'P 1'
_cell_length_a   8.99365500
_cell_length_b   8.99365501
_cell_length_c   3.60326100
_cell_angle_alpha   90.00000000
_cell_angle_beta   90.00000000
_cell_angle_gamma   119.99999629
_symmetry_Int_Tables_number   1
_chemical_formula_structural   NdScFe3Co9P7
_chemical_formula_sum   'Nd1 Sc1 Fe3 Co9 P7'
_cell_volume   252.40550174
_cell_formula_units_Z   1
loop_
 _symmetry_equiv_pos_site_id
 _symmetry_equiv_pos_as_xyz
  1  'x, y, z'
loop_
 _atom_site_type_symbol
 _atom_site_label
 _atom_site_symmetry_multiplicity
 _atom_site_fract_x
 _atom_site_fract_y
 _atom_site_fract_z
 _atom_site_occupancy
  Nd  Nd0  1  0.666667  0.333333  0.000000  1
  Sc  Sc1  1  0.333333  0.666667  0.500000  1
  Fe  Fe2  1  0.094587  0.878684  0.500000  1
  Fe  Fe3  1  0.784096  0.905413  0.500000  1
  Fe  Fe4  1  0.121316  0.215904  0.500000  1
  Co  Co5  1  0.065427  0.633001  0.000000  1
  Co  Co6  1  0.567574  0.934573  0.000000  1
  Co  Co7  1  0.366999  0.432426  0.000000  1
  Co  Co8  1  0.273777  0.115408  0.000000  1
  Co  Co9  1  0.841631  0.726223  0.000000  1
  Co  Co10  1  0.884592  0.158369  0.000000  1
  Co  Co11  1  0.430892  0.042092  0.500000  1
  Co  Co12  1  0.611200  0.569108  0.500000  1
  Co  Co13  1  0.957908  0.388800  0.500000  1
  P  P14  1  0.299178  0.883614  0.000000  1
  P  P15  1  0.584436  0.700822  0.000000  1
  P  P16  1  0.116386  0.415564  0.000000  1
  P  P17  1  0.396484  0.288549  0.500000  1
  P  P18  1  0.892065  0.603516  0.500000  1
  P  P19  1  0.711451  0.107935  0.500000  1
  P  P20  1  0.000000  0.000000  0.000000  1
