# generated using pymatgen
data_Ca5Cd3(SiO4)4
_symmetry_space_group_name_H-M   'P 1'
_cell_length_a   5.11287316
_cell_length_b   6.72640820
_cell_length_c   11.41889579
_cell_angle_alpha   90.24797239
_cell_angle_beta   90.10370110
_cell_angle_gamma   89.74990390
_symmetry_Int_Tables_number   1
_chemical_formula_structural   Ca5Cd3(SiO4)4
_chemical_formula_sum   'Ca5 Cd3 Si4 O16'
_cell_volume   392.70230145
_cell_formula_units_Z   1
loop_
 _symmetry_equiv_pos_site_id
 _symmetry_equiv_pos_as_xyz
  1  'x, y, z'
loop_
 _atom_site_type_symbol
 _atom_site_label
 _atom_site_symmetry_multiplicity
 _atom_site_fract_x
 _atom_site_fract_y
 _atom_site_fract_z
 _atom_site_occupancy
  Ca  Ca0  1  0.489603  0.749819  0.779482  1
  Ca  Ca1  1  0.990092  0.251519  0.720282  1
  Ca  Ca2  1  0.510397  0.250181  0.220518  1
  Ca  Ca3  1  0.009908  0.748481  0.279718  1
  Ca  Ca4  1  0.000000  0.000000  0.000000  1
  Cd  Cd5  1  0.500000  0.500000  0.500000  1
  Cd  Cd6  1  0.000000  0.500000  0.000000  1
  Cd  Cd7  1  0.500000  0.000000  0.500000  1
  Si  Si8  1  0.924620  0.750316  0.595395  1
  Si  Si9  1  0.425396  0.252476  0.904320  1
  Si  Si10  1  0.075380  0.249684  0.404605  1
  Si  Si11  1  0.574604  0.747524  0.095680  1
  O  O12  1  0.203146  0.446519  0.339046  1
  O  O13  1  0.704898  0.551429  0.162216  1
  O  O14  1  0.796751  0.947390  0.662387  1
  O  O15  1  0.293881  0.054634  0.840285  1
  O  O16  1  0.796854  0.553481  0.660954  1
  O  O17  1  0.295102  0.448571  0.837784  1
  O  O18  1  0.203249  0.052610  0.337613  1
  O  O19  1  0.706119  0.945366  0.159715  1
  O  O20  1  0.795569  0.750218  0.459891  1
  O  O21  1  0.299017  0.254026  0.039839  1
  O  O22  1  0.204431  0.249782  0.540109  1
  O  O23  1  0.700983  0.745974  0.960161  1
  O  O24  1  0.253329  0.752674  0.094926  1
  O  O25  1  0.753380  0.250148  0.405654  1
  O  O26  1  0.746671  0.247326  0.905074  1
  O  O27  1  0.246620  0.749852  0.594346  1
