# generated using pymatgen
data_Pr7Er9(TmSn4)4
_symmetry_space_group_name_H-M   'P 1'
_cell_length_a   8.07858088
_cell_length_b   8.24420779
_cell_length_c   15.54746601
_cell_angle_alpha   90.03473143
_cell_angle_beta   90.28412744
_cell_angle_gamma   89.59424210
_symmetry_Int_Tables_number   1
_chemical_formula_structural   Pr7Er9(TmSn4)4
_chemical_formula_sum   'Pr7 Er9 Tm4 Sn16'
_cell_volume   1035.44568193
_cell_formula_units_Z   1
loop_
 _symmetry_equiv_pos_site_id
 _symmetry_equiv_pos_as_xyz
  1  'x, y, z'
loop_
 _atom_site_type_symbol
 _atom_site_label
 _atom_site_symmetry_multiplicity
 _atom_site_fract_x
 _atom_site_fract_y
 _atom_site_fract_z
 _atom_site_occupancy
  Pr  Pr0  1  0.016023  0.179097  0.598578  1
  Pr  Pr1  1  0.484856  0.677565  0.403542  1
  Pr  Pr2  1  0.984096  0.821299  0.095929  1
  Pr  Pr3  1  0.482913  0.676409  0.095998  1
  Pr  Pr4  1  0.984809  0.822368  0.403440  1
  Pr  Pr5  1  0.513875  0.322928  0.595830  1
  Pr  Pr6  1  0.015860  0.179457  0.903044  1
  Er  Er7  1  0.361252  0.835584  0.876124  1
  Er  Er8  1  0.859021  0.663178  0.623774  1
  Er  Er9  1  0.639815  0.163950  0.376111  1
  Er  Er10  1  0.136605  0.337231  0.121708  1
  Er  Er11  1  0.637070  0.164629  0.122963  1
  Er  Er12  1  0.139740  0.336171  0.377022  1
  Er  Er13  1  0.360706  0.836947  0.625428  1
  Er  Er14  1  0.862573  0.662308  0.877841  1
  Er  Er15  1  0.521562  0.322690  0.901675  1
  Tm  Tm16  1  0.195303  0.502541  0.751330  1
  Tm  Tm17  1  0.693668  0.996112  0.750963  1
  Tm  Tm18  1  0.804745  0.496402  0.249429  1
  Tm  Tm19  1  0.305617  0.004239  0.249592  1
  Sn  Sn20  1  0.305195  0.041310  0.041493  1
  Sn  Sn21  1  0.805179  0.457637  0.457825  1
  Sn  Sn22  1  0.694280  0.959666  0.542643  1
  Sn  Sn23  1  0.205144  0.535427  0.955735  1
  Sn  Sn24  1  0.693211  0.962804  0.956991  1
  Sn  Sn25  1  0.193976  0.543703  0.542590  1
  Sn  Sn26  1  0.305978  0.040831  0.458427  1
  Sn  Sn27  1  0.797436  0.455657  0.039862  1
  Sn  Sn28  1  0.559799  0.622728  0.750849  1
  Sn  Sn29  1  0.058641  0.873996  0.750444  1
  Sn  Sn30  1  0.439202  0.375184  0.249576  1
  Sn  Sn31  1  0.940449  0.126587  0.249243  1
  Sn  Sn32  1  0.329878  0.146710  0.753051  1
  Sn  Sn33  1  0.821267  0.357710  0.751212  1
  Sn  Sn34  1  0.674989  0.857303  0.249767  1
  Sn  Sn35  1  0.175268  0.641643  0.249974  1
