# generated using pymatgen
data_Dy5Mn6Co10(MoP4)3
_symmetry_space_group_name_H-M   'P 1'
_cell_length_a   12.24746900
_cell_length_b   12.24746887
_cell_length_c   3.69397900
_cell_angle_alpha   90.00000000
_cell_angle_beta   90.00000000
_cell_angle_gamma   119.99999225
_symmetry_Int_Tables_number   1
_chemical_formula_structural   Dy5Mn6Co10(MoP4)3
_chemical_formula_sum   'Dy5 Mn6 Co10 Mo3 P12'
_cell_volume   479.86357020
_cell_formula_units_Z   1
loop_
 _symmetry_equiv_pos_site_id
 _symmetry_equiv_pos_as_xyz
  1  'x, y, z'
loop_
 _atom_site_type_symbol
 _atom_site_label
 _atom_site_symmetry_multiplicity
 _atom_site_fract_x
 _atom_site_fract_y
 _atom_site_fract_z
 _atom_site_occupancy
  Dy  Dy0  1  0.666667  0.333333  0.000000  1
  Dy  Dy1  1  0.333333  0.666667  0.000000  1
  Dy  Dy2  1  0.178253  0.183150  0.500000  1
  Dy  Dy3  1  0.816850  0.995103  0.500000  1
  Dy  Dy4  1  0.004897  0.821747  0.500000  1
  Mn  Mn5  1  0.819877  0.196891  0.000000  1
  Mn  Mn6  1  0.803109  0.622987  0.000000  1
  Mn  Mn7  1  0.377013  0.180123  0.000000  1
  Mn  Mn8  1  0.650304  0.120874  0.500000  1
  Mn  Mn9  1  0.879126  0.529432  0.500000  1
  Mn  Mn10  1  0.470568  0.349696  0.500000  1
  Co  Co11  1  0.201884  0.825372  0.000000  1
  Co  Co12  1  0.623490  0.798116  0.000000  1
  Co  Co13  1  0.174628  0.376510  0.000000  1
  Co  Co14  1  0.130617  0.647074  0.500000  1
  Co  Co15  1  0.516458  0.869383  0.500000  1
  Co  Co16  1  0.352926  0.483542  0.500000  1
  Co  Co17  1  0.717623  0.717683  0.500000  1
  Co  Co18  1  0.282317  0.999941  0.500000  1
  Co  Co19  1  0.000059  0.282377  0.500000  1
  Co  Co20  1  0.000000  0.000000  0.000000  1
  Mo  Mo21  1  0.552535  0.551572  0.000000  1
  Mo  Mo22  1  0.448428  0.000963  0.000000  1
  Mo  Mo23  1  0.999037  0.447465  0.000000  1
  P  P24  1  0.352316  0.361898  0.000000  1
  P  P25  1  0.638102  0.990418  0.000000  1
  P  P26  1  0.009582  0.647684  0.000000  1
  P  P27  1  0.837376  0.320008  0.500000  1
  P  P28  1  0.679992  0.517368  0.500000  1
  P  P29  1  0.482632  0.162624  0.500000  1
  P  P30  1  0.315448  0.835406  0.500000  1
  P  P31  1  0.519958  0.684552  0.500000  1
  P  P32  1  0.164594  0.480042  0.500000  1
  P  P33  1  0.820867  0.818606  0.000000  1
  P  P34  1  0.181394  0.002260  0.000000  1
  P  P35  1  0.997740  0.179133  0.000000  1
