# generated using pymatgen
data_La2Nd2Si10NiPt5
_symmetry_space_group_name_H-M   'P 1'
_cell_length_a   8.25969366
_cell_length_b   8.25671613
_cell_length_c   8.25671754
_cell_angle_alpha   136.71219085
_cell_angle_beta   105.71041473
_cell_angle_gamma   90.06920173
_symmetry_Int_Tables_number   1
_chemical_formula_structural   La2Nd2Si10NiPt5
_chemical_formula_sum   'La2 Nd2 Si10 Ni1 Pt5'
_cell_volume   354.49597514
_cell_formula_units_Z   1
loop_
 _symmetry_equiv_pos_site_id
 _symmetry_equiv_pos_as_xyz
  1  'x, y, z'
loop_
 _atom_site_type_symbol
 _atom_site_label
 _atom_site_symmetry_multiplicity
 _atom_site_fract_x
 _atom_site_fract_y
 _atom_site_fract_z
 _atom_site_occupancy
  La  La0  1  0.637491  0.870726  0.766207  1
  La  La1  1  0.362509  0.128717  0.233235  1
  Nd  Nd2  1  0.104049  0.371127  0.732921  1
  Nd  Nd3  1  0.895951  0.628872  0.267078  1
  Si  Si4  1  0.272773  0.023830  0.750080  1
  Si  Si5  1  0.727603  0.976434  0.249803  1
  Si  Si6  1  0.727227  0.477307  0.751056  1
  Si  Si7  1  0.272397  0.522199  0.248831  1
  Si  Si8  1  0.462900  0.598623  0.844779  1
  Si  Si9  1  0.537100  0.381879  0.135723  1
  Si  Si10  1  0.755093  0.119827  0.655348  1
  Si  Si11  1  0.244907  0.900254  0.364733  1
  Si  Si12  1  0.000000  0.749812  0.749812  1
  Si  Si13  1  0.000000  0.250126  0.250126  1
  Ni  Ni14  1  0.500000  0.250172  0.750172  1
  Pt  Pt15  1  0.246144  0.636162  0.609863  1
  Pt  Pt16  1  0.753856  0.363719  0.390018  1
  Pt  Pt17  1  0.025997  0.137371  0.888795  1
  Pt  Pt18  1  0.974003  0.862797  0.111374  1
  Pt  Pt19  1  0.500000  0.750046  0.250046  1
