# generated using pymatgen
data_YbPr7(Si3Pt)4
_symmetry_space_group_name_H-M   'P 1'
_cell_length_a   8.24819542
_cell_length_b   8.24819546
_cell_length_c   8.64627800
_cell_angle_alpha   90.00000000
_cell_angle_beta   90.00000000
_cell_angle_gamma   119.82685445
_symmetry_Int_Tables_number   1
_chemical_formula_structural   YbPr7(Si3Pt)4
_chemical_formula_sum   'Yb1 Pr7 Si12 Pt4'
_cell_volume   510.30849458
_cell_formula_units_Z   1
loop_
 _symmetry_equiv_pos_site_id
 _symmetry_equiv_pos_as_xyz
  1  'x, y, z'
loop_
 _atom_site_type_symbol
 _atom_site_label
 _atom_site_symmetry_multiplicity
 _atom_site_fract_x
 _atom_site_fract_y
 _atom_site_fract_z
 _atom_site_occupancy
  Yb  Yb0  1  0.499603  0.500397  0.750000  1
  Pr  Pr1  1  0.500380  0.499620  0.250000  1
  Pr  Pr2  1  0.000990  0.500454  0.750000  1
  Pr  Pr3  1  0.999228  0.499623  0.250000  1
  Pr  Pr4  1  0.499546  0.999010  0.750000  1
  Pr  Pr5  1  0.500377  0.000772  0.250000  1
  Pr  Pr6  1  0.000004  0.999996  0.750000  1
  Pr  Pr7  1  0.999957  0.000043  0.250000  1
  Si  Si8  1  0.834370  0.165630  0.000979  1
  Si  Si9  1  0.165624  0.834376  0.999500  1
  Si  Si10  1  0.332157  0.166594  0.000480  1
  Si  Si11  1  0.165624  0.834376  0.500500  1
  Si  Si12  1  0.667804  0.833352  0.998838  1
  Si  Si13  1  0.834370  0.165630  0.499021  1
  Si  Si14  1  0.833406  0.667843  0.000480  1
  Si  Si15  1  0.667804  0.833352  0.501162  1
  Si  Si16  1  0.166648  0.332196  0.998838  1
  Si  Si17  1  0.332157  0.166594  0.499520  1
  Si  Si18  1  0.166648  0.332196  0.501162  1
  Si  Si19  1  0.833406  0.667843  0.499520  1
  Pt  Pt20  1  0.665878  0.334122  0.996521  1
  Pt  Pt21  1  0.334072  0.665928  0.000357  1
  Pt  Pt22  1  0.334072  0.665928  0.499643  1
  Pt  Pt23  1  0.665878  0.334122  0.503479  1
