# generated using pymatgen
data_Dy20IrRu7Pt4
_symmetry_space_group_name_H-M   'P 1'
_cell_length_a   10.87051067
_cell_length_b   10.87050987
_cell_length_c   6.44612014
_cell_angle_alpha   89.91641457
_cell_angle_beta   89.91641534
_cell_angle_gamma   90.82082346
_symmetry_Int_Tables_number   1
_chemical_formula_structural   Dy20IrRu7Pt4
_chemical_formula_sum   'Dy20 Ir1 Ru7 Pt4'
_cell_volume   761.64527252
_cell_formula_units_Z   1
loop_
 _symmetry_equiv_pos_site_id
 _symmetry_equiv_pos_as_xyz
  1  'x, y, z'
loop_
 _atom_site_type_symbol
 _atom_site_label
 _atom_site_symmetry_multiplicity
 _atom_site_fract_x
 _atom_site_fract_y
 _atom_site_fract_z
 _atom_site_occupancy
  Dy  Dy0  1  0.295729  0.081471  0.372276  1
  Dy  Dy1  1  0.292573  0.909831  0.881030  1
  Dy  Dy2  1  0.707534  0.090921  0.881254  1
  Dy  Dy3  1  0.704301  0.918216  0.371601  1
  Dy  Dy4  1  0.581728  0.796383  0.872806  1
  Dy  Dy5  1  0.590863  0.206876  0.380979  1
  Dy  Dy6  1  0.409306  0.793266  0.381120  1
  Dy  Dy7  1  0.418264  0.204494  0.871670  1
  Dy  Dy8  1  0.203617  0.418272  0.627194  1
  Dy  Dy9  1  0.206734  0.590694  0.118880  1
  Dy  Dy10  1  0.793124  0.409137  0.119021  1
  Dy  Dy11  1  0.795506  0.581736  0.628330  1
  Dy  Dy12  1  0.918529  0.704271  0.127724  1
  Dy  Dy13  1  0.909079  0.292466  0.618746  1
  Dy  Dy14  1  0.090169  0.707427  0.618970  1
  Dy  Dy15  1  0.081784  0.295699  0.128399  1
  Dy  Dy16  1  0.000390  0.000025  0.497014  1
  Dy  Dy17  1  0.999975  0.999610  0.002986  1
  Dy  Dy18  1  0.501335  0.499887  0.998067  1
  Dy  Dy19  1  0.500113  0.498665  0.501933  1
  Ir  Ir20  1  0.349808  0.650192  0.750000  1
  Ru  Ru21  1  0.850634  0.149366  0.250000  1
  Ru  Ru22  1  0.150228  0.849772  0.250000  1
  Ru  Ru23  1  0.648685  0.351315  0.750000  1
  Ru  Ru24  1  0.500150  0.999804  0.123123  1
  Ru  Ru25  1  0.500192  0.000175  0.623622  1
  Ru  Ru26  1  0.999825  0.499808  0.876378  1
  Ru  Ru27  1  0.000196  0.499850  0.376877  1
  Pt  Pt28  1  0.844918  0.844812  0.749983  1
  Pt  Pt29  1  0.155188  0.155082  0.750017  1
  Pt  Pt30  1  0.654487  0.654962  0.250560  1
  Pt  Pt31  1  0.345038  0.345513  0.249440  1
