# generated using pymatgen
data_Ca2Y3Er(Si3Ru)8
_symmetry_space_group_name_H-M   'P 1'
_cell_length_a   10.14855313
_cell_length_b   10.14855355
_cell_length_c   8.16613861
_cell_angle_alpha   90.00680381
_cell_angle_beta   90.00679461
_cell_angle_gamma   132.64089513
_symmetry_Int_Tables_number   1
_chemical_formula_structural   Ca2Y3Er(Si3Ru)8
_chemical_formula_sum   'Ca2 Y3 Er1 Si24 Ru8'
_cell_volume   618.69251168
_cell_formula_units_Z   1
loop_
 _symmetry_equiv_pos_site_id
 _symmetry_equiv_pos_as_xyz
  1  'x, y, z'
loop_
 _atom_site_type_symbol
 _atom_site_label
 _atom_site_symmetry_multiplicity
 _atom_site_fract_x
 _atom_site_fract_y
 _atom_site_fract_z
 _atom_site_occupancy
  Ca  Ca0  1  0.499218  0.999262  0.249992  1
  Ca  Ca1  1  0.000738  0.500782  0.750008  1
  Y  Y2  1  0.503820  0.003792  0.750061  1
  Y  Y3  1  0.996208  0.496180  0.249939  1
  Y  Y4  1  0.500110  0.499890  0.500000  1
  Er  Er5  1  0.999858  0.000142  0.000000  1
  Si  Si6  1  0.389022  0.155687  0.002813  1
  Si  Si7  1  0.655797  0.889385  0.497420  1
  Si  Si8  1  0.110615  0.344203  0.502580  1
  Si  Si9  1  0.844313  0.610978  0.997187  1
  Si  Si10  1  0.611619  0.844556  0.993299  1
  Si  Si11  1  0.344454  0.111140  0.506566  1
  Si  Si12  1  0.888860  0.655546  0.493434  1
  Si  Si13  1  0.155444  0.388381  0.006701  1
  Si  Si14  1  0.612942  0.378767  0.227285  1
  Si  Si15  1  0.878810  0.112599  0.272347  1
  Si  Si16  1  0.887401  0.121190  0.727653  1
  Si  Si17  1  0.621233  0.387058  0.772715  1
  Si  Si18  1  0.390802  0.624544  0.772202  1
  Si  Si19  1  0.124523  0.891221  0.728198  1
  Si  Si20  1  0.706010  0.293990  0.000000  1
  Si  Si21  1  0.794116  0.205884  0.500000  1
  Si  Si22  1  0.294316  0.705684  0.000000  1
  Si  Si23  1  0.205566  0.794434  0.500000  1
  Si  Si24  1  0.163583  0.170473  0.332586  1
  Si  Si25  1  0.670835  0.664019  0.167054  1
  Si  Si26  1  0.335981  0.329165  0.832946  1
  Si  Si27  1  0.829527  0.836417  0.667414  1
  Si  Si28  1  0.375456  0.609198  0.227798  1
  Si  Si29  1  0.108779  0.875477  0.271802  1
  Ru  Ru30  1  0.626105  0.626901  0.874140  1
  Ru  Ru31  1  0.126499  0.125648  0.626298  1
  Ru  Ru32  1  0.874352  0.873501  0.373702  1
  Ru  Ru33  1  0.373099  0.373895  0.125860  1
  Ru  Ru34  1  0.330435  0.669565  0.500000  1
  Ru  Ru35  1  0.169277  0.830723  0.000000  1
  Ru  Ru36  1  0.668594  0.331406  0.500000  1
  Ru  Ru37  1  0.831689  0.168311  0.000000  1
