# generated using pymatgen
data_Nb6Co12Si7Ni4
_symmetry_space_group_name_H-M   'P 1'
_cell_length_a   7.93724571
_cell_length_b   7.94504586
_cell_length_c   7.94261100
_cell_angle_alpha   60.01014134
_cell_angle_beta   59.97764096
_cell_angle_gamma   59.99538968
_symmetry_Int_Tables_number   1
_chemical_formula_structural   Nb6Co12Si7Ni4
_chemical_formula_sum   'Nb6 Co12 Si7 Ni4'
_cell_volume   354.12714657
_cell_formula_units_Z   1
loop_
 _symmetry_equiv_pos_site_id
 _symmetry_equiv_pos_as_xyz
  1  'x, y, z'
loop_
 _atom_site_type_symbol
 _atom_site_label
 _atom_site_symmetry_multiplicity
 _atom_site_fract_x
 _atom_site_fract_y
 _atom_site_fract_z
 _atom_site_occupancy
  Nb  Nb0  1  0.797461  0.793173  0.204684  1
  Nb  Nb1  1  0.793508  0.204490  0.795620  1
  Nb  Nb2  1  0.201428  0.790902  0.209668  1
  Nb  Nb3  1  0.793508  0.204490  0.206382  1
  Nb  Nb4  1  0.201428  0.790902  0.798003  1
  Nb  Nb5  1  0.202132  0.210017  0.793926  1
  Co  Co6  1  0.834907  0.836598  0.833766  1
  Co  Co7  1  0.834907  0.836598  0.494728  1
  Co  Co8  1  0.167451  0.503947  0.164302  1
  Co  Co9  1  0.618334  0.144779  0.618443  1
  Co  Co10  1  0.381638  0.382299  0.853911  1
  Co  Co11  1  0.855939  0.381419  0.381321  1
  Co  Co12  1  0.381638  0.382299  0.382152  1
  Co  Co13  1  0.142552  0.618473  0.619487  1
  Co  Co14  1  0.619361  0.618422  0.619403  1
  Co  Co15  1  0.619361  0.618422  0.142814  1
  Co  Co16  1  0.382221  0.852510  0.382634  1
  Co  Co17  1  0.837086  0.491876  0.835518  1
  Si  Si18  1  0.501171  0.500078  0.499376  1
  Si  Si19  1  0.499728  0.998577  0.500473  1
  Si  Si20  1  0.998462  0.500467  0.001445  1
  Si  Si21  1  0.001001  0.000609  0.499195  1
  Si  Si22  1  0.499728  0.998577  0.001221  1
  Si  Si23  1  0.998462  0.500467  0.499627  1
  Si  Si24  1  0.500928  0.501190  0.998940  1
  Ni  Ni25  1  0.168957  0.167649  0.496783  1
  Ni  Ni26  1  0.495648  0.168803  0.167775  1
  Ni  Ni27  1  0.168957  0.167649  0.166613  1
  Ni  Ni28  1  0.502103  0.834316  0.831790  1
