# generated using pymatgen
data_NaGePIr2
_symmetry_space_group_name_H-M   'P 1'
_cell_length_a   5.92352983
_cell_length_b   5.92353020
_cell_length_c   5.92352935
_cell_angle_alpha   139.67023135
_cell_angle_beta   139.67024261
_cell_angle_gamma   58.35434344
_symmetry_Int_Tables_number   1
_chemical_formula_structural   NaGePIr2
_chemical_formula_sum   'Na1 Ge1 P1 Ir2'
_cell_volume   86.26092909
_cell_formula_units_Z   1
loop_
 _symmetry_equiv_pos_site_id
 _symmetry_equiv_pos_as_xyz
  1  'x, y, z'
loop_
 _atom_site_type_symbol
 _atom_site_label
 _atom_site_symmetry_multiplicity
 _atom_site_fract_x
 _atom_site_fract_y
 _atom_site_fract_z
 _atom_site_occupancy
  Na  Na0  1  0.001996  0.001996  0.000000  1
  Ge  Ge1  1  0.381531  0.381531  0.000000  1
  P  P2  1  0.631448  0.631448  0.000000  1
  Ir  Ir3  1  0.742512  0.242512  0.500000  1
  Ir  Ir4  1  0.242512  0.742512  0.500000  1
