# generated using pymatgen
data_ScCd3P7N12
_symmetry_space_group_name_H-M   'P 1'
_cell_length_a   7.37224888
_cell_length_b   7.40036147
_cell_length_c   7.40036267
_cell_angle_alpha   109.54804384
_cell_angle_beta   109.39428304
_cell_angle_gamma   109.39428836
_symmetry_Int_Tables_number   1
_chemical_formula_structural   ScCd3P7N12
_chemical_formula_sum   'Sc1 Cd3 P7 N12'
_cell_volume   311.09678200
_cell_formula_units_Z   1
loop_
 _symmetry_equiv_pos_site_id
 _symmetry_equiv_pos_as_xyz
  1  'x, y, z'
loop_
 _atom_site_type_symbol
 _atom_site_label
 _atom_site_symmetry_multiplicity
 _atom_site_fract_x
 _atom_site_fract_y
 _atom_site_fract_z
 _atom_site_occupancy
  Sc  Sc0  1  0.631076  0.000000  0.000000  1
  Cd  Cd1  1  0.999681  0.000000  0.678236  1
  Cd  Cd2  1  0.999681  0.678236  0.000000  1
  Cd  Cd3  1  0.321445  0.321764  0.321764  1
  P  P4  1  0.252351  0.748792  0.498674  1
  P  P5  1  0.753677  0.250119  0.501326  1
  P  P6  1  0.753677  0.501326  0.250119  1
  P  P7  1  0.252351  0.498674  0.748792  1
  P  P8  1  0.503559  0.749881  0.251208  1
  P  P9  1  0.503559  0.251208  0.749881  1
  P  P10  1  0.974660  0.000000  0.000000  1
  N  N11  1  0.711749  0.283663  0.283663  1
  N  N12  1  0.289415  0.713336  0.286487  1
  N  N13  1  0.308298  0.587688  0.587688  1
  N  N14  1  0.576079  0.573151  0.286664  1
  N  N15  1  0.428086  0.716337  0.000000  1
  N  N16  1  0.002928  0.713513  0.426849  1
  N  N17  1  0.576079  0.286664  0.573151  1
  N  N18  1  0.720610  0.000000  0.412312  1
  N  N19  1  0.428086  0.000000  0.716337  1
  N  N20  1  0.720610  0.412312  0.000000  1
  N  N21  1  0.289415  0.286487  0.713336  1
  N  N22  1  0.002928  0.426849  0.713513  1
