# generated using pymatgen
data_Ce2Ho2Ga6Ir7
_symmetry_space_group_name_H-M   'P 1'
_cell_length_a   7.25590303
_cell_length_b   7.25590301
_cell_length_c   7.34511200
_cell_angle_alpha   109.41987614
_cell_angle_beta   109.41986772
_cell_angle_gamma   109.07757574
_symmetry_Int_Tables_number   1
_chemical_formula_structural   Ce2Ho2Ga6Ir7
_chemical_formula_sum   'Ce2 Ho2 Ga6 Ir7'
_cell_volume   299.49366074
_cell_formula_units_Z   1
loop_
 _symmetry_equiv_pos_site_id
 _symmetry_equiv_pos_as_xyz
  1  'x, y, z'
loop_
 _atom_site_type_symbol
 _atom_site_label
 _atom_site_symmetry_multiplicity
 _atom_site_fract_x
 _atom_site_fract_y
 _atom_site_fract_z
 _atom_site_occupancy
  Ce  Ce0  1  0.000000  0.000000  0.500000  1
  Ce  Ce1  1  0.500000  0.500000  0.500000  1
  Ho  Ho2  1  0.000000  0.500000  0.000000  1
  Ho  Ho3  1  0.500000  0.000000  0.000000  1
  Ga  Ga4  1  0.684452  0.684452  0.000000  1
  Ga  Ga5  1  0.312332  0.995720  0.308052  1
  Ga  Ga6  1  0.995720  0.312332  0.308052  1
  Ga  Ga7  1  0.315548  0.315548  0.000000  1
  Ga  Ga8  1  0.687668  0.004280  0.691948  1
  Ga  Ga9  1  0.004280  0.687668  0.691948  1
  Ir  Ir10  1  0.750000  0.250000  0.500000  1
  Ir  Ir11  1  0.751825  0.505295  0.257120  1
  Ir  Ir12  1  0.494705  0.248175  0.742880  1
  Ir  Ir13  1  0.248175  0.494705  0.742880  1
  Ir  Ir14  1  0.250000  0.750000  0.500000  1
  Ir  Ir15  1  0.505295  0.751825  0.257120  1
  Ir  Ir16  1  0.000000  0.000000  0.000000  1
