# generated using pymatgen
data_Th2Fe3P7Ru9
_symmetry_space_group_name_H-M   'P 1'
_cell_length_a   9.37741100
_cell_length_b   9.37741099
_cell_length_c   3.88708800
_cell_angle_alpha   90.00000000
_cell_angle_beta   90.00000000
_cell_angle_gamma   119.99998946
_symmetry_Int_Tables_number   1
_chemical_formula_structural   Th2Fe3P7Ru9
_chemical_formula_sum   'Th2 Fe3 P7 Ru9'
_cell_volume   296.01993030
_cell_formula_units_Z   1
loop_
 _symmetry_equiv_pos_site_id
 _symmetry_equiv_pos_as_xyz
  1  'x, y, z'
loop_
 _atom_site_type_symbol
 _atom_site_label
 _atom_site_symmetry_multiplicity
 _atom_site_fract_x
 _atom_site_fract_y
 _atom_site_fract_z
 _atom_site_occupancy
  Th  Th0  1  0.333333  0.666667  0.000000  1
  Th  Th1  1  0.666667  0.333333  0.500000  1
  Fe  Fe2  1  0.155425  0.889036  0.000000  1
  Fe  Fe3  1  0.110964  0.266389  0.000000  1
  Fe  Fe4  1  0.733611  0.844575  0.000000  1
  P  P5  1  0.406818  0.102763  0.000000  1
  P  P6  1  0.897237  0.304056  0.000000  1
  P  P7  1  0.695944  0.593182  0.000000  1
  P  P8  1  0.110842  0.718116  0.500000  1
  P  P9  1  0.281884  0.392725  0.500000  1
  P  P10  1  0.607275  0.889158  0.500000  1
  P  P11  1  0.000000  0.000000  0.000000  1
  Ru  Ru12  1  0.423094  0.360575  0.000000  1
  Ru  Ru13  1  0.639425  0.062517  0.000000  1
  Ru  Ru14  1  0.937483  0.576906  0.000000  1
  Ru  Ru15  1  0.383604  0.946361  0.500000  1
  Ru  Ru16  1  0.053639  0.437242  0.500000  1
  Ru  Ru17  1  0.562758  0.616396  0.500000  1
  Ru  Ru18  1  0.206359  0.117452  0.500000  1
  Ru  Ru19  1  0.882548  0.088909  0.500000  1
  Ru  Ru20  1  0.911091  0.793641  0.500000  1
