# generated using pymatgen
data_CsZn2BiAs
_symmetry_space_group_name_H-M   'P 1'
_cell_length_a   9.22423087
_cell_length_b   9.22423095
_cell_length_c   9.22423031
_cell_angle_alpha   154.17818503
_cell_angle_beta   154.17818670
_cell_angle_gamma   36.84066998
_symmetry_Int_Tables_number   1
_chemical_formula_structural   CsZn2BiAs
_chemical_formula_sum   'Cs1 Zn2 Bi1 As1'
_cell_volume   148.70091586
_cell_formula_units_Z   1
loop_
 _symmetry_equiv_pos_site_id
 _symmetry_equiv_pos_as_xyz
  1  'x, y, z'
loop_
 _atom_site_type_symbol
 _atom_site_label
 _atom_site_symmetry_multiplicity
 _atom_site_fract_x
 _atom_site_fract_y
 _atom_site_fract_z
 _atom_site_occupancy
  Cs  Cs0  1  0.023533  0.023533  0.000000  1
  Zn  Zn1  1  0.735924  0.235924  0.500000  1
  Zn  Zn2  1  0.235924  0.735924  0.500000  1
  Bi  Bi3  1  0.352986  0.352986  0.000000  1
  As  As4  1  0.651634  0.651634  0.000000  1
