# generated using pymatgen
data_Dy6ScCo16P12Os
_symmetry_space_group_name_H-M   'P 1'
_cell_length_a   3.71886200
_cell_length_b   10.58607800
_cell_length_c   12.30258600
_cell_angle_alpha   90.00000000
_cell_angle_beta   90.00000000
_cell_angle_gamma   90.00000000
_symmetry_Int_Tables_number   1
_chemical_formula_structural   Dy6ScCo16P12Os
_chemical_formula_sum   'Dy6 Sc1 Co16 P12 Os1'
_cell_volume   484.33021347
_cell_formula_units_Z   1
loop_
 _symmetry_equiv_pos_site_id
 _symmetry_equiv_pos_as_xyz
  1  'x, y, z'
loop_
 _atom_site_type_symbol
 _atom_site_label
 _atom_site_symmetry_multiplicity
 _atom_site_fract_x
 _atom_site_fract_y
 _atom_site_fract_z
 _atom_site_occupancy
  Dy  Dy0  1  0.000000  0.500000  0.525203  1
  Dy  Dy1  1  0.500000  0.000000  0.473378  1
  Dy  Dy2  1  0.500000  0.818206  0.204828  1
  Dy  Dy3  1  0.500000  0.181794  0.204828  1
  Dy  Dy4  1  0.000000  0.679380  0.793118  1
  Dy  Dy5  1  0.000000  0.320620  0.793118  1
  Sc  Sc6  1  0.000000  0.000000  0.847125  1
  Co  Co7  1  0.500000  0.500000  0.702980  1
  Co  Co8  1  0.000000  0.000000  0.296360  1
  Co  Co9  1  0.000000  0.500000  0.989061  1
  Co  Co10  1  0.500000  0.000000  0.015528  1
  Co  Co11  1  0.500000  0.337385  0.994057  1
  Co  Co12  1  0.500000  0.662615  0.994057  1
  Co  Co13  1  0.000000  0.173339  0.009936  1
  Co  Co14  1  0.000000  0.826661  0.009936  1
  Co  Co15  1  0.500000  0.297958  0.429180  1
  Co  Co16  1  0.500000  0.702042  0.429180  1
  Co  Co17  1  0.000000  0.205438  0.565527  1
  Co  Co18  1  0.000000  0.794562  0.565527  1
  Co  Co19  1  0.500000  0.876994  0.704258  1
  Co  Co20  1  0.500000  0.123006  0.704258  1
  Co  Co21  1  0.000000  0.619820  0.292619  1
  Co  Co22  1  0.000000  0.380180  0.292619  1
  P  P23  1  0.500000  0.500000  0.881588  1
  P  P24  1  0.000000  0.000000  0.116677  1
  P  P25  1  0.500000  0.500000  0.351602  1
  P  P26  1  0.000000  0.000000  0.642185  1
  P  P27  1  0.500000  0.310988  0.614432  1
  P  P28  1  0.500000  0.689012  0.614432  1
  P  P29  1  0.000000  0.189399  0.382816  1
  P  P30  1  0.000000  0.810601  0.382816  1
  P  P31  1  0.500000  0.837951  0.897469  1
  P  P32  1  0.500000  0.162049  0.897469  1
  P  P33  1  0.000000  0.652093  0.110003  1
  P  P34  1  0.000000  0.347907  0.110003  1
  Os  Os35  1  0.500000  0.500000  0.161825  1
