# generated using pymatgen
data_Ti3GaPt2O
_symmetry_space_group_name_H-M   'P 1'
_cell_length_a   8.24818465
_cell_length_b   8.24831239
_cell_length_c   8.24637206
_cell_angle_alpha   60.00472028
_cell_angle_beta   59.99302538
_cell_angle_gamma   59.99280805
_symmetry_Int_Tables_number   1
_chemical_formula_structural   Ti3GaPt2O
_chemical_formula_sum   'Ti12 Ga4 Pt8 O4'
_cell_volume   396.68007364
_cell_formula_units_Z   4
loop_
 _symmetry_equiv_pos_site_id
 _symmetry_equiv_pos_as_xyz
  1  'x, y, z'
loop_
 _atom_site_type_symbol
 _atom_site_label
 _atom_site_symmetry_multiplicity
 _atom_site_fract_x
 _atom_site_fract_y
 _atom_site_fract_z
 _atom_site_occupancy
  Ti  Ti0  1  0.935695  0.935819  0.564244  1
  Ti  Ti1  1  0.564247  0.935780  0.564251  1
  Ti  Ti2  1  0.935718  0.564248  0.564250  1
  Ti  Ti3  1  0.564231  0.564232  0.935683  1
  Ti  Ti4  1  0.935823  0.564229  0.935719  1
  Ti  Ti5  1  0.564248  0.935867  0.935637  1
  Ti  Ti6  1  0.314305  0.314181  0.685756  1
  Ti  Ti7  1  0.685753  0.314220  0.685749  1
  Ti  Ti8  1  0.314282  0.685752  0.685750  1
  Ti  Ti9  1  0.685769  0.685768  0.314317  1
  Ti  Ti10  1  0.314177  0.685771  0.314281  1
  Ti  Ti11  1  0.685752  0.314133  0.314363  1
  Ga  Ga12  1  0.125000  0.125000  0.625000  1
  Ga  Ga13  1  0.125000  0.625000  0.125000  1
  Ga  Ga14  1  0.625000  0.125000  0.125000  1
  Ga  Ga15  1  0.125000  0.125000  0.125000  1
  Pt  Pt16  1  0.343682  0.343640  0.969013  1
  Pt  Pt17  1  0.343639  0.969079  0.343669  1
  Pt  Pt18  1  0.969041  0.343624  0.343695  1
  Pt  Pt19  1  0.343648  0.343605  0.343686  1
  Pt  Pt20  1  0.906318  0.906360  0.280987  1
  Pt  Pt21  1  0.906361  0.280921  0.906331  1
  Pt  Pt22  1  0.280959  0.906376  0.906305  1
  Pt  Pt23  1  0.906352  0.906395  0.906314  1
  O  O24  1  0.625000  0.625000  0.125000  1
  O  O25  1  0.625000  0.125000  0.625000  1
  O  O26  1  0.125000  0.625000  0.625000  1
  O  O27  1  0.625000  0.625000  0.625000  1
