# generated using pymatgen
data_La5Pr3(HgPt)2
_symmetry_space_group_name_H-M   'P 1'
_cell_length_a   10.12903694
_cell_length_b   10.12903715
_cell_length_c   10.12903700
_cell_angle_alpha   59.99999723
_cell_angle_beta   59.99999654
_cell_angle_gamma   59.99999838
_symmetry_Int_Tables_number   1
_chemical_formula_structural   La5Pr3(HgPt)2
_chemical_formula_sum   'La10 Pr6 Hg4 Pt4'
_cell_volume   734.83435624
_cell_formula_units_Z   2
loop_
 _symmetry_equiv_pos_site_id
 _symmetry_equiv_pos_as_xyz
  1  'x, y, z'
loop_
 _atom_site_type_symbol
 _atom_site_label
 _atom_site_symmetry_multiplicity
 _atom_site_fract_x
 _atom_site_fract_y
 _atom_site_fract_z
 _atom_site_occupancy
  La  La0  1  0.350394  0.350394  0.350394  1
  La  La1  1  0.350394  0.350394  0.948818  1
  La  La2  1  0.350394  0.948818  0.350394  1
  La  La3  1  0.948818  0.350394  0.350394  1
  La  La4  1  0.805452  0.194548  0.194548  1
  La  La5  1  0.194548  0.805452  0.805452  1
  La  La6  1  0.194548  0.805452  0.194548  1
  La  La7  1  0.805452  0.194548  0.805452  1
  La  La8  1  0.194548  0.194548  0.805452  1
  La  La9  1  0.805452  0.805452  0.194548  1
  Pr  Pr10  1  0.934370  0.565630  0.565630  1
  Pr  Pr11  1  0.565630  0.934370  0.934370  1
  Pr  Pr12  1  0.565630  0.934370  0.565630  1
  Pr  Pr13  1  0.934370  0.565630  0.934370  1
  Pr  Pr14  1  0.565630  0.565630  0.934370  1
  Pr  Pr15  1  0.934370  0.934370  0.565630  1
  Hg  Hg16  1  0.584152  0.584152  0.584152  1
  Hg  Hg17  1  0.584152  0.584152  0.247544  1
  Hg  Hg18  1  0.584152  0.247544  0.584152  1
  Hg  Hg19  1  0.247544  0.584152  0.584152  1
  Pt  Pt20  1  0.142265  0.142265  0.142265  1
  Pt  Pt21  1  0.142265  0.142265  0.573205  1
  Pt  Pt22  1  0.142265  0.573205  0.142265  1
  Pt  Pt23  1  0.573205  0.142265  0.142265  1
