# generated using pymatgen
data_Ho3PuCo3
_symmetry_space_group_name_H-M   'P 1'
_cell_length_a   5.69633037
_cell_length_b   5.69633057
_cell_length_c   13.45622400
_cell_angle_alpha   90.00000000
_cell_angle_beta   90.00000000
_cell_angle_gamma   139.89326976
_symmetry_Int_Tables_number   1
_chemical_formula_structural   Ho3PuCo3
_chemical_formula_sum   'Ho6 Pu2 Co6'
_cell_volume   281.28292320
_cell_formula_units_Z   2
loop_
 _symmetry_equiv_pos_site_id
 _symmetry_equiv_pos_as_xyz
  1  'x, y, z'
loop_
 _atom_site_type_symbol
 _atom_site_label
 _atom_site_symmetry_multiplicity
 _atom_site_fract_x
 _atom_site_fract_y
 _atom_site_fract_z
 _atom_site_occupancy
  Ho  Ho0  1  0.285928  0.714073  0.112938  1
  Ho  Ho1  1  0.008134  0.991867  0.250000  1
  Ho  Ho2  1  0.285928  0.714073  0.387062  1
  Ho  Ho3  1  0.714073  0.285928  0.612938  1
  Ho  Ho4  1  0.991867  0.008134  0.750000  1
  Ho  Ho5  1  0.714073  0.285928  0.887062  1
  Pu  Pu6  1  0.000000  0.000000  0.000000  1
  Pu  Pu7  1  0.000000  0.000000  0.500000  1
  Co  Co8  1  0.583137  0.416864  0.096294  1
  Co  Co9  1  0.707215  0.292786  0.250000  1
  Co  Co10  1  0.583137  0.416864  0.403707  1
  Co  Co11  1  0.416864  0.583137  0.596294  1
  Co  Co12  1  0.292786  0.707215  0.750000  1
  Co  Co13  1  0.416864  0.583137  0.903706  1
