# generated using pymatgen
data_VSiCl8
_symmetry_space_group_name_H-M   'P 1'
_cell_length_a   6.86580000
_cell_length_b   10.42025602
_cell_length_c   10.48617482
_cell_angle_alpha   77.07009802
_cell_angle_beta   90.00000000
_cell_angle_gamma   90.00000000
_symmetry_Int_Tables_number   1
_chemical_formula_structural   VSiCl8
_chemical_formula_sum   'V2 Si2 Cl16'
_cell_volume   731.19445621
_cell_formula_units_Z   2
loop_
 _symmetry_equiv_pos_site_id
 _symmetry_equiv_pos_as_xyz
  1  'x, y, z'
loop_
 _atom_site_type_symbol
 _atom_site_label
 _atom_site_symmetry_multiplicity
 _atom_site_fract_x
 _atom_site_fract_y
 _atom_site_fract_z
 _atom_site_occupancy
  V  V0  1  0.928135  0.250040  0.642993  1
  V  V1  1  0.428135  0.749960  0.857007  1
  Si  Si2  1  0.071840  0.750376  0.356833  1
  Si  Si3  1  0.571840  0.249624  0.143167  1
  Cl  Cl4  1  0.076520  0.410275  0.698833  1
  Cl  Cl5  1  0.576520  0.589725  0.801167  1
  Cl  Cl6  1  0.931064  0.598067  0.304101  1
  Cl  Cl7  1  0.431064  0.401933  0.195899  1
  Cl  Cl8  1  0.931060  0.081062  0.803449  1
  Cl  Cl9  1  0.431060  0.918938  0.696551  1
  Cl  Cl10  1  0.069249  0.910045  0.204309  1
  Cl  Cl11  1  0.569249  0.089955  0.295691  1
  Cl  Cl12  1  0.073744  0.201216  0.479343  1
  Cl  Cl13  1  0.573744  0.798784  0.020657  1
  Cl  Cl14  1  0.933952  0.795672  0.512890  1
  Cl  Cl15  1  0.433952  0.204328  0.987110  1
  Cl  Cl16  1  0.632632  0.305552  0.591665  1
  Cl  Cl17  1  0.132632  0.694448  0.908335  1
  Cl  Cl18  1  0.351802  0.697156  0.405967  1
  Cl  Cl19  1  0.851802  0.302844  0.094033  1
