# generated using pymatgen
data_HoSc5Fe4(Co7P6)2
_symmetry_space_group_name_H-M   'P 1'
_cell_length_a   3.62356700
_cell_length_b   10.44642000
_cell_length_c   11.91130400
_cell_angle_alpha   90.00000000
_cell_angle_beta   90.00000000
_cell_angle_gamma   90.00000000
_symmetry_Int_Tables_number   1
_chemical_formula_structural   HoSc5Fe4(Co7P6)2
_chemical_formula_sum   'Ho1 Sc5 Fe4 Co14 P12'
_cell_volume   450.88219682
_cell_formula_units_Z   1
loop_
 _symmetry_equiv_pos_site_id
 _symmetry_equiv_pos_as_xyz
  1  'x, y, z'
loop_
 _atom_site_type_symbol
 _atom_site_label
 _atom_site_symmetry_multiplicity
 _atom_site_fract_x
 _atom_site_fract_y
 _atom_site_fract_z
 _atom_site_occupancy
  Ho  Ho0  1  0.500000  0.000000  0.475070  1
  Sc  Sc1  1  0.000000  0.500000  0.524012  1
  Sc  Sc2  1  0.500000  0.819602  0.202691  1
  Sc  Sc3  1  0.500000  0.180398  0.202691  1
  Sc  Sc4  1  0.000000  0.679258  0.796306  1
  Sc  Sc5  1  0.000000  0.320742  0.796306  1
  Fe  Fe6  1  0.000000  0.500000  0.987283  1
  Fe  Fe7  1  0.500000  0.000000  0.012217  1
  Fe  Fe8  1  0.500000  0.500000  0.158090  1
  Fe  Fe9  1  0.000000  0.000000  0.843955  1
  Co  Co10  1  0.500000  0.299299  0.430680  1
  Co  Co11  1  0.500000  0.700701  0.430680  1
  Co  Co12  1  0.000000  0.205399  0.569773  1
  Co  Co13  1  0.000000  0.794601  0.569773  1
  Co  Co14  1  0.500000  0.876185  0.709757  1
  Co  Co15  1  0.500000  0.123815  0.709757  1
  Co  Co16  1  0.000000  0.622157  0.291027  1
  Co  Co17  1  0.000000  0.377843  0.291027  1
  Co  Co18  1  0.500000  0.332483  0.993492  1
  Co  Co19  1  0.500000  0.667517  0.993492  1
  Co  Co20  1  0.000000  0.168512  0.006683  1
  Co  Co21  1  0.000000  0.831488  0.006683  1
  Co  Co22  1  0.500000  0.500000  0.700276  1
  Co  Co23  1  0.000000  0.000000  0.297029  1
  P  P24  1  0.500000  0.314282  0.618727  1
  P  P25  1  0.500000  0.685718  0.618727  1
  P  P26  1  0.000000  0.188791  0.380002  1
  P  P27  1  0.000000  0.811209  0.380002  1
  P  P28  1  0.500000  0.500000  0.880483  1
  P  P29  1  0.000000  0.000000  0.118099  1
  P  P30  1  0.500000  0.844965  0.891822  1
  P  P31  1  0.500000  0.155035  0.891822  1
  P  P32  1  0.000000  0.653873  0.108603  1
  P  P33  1  0.000000  0.346127  0.108603  1
  P  P34  1  0.500000  0.500000  0.347699  1
  P  P35  1  0.000000  0.000000  0.656660  1
