# generated using pymatgen
data_Ho5Tm2Lu5Co4
_symmetry_space_group_name_H-M   'P 1'
_cell_length_a   6.14488688
_cell_length_b   6.88730904
_cell_length_c   9.21591174
_cell_angle_alpha   89.99109242
_cell_angle_beta   90.55596223
_cell_angle_gamma   90.01038230
_symmetry_Int_Tables_number   1
_chemical_formula_structural   Ho5Tm2Lu5Co4
_chemical_formula_sum   'Ho5 Tm2 Lu5 Co4'
_cell_volume   390.01500132
_cell_formula_units_Z   1
loop_
 _symmetry_equiv_pos_site_id
 _symmetry_equiv_pos_as_xyz
  1  'x, y, z'
loop_
 _atom_site_type_symbol
 _atom_site_label
 _atom_site_symmetry_multiplicity
 _atom_site_fract_x
 _atom_site_fract_y
 _atom_site_fract_z
 _atom_site_occupancy
  Ho  Ho0  1  0.362158  0.539917  0.251257  1
  Ho  Ho1  1  0.137664  0.041817  0.249612  1
  Ho  Ho2  1  0.862633  0.959613  0.749869  1
  Ho  Ho3  1  0.637887  0.458729  0.748426  1
  Ho  Ho4  1  0.822430  0.674736  0.067895  1
  Tm  Tm5  1  0.177504  0.324627  0.931020  1
  Tm  Tm6  1  0.324086  0.825691  0.566745  1
  Lu  Lu7  1  0.675194  0.174605  0.067703  1
  Lu  Lu8  1  0.824726  0.675201  0.434490  1
  Lu  Lu9  1  0.324418  0.825110  0.932201  1
  Lu  Lu10  1  0.176047  0.324593  0.565690  1
  Lu  Lu11  1  0.677082  0.175278  0.432085  1
  Co  Co12  1  0.950075  0.385979  0.255217  1
  Co  Co13  1  0.452075  0.113405  0.752228  1
  Co  Co14  1  0.546775  0.887274  0.250288  1
  Co  Co15  1  0.049246  0.613422  0.745276  1
