# generated using pymatgen
data_Y4Si6IrRh
_symmetry_space_group_name_H-M   'P 1'
_cell_length_a   8.18475900
_cell_length_b   8.18476029
_cell_length_c   7.95095200
_cell_angle_alpha   90.00000000
_cell_angle_beta   90.00000000
_cell_angle_gamma   119.99999073
_symmetry_Int_Tables_number   1
_chemical_formula_structural   Y4Si6IrRh
_chemical_formula_sum   'Y8 Si12 Ir2 Rh2'
_cell_volume   461.27685583
_cell_formula_units_Z   2
loop_
 _symmetry_equiv_pos_site_id
 _symmetry_equiv_pos_as_xyz
  1  'x, y, z'
loop_
 _atom_site_type_symbol
 _atom_site_label
 _atom_site_symmetry_multiplicity
 _atom_site_fract_x
 _atom_site_fract_y
 _atom_site_fract_z
 _atom_site_occupancy
  Y  Y0  1  0.000000  0.000000  0.248563  1
  Y  Y1  1  0.000000  0.000000  0.751437  1
  Y  Y2  1  0.509032  0.490968  0.250117  1
  Y  Y3  1  0.509032  0.018065  0.250117  1
  Y  Y4  1  0.981935  0.490968  0.250117  1
  Y  Y5  1  0.490968  0.509032  0.749883  1
  Y  Y6  1  0.490968  0.981935  0.749883  1
  Y  Y7  1  0.018065  0.509032  0.749883  1
  Si  Si8  1  0.166722  0.833278  0.498950  1
  Si  Si9  1  0.166722  0.333444  0.498950  1
  Si  Si10  1  0.666556  0.833278  0.498950  1
  Si  Si11  1  0.833278  0.166722  0.501050  1
  Si  Si12  1  0.833278  0.666556  0.501050  1
  Si  Si13  1  0.333444  0.166722  0.501050  1
  Si  Si14  1  0.832649  0.167351  0.000378  1
  Si  Si15  1  0.832649  0.665299  0.000378  1
  Si  Si16  1  0.334701  0.167351  0.000378  1
  Si  Si17  1  0.167351  0.832649  0.999622  1
  Si  Si18  1  0.167351  0.334701  0.999622  1
  Si  Si19  1  0.665299  0.832649  0.999622  1
  Ir  Ir20  1  0.333333  0.666667  0.470425  1
  Ir  Ir21  1  0.666667  0.333333  0.529575  1
  Rh  Rh22  1  0.666667  0.333333  0.962920  1
  Rh  Rh23  1  0.333333  0.666667  0.037080  1
