# generated using pymatgen
data_Al12Cr2Tc
_symmetry_space_group_name_H-M   'P 1'
_cell_length_a   9.10968419
_cell_length_b   9.11788588
_cell_length_c   5.13344721
_cell_angle_alpha   87.18959306
_cell_angle_beta   86.96011650
_cell_angle_gamma   146.99446158
_symmetry_Int_Tables_number   1
_chemical_formula_structural   Al12Cr2Tc
_chemical_formula_sum   'Al12 Cr2 Tc1'
_cell_volume   228.48375691
_cell_formula_units_Z   1
loop_
 _symmetry_equiv_pos_site_id
 _symmetry_equiv_pos_as_xyz
  1  'x, y, z'
loop_
 _atom_site_type_symbol
 _atom_site_label
 _atom_site_symmetry_multiplicity
 _atom_site_fract_x
 _atom_site_fract_y
 _atom_site_fract_z
 _atom_site_occupancy
  Al  Al0  1  0.863453  0.860731  0.501306  1
  Al  Al1  1  0.515419  0.511642  0.137906  1
  Al  Al2  1  0.262557  0.413168  0.686289  1
  Al  Al3  1  0.419683  0.265381  0.681914  1
  Al  Al4  1  0.063437  0.295375  0.212964  1
  Al  Al5  1  0.292771  0.059360  0.215830  1
  Al  Al6  1  0.936471  0.693053  0.818634  1
  Al  Al7  1  0.697431  0.941489  0.815095  1
  Al  Al8  1  0.075863  0.547351  0.585304  1
  Al  Al9  1  0.547005  0.081131  0.586130  1
  Al  Al10  1  0.226568  0.726878  0.073505  1
  Al  Al11  1  0.725910  0.231252  0.074708  1
  Cr  Cr12  1  0.018643  0.018572  0.987354  1
  Cr  Cr13  1  0.803362  0.528974  0.334581  1
  Tc  Tc14  1  0.528426  0.802641  0.334482  1
