# generated using pymatgen
data_Nd5Mg3(Co4P3)4
_symmetry_space_group_name_H-M   'P 1'
_cell_length_a   12.30083900
_cell_length_b   12.30083920
_cell_length_c   3.79891200
_cell_angle_alpha   90.00000000
_cell_angle_beta   90.00000000
_cell_angle_gamma   120.00000216
_symmetry_Int_Tables_number   1
_chemical_formula_structural   Nd5Mg3(Co4P3)4
_chemical_formula_sum   'Nd5 Mg3 Co16 P12'
_cell_volume   497.80508796
_cell_formula_units_Z   1
loop_
 _symmetry_equiv_pos_site_id
 _symmetry_equiv_pos_as_xyz
  1  'x, y, z'
loop_
 _atom_site_type_symbol
 _atom_site_label
 _atom_site_symmetry_multiplicity
 _atom_site_fract_x
 _atom_site_fract_y
 _atom_site_fract_z
 _atom_site_occupancy
  Nd  Nd0  1  0.187494  0.187494  0.500000  1
  Nd  Nd1  1  0.812506  0.000000  0.500000  1
  Nd  Nd2  1  0.000000  0.812506  0.500000  1
  Nd  Nd3  1  0.333333  0.666667  0.000000  1
  Nd  Nd4  1  0.666667  0.333333  0.000000  1
  Mg  Mg5  1  0.563479  0.563479  0.000000  1
  Mg  Mg6  1  0.436521  0.000000  0.000000  1
  Mg  Mg7  1  0.000000  0.436521  0.000000  1
  Co  Co8  1  0.718896  0.718896  0.500000  1
  Co  Co9  1  0.281104  0.000000  0.500000  1
  Co  Co10  1  0.000000  0.281104  0.500000  1
  Co  Co11  1  0.178523  0.376223  0.000000  1
  Co  Co12  1  0.623777  0.802300  0.000000  1
  Co  Co13  1  0.197700  0.821477  0.000000  1
  Co  Co14  1  0.802300  0.623777  0.000000  1
  Co  Co15  1  0.821477  0.197700  0.000000  1
  Co  Co16  1  0.376223  0.178523  0.000000  1
  Co  Co17  1  0.358640  0.482228  0.500000  1
  Co  Co18  1  0.517772  0.876413  0.500000  1
  Co  Co19  1  0.123587  0.641360  0.500000  1
  Co  Co20  1  0.876413  0.517772  0.500000  1
  Co  Co21  1  0.641360  0.123587  0.500000  1
  Co  Co22  1  0.482228  0.358640  0.500000  1
  Co  Co23  1  0.000000  0.000000  0.000000  1
  P  P24  1  0.817477  0.817477  0.000000  1
  P  P25  1  0.182523  0.000000  0.000000  1
  P  P26  1  0.000000  0.182523  0.000000  1
  P  P27  1  0.171631  0.475381  0.500000  1
  P  P28  1  0.524619  0.696250  0.500000  1
  P  P29  1  0.303750  0.828369  0.500000  1
  P  P30  1  0.696250  0.524619  0.500000  1
  P  P31  1  0.828369  0.303750  0.500000  1
  P  P32  1  0.475381  0.171631  0.500000  1
  P  P33  1  0.364763  0.364763  0.000000  1
  P  P34  1  0.635237  0.000000  0.000000  1
  P  P35  1  0.000000  0.635237  0.000000  1
