# generated using pymatgen
data_Sr5PrTaCo4O15
_symmetry_space_group_name_H-M   'P 1'
_cell_length_a   6.90775609
_cell_length_b   6.97824582
_cell_length_c   6.97824416
_cell_angle_alpha   87.06979113
_cell_angle_beta   87.01368823
_cell_angle_gamma   87.01367460
_symmetry_Int_Tables_number   1
_chemical_formula_structural   Sr5PrTaCo4O15
_chemical_formula_sum   'Sr5 Pr1 Ta1 Co4 O15'
_cell_volume   335.07105072
_cell_formula_units_Z   1
loop_
 _symmetry_equiv_pos_site_id
 _symmetry_equiv_pos_as_xyz
  1  'x, y, z'
loop_
 _atom_site_type_symbol
 _atom_site_label
 _atom_site_symmetry_multiplicity
 _atom_site_fract_x
 _atom_site_fract_y
 _atom_site_fract_z
 _atom_site_occupancy
  Sr  Sr0  1  0.129689  0.500005  0.865499  1
  Sr  Sr1  1  0.870311  0.134501  0.499995  1
  Sr  Sr2  1  0.000000  0.678727  0.321273  1
  Sr  Sr3  1  0.313771  0.000750  0.680435  1
  Sr  Sr4  1  0.686229  0.319565  0.999250  1
  Pr  Pr5  1  0.500000  0.867483  0.132517  1
  Ta  Ta6  1  0.500000  0.499727  0.500273  1
  Co  Co7  1  0.704565  0.709048  0.707132  1
  Co  Co8  1  0.295435  0.292868  0.290952  1
  Co  Co9  1  0.902495  0.902361  0.903903  1
  Co  Co10  1  0.097505  0.096097  0.097639  1
  O  O11  1  0.379393  0.560682  0.243766  1
  O  O12  1  0.245728  0.377310  0.552855  1
  O  O13  1  0.559229  0.248926  0.375613  1
  O  O14  1  0.620607  0.756234  0.439318  1
  O  O15  1  0.440771  0.624387  0.751074  1
  O  O16  1  0.754272  0.447145  0.622690  1
  O  O17  1  0.215343  0.030580  0.342183  1
  O  O18  1  0.351622  0.197460  0.035284  1
  O  O19  1  0.034021  0.343820  0.204970  1
  O  O20  1  0.784657  0.657817  0.969420  1
  O  O21  1  0.965979  0.795030  0.656180  1
  O  O22  1  0.161604  0.844639  0.002951  1
  O  O23  1  0.838396  0.997049  0.155361  1
  O  O24  1  0.000000  0.153071  0.846929  1
  O  O25  1  0.648378  0.964716  0.802540  1
