# generated using pymatgen
data_LaDy5Rh18
_symmetry_space_group_name_H-M   'P 1'
_cell_length_a   5.29079000
_cell_length_b   5.29078903
_cell_length_c   17.54869400
_cell_angle_alpha   90.00000000
_cell_angle_beta   90.00000000
_cell_angle_gamma   119.99999358
_symmetry_Int_Tables_number   1
_chemical_formula_structural   LaDy5Rh18
_chemical_formula_sum   'La1 Dy5 Rh18'
_cell_volume   425.41855601
_cell_formula_units_Z   1
loop_
 _symmetry_equiv_pos_site_id
 _symmetry_equiv_pos_as_xyz
  1  'x, y, z'
loop_
 _atom_site_type_symbol
 _atom_site_label
 _atom_site_symmetry_multiplicity
 _atom_site_fract_x
 _atom_site_fract_y
 _atom_site_fract_z
 _atom_site_occupancy
  La  La0  1  0.666667  0.333333  0.250000  1
  Dy  Dy1  1  0.333333  0.666667  0.542476  1
  Dy  Dy2  1  0.666667  0.333333  0.041532  1
  Dy  Dy3  1  0.666667  0.333333  0.458468  1
  Dy  Dy4  1  0.333333  0.666667  0.957524  1
  Dy  Dy5  1  0.333333  0.666667  0.750000  1
  Rh  Rh6  1  0.167333  0.334665  0.124523  1
  Rh  Rh7  1  0.832665  0.665330  0.625860  1
  Rh  Rh8  1  0.665335  0.832667  0.124523  1
  Rh  Rh9  1  0.167333  0.832667  0.124523  1
  Rh  Rh10  1  0.832665  0.167335  0.625860  1
  Rh  Rh11  1  0.334670  0.167335  0.625860  1
  Rh  Rh12  1  0.832665  0.665330  0.874140  1
  Rh  Rh13  1  0.832665  0.167335  0.874140  1
  Rh  Rh14  1  0.334670  0.167335  0.874140  1
  Rh  Rh15  1  0.665335  0.832667  0.375477  1
  Rh  Rh16  1  0.167333  0.832667  0.375477  1
  Rh  Rh17  1  0.167333  0.334665  0.375477  1
  Rh  Rh18  1  0.000000  0.000000  0.250000  1
  Rh  Rh19  1  0.000000  0.000000  0.750000  1
  Rh  Rh20  1  0.333333  0.666667  0.250000  1
  Rh  Rh21  1  0.666667  0.333333  0.750000  1
  Rh  Rh22  1  0.000000  0.000000  0.999571  1
  Rh  Rh23  1  0.000000  0.000000  0.500429  1
