# generated using pymatgen
data_PrAl(FeSi)2
_symmetry_space_group_name_H-M   'P 1'
_cell_length_a   3.98768800
_cell_length_b   3.98768740
_cell_length_c   13.79203400
_cell_angle_alpha   90.00000000
_cell_angle_beta   90.00000000
_cell_angle_gamma   119.99998835
_symmetry_Int_Tables_number   1
_chemical_formula_structural   PrAl(FeSi)2
_chemical_formula_sum   'Pr2 Al2 Fe4 Si4'
_cell_volume   189.93337250
_cell_formula_units_Z   2
loop_
 _symmetry_equiv_pos_site_id
 _symmetry_equiv_pos_as_xyz
  1  'x, y, z'
loop_
 _atom_site_type_symbol
 _atom_site_label
 _atom_site_symmetry_multiplicity
 _atom_site_fract_x
 _atom_site_fract_y
 _atom_site_fract_z
 _atom_site_occupancy
  Pr  Pr0  1  0.000000  0.000000  0.250000  1
  Pr  Pr1  1  0.000000  0.000000  0.750000  1
  Al  Al2  1  0.000000  0.000000  0.000000  1
  Al  Al3  1  0.000000  0.000000  0.500000  1
  Fe  Fe4  1  0.666667  0.333334  0.063105  1
  Fe  Fe5  1  0.666667  0.333334  0.436896  1
  Fe  Fe6  1  0.333334  0.666667  0.563105  1
  Fe  Fe7  1  0.333334  0.666667  0.936895  1
  Si  Si8  1  0.333334  0.666667  0.105288  1
  Si  Si9  1  0.333334  0.666667  0.394712  1
  Si  Si10  1  0.666667  0.333334  0.605288  1
  Si  Si11  1  0.666667  0.333334  0.894712  1
