# generated using pymatgen
data_TbTmLuFe9
_symmetry_space_group_name_H-M   'P 1'
_cell_length_a   8.55572340
_cell_length_b   8.55572328
_cell_length_c   8.55572477
_cell_angle_alpha   34.51791883
_cell_angle_beta   34.51791959
_cell_angle_gamma   34.51792546
_symmetry_Int_Tables_number   1
_chemical_formula_structural   TbTmLuFe9
_chemical_formula_sum   'Tb1 Tm1 Lu1 Fe9'
_cell_volume   179.41528046
_cell_formula_units_Z   1
loop_
 _symmetry_equiv_pos_site_id
 _symmetry_equiv_pos_as_xyz
  1  'x, y, z'
loop_
 _atom_site_type_symbol
 _atom_site_label
 _atom_site_symmetry_multiplicity
 _atom_site_fract_x
 _atom_site_fract_y
 _atom_site_fract_z
 _atom_site_occupancy
  Tb  Tb0  1  0.999933  0.999933  0.999933  1
  Tm  Tm1  1  0.142258  0.142258  0.142258  1
  Lu  Lu2  1  0.857819  0.857819  0.857819  1
  Fe  Fe3  1  0.500015  0.500015  0.500015  1
  Fe  Fe4  1  0.332674  0.332674  0.332674  1
  Fe  Fe5  1  0.667372  0.667372  0.667372  1
  Fe  Fe6  1  0.082559  0.582913  0.582913  1
  Fe  Fe7  1  0.582913  0.582913  0.082559  1
  Fe  Fe8  1  0.582913  0.082559  0.582913  1
  Fe  Fe9  1  0.417133  0.917280  0.417133  1
  Fe  Fe10  1  0.917280  0.417133  0.417133  1
  Fe  Fe11  1  0.417133  0.417133  0.917280  1
