# generated using pymatgen
data_Lu2Sc2ReB12Ir
_symmetry_space_group_name_H-M   'P 1'
_cell_length_a   3.55490600
_cell_length_b   8.93500125
_cell_length_c   11.31346932
_cell_angle_alpha   90.11960350
_cell_angle_beta   90.00000000
_cell_angle_gamma   90.00000000
_symmetry_Int_Tables_number   1
_chemical_formula_structural   Lu2Sc2ReB12Ir
_chemical_formula_sum   'Lu4 Sc4 Re2 B24 Ir2'
_cell_volume   359.34995618
_cell_formula_units_Z   2
loop_
 _symmetry_equiv_pos_site_id
 _symmetry_equiv_pos_as_xyz
  1  'x, y, z'
loop_
 _atom_site_type_symbol
 _atom_site_label
 _atom_site_symmetry_multiplicity
 _atom_site_fract_x
 _atom_site_fract_y
 _atom_site_fract_z
 _atom_site_occupancy
  Lu  Lu0  1  0.500000  0.314202  0.410331  1
  Lu  Lu1  1  0.500000  0.685798  0.589669  1
  Lu  Lu2  1  0.500000  0.176797  0.917360  1
  Lu  Lu3  1  0.500000  0.823203  0.082640  1
  Sc  Sc4  1  0.500000  0.442102  0.124435  1
  Sc  Sc5  1  0.500000  0.557898  0.875565  1
  Sc  Sc6  1  0.500000  0.052348  0.626605  1
  Sc  Sc7  1  0.500000  0.947652  0.373395  1
  Re  Re8  1  0.500000  0.139832  0.181742  1
  Re  Re9  1  0.500000  0.860168  0.818258  1
  B  B10  1  0.000000  0.100886  0.472816  1
  B  B11  1  0.000000  0.899114  0.527184  1
  B  B12  1  0.000000  0.399126  0.972020  1
  B  B13  1  0.000000  0.600874  0.027980  1
  B  B14  1  0.000000  0.128901  0.317129  1
  B  B15  1  0.000000  0.871099  0.682871  1
  B  B16  1  0.000000  0.370733  0.818431  1
  B  B17  1  0.000000  0.629267  0.181569  1
  B  B18  1  0.000000  0.053312  0.066398  1
  B  B19  1  0.000000  0.946688  0.933602  1
  B  B20  1  0.000000  0.445497  0.565123  1
  B  B21  1  0.000000  0.554503  0.434877  1
  B  B22  1  0.000000  0.480470  0.286509  1
  B  B23  1  0.000000  0.519530  0.713491  1
  B  B24  1  0.000000  0.020328  0.785970  1
  B  B25  1  0.000000  0.979672  0.214030  1
  B  B26  1  0.000000  0.251903  0.079986  1
  B  B27  1  0.000000  0.748097  0.920014  1
  B  B28  1  0.000000  0.246718  0.578513  1
  B  B29  1  0.000000  0.753282  0.421487  1
  B  B30  1  0.000000  0.294787  0.235187  1
  B  B31  1  0.000000  0.705213  0.764813  1
  B  B32  1  0.000000  0.206908  0.734934  1
  B  B33  1  0.000000  0.793092  0.265066  1
  Ir  Ir34  1  0.500000  0.361295  0.679446  1
  Ir  Ir35  1  0.500000  0.638705  0.320554  1
