# generated using pymatgen
data_Tb4Pr16Ir11Ru
_symmetry_space_group_name_H-M   'P 1'
_cell_length_a   11.26617200
_cell_length_b   11.26617200
_cell_length_c   6.57031000
_cell_angle_alpha   90.00000000
_cell_angle_beta   90.00000000
_cell_angle_gamma   90.00000000
_symmetry_Int_Tables_number   1
_chemical_formula_structural   Tb4Pr16Ir11Ru
_chemical_formula_sum   'Tb4 Pr16 Ir11 Ru1'
_cell_volume   833.94731643
_cell_formula_units_Z   1
loop_
 _symmetry_equiv_pos_site_id
 _symmetry_equiv_pos_as_xyz
  1  'x, y, z'
loop_
 _atom_site_type_symbol
 _atom_site_label
 _atom_site_symmetry_multiplicity
 _atom_site_fract_x
 _atom_site_fract_y
 _atom_site_fract_z
 _atom_site_occupancy
  Tb  Tb0  1  0.000000  0.000000  0.499392  1
  Tb  Tb1  1  0.000000  0.000000  0.999296  1
  Tb  Tb2  1  0.500000  0.500000  0.999296  1
  Tb  Tb3  1  0.500000  0.500000  0.499392  1
  Pr  Pr4  1  0.290211  0.087535  0.380986  1
  Pr  Pr5  1  0.290371  0.912492  0.883075  1
  Pr  Pr6  1  0.709629  0.087508  0.883075  1
  Pr  Pr7  1  0.709789  0.912465  0.380986  1
  Pr  Pr8  1  0.587508  0.790371  0.883075  1
  Pr  Pr9  1  0.587535  0.209789  0.380986  1
  Pr  Pr10  1  0.412465  0.790211  0.380986  1
  Pr  Pr11  1  0.412492  0.209629  0.883075  1
  Pr  Pr12  1  0.210893  0.411826  0.618605  1
  Pr  Pr13  1  0.210733  0.587997  0.118350  1
  Pr  Pr14  1  0.789267  0.412003  0.118350  1
  Pr  Pr15  1  0.789107  0.588174  0.618605  1
  Pr  Pr16  1  0.912003  0.710733  0.118350  1
  Pr  Pr17  1  0.911826  0.289107  0.618605  1
  Pr  Pr18  1  0.088174  0.710893  0.618605  1
  Pr  Pr19  1  0.087997  0.289267  0.118350  1
  Ir  Ir20  1  0.851617  0.148978  0.250022  1
  Ir  Ir21  1  0.851702  0.851157  0.749803  1
  Ir  Ir22  1  0.148298  0.148843  0.749803  1
  Ir  Ir23  1  0.148383  0.851022  0.250022  1
  Ir  Ir24  1  0.648843  0.351702  0.749803  1
  Ir  Ir25  1  0.648978  0.648383  0.250022  1
  Ir  Ir26  1  0.351022  0.351617  0.250022  1
  Ir  Ir27  1  0.351157  0.648298  0.749803  1
  Ir  Ir28  1  0.500000  0.000000  0.618296  1
  Ir  Ir29  1  0.000000  0.500000  0.881495  1
  Ir  Ir30  1  0.000000  0.500000  0.381738  1
  Ru  Ru31  1  0.500000  0.000000  0.117733  1
