# generated using pymatgen
data_Tb3Al12Ir3Ru
_symmetry_space_group_name_H-M   'P 1'
_cell_length_a   8.84277300
_cell_length_b   8.84277270
_cell_length_c   9.49967800
_cell_angle_alpha   90.00000000
_cell_angle_beta   90.00000000
_cell_angle_gamma   119.99999738
_symmetry_Int_Tables_number   1
_chemical_formula_structural   Tb3Al12Ir3Ru
_chemical_formula_sum   'Tb6 Al24 Ir6 Ru2'
_cell_volume   643.30431757
_cell_formula_units_Z   2
loop_
 _symmetry_equiv_pos_site_id
 _symmetry_equiv_pos_as_xyz
  1  'x, y, z'
loop_
 _atom_site_type_symbol
 _atom_site_label
 _atom_site_symmetry_multiplicity
 _atom_site_fract_x
 _atom_site_fract_y
 _atom_site_fract_z
 _atom_site_occupancy
  Tb  Tb0  1  0.383863  0.191931  0.250000  1
  Tb  Tb1  1  0.808069  0.191931  0.250000  1
  Tb  Tb2  1  0.808069  0.616137  0.250000  1
  Tb  Tb3  1  0.616137  0.808069  0.750000  1
  Tb  Tb4  1  0.191931  0.808069  0.750000  1
  Tb  Tb5  1  0.191931  0.383863  0.750000  1
  Al  Al6  1  0.437552  0.875103  0.250000  1
  Al  Al7  1  0.124897  0.562448  0.250000  1
  Al  Al8  1  0.437552  0.562448  0.250000  1
  Al  Al9  1  0.562448  0.124897  0.750000  1
  Al  Al10  1  0.875103  0.437552  0.750000  1
  Al  Al11  1  0.562448  0.437552  0.750000  1
  Al  Al12  1  0.163021  0.836979  0.423769  1
  Al  Al13  1  0.163021  0.326043  0.423769  1
  Al  Al14  1  0.673957  0.836979  0.423769  1
  Al  Al15  1  0.836979  0.163021  0.576231  1
  Al  Al16  1  0.836979  0.673957  0.576231  1
  Al  Al17  1  0.326043  0.163021  0.576231  1
  Al  Al18  1  0.836979  0.163021  0.923769  1
  Al  Al19  1  0.836979  0.673957  0.923769  1
  Al  Al20  1  0.326043  0.163021  0.923769  1
  Al  Al21  1  0.163021  0.836979  0.076231  1
  Al  Al22  1  0.163021  0.326043  0.076231  1
  Al  Al23  1  0.673957  0.836979  0.076231  1
  Al  Al24  1  0.333333  0.666667  0.528679  1
  Al  Al25  1  0.666667  0.333333  0.471321  1
  Al  Al26  1  0.666667  0.333333  0.028679  1
  Al  Al27  1  0.333333  0.666667  0.971321  1
  Al  Al28  1  0.000000  0.000000  0.250000  1
  Al  Al29  1  0.000000  0.000000  0.750000  1
  Ir  Ir30  1  0.500000  0.000000  0.500000  1
  Ir  Ir31  1  0.000000  0.500000  0.500000  1
  Ir  Ir32  1  0.500000  0.500000  0.500000  1
  Ir  Ir33  1  0.500000  0.000000  0.000000  1
  Ir  Ir34  1  0.000000  0.500000  0.000000  1
  Ir  Ir35  1  0.500000  0.500000  0.000000  1
  Ru  Ru36  1  0.000000  0.000000  0.500000  1
  Ru  Ru37  1  0.000000  0.000000  0.000000  1
