# generated using pymatgen
data_Nd2NiPt9
_symmetry_space_group_name_H-M   'P 1'
_cell_length_a   4.42619000
_cell_length_b   5.45151900
_cell_length_c   9.14541700
_cell_angle_alpha   90.00000000
_cell_angle_beta   90.00000000
_cell_angle_gamma   90.00000000
_symmetry_Int_Tables_number   1
_chemical_formula_structural   Nd2NiPt9
_chemical_formula_sum   'Nd2 Ni1 Pt9'
_cell_volume   220.67396347
_cell_formula_units_Z   1
loop_
 _symmetry_equiv_pos_site_id
 _symmetry_equiv_pos_as_xyz
  1  'x, y, z'
loop_
 _atom_site_type_symbol
 _atom_site_label
 _atom_site_symmetry_multiplicity
 _atom_site_fract_x
 _atom_site_fract_y
 _atom_site_fract_z
 _atom_site_occupancy
  Nd  Nd0  1  0.000000  0.000000  0.500000  1
  Nd  Nd1  1  0.000000  0.500000  0.000000  1
  Ni  Ni2  1  0.500000  0.000000  0.000000  1
  Pt  Pt3  1  0.000000  0.500000  0.331204  1
  Pt  Pt4  1  0.000000  0.000000  0.841800  1
  Pt  Pt5  1  0.000000  0.000000  0.158200  1
  Pt  Pt6  1  0.000000  0.500000  0.668796  1
  Pt  Pt7  1  0.500000  0.500000  0.500000  1
  Pt  Pt8  1  0.500000  0.750813  0.240696  1
  Pt  Pt9  1  0.500000  0.249187  0.759304  1
  Pt  Pt10  1  0.500000  0.249187  0.240696  1
  Pt  Pt11  1  0.500000  0.750813  0.759304  1
