# generated using pymatgen
data_Tb2Lu3Ru2
_symmetry_space_group_name_H-M   'P 1'
_cell_length_a   6.26091354
_cell_length_b   7.23648823
_cell_length_c   8.36546989
_cell_angle_alpha   97.05011772
_cell_angle_beta   111.97560704
_cell_angle_gamma   89.99999288
_symmetry_Int_Tables_number   1
_chemical_formula_structural   Tb2Lu3Ru2
_chemical_formula_sum   'Tb4 Lu6 Ru4'
_cell_volume   348.38450201
_cell_formula_units_Z   2
loop_
 _symmetry_equiv_pos_site_id
 _symmetry_equiv_pos_as_xyz
  1  'x, y, z'
loop_
 _atom_site_type_symbol
 _atom_site_label
 _atom_site_symmetry_multiplicity
 _atom_site_fract_x
 _atom_site_fract_y
 _atom_site_fract_z
 _atom_site_occupancy
  Tb  Tb0  1  0.522567  0.082601  0.810415  1
  Tb  Tb1  1  0.477433  0.917399  0.189585  1
  Tb  Tb2  1  0.712152  0.417399  0.189585  1
  Tb  Tb3  1  0.287848  0.582601  0.810415  1
  Lu  Lu4  1  0.299737  0.313609  0.433201  1
  Lu  Lu5  1  0.700263  0.686391  0.566799  1
  Lu  Lu6  1  0.866537  0.186391  0.566799  1
  Lu  Lu7  1  0.133463  0.813609  0.433201  1
  Lu  Lu8  1  0.079842  0.250000  0.000000  1
  Lu  Lu9  1  0.920158  0.750000  0.000000  1
  Ru  Ru10  1  0.318682  0.575986  0.222412  1
  Ru  Ru11  1  0.681318  0.424014  0.777588  1
  Ru  Ru12  1  0.096271  0.924014  0.777588  1
  Ru  Ru13  1  0.903729  0.075986  0.222412  1
