# generated using pymatgen
data_HoLu9(Co2Ag)2
_symmetry_space_group_name_H-M   'P 1'
_cell_length_a   8.35949741
_cell_length_b   8.40609902
_cell_length_c   8.38581925
_cell_angle_alpha   127.81133799
_cell_angle_beta   127.65522798
_cell_angle_gamma   77.03163883
_symmetry_Int_Tables_number   1
_chemical_formula_structural   HoLu9(Co2Ag)2
_chemical_formula_sum   'Ho1 Lu9 Co4 Ag2'
_cell_volume   357.80363155
_cell_formula_units_Z   1
loop_
 _symmetry_equiv_pos_site_id
 _symmetry_equiv_pos_as_xyz
  1  'x, y, z'
loop_
 _atom_site_type_symbol
 _atom_site_label
 _atom_site_symmetry_multiplicity
 _atom_site_fract_x
 _atom_site_fract_y
 _atom_site_fract_z
 _atom_site_occupancy
  Ho  Ho0  1  0.974814  0.795362  0.500000  1
  Lu  Lu1  1  0.705449  0.526747  0.500000  1
  Lu  Lu2  1  0.473967  0.972996  0.180133  1
  Lu  Lu3  1  0.793835  0.292863  0.819867  1
  Lu  Lu4  1  0.526814  0.027020  0.820695  1
  Lu  Lu5  1  0.000185  0.000190  0.001171  1
  Lu  Lu6  1  0.026355  0.207845  0.500000  1
  Lu  Lu7  1  0.295052  0.471486  0.500000  1
  Lu  Lu8  1  0.206119  0.706325  0.179305  1
  Lu  Lu9  1  0.499014  0.499019  0.998829  1
  Co  Co10  1  0.136632  0.636155  0.773866  1
  Co  Co11  1  0.862765  0.362287  0.226134  1
  Co  Co12  1  0.635881  0.863972  0.500000  1
  Co  Co13  1  0.363515  0.135391  0.500000  1
  Ag  Ag14  1  0.251465  0.252835  0.003328  1
  Ag  Ag15  1  0.748137  0.749507  0.996672  1
