# generated using pymatgen
data_Ho12Co4AgOs
_symmetry_space_group_name_H-M   'P 1'
_cell_length_a   8.20335852
_cell_length_b   8.20355482
_cell_length_c   8.20335880
_cell_angle_alpha   111.33436139
_cell_angle_beta   110.11807994
_cell_angle_gamma   106.99080279
_symmetry_Int_Tables_number   1
_chemical_formula_structural   Ho12Co4AgOs
_chemical_formula_sum   'Ho12 Co4 Ag1 Os1'
_cell_volume   424.33622285
_cell_formula_units_Z   1
loop_
 _symmetry_equiv_pos_site_id
 _symmetry_equiv_pos_as_xyz
  1  'x, y, z'
loop_
 _atom_site_type_symbol
 _atom_site_label
 _atom_site_symmetry_multiplicity
 _atom_site_fract_x
 _atom_site_fract_y
 _atom_site_fract_z
 _atom_site_occupancy
  Ho  Ho0  1  0.959631  0.269057  0.690570  1
  Ho  Ho1  1  0.040369  0.730943  0.309430  1
  Ho  Ho2  1  0.677142  0.863630  0.186488  1
  Ho  Ho3  1  0.322851  0.509324  0.186472  1
  Ho  Ho4  1  0.322858  0.136370  0.813512  1
  Ho  Ho5  1  0.677149  0.490676  0.813528  1
  Ho  Ho6  1  0.578486  0.269057  0.309426  1
  Ho  Ho7  1  0.421514  0.730943  0.690574  1
  Ho  Ho8  1  0.176898  0.772767  0.949668  1
  Ho  Ho9  1  0.823099  0.772767  0.595869  1
  Ho  Ho10  1  0.176901  0.227233  0.404131  1
  Ho  Ho11  1  0.823102  0.227233  0.050332  1
  Co  Co12  1  0.113814  0.113818  0.000004  1
  Co  Co13  1  0.886186  0.886182  0.999996  1
  Co  Co14  1  0.657843  0.500000  0.157843  1
  Co  Co15  1  0.342157  0.500000  0.842157  1
  Ag  Ag16  1  0.500000  0.000000  0.500000  1
  Os  Os17  1  0.000000  0.500000  0.500000  1
