# generated using pymatgen
data_Ta5BeCo5B4
_symmetry_space_group_name_H-M   'P 1'
_cell_length_a   3.30005800
_cell_length_b   5.92415700
_cell_length_c   17.09477300
_cell_angle_alpha   90.00000000
_cell_angle_beta   90.00000000
_cell_angle_gamma   90.00000000
_symmetry_Int_Tables_number   1
_chemical_formula_structural   Ta5BeCo5B4
_chemical_formula_sum   'Ta10 Be2 Co10 B8'
_cell_volume   334.20386692
_cell_formula_units_Z   2
loop_
 _symmetry_equiv_pos_site_id
 _symmetry_equiv_pos_as_xyz
  1  'x, y, z'
loop_
 _atom_site_type_symbol
 _atom_site_label
 _atom_site_symmetry_multiplicity
 _atom_site_fract_x
 _atom_site_fract_y
 _atom_site_fract_z
 _atom_site_occupancy
  Ta  Ta0  1  0.000000  0.472314  0.320946  1
  Ta  Ta1  1  0.000000  0.472314  0.679054  1
  Ta  Ta2  1  0.500000  0.527686  0.179054  1
  Ta  Ta3  1  0.500000  0.527686  0.820946  1
  Ta  Ta4  1  0.000000  0.979099  0.372965  1
  Ta  Ta5  1  0.000000  0.979099  0.627035  1
  Ta  Ta6  1  0.500000  0.020901  0.127035  1
  Ta  Ta7  1  0.500000  0.020901  0.872965  1
  Ta  Ta8  1  0.000000  0.349145  0.500000  1
  Ta  Ta9  1  0.500000  0.650855  0.000000  1
  Be  Be10  1  0.000000  0.768987  0.500000  1
  Be  Be11  1  0.500000  0.231013  0.000000  1
  Co  Co12  1  0.000000  0.855461  0.226116  1
  Co  Co13  1  0.000000  0.855461  0.773884  1
  Co  Co14  1  0.500000  0.144539  0.273884  1
  Co  Co15  1  0.500000  0.144539  0.726116  1
  Co  Co16  1  0.000000  0.353701  0.073353  1
  Co  Co17  1  0.000000  0.353701  0.926647  1
  Co  Co18  1  0.500000  0.646299  0.426647  1
  Co  Co19  1  0.500000  0.646299  0.573353  1
  Co  Co20  1  0.000000  0.984934  0.000000  1
  Co  Co21  1  0.500000  0.015066  0.500000  1
  B  B22  1  0.000000  0.234493  0.202187  1
  B  B23  1  0.000000  0.234493  0.797813  1
  B  B24  1  0.500000  0.765507  0.297813  1
  B  B25  1  0.500000  0.765507  0.702187  1
  B  B26  1  0.000000  0.729076  0.101545  1
  B  B27  1  0.000000  0.729076  0.898455  1
  B  B28  1  0.500000  0.270924  0.398455  1
  B  B29  1  0.500000  0.270924  0.601545  1
