# generated using pymatgen
data_NaTeAsO6
_symmetry_space_group_name_H-M   'P 1'
_cell_length_a   4.96624900
_cell_length_b   4.96625066
_cell_length_c   6.00822500
_cell_angle_alpha   90.00000000
_cell_angle_beta   90.00000000
_cell_angle_gamma   119.99998229
_symmetry_Int_Tables_number   1
_chemical_formula_structural   NaTeAsO6
_chemical_formula_sum   'Na1 Te1 As1 O6'
_cell_volume   128.33172252
_cell_formula_units_Z   1
loop_
 _symmetry_equiv_pos_site_id
 _symmetry_equiv_pos_as_xyz
  1  'x, y, z'
loop_
 _atom_site_type_symbol
 _atom_site_label
 _atom_site_symmetry_multiplicity
 _atom_site_fract_x
 _atom_site_fract_y
 _atom_site_fract_z
 _atom_site_occupancy
  Na  Na0  1  0.000000  0.000000  0.000000  1
  Te  Te1  1  0.666667  0.333333  0.500000  1
  As  As2  1  0.333333  0.666667  0.500000  1
  O  O3  1  0.365778  0.987438  0.681565  1
  O  O4  1  0.012562  0.378341  0.681565  1
  O  O5  1  0.621659  0.634222  0.681565  1
  O  O6  1  0.012562  0.634222  0.318435  1
  O  O7  1  0.621659  0.987438  0.318435  1
  O  O8  1  0.365778  0.378341  0.318435  1
