# generated using pymatgen
data_Er9TmPt8
_symmetry_space_group_name_H-M   'P 1'
_cell_length_a   7.38494500
_cell_length_b   14.71972100
_cell_length_c   7.48621300
_cell_angle_alpha   90.00000000
_cell_angle_beta   90.00000000
_cell_angle_gamma   90.00000000
_symmetry_Int_Tables_number   1
_chemical_formula_structural   Er9TmPt8
_chemical_formula_sum   'Er18 Tm2 Pt16'
_cell_volume   813.78376840
_cell_formula_units_Z   2
loop_
 _symmetry_equiv_pos_site_id
 _symmetry_equiv_pos_as_xyz
  1  'x, y, z'
loop_
 _atom_site_type_symbol
 _atom_site_label
 _atom_site_symmetry_multiplicity
 _atom_site_fract_x
 _atom_site_fract_y
 _atom_site_fract_z
 _atom_site_occupancy
  Er  Er0  1  0.642128  0.122145  0.167694  1
  Er  Er1  1  0.642128  0.377855  0.167694  1
  Er  Er2  1  0.012544  0.593451  0.177043  1
  Er  Er3  1  0.012544  0.906549  0.177043  1
  Er  Er4  1  0.512542  0.593451  0.322957  1
  Er  Er5  1  0.512542  0.906549  0.322957  1
  Er  Er6  1  0.142128  0.122145  0.332306  1
  Er  Er7  1  0.142128  0.377855  0.332306  1
  Er  Er8  1  0.802998  0.250000  0.511394  1
  Er  Er9  1  0.857929  0.622378  0.667747  1
  Er  Er10  1  0.857929  0.877622  0.667747  1
  Er  Er11  1  0.487437  0.093119  0.677000  1
  Er  Er12  1  0.487437  0.406881  0.677000  1
  Er  Er13  1  0.987437  0.093119  0.823001  1
  Er  Er14  1  0.987437  0.406881  0.823001  1
  Er  Er15  1  0.357929  0.622378  0.832254  1
  Er  Er16  1  0.357929  0.877622  0.832254  1
  Er  Er17  1  0.302997  0.250000  0.988605  1
  Tm  Tm18  1  0.697108  0.750000  0.011362  1
  Tm  Tm19  1  0.197108  0.750000  0.488640  1
  Pt  Pt20  1  0.306319  0.041115  0.030880  1
  Pt  Pt21  1  0.306319  0.458885  0.030880  1
  Pt  Pt22  1  0.936936  0.250000  0.111125  1
  Pt  Pt23  1  0.337739  0.750000  0.144734  1
  Pt  Pt24  1  0.837739  0.750000  0.355266  1
  Pt  Pt25  1  0.436936  0.250000  0.388875  1
  Pt  Pt26  1  0.806319  0.041115  0.469120  1
  Pt  Pt27  1  0.806319  0.458885  0.469120  1
  Pt  Pt28  1  0.193645  0.541424  0.530768  1
  Pt  Pt29  1  0.193645  0.958576  0.530768  1
  Pt  Pt30  1  0.562624  0.750000  0.611118  1
  Pt  Pt31  1  0.162591  0.250000  0.644395  1
  Pt  Pt32  1  0.662590  0.250000  0.855606  1
  Pt  Pt33  1  0.062624  0.750000  0.888882  1
  Pt  Pt34  1  0.693644  0.541424  0.969231  1
  Pt  Pt35  1  0.693644  0.958576  0.969231  1
