# generated using pymatgen
data_YbTh(Ni2B)12
_symmetry_space_group_name_H-M   'P 1'
_cell_length_a   6.03379515
_cell_length_b   6.03379470
_cell_length_c   10.99320748
_cell_angle_alpha   90.01150608
_cell_angle_beta   90.01150518
_cell_angle_gamma   104.71838981
_symmetry_Int_Tables_number   1
_chemical_formula_structural   YbTh(Ni2B)12
_chemical_formula_sum   'Yb1 Th1 Ni24 B12'
_cell_volume   387.09325885
_cell_formula_units_Z   1
loop_
 _symmetry_equiv_pos_site_id
 _symmetry_equiv_pos_as_xyz
  1  'x, y, z'
loop_
 _atom_site_type_symbol
 _atom_site_label
 _atom_site_symmetry_multiplicity
 _atom_site_fract_x
 _atom_site_fract_y
 _atom_site_fract_z
 _atom_site_occupancy
  Yb  Yb0  1  0.833057  0.833057  0.000705  1
  Th  Th1  1  0.168784  0.168784  0.503335  1
  Ni  Ni2  1  0.996056  0.631530  0.562566  1
  Ni  Ni3  1  0.730239  0.343094  0.432171  1
  Ni  Ni4  1  0.343094  0.730239  0.432171  1
  Ni  Ni5  1  0.656938  0.270144  0.932989  1
  Ni  Ni6  1  0.002639  0.369049  0.063044  1
  Ni  Ni7  1  0.369049  0.002639  0.063044  1
  Ni  Ni8  1  0.631530  0.996056  0.562566  1
  Ni  Ni9  1  0.432999  0.432999  0.082188  1
  Ni  Ni10  1  0.211986  0.473983  0.723829  1
  Ni  Ni11  1  0.788366  0.526285  0.223816  1
  Ni  Ni12  1  0.526285  0.788366  0.223816  1
  Ni  Ni13  1  0.473983  0.211986  0.723829  1
  Ni  Ni14  1  0.566548  0.566548  0.581768  1
  Ni  Ni15  1  0.218581  0.218581  0.901822  1
  Ni  Ni16  1  0.146065  0.880333  0.744897  1
  Ni  Ni17  1  0.854945  0.117547  0.243612  1
  Ni  Ni18  1  0.117547  0.854945  0.243612  1
  Ni  Ni19  1  0.880333  0.146065  0.744897  1
  Ni  Ni20  1  0.542823  0.804432  0.766810  1
  Ni  Ni21  1  0.456727  0.194321  0.266086  1
  Ni  Ni22  1  0.194321  0.456727  0.266086  1
  Ni  Ni23  1  0.804432  0.542823  0.766810  1
  Ni  Ni24  1  0.782492  0.782492  0.400046  1
  Ni  Ni25  1  0.270144  0.656938  0.932989  1
  B  B26  1  0.398504  0.986942  0.877552  1
  B  B27  1  0.600163  0.013381  0.377737  1
  B  B28  1  0.013381  0.600163  0.377737  1
  B  B29  1  0.986942  0.398504  0.877552  1
  B  B30  1  0.326650  0.757235  0.615230  1
  B  B31  1  0.673300  0.243974  0.114866  1
  B  B32  1  0.243974  0.673300  0.114866  1
  B  B33  1  0.757235  0.326650  0.615230  1
  B  B34  1  0.512756  0.512756  0.342642  1
  B  B35  1  0.485536  0.485536  0.844521  1
  B  B36  1  0.164959  0.164959  0.161310  1
  B  B37  1  0.836637  0.836637  0.665255  1
