# generated using pymatgen
data_Tb3HoAl18CuRh5
_symmetry_space_group_name_H-M   'P 1'
_cell_length_a   7.57196880
_cell_length_b   7.57056874
_cell_length_c   9.44296173
_cell_angle_alpha   90.08179586
_cell_angle_beta   90.03797588
_cell_angle_gamma   119.57658441
_symmetry_Int_Tables_number   1
_chemical_formula_structural   Tb3HoAl18CuRh5
_chemical_formula_sum   'Tb3 Ho1 Al18 Cu1 Rh5'
_cell_volume   470.77393112
_cell_formula_units_Z   1
loop_
 _symmetry_equiv_pos_site_id
 _symmetry_equiv_pos_as_xyz
  1  'x, y, z'
loop_
 _atom_site_type_symbol
 _atom_site_label
 _atom_site_symmetry_multiplicity
 _atom_site_fract_x
 _atom_site_fract_y
 _atom_site_fract_z
 _atom_site_occupancy
  Tb  Tb0  1  0.005158  0.328117  0.750430  1
  Tb  Tb1  1  0.672008  0.994752  0.249606  1
  Tb  Tb2  1  0.328046  0.005128  0.750456  1
  Ho  Ho3  1  0.994855  0.671967  0.249757  1
  Al  Al4  1  0.128888  0.128399  0.251428  1
  Al  Al5  1  0.870872  0.870793  0.748584  1
  Al  Al6  1  0.000809  0.338750  0.077316  1
  Al  Al7  1  0.999217  0.661960  0.923601  1
  Al  Al8  1  0.000033  0.665250  0.573661  1
  Al  Al9  1  0.334022  0.999306  0.425424  1
  Al  Al10  1  0.999967  0.335347  0.425456  1
  Al  Al11  1  0.665282  0.000017  0.574233  1
  Al  Al12  1  0.661881  0.999174  0.923027  1
  Al  Al13  1  0.337399  0.000175  0.077241  1
  Al  Al14  1  0.333224  0.333178  0.550328  1
  Al  Al15  1  0.667359  0.666802  0.449259  1
  Al  Al16  1  0.664753  0.664183  0.052100  1
  Al  Al17  1  0.335826  0.335800  0.948327  1
  Al  Al18  1  0.338861  0.549557  0.250379  1
  Al  Al19  1  0.660737  0.450689  0.749632  1
  Al  Al20  1  0.550177  0.339894  0.250395  1
  Al  Al21  1  0.450693  0.660705  0.749619  1
  Cu  Cu22  1  0.999998  0.999906  0.000063  1
  Rh  Rh23  1  0.672198  0.328399  0.000334  1
  Rh  Rh24  1  0.327796  0.671866  0.000304  1
  Rh  Rh25  1  0.327781  0.671928  0.499702  1
  Rh  Rh26  1  0.672238  0.328344  0.499676  1
  Rh  Rh27  1  0.999923  0.999614  0.499661  1
