# generated using pymatgen
data_Na4DyZr3(Ni4As3)4
_symmetry_space_group_name_H-M   'P 1'
_cell_length_a   12.76794187
_cell_length_b   12.76794115
_cell_length_c   3.90560600
_cell_angle_alpha   90.00000000
_cell_angle_beta   90.00000000
_cell_angle_gamma   119.81374093
_symmetry_Int_Tables_number   1
_chemical_formula_structural   Na4DyZr3(Ni4As3)4
_chemical_formula_sum   'Na4 Dy1 Zr3 Ni16 As12'
_cell_volume   552.42444501
_cell_formula_units_Z   1
loop_
 _symmetry_equiv_pos_site_id
 _symmetry_equiv_pos_as_xyz
  1  'x, y, z'
loop_
 _atom_site_type_symbol
 _atom_site_label
 _atom_site_symmetry_multiplicity
 _atom_site_fract_x
 _atom_site_fract_y
 _atom_site_fract_z
 _atom_site_occupancy
  Na  Na0  1  0.819829  0.999552  0.500000  1
  Na  Na1  1  0.999552  0.819829  0.500000  1
  Na  Na2  1  0.332806  0.665652  0.000000  1
  Na  Na3  1  0.665652  0.332806  0.000000  1
  Dy  Dy4  1  0.180258  0.180258  0.500000  1
  Zr  Zr5  1  0.560950  0.560950  0.000000  1
  Zr  Zr6  1  0.440555  0.000007  0.000000  1
  Zr  Zr7  1  0.000007  0.440555  0.000000  1
  Ni  Ni8  1  0.723028  0.723028  0.500000  1
  Ni  Ni9  1  0.278393  0.000893  0.500000  1
  Ni  Ni10  1  0.000893  0.278393  0.500000  1
  Ni  Ni11  1  0.181032  0.373988  0.000000  1
  Ni  Ni12  1  0.623002  0.804961  0.000000  1
  Ni  Ni13  1  0.195507  0.815124  0.000000  1
  Ni  Ni14  1  0.804961  0.623002  0.000000  1
  Ni  Ni15  1  0.815124  0.195507  0.000000  1
  Ni  Ni16  1  0.373988  0.181032  0.000000  1
  Ni  Ni17  1  0.357666  0.478587  0.500000  1
  Ni  Ni18  1  0.521550  0.878903  0.500000  1
  Ni  Ni19  1  0.120711  0.643014  0.500000  1
  Ni  Ni20  1  0.878903  0.521550  0.500000  1
  Ni  Ni21  1  0.643014  0.120711  0.500000  1
  Ni  Ni22  1  0.478587  0.357666  0.500000  1
  Ni  Ni23  1  0.002598  0.002598  0.000000  1
  As  As24  1  0.822888  0.822888  0.000000  1
  As  As25  1  0.178221  0.997306  0.000000  1
  As  As26  1  0.997306  0.178221  0.000000  1
  As  As27  1  0.171772  0.480640  0.500000  1
  As  As28  1  0.518660  0.691056  0.500000  1
  As  As29  1  0.309598  0.827894  0.500000  1
  As  As30  1  0.691056  0.518660  0.500000  1
  As  As31  1  0.827894  0.309598  0.500000  1
  As  As32  1  0.480640  0.171772  0.500000  1
  As  As33  1  0.353922  0.353922  0.000000  1
  As  As34  1  0.649599  0.999878  0.000000  1
  As  As35  1  0.999878  0.649599  0.000000  1
