# generated using pymatgen
data_Dy2LuAl3GeAu2
_symmetry_space_group_name_H-M   'P 1'
_cell_length_a   7.00368420
_cell_length_b   7.05357018
_cell_length_c   4.30354200
_cell_angle_alpha   90.00000000
_cell_angle_beta   90.00000000
_cell_angle_gamma   120.01181998
_symmetry_Int_Tables_number   1
_chemical_formula_structural   Dy2LuAl3GeAu2
_chemical_formula_sum   'Dy2 Lu1 Al3 Ge1 Au2'
_cell_volume   184.09436079
_cell_formula_units_Z   1
loop_
 _symmetry_equiv_pos_site_id
 _symmetry_equiv_pos_as_xyz
  1  'x, y, z'
loop_
 _atom_site_type_symbol
 _atom_site_label
 _atom_site_symmetry_multiplicity
 _atom_site_fract_x
 _atom_site_fract_y
 _atom_site_fract_z
 _atom_site_occupancy
  Dy  Dy0  1  0.422591  0.422054  0.500000  1
  Dy  Dy1  1  0.578455  0.002520  0.500000  1
  Lu  Lu2  1  0.002281  0.580381  0.500000  1
  Al  Al3  1  0.751392  0.763845  0.000000  1
  Al  Al4  1  0.235545  0.987088  0.000000  1
  Al  Al5  1  0.010749  0.248305  0.000000  1
  Ge  Ge6  1  0.670911  0.335795  0.000000  1
  Au  Au7  1  0.327983  0.664960  0.000000  1
  Au  Au8  1  0.000093  0.995053  0.500000  1
