# generated using pymatgen
data_Li2NdErBiPb
_symmetry_space_group_name_H-M   'P 1'
_cell_length_a   4.84262900
_cell_length_b   4.84262911
_cell_length_c   7.34561800
_cell_angle_alpha   90.00000000
_cell_angle_beta   90.00000000
_cell_angle_gamma   120.00001972
_symmetry_Int_Tables_number   1
_chemical_formula_structural   Li2NdErBiPb
_chemical_formula_sum   'Li2 Nd1 Er1 Bi1 Pb1'
_cell_volume   149.18367182
_cell_formula_units_Z   1
loop_
 _symmetry_equiv_pos_site_id
 _symmetry_equiv_pos_as_xyz
  1  'x, y, z'
loop_
 _atom_site_type_symbol
 _atom_site_label
 _atom_site_symmetry_multiplicity
 _atom_site_fract_x
 _atom_site_fract_y
 _atom_site_fract_z
 _atom_site_occupancy
  Li  Li0  1  0.666667  0.333333  0.225721  1
  Li  Li1  1  0.333333  0.666667  0.773353  1
  Nd  Nd2  1  0.000000  0.000000  0.504570  1
  Er  Er3  1  0.000000  0.000000  0.994612  1
  Bi  Bi4  1  0.333333  0.666667  0.240483  1
  Pb  Pb5  1  0.666667  0.333333  0.761261  1
