# generated using pymatgen
data_Ba2PrPaO6
_symmetry_space_group_name_H-M   'P 1'
_cell_length_a   6.30847247
_cell_length_b   6.30847288
_cell_length_c   6.36056300
_cell_angle_alpha   59.84830362
_cell_angle_beta   59.84830147
_cell_angle_gamma   60.09642430
_symmetry_Int_Tables_number   1
_chemical_formula_structural   Ba2PrPaO6
_chemical_formula_sum   'Ba2 Pr1 Pa1 O6'
_cell_volume   178.70776414
_cell_formula_units_Z   1
loop_
 _symmetry_equiv_pos_site_id
 _symmetry_equiv_pos_as_xyz
  1  'x, y, z'
loop_
 _atom_site_type_symbol
 _atom_site_label
 _atom_site_symmetry_multiplicity
 _atom_site_fract_x
 _atom_site_fract_y
 _atom_site_fract_z
 _atom_site_occupancy
  Ba  Ba0  1  0.249545  0.249545  0.263076  1
  Ba  Ba1  1  0.750455  0.750455  0.736924  1
  Pr  Pr2  1  0.000000  0.000000  0.000000  1
  Pa  Pa3  1  0.500000  0.500000  0.500000  1
  O  O4  1  0.311046  0.792165  0.686574  1
  O  O5  1  0.207835  0.688954  0.313426  1
  O  O6  1  0.688954  0.207835  0.313426  1
  O  O7  1  0.792165  0.311046  0.686574  1
  O  O8  1  0.737686  0.737686  0.171016  1
  O  O9  1  0.262314  0.262314  0.828984  1
