# generated using pymatgen
data_ZnGaRhO4
_symmetry_space_group_name_H-M   'P 1'
_cell_length_a   6.04907211
_cell_length_b   6.00283448
_cell_length_c   6.04907170
_cell_angle_alpha   60.25253514
_cell_angle_beta   60.54084579
_cell_angle_gamma   60.25253363
_symmetry_Int_Tables_number   1
_chemical_formula_structural   ZnGaRhO4
_chemical_formula_sum   'Zn2 Ga2 Rh2 O8'
_cell_volume   156.53930898
_cell_formula_units_Z   2
loop_
 _symmetry_equiv_pos_site_id
 _symmetry_equiv_pos_as_xyz
  1  'x, y, z'
loop_
 _atom_site_type_symbol
 _atom_site_label
 _atom_site_symmetry_multiplicity
 _atom_site_fract_x
 _atom_site_fract_y
 _atom_site_fract_z
 _atom_site_occupancy
  Zn  Zn0  1  0.503493  0.496507  0.503493  1
  Zn  Zn1  1  0.746507  0.753493  0.746507  1
  Ga  Ga2  1  0.125000  0.125000  0.125000  1
  Ga  Ga3  1  0.125000  0.625000  0.125000  1
  Rh  Rh4  1  0.625000  0.125000  0.125000  1
  Rh  Rh5  1  0.125000  0.125000  0.625000  1
  O  O6  1  0.359396  0.372215  0.359396  1
  O  O7  1  0.341412  0.882344  0.893901  1
  O  O8  1  0.893901  0.882344  0.341412  1
  O  O9  1  0.890604  0.341007  0.890604  1
  O  O10  1  0.356099  0.367656  0.908588  1
  O  O11  1  0.359396  0.908993  0.359396  1
  O  O12  1  0.890604  0.877785  0.890604  1
  O  O13  1  0.908588  0.367656  0.356099  1
