# generated using pymatgen
data_Na2MoF5
_symmetry_space_group_name_H-M   'P 1'
_cell_length_a   5.58483000
_cell_length_b   7.73264642
_cell_length_c   11.44372971
_cell_angle_alpha   73.32950800
_cell_angle_beta   90.00000000
_cell_angle_gamma   90.00000000
_symmetry_Int_Tables_number   1
_chemical_formula_structural   Na2MoF5
_chemical_formula_sum   'Na8 Mo4 F20'
_cell_volume   473.43218051
_cell_formula_units_Z   4
loop_
 _symmetry_equiv_pos_site_id
 _symmetry_equiv_pos_as_xyz
  1  'x, y, z'
loop_
 _atom_site_type_symbol
 _atom_site_label
 _atom_site_symmetry_multiplicity
 _atom_site_fract_x
 _atom_site_fract_y
 _atom_site_fract_z
 _atom_site_occupancy
  Na  Na0  1  0.962802  0.352546  0.313947  1
  Na  Na1  1  0.462802  0.647454  0.186053  1
  Na  Na2  1  0.037198  0.647454  0.686053  1
  Na  Na3  1  0.537198  0.352546  0.813947  1
  Na  Na4  1  0.488369  0.141570  0.139521  1
  Na  Na5  1  0.988369  0.858430  0.360479  1
  Na  Na6  1  0.511631  0.858430  0.860479  1
  Na  Na7  1  0.011631  0.141570  0.639521  1
  Mo  Mo8  1  0.500000  0.500000  0.500000  1
  Mo  Mo9  1  0.000000  0.500000  0.000000  1
  Mo  Mo10  1  0.500000  0.000000  0.500000  1
  Mo  Mo11  1  0.000000  0.000000  0.000000  1
  F  F12  1  0.749548  0.471820  0.639746  1
  F  F13  1  0.249548  0.528180  0.860254  1
  F  F14  1  0.250452  0.528180  0.360254  1
  F  F15  1  0.750452  0.471820  0.139746  1
  F  F16  1  0.732268  0.625366  0.358607  1
  F  F17  1  0.232268  0.374634  0.141393  1
  F  F18  1  0.267732  0.374634  0.641393  1
  F  F19  1  0.767732  0.625366  0.858607  1
  F  F20  1  0.665439  0.251307  0.495752  1
  F  F21  1  0.165439  0.748693  0.004248  1
  F  F22  1  0.334561  0.748693  0.504248  1
  F  F23  1  0.834561  0.251307  0.995752  1
  F  F24  1  0.839691  0.051240  0.827238  1
  F  F25  1  0.339691  0.948760  0.672762  1
  F  F26  1  0.160309  0.948760  0.172762  1
  F  F27  1  0.660309  0.051240  0.327238  1
  F  F28  1  0.676900  0.884657  0.072609  1
  F  F29  1  0.176900  0.115343  0.427391  1
  F  F30  1  0.323100  0.115343  0.927391  1
  F  F31  1  0.823100  0.884657  0.572609  1
