# generated using pymatgen
data_Dy4Sc2Ga3Si
_symmetry_space_group_name_H-M   'P 1'
_cell_length_a   7.42388239
_cell_length_b   7.42388239
_cell_length_c   4.26231500
_cell_angle_alpha   90.00000000
_cell_angle_beta   90.00000000
_cell_angle_gamma   90.24076357
_symmetry_Int_Tables_number   1
_chemical_formula_structural   Dy4Sc2Ga3Si
_chemical_formula_sum   'Dy4 Sc2 Ga3 Si1'
_cell_volume   234.91128141
_cell_formula_units_Z   1
loop_
 _symmetry_equiv_pos_site_id
 _symmetry_equiv_pos_as_xyz
  1  'x, y, z'
loop_
 _atom_site_type_symbol
 _atom_site_label
 _atom_site_symmetry_multiplicity
 _atom_site_fract_x
 _atom_site_fract_y
 _atom_site_fract_z
 _atom_site_occupancy
  Dy  Dy0  1  0.172939  0.324315  0.500000  1
  Dy  Dy1  1  0.322695  0.822695  0.500000  1
  Dy  Dy2  1  0.680178  0.180178  0.500000  1
  Dy  Dy3  1  0.824315  0.672939  0.500000  1
  Sc  Sc4  1  0.999511  0.003198  0.000000  1
  Sc  Sc5  1  0.503198  0.499511  0.000000  1
  Ga  Ga6  1  0.120697  0.620697  0.000000  1
  Ga  Ga7  1  0.375922  0.123671  0.000000  1
  Ga  Ga8  1  0.623671  0.875922  0.000000  1
  Si  Si9  1  0.876874  0.376874  0.000000  1
