# generated using pymatgen
data_Sm3Dy(Sc4Bi3)4
_symmetry_space_group_name_H-M   'P 1'
_cell_length_a   7.93590701
_cell_length_b   9.07697300
_cell_length_c   11.62846701
_cell_angle_alpha   90.00000000
_cell_angle_beta   89.99487975
_cell_angle_gamma   90.00000000
_symmetry_Int_Tables_number   1
_chemical_formula_structural   Sm3Dy(Sc4Bi3)4
_chemical_formula_sum   'Sm3 Dy1 Sc16 Bi12'
_cell_volume   837.64514800
_cell_formula_units_Z   1
loop_
 _symmetry_equiv_pos_site_id
 _symmetry_equiv_pos_as_xyz
  1  'x, y, z'
loop_
 _atom_site_type_symbol
 _atom_site_label
 _atom_site_symmetry_multiplicity
 _atom_site_fract_x
 _atom_site_fract_y
 _atom_site_fract_z
 _atom_site_occupancy
  Sm  Sm0  1  0.316489  0.250000  0.219387  1
  Sm  Sm1  1  0.816423  0.250000  0.280616  1
  Sm  Sm2  1  0.683727  0.750000  0.780604  1
  Dy  Dy3  1  0.184185  0.750000  0.718671  1
  Sc  Sc4  1  0.348090  0.750000  0.220782  1
  Sc  Sc5  1  0.848266  0.750000  0.279230  1
  Sc  Sc6  1  0.651629  0.250000  0.778813  1
  Sc  Sc7  1  0.151868  0.250000  0.720970  1
  Sc  Sc8  1  0.692602  0.567274  0.062395  1
  Sc  Sc9  1  0.192836  0.932779  0.437868  1
  Sc  Sc10  1  0.307258  0.067292  0.937386  1
  Sc  Sc11  1  0.806949  0.432638  0.562448  1
  Sc  Sc12  1  0.307258  0.432708  0.937386  1
  Sc  Sc13  1  0.806949  0.067362  0.562448  1
  Sc  Sc14  1  0.692602  0.932726  0.062395  1
  Sc  Sc15  1  0.192836  0.567221  0.437868  1
  Sc  Sc16  1  0.481577  0.250000  0.489430  1
  Sc  Sc17  1  0.982063  0.250000  0.010633  1
  Sc  Sc18  1  0.517935  0.750000  0.511105  1
  Sc  Sc19  1  0.018411  0.750000  0.989058  1
  Bi  Bi20  1  0.400415  0.750000  0.968440  1
  Bi  Bi21  1  0.903332  0.750000  0.532168  1
  Bi  Bi22  1  0.598747  0.250000  0.030553  1
  Bi  Bi23  1  0.098475  0.250000  0.469394  1
  Bi  Bi24  1  0.563247  0.987200  0.329538  1
  Bi  Bi25  1  0.063124  0.512718  0.170601  1
  Bi  Bi26  1  0.434906  0.488836  0.670970  1
  Bi  Bi27  1  0.938263  0.011484  0.828866  1
  Bi  Bi28  1  0.434906  0.011164  0.670970  1
  Bi  Bi29  1  0.938263  0.488516  0.828866  1
  Bi  Bi30  1  0.563247  0.512800  0.329538  1
  Bi  Bi31  1  0.063124  0.987282  0.170601  1
