# generated using pymatgen
data_Th8Co3Si12Ni
_symmetry_space_group_name_H-M   'P 1'
_cell_length_a   8.08057200
_cell_length_b   8.08057232
_cell_length_c   8.42458500
_cell_angle_alpha   90.00000000
_cell_angle_beta   90.00000000
_cell_angle_gamma   119.99999869
_symmetry_Int_Tables_number   1
_chemical_formula_structural   Th8Co3Si12Ni
_chemical_formula_sum   'Th8 Co3 Si12 Ni1'
_cell_volume   476.39081527
_cell_formula_units_Z   1
loop_
 _symmetry_equiv_pos_site_id
 _symmetry_equiv_pos_as_xyz
  1  'x, y, z'
loop_
 _atom_site_type_symbol
 _atom_site_label
 _atom_site_symmetry_multiplicity
 _atom_site_fract_x
 _atom_site_fract_y
 _atom_site_fract_z
 _atom_site_occupancy
  Th  Th0  1  0.000000  0.000000  0.749625  1
  Th  Th1  1  0.000000  0.000000  0.250397  1
  Th  Th2  1  0.501210  0.498790  0.748420  1
  Th  Th3  1  0.501210  0.002422  0.748420  1
  Th  Th4  1  0.997578  0.498790  0.748420  1
  Th  Th5  1  0.501465  0.498535  0.251835  1
  Th  Th6  1  0.997072  0.498535  0.251835  1
  Th  Th7  1  0.501465  0.002928  0.251835  1
  Co  Co8  1  0.666667  0.333333  0.997362  1
  Co  Co9  1  0.666667  0.333333  0.502488  1
  Co  Co10  1  0.333333  0.666667  0.497581  1
  Si  Si11  1  0.828449  0.171551  0.999793  1
  Si  Si12  1  0.828449  0.656899  0.999793  1
  Si  Si13  1  0.343101  0.171551  0.999793  1
  Si  Si14  1  0.829256  0.170744  0.500373  1
  Si  Si15  1  0.829256  0.658512  0.500373  1
  Si  Si16  1  0.341488  0.170744  0.500373  1
  Si  Si17  1  0.171506  0.828494  0.499719  1
  Si  Si18  1  0.656987  0.828494  0.499719  1
  Si  Si19  1  0.171506  0.343013  0.499719  1
  Si  Si20  1  0.170105  0.829895  0.000415  1
  Si  Si21  1  0.659790  0.829895  0.000415  1
  Si  Si22  1  0.170105  0.340210  0.000415  1
  Ni  Ni23  1  0.333333  0.666667  0.000882  1
