# generated using pymatgen
data_CaAg2F8
_symmetry_space_group_name_H-M   'P 1'
_cell_length_a   6.68298741
_cell_length_b   6.68298751
_cell_length_c   6.68298827
_cell_angle_alpha   129.63886424
_cell_angle_beta   129.63886836
_cell_angle_gamma   73.98476485
_symmetry_Int_Tables_number   1
_chemical_formula_structural   CaAg2F8
_chemical_formula_sum   'Ca1 Ag2 F8'
_cell_volume   172.62625033
_cell_formula_units_Z   1
loop_
 _symmetry_equiv_pos_site_id
 _symmetry_equiv_pos_as_xyz
  1  'x, y, z'
loop_
 _atom_site_type_symbol
 _atom_site_label
 _atom_site_symmetry_multiplicity
 _atom_site_fract_x
 _atom_site_fract_y
 _atom_site_fract_z
 _atom_site_occupancy
  Ca  Ca0  1  0.000000  0.000000  0.000000  1
  Ag  Ag1  1  0.750000  0.250000  0.500000  1
  Ag  Ag2  1  0.250000  0.750000  0.500000  1
  F  F3  1  0.711293  0.189021  0.146230  1
  F  F4  1  0.434937  0.957210  0.146230  1
  F  F5  1  0.810980  0.288707  0.853770  1
  F  F6  1  0.288707  0.434937  0.477727  1
  F  F7  1  0.042790  0.565063  0.853770  1
  F  F8  1  0.565063  0.711293  0.522273  1
  F  F9  1  0.189021  0.042790  0.477727  1
  F  F10  1  0.957210  0.810980  0.522273  1
