# generated using pymatgen
data_Lu2Zn(PRh2)6
_symmetry_space_group_name_H-M   'P 1'
_cell_length_a   9.64905600
_cell_length_b   9.64905546
_cell_length_c   3.88258400
_cell_angle_alpha   90.00000000
_cell_angle_beta   90.00000000
_cell_angle_gamma   120.00000184
_symmetry_Int_Tables_number   1
_chemical_formula_structural   Lu2Zn(PRh2)6
_chemical_formula_sum   'Lu2 Zn1 P6 Rh12'
_cell_volume   313.05533829
_cell_formula_units_Z   1
loop_
 _symmetry_equiv_pos_site_id
 _symmetry_equiv_pos_as_xyz
  1  'x, y, z'
loop_
 _atom_site_type_symbol
 _atom_site_label
 _atom_site_symmetry_multiplicity
 _atom_site_fract_x
 _atom_site_fract_y
 _atom_site_fract_z
 _atom_site_occupancy
  Lu  Lu0  1  0.333333  0.666667  0.752516  1
  Lu  Lu1  1  0.666667  0.333333  0.247484  1
  Zn  Zn2  1  0.000000  0.000000  0.500000  1
  P  P3  1  0.402749  0.284616  0.748250  1
  P  P4  1  0.715384  0.118134  0.748250  1
  P  P5  1  0.881866  0.597251  0.748250  1
  P  P6  1  0.597251  0.715384  0.251750  1
  P  P7  1  0.284616  0.881866  0.251750  1
  P  P8  1  0.118134  0.402749  0.251750  1
  Rh  Rh9  1  0.453828  0.067503  0.748923  1
  Rh  Rh10  1  0.932497  0.386325  0.748923  1
  Rh  Rh11  1  0.613675  0.546172  0.748923  1
  Rh  Rh12  1  0.546172  0.932497  0.251077  1
  Rh  Rh13  1  0.067503  0.613675  0.251077  1
  Rh  Rh14  1  0.386325  0.453828  0.251077  1
  Rh  Rh15  1  0.159056  0.284351  0.753823  1
  Rh  Rh16  1  0.715649  0.874705  0.753823  1
  Rh  Rh17  1  0.125295  0.840944  0.753823  1
  Rh  Rh18  1  0.840944  0.715649  0.246177  1
  Rh  Rh19  1  0.284351  0.125295  0.246177  1
  Rh  Rh20  1  0.874705  0.159056  0.246177  1
