# generated using pymatgen
data_Pr2Co9P7Ru3
_symmetry_space_group_name_H-M   'P 1'
_cell_length_a   9.15278600
_cell_length_b   9.15278533
_cell_length_c   3.74934000
_cell_angle_alpha   90.00000000
_cell_angle_beta   90.00000000
_cell_angle_gamma   120.00000144
_symmetry_Int_Tables_number   1
_chemical_formula_structural   Pr2Co9P7Ru3
_chemical_formula_sum   'Pr2 Co9 P7 Ru3'
_cell_volume   272.01448775
_cell_formula_units_Z   1
loop_
 _symmetry_equiv_pos_site_id
 _symmetry_equiv_pos_as_xyz
  1  'x, y, z'
loop_
 _atom_site_type_symbol
 _atom_site_label
 _atom_site_symmetry_multiplicity
 _atom_site_fract_x
 _atom_site_fract_y
 _atom_site_fract_z
 _atom_site_occupancy
  Pr  Pr0  1  0.333333  0.666667  0.000000  1
  Pr  Pr1  1  0.666667  0.333333  0.500000  1
  Co  Co2  1  0.428731  0.059678  0.000000  1
  Co  Co3  1  0.940322  0.369051  0.000000  1
  Co  Co4  1  0.630949  0.571269  0.000000  1
  Co  Co5  1  0.384139  0.436282  0.500000  1
  Co  Co6  1  0.563718  0.947857  0.500000  1
  Co  Co7  1  0.052143  0.615861  0.500000  1
  Co  Co8  1  0.155435  0.276732  0.000000  1
  Co  Co9  1  0.723268  0.878703  0.000000  1
  Co  Co10  1  0.121297  0.844565  0.000000  1
  P  P11  1  0.110086  0.401270  0.500000  1
  P  P12  1  0.598730  0.708817  0.500000  1
  P  P13  1  0.291183  0.889914  0.500000  1
  P  P14  1  0.000000  0.000000  0.000000  1
  P  P15  1  0.407304  0.303408  0.000000  1
  P  P16  1  0.696592  0.103896  0.000000  1
  P  P17  1  0.896104  0.592696  0.000000  1
  Ru  Ru18  1  0.218694  0.098320  0.500000  1
  Ru  Ru19  1  0.901680  0.120375  0.500000  1
  Ru  Ru20  1  0.879625  0.781306  0.500000  1
