# generated using pymatgen
data_Tb4Y(In2Ir)2
_symmetry_space_group_name_H-M   'P 1'
_cell_length_a   3.68582500
_cell_length_b   8.05298200
_cell_length_c   18.28179000
_cell_angle_alpha   90.00000000
_cell_angle_beta   90.00000000
_cell_angle_gamma   90.00000000
_symmetry_Int_Tables_number   1
_chemical_formula_structural   Tb4Y(In2Ir)2
_chemical_formula_sum   'Tb8 Y2 In8 Ir4'
_cell_volume   542.63794048
_cell_formula_units_Z   2
loop_
 _symmetry_equiv_pos_site_id
 _symmetry_equiv_pos_as_xyz
  1  'x, y, z'
loop_
 _atom_site_type_symbol
 _atom_site_label
 _atom_site_symmetry_multiplicity
 _atom_site_fract_x
 _atom_site_fract_y
 _atom_site_fract_z
 _atom_site_occupancy
  Tb  Tb0  1  0.500000  0.242048  0.779055  1
  Tb  Tb1  1  0.500000  0.757952  0.220945  1
  Tb  Tb2  1  0.500000  0.257952  0.279055  1
  Tb  Tb3  1  0.500000  0.742048  0.720945  1
  Tb  Tb4  1  0.500000  0.114906  0.589403  1
  Tb  Tb5  1  0.500000  0.885094  0.410597  1
  Tb  Tb6  1  0.500000  0.385094  0.089403  1
  Tb  Tb7  1  0.500000  0.614906  0.910597  1
  Y  Y8  1  0.500000  0.000000  0.000000  1
  Y  Y9  1  0.500000  0.500000  0.500000  1
  In  In10  1  0.000000  0.073018  0.149690  1
  In  In11  1  0.000000  0.926982  0.850310  1
  In  In12  1  0.000000  0.426982  0.649690  1
  In  In13  1  0.000000  0.573018  0.350310  1
  In  In14  1  0.000000  0.206501  0.432488  1
  In  In15  1  0.000000  0.793499  0.567512  1
  In  In16  1  0.000000  0.293499  0.932488  1
  In  In17  1  0.000000  0.706501  0.067512  1
  Ir  Ir18  1  0.000000  0.016838  0.696022  1
  Ir  Ir19  1  0.000000  0.983162  0.303978  1
  Ir  Ir20  1  0.000000  0.483162  0.196022  1
  Ir  Ir21  1  0.000000  0.516838  0.803978  1
