# generated using pymatgen
data_Nd4Ga18Co3Pt2Rh
_symmetry_space_group_name_H-M   'P 1'
_cell_length_a   7.58739069
_cell_length_b   7.58739037
_cell_length_c   9.58233757
_cell_angle_alpha   89.98446803
_cell_angle_beta   89.98448066
_cell_angle_gamma   119.55493948
_symmetry_Int_Tables_number   1
_chemical_formula_structural   Nd4Ga18Co3Pt2Rh
_chemical_formula_sum   'Nd4 Ga18 Co3 Pt2 Rh1'
_cell_volume   479.86291185
_cell_formula_units_Z   1
loop_
 _symmetry_equiv_pos_site_id
 _symmetry_equiv_pos_as_xyz
  1  'x, y, z'
loop_
 _atom_site_type_symbol
 _atom_site_label
 _atom_site_symmetry_multiplicity
 _atom_site_fract_x
 _atom_site_fract_y
 _atom_site_fract_z
 _atom_site_occupancy
  Nd  Nd0  1  0.322525  0.997708  0.249969  1
  Nd  Nd1  1  0.002292  0.677475  0.750031  1
  Nd  Nd2  1  0.671150  0.992874  0.748955  1
  Nd  Nd3  1  0.007126  0.328850  0.251045  1
  Ga  Ga4  1  0.344289  0.016335  0.924201  1
  Ga  Ga5  1  0.983665  0.655711  0.075799  1
  Ga  Ga6  1  0.345303  0.001713  0.574119  1
  Ga  Ga7  1  0.998287  0.654697  0.425881  1
  Ga  Ga8  1  0.667174  0.010809  0.075406  1
  Ga  Ga9  1  0.989191  0.332826  0.924594  1
  Ga  Ga10  1  0.656423  0.002708  0.425527  1
  Ga  Ga11  1  0.997292  0.343577  0.574473  1
  Ga  Ga12  1  0.665685  0.657492  0.938297  1
  Ga  Ga13  1  0.342508  0.334315  0.061703  1
  Ga  Ga14  1  0.658695  0.656422  0.557536  1
  Ga  Ga15  1  0.343578  0.341305  0.442464  1
  Ga  Ga16  1  0.137877  0.140411  0.752344  1
  Ga  Ga17  1  0.859589  0.862123  0.247656  1
  Ga  Ga18  1  0.455021  0.663095  0.258892  1
  Ga  Ga19  1  0.336905  0.544979  0.741108  1
  Ga  Ga20  1  0.558756  0.338388  0.748197  1
  Ga  Ga21  1  0.661612  0.441244  0.251803  1
  Co  Co22  1  0.329477  0.670523  0.500000  1
  Co  Co23  1  0.669015  0.330985  0.000000  1
  Co  Co24  1  0.669735  0.330265  0.500000  1
  Pt  Pt25  1  0.999763  0.000237  0.500000  1
  Pt  Pt26  1  0.327940  0.672060  0.000000  1
  Rh  Rh27  1  0.999124  0.000876  0.000000  1
