# generated using pymatgen
data_La2VReH18
_symmetry_space_group_name_H-M   'P 1'
_cell_length_a   4.80812100
_cell_length_b   4.80812081
_cell_length_c   9.04322200
_cell_angle_alpha   90.00000000
_cell_angle_beta   90.00000000
_cell_angle_gamma   119.99999443
_symmetry_Int_Tables_number   1
_chemical_formula_structural   La2VReH18
_chemical_formula_sum   'La2 V1 Re1 H18'
_cell_volume   181.05253430
_cell_formula_units_Z   1
loop_
 _symmetry_equiv_pos_site_id
 _symmetry_equiv_pos_as_xyz
  1  'x, y, z'
loop_
 _atom_site_type_symbol
 _atom_site_label
 _atom_site_symmetry_multiplicity
 _atom_site_fract_x
 _atom_site_fract_y
 _atom_site_fract_z
 _atom_site_occupancy
  La  La0  1  0.000000  0.000000  0.026889  1
  La  La1  1  0.000000  0.000000  0.473111  1
  V  V2  1  0.333333  0.666667  0.250000  1
  Re  Re3  1  0.666667  0.333333  0.750000  1
  H  H4  1  0.478653  0.521347  0.386019  1
  H  H5  1  0.478653  0.957305  0.386019  1
  H  H6  1  0.042695  0.521347  0.386019  1
  H  H7  1  0.957443  0.478722  0.884480  1
  H  H8  1  0.134003  0.268007  0.250000  1
  H  H9  1  0.866873  0.133127  0.750000  1
  H  H10  1  0.266255  0.133127  0.750000  1
  H  H11  1  0.731993  0.865997  0.250000  1
  H  H12  1  0.134003  0.865997  0.250000  1
  H  H13  1  0.866873  0.733745  0.750000  1
  H  H14  1  0.478653  0.957305  0.113981  1
  H  H15  1  0.521278  0.478722  0.615520  1
  H  H16  1  0.957443  0.478722  0.615520  1
  H  H17  1  0.042695  0.521347  0.113981  1
  H  H18  1  0.478653  0.521347  0.113981  1
  H  H19  1  0.521278  0.042557  0.884480  1
  H  H20  1  0.521278  0.478722  0.884480  1
  H  H21  1  0.521278  0.042557  0.615520  1
