# generated using pymatgen
data_HfTa5Al16Co7
_symmetry_space_group_name_H-M   'P 1'
_cell_length_a   8.35578382
_cell_length_b   8.34268361
_cell_length_c   8.34268430
_cell_angle_alpha   60.10391308
_cell_angle_beta   59.94804423
_cell_angle_gamma   59.94804246
_symmetry_Int_Tables_number   1
_chemical_formula_structural   HfTa5Al16Co7
_chemical_formula_sum   'Hf1 Ta5 Al16 Co7'
_cell_volume   411.22701276
_cell_formula_units_Z   1
loop_
 _symmetry_equiv_pos_site_id
 _symmetry_equiv_pos_as_xyz
  1  'x, y, z'
loop_
 _atom_site_type_symbol
 _atom_site_label
 _atom_site_symmetry_multiplicity
 _atom_site_fract_x
 _atom_site_fract_y
 _atom_site_fract_z
 _atom_site_occupancy
  Hf  Hf0  1  0.312508  0.687492  0.687492  1
  Ta  Ta1  1  0.686045  0.684087  0.313955  1
  Ta  Ta2  1  0.315913  0.684087  0.313955  1
  Ta  Ta3  1  0.680275  0.319725  0.319725  1
  Ta  Ta4  1  0.315913  0.313955  0.684087  1
  Ta  Ta5  1  0.686045  0.313955  0.684087  1
  Al  Al6  1  0.881369  0.882435  0.354826  1
  Al  Al7  1  0.881369  0.354826  0.882435  1
  Al  Al8  1  0.356045  0.882499  0.882499  1
  Al  Al9  1  0.878956  0.882499  0.882499  1
  Al  Al10  1  0.117501  0.121044  0.643955  1
  Al  Al11  1  0.117501  0.643955  0.121044  1
  Al  Al12  1  0.645174  0.118631  0.118631  1
  Al  Al13  1  0.117565  0.118631  0.118631  1
  Al  Al14  1  0.664578  0.663805  0.007040  1
  Al  Al15  1  0.664578  0.007040  0.663805  1
  Al  Al16  1  0.007197  0.663065  0.663065  1
  Al  Al17  1  0.666672  0.663065  0.663065  1
  Al  Al18  1  0.336935  0.333328  0.992803  1
  Al  Al19  1  0.336935  0.992803  0.333328  1
  Al  Al20  1  0.992960  0.335422  0.335422  1
  Al  Al21  1  0.336195  0.335422  0.335422  1
  Co  Co22  1  0.000419  0.999581  0.999581  1
  Co  Co23  1  0.998520  0.001480  0.499105  1
  Co  Co24  1  0.500895  0.001480  0.499105  1
  Co  Co25  1  0.001261  0.498739  0.498739  1
  Co  Co26  1  0.500895  0.499105  0.001480  1
  Co  Co27  1  0.998520  0.499105  0.001480  1
  Co  Co28  1  0.501261  0.998739  0.998739  1
