# generated using pymatgen
data_La2Zn(SiPd2)6
_symmetry_space_group_name_H-M   'P 1'
_cell_length_a   10.14206800
_cell_length_b   10.14206754
_cell_length_c   3.90256100
_cell_angle_alpha   90.00000000
_cell_angle_beta   90.00000000
_cell_angle_gamma   120.00000151
_symmetry_Int_Tables_number   1
_chemical_formula_structural   La2Zn(SiPd2)6
_chemical_formula_sum   'La2 Zn1 Si6 Pd12'
_cell_volume   347.64288191
_cell_formula_units_Z   1
loop_
 _symmetry_equiv_pos_site_id
 _symmetry_equiv_pos_as_xyz
  1  'x, y, z'
loop_
 _atom_site_type_symbol
 _atom_site_label
 _atom_site_symmetry_multiplicity
 _atom_site_fract_x
 _atom_site_fract_y
 _atom_site_fract_z
 _atom_site_occupancy
  La  La0  1  0.666667  0.333333  0.247110  1
  La  La1  1  0.000000  0.000000  0.751014  1
  Zn  Zn2  1  0.333333  0.666667  0.468611  1
  Si  Si3  1  0.732980  0.780076  0.252706  1
  Si  Si4  1  0.047095  0.267020  0.252706  1
  Si  Si5  1  0.219924  0.952905  0.252706  1
  Si  Si6  1  0.933035  0.554038  0.745449  1
  Si  Si7  1  0.621002  0.066965  0.745449  1
  Si  Si8  1  0.445962  0.378998  0.745449  1
  Pd  Pd9  1  0.773987  0.048081  0.249843  1
  Pd  Pd10  1  0.274094  0.226013  0.249843  1
  Pd  Pd11  1  0.951919  0.725906  0.249843  1
  Pd  Pd12  1  0.893116  0.283999  0.748036  1
  Pd  Pd13  1  0.390881  0.106884  0.748036  1
  Pd  Pd14  1  0.716001  0.609119  0.748036  1
  Pd  Pd15  1  0.486038  0.546655  0.243176  1
  Pd  Pd16  1  0.060617  0.513962  0.243176  1
  Pd  Pd17  1  0.453345  0.939383  0.243176  1
  Pd  Pd18  1  0.184152  0.783417  0.755716  1
  Pd  Pd19  1  0.599265  0.815848  0.755716  1
  Pd  Pd20  1  0.216583  0.400735  0.755716  1
