# generated using pymatgen
data_Ac5SiSb2
_symmetry_space_group_name_H-M   'P 1'
_cell_length_a   8.77427800
_cell_length_b   9.89292200
_cell_length_c   13.18063900
_cell_angle_alpha   90.00000000
_cell_angle_beta   90.00000000
_cell_angle_gamma   90.00000000
_symmetry_Int_Tables_number   1
_chemical_formula_structural   Ac5SiSb2
_chemical_formula_sum   'Ac20 Si4 Sb8'
_cell_volume   1144.12227407
_cell_formula_units_Z   4
loop_
 _symmetry_equiv_pos_site_id
 _symmetry_equiv_pos_as_xyz
  1  'x, y, z'
loop_
 _atom_site_type_symbol
 _atom_site_label
 _atom_site_symmetry_multiplicity
 _atom_site_fract_x
 _atom_site_fract_y
 _atom_site_fract_z
 _atom_site_occupancy
  Ac  Ac0  1  0.656325  0.750000  0.713866  1
  Ac  Ac1  1  0.343675  0.250000  0.286134  1
  Ac  Ac2  1  0.156325  0.250000  0.786134  1
  Ac  Ac3  1  0.843675  0.750000  0.213866  1
  Ac  Ac4  1  0.136509  0.750000  0.792985  1
  Ac  Ac5  1  0.863491  0.250000  0.207015  1
  Ac  Ac6  1  0.636509  0.250000  0.707015  1
  Ac  Ac7  1  0.363491  0.750000  0.292985  1
  Ac  Ac8  1  0.533794  0.750000  0.001928  1
  Ac  Ac9  1  0.466206  0.250000  0.998072  1
  Ac  Ac10  1  0.033794  0.250000  0.498072  1
  Ac  Ac11  1  0.966206  0.750000  0.501928  1
  Ac  Ac12  1  0.808803  0.457575  0.936086  1
  Ac  Ac13  1  0.191197  0.542425  0.063914  1
  Ac  Ac14  1  0.308803  0.542425  0.563914  1
  Ac  Ac15  1  0.191197  0.957575  0.063914  1
  Ac  Ac16  1  0.691197  0.457575  0.436086  1
  Ac  Ac17  1  0.808803  0.042425  0.936086  1
  Ac  Ac18  1  0.691197  0.042425  0.436086  1
  Ac  Ac19  1  0.308803  0.957575  0.563914  1
  Si  Si20  1  0.928668  0.750000  0.982793  1
  Si  Si21  1  0.071332  0.250000  0.017207  1
  Si  Si22  1  0.428668  0.250000  0.517207  1
  Si  Si23  1  0.571332  0.750000  0.482793  1
  Sb  Sb24  1  0.924625  0.009224  0.673870  1
  Sb  Sb25  1  0.075375  0.990776  0.326130  1
  Sb  Sb26  1  0.424625  0.990776  0.826130  1
  Sb  Sb27  1  0.075375  0.509224  0.326130  1
  Sb  Sb28  1  0.575375  0.009224  0.173870  1
  Sb  Sb29  1  0.924625  0.490776  0.673870  1
  Sb  Sb30  1  0.575375  0.490776  0.173870  1
  Sb  Sb31  1  0.424625  0.509224  0.826130  1
