# generated using pymatgen
data_HoFe5Tc7
_symmetry_space_group_name_H-M   'P 1'
_cell_length_a   6.64699649
_cell_length_b   6.64699502
_cell_length_c   6.64699517
_cell_angle_alpha   138.08187835
_cell_angle_beta   96.07427595
_cell_angle_gamma   98.63168195
_symmetry_Int_Tables_number   1
_chemical_formula_structural   HoFe5Tc7
_chemical_formula_sum   'Ho1 Fe5 Tc7'
_cell_volume   183.15872602
_cell_formula_units_Z   1
loop_
 _symmetry_equiv_pos_site_id
 _symmetry_equiv_pos_as_xyz
  1  'x, y, z'
loop_
 _atom_site_type_symbol
 _atom_site_label
 _atom_site_symmetry_multiplicity
 _atom_site_fract_x
 _atom_site_fract_y
 _atom_site_fract_z
 _atom_site_occupancy
  Ho  Ho0  1  0.006967  0.000000  0.006967  1
  Fe  Fe1  1  0.491058  0.495116  0.498984  1
  Fe  Fe2  1  0.491058  0.992075  0.995942  1
  Fe  Fe3  1  0.003867  0.007925  0.498984  1
  Fe  Fe4  1  0.003867  0.504884  0.995942  1
  Fe  Fe5  1  0.227800  0.500000  0.727800  1
  Tc  Tc6  1  0.640873  0.000000  0.640873  1
  Tc  Tc7  1  0.362484  0.000000  0.362484  1
  Tc  Tc8  1  0.350859  0.354889  0.995969  1
  Tc  Tc9  1  0.641081  0.645111  0.995969  1
  Tc  Tc10  1  0.779672  0.500000  0.279672  1
  Tc  Tc11  1  0.795792  0.295586  0.500206  1
  Tc  Tc12  1  0.204621  0.704414  0.500206  1
