# generated using pymatgen
data_Ti13Al9Fe5Ru3
_symmetry_space_group_name_H-M   'P 1'
_cell_length_a   8.56680113
_cell_length_b   8.56680146
_cell_length_c   8.56680024
_cell_angle_alpha   59.89456662
_cell_angle_beta   59.89456311
_cell_angle_gamma   59.89457735
_symmetry_Int_Tables_number   1
_chemical_formula_structural   Ti13Al9Fe5Ru3
_chemical_formula_sum   'Ti13 Al9 Fe5 Ru3'
_cell_volume   443.50749973
_cell_formula_units_Z   1
loop_
 _symmetry_equiv_pos_site_id
 _symmetry_equiv_pos_as_xyz
  1  'x, y, z'
loop_
 _atom_site_type_symbol
 _atom_site_label
 _atom_site_symmetry_multiplicity
 _atom_site_fract_x
 _atom_site_fract_y
 _atom_site_fract_z
 _atom_site_occupancy
  Ti  Ti0  1  0.208125  0.208125  0.800819  1
  Ti  Ti1  1  0.800819  0.208125  0.208125  1
  Ti  Ti2  1  0.208125  0.800819  0.208125  1
  Ti  Ti3  1  0.802323  0.802323  0.179171  1
  Ti  Ti4  1  0.179171  0.802323  0.802323  1
  Ti  Ti5  1  0.802323  0.179171  0.802323  1
  Ti  Ti6  1  0.381662  0.381662  0.381662  1
  Ti  Ti7  1  0.387197  0.855212  0.387197  1
  Ti  Ti8  1  0.855212  0.387197  0.387197  1
  Ti  Ti9  1  0.387197  0.387197  0.855212  1
  Ti  Ti10  1  0.837235  0.467972  0.837235  1
  Ti  Ti11  1  0.467972  0.837235  0.837235  1
  Ti  Ti12  1  0.837235  0.837235  0.467972  1
  Al  Al13  1  0.163143  0.163143  0.163143  1
  Al  Al14  1  0.163884  0.525264  0.163884  1
  Al  Al15  1  0.525264  0.163884  0.163884  1
  Al  Al16  1  0.163884  0.163884  0.525264  1
  Al  Al17  1  0.616638  0.616638  0.616638  1
  Al  Al18  1  0.614650  0.147620  0.614650  1
  Al  Al19  1  0.147620  0.614650  0.614650  1
  Al  Al20  1  0.614650  0.614650  0.147620  1
  Al  Al21  1  0.827297  0.827297  0.827297  1
  Fe  Fe22  1  0.502002  0.502002  0.998037  1
  Fe  Fe23  1  0.998037  0.502002  0.502002  1
  Fe  Fe24  1  0.502002  0.998037  0.502002  1
  Fe  Fe25  1  0.499869  0.499869  0.499869  1
  Fe  Fe26  1  0.004210  0.004210  0.004210  1
  Ru  Ru27  1  0.001506  0.001506  0.499240  1
  Ru  Ru28  1  0.499240  0.001506  0.001506  1
  Ru  Ru29  1  0.001506  0.499240  0.001506  1
