# generated using pymatgen
data_Tb16MgHg3IrRh3
_symmetry_space_group_name_H-M   'P 1'
_cell_length_a   9.66385108
_cell_length_b   9.66268397
_cell_length_c   9.66268400
_cell_angle_alpha   59.99999990
_cell_angle_beta   60.00399490
_cell_angle_gamma   60.00399290
_symmetry_Int_Tables_number   1
_chemical_formula_structural   Tb16MgHg3IrRh3
_chemical_formula_sum   'Tb16 Mg1 Hg3 Ir1 Rh3'
_cell_volume   638.05335756
_cell_formula_units_Z   1
loop_
 _symmetry_equiv_pos_site_id
 _symmetry_equiv_pos_as_xyz
  1  'x, y, z'
loop_
 _atom_site_type_symbol
 _atom_site_label
 _atom_site_symmetry_multiplicity
 _atom_site_fract_x
 _atom_site_fract_y
 _atom_site_fract_z
 _atom_site_occupancy
  Tb  Tb0  1  0.190360  0.810143  0.810143  1
  Tb  Tb1  1  0.813273  0.187248  0.187248  1
  Tb  Tb2  1  0.065460  0.435560  0.063420  1
  Tb  Tb3  1  0.056457  0.647848  0.647848  1
  Tb  Tb4  1  0.649507  0.651293  0.651293  1
  Tb  Tb5  1  0.065460  0.063420  0.435560  1
  Tb  Tb6  1  0.190360  0.810143  0.189354  1
  Tb  Tb7  1  0.813273  0.812229  0.187248  1
  Tb  Tb8  1  0.813273  0.187248  0.812229  1
  Tb  Tb9  1  0.436465  0.063312  0.436911  1
  Tb  Tb10  1  0.436465  0.436911  0.063312  1
  Tb  Tb11  1  0.436465  0.063312  0.063312  1
  Tb  Tb12  1  0.065460  0.435560  0.435560  1
  Tb  Tb13  1  0.190360  0.189354  0.810143  1
  Tb  Tb14  1  0.649507  0.651293  0.047907  1
  Tb  Tb15  1  0.649507  0.047907  0.651293  1
  Mg  Mg16  1  0.715944  0.428019  0.428019  1
  Hg  Hg17  1  0.418973  0.414080  0.752866  1
  Hg  Hg18  1  0.418973  0.752866  0.414080  1
  Hg  Hg19  1  0.418973  0.414080  0.414080  1
  Ir  Ir20  1  0.427540  0.857487  0.857487  1
  Rh  Rh21  1  0.859317  0.856847  0.426990  1
  Rh  Rh22  1  0.859317  0.426990  0.856847  1
  Rh  Rh23  1  0.859317  0.856847  0.856847  1
