# generated using pymatgen
data_Ba2LaPr(Sn2Rh)4
_symmetry_space_group_name_H-M   'P 1'
_cell_length_a   9.06392430
_cell_length_b   9.06392369
_cell_length_c   9.82764800
_cell_angle_alpha   90.00000000
_cell_angle_beta   90.00000000
_cell_angle_gamma   148.88149131
_symmetry_Int_Tables_number   1
_chemical_formula_structural   Ba2LaPr(Sn2Rh)4
_chemical_formula_sum   'Ba2 La1 Pr1 Sn8 Rh4'
_cell_volume   417.26593798
_cell_formula_units_Z   1
loop_
 _symmetry_equiv_pos_site_id
 _symmetry_equiv_pos_as_xyz
  1  'x, y, z'
loop_
 _atom_site_type_symbol
 _atom_site_label
 _atom_site_symmetry_multiplicity
 _atom_site_fract_x
 _atom_site_fract_y
 _atom_site_fract_z
 _atom_site_occupancy
  Ba  Ba0  1  0.499971  0.500029  0.499969  1
  Ba  Ba1  1  0.499971  0.500029  0.000031  1
  La  La2  1  0.704926  0.295074  0.750000  1
  Pr  Pr3  1  0.295238  0.704762  0.250000  1
  Sn  Sn4  1  0.904965  0.095035  0.750000  1
  Sn  Sn5  1  0.918640  0.081360  0.250000  1
  Sn  Sn6  1  0.095384  0.904616  0.250000  1
  Sn  Sn7  1  0.080610  0.919390  0.750000  1
  Sn  Sn8  1  0.697830  0.302170  0.409031  1
  Sn  Sn9  1  0.302262  0.697738  0.590124  1
  Sn  Sn10  1  0.302262  0.697738  0.909876  1
  Sn  Sn11  1  0.697830  0.302170  0.090969  1
  Rh  Rh12  1  0.153975  0.846025  0.500991  1
  Rh  Rh13  1  0.846080  0.153920  0.001126  1
  Rh  Rh14  1  0.153975  0.846025  0.999009  1
  Rh  Rh15  1  0.846080  0.153920  0.498874  1
