# generated using pymatgen
data_Zr9Ta4O3
_symmetry_space_group_name_H-M   'P 1'
_cell_length_a   8.80936600
_cell_length_b   8.80936672
_cell_length_c   8.70344300
_cell_angle_alpha   90.00000000
_cell_angle_beta   90.00000000
_cell_angle_gamma   120.00000481
_symmetry_Int_Tables_number   1
_chemical_formula_structural   Zr9Ta4O3
_chemical_formula_sum   'Zr18 Ta8 O6'
_cell_volume   584.93962616
_cell_formula_units_Z   2
loop_
 _symmetry_equiv_pos_site_id
 _symmetry_equiv_pos_as_xyz
  1  'x, y, z'
loop_
 _atom_site_type_symbol
 _atom_site_label
 _atom_site_symmetry_multiplicity
 _atom_site_fract_x
 _atom_site_fract_y
 _atom_site_fract_z
 _atom_site_occupancy
  Zr  Zr0  1  0.453059  0.906119  0.250000  1
  Zr  Zr1  1  0.546941  0.093881  0.750000  1
  Zr  Zr2  1  0.093881  0.546941  0.250000  1
  Zr  Zr3  1  0.906119  0.453059  0.750000  1
  Zr  Zr4  1  0.453059  0.546941  0.250000  1
  Zr  Zr5  1  0.546941  0.453059  0.750000  1
  Zr  Zr6  1  0.206930  0.413861  0.562996  1
  Zr  Zr7  1  0.793070  0.586139  0.437004  1
  Zr  Zr8  1  0.586139  0.793070  0.562996  1
  Zr  Zr9  1  0.793070  0.586139  0.062996  1
  Zr  Zr10  1  0.413861  0.206930  0.437004  1
  Zr  Zr11  1  0.206930  0.413861  0.937004  1
  Zr  Zr12  1  0.206930  0.793070  0.562996  1
  Zr  Zr13  1  0.413861  0.206930  0.062996  1
  Zr  Zr14  1  0.793070  0.206930  0.437004  1
  Zr  Zr15  1  0.586139  0.793070  0.937004  1
  Zr  Zr16  1  0.793070  0.206930  0.062996  1
  Zr  Zr17  1  0.206930  0.793070  0.937004  1
  Ta  Ta18  1  0.110974  0.221947  0.250000  1
  Ta  Ta19  1  0.889026  0.778053  0.750000  1
  Ta  Ta20  1  0.778053  0.889026  0.250000  1
  Ta  Ta21  1  0.221947  0.110974  0.750000  1
  Ta  Ta22  1  0.110974  0.889026  0.250000  1
  Ta  Ta23  1  0.889026  0.110974  0.750000  1
  Ta  Ta24  1  0.000000  0.000000  0.000000  1
  Ta  Ta25  1  0.000000  0.000000  0.500000  1
  O  O26  1  0.500000  0.000000  0.000000  1
  O  O27  1  0.000000  0.500000  0.000000  1
  O  O28  1  0.500000  0.000000  0.500000  1
  O  O29  1  0.500000  0.500000  0.000000  1
  O  O30  1  0.000000  0.500000  0.500000  1
  O  O31  1  0.500000  0.500000  0.500000  1
