# generated using pymatgen
data_Dy5Ge6P6Ir16Rh3
_symmetry_space_group_name_H-M   'P 1'
_cell_length_a   12.96956100
_cell_length_b   12.96956135
_cell_length_c   3.97551400
_cell_angle_alpha   90.00000000
_cell_angle_beta   90.00000000
_cell_angle_gamma   119.99999655
_symmetry_Int_Tables_number   1
_chemical_formula_structural   Dy5Ge6P6Ir16Rh3
_chemical_formula_sum   'Dy5 Ge6 P6 Ir16 Rh3'
_cell_volume   579.12791355
_cell_formula_units_Z   1
loop_
 _symmetry_equiv_pos_site_id
 _symmetry_equiv_pos_as_xyz
  1  'x, y, z'
loop_
 _atom_site_type_symbol
 _atom_site_label
 _atom_site_symmetry_multiplicity
 _atom_site_fract_x
 _atom_site_fract_y
 _atom_site_fract_z
 _atom_site_occupancy
  Dy  Dy0  1  0.333333  0.666667  0.500000  1
  Dy  Dy1  1  0.666667  0.333333  0.500000  1
  Dy  Dy2  1  0.001982  0.819285  0.000000  1
  Dy  Dy3  1  0.180715  0.182698  0.000000  1
  Dy  Dy4  1  0.817302  0.998018  0.000000  1
  Ge  Ge5  1  0.998541  0.637210  0.500000  1
  Ge  Ge6  1  0.362790  0.361330  0.500000  1
  Ge  Ge7  1  0.638670  0.001459  0.500000  1
  Ge  Ge8  1  0.518682  0.677611  0.000000  1
  Ge  Ge9  1  0.322389  0.841071  0.000000  1
  Ge  Ge10  1  0.158929  0.481318  0.000000  1
  P  P11  1  0.483788  0.177210  0.000000  1
  P  P12  1  0.693421  0.516212  0.000000  1
  P  P13  1  0.822790  0.306579  0.000000  1
  P  P14  1  0.994847  0.176022  0.500000  1
  P  P15  1  0.823978  0.818825  0.500000  1
  P  P16  1  0.181175  0.005153  0.500000  1
  Ir  Ir17  1  0.521537  0.870505  0.000000  1
  Ir  Ir18  1  0.129495  0.651032  0.000000  1
  Ir  Ir19  1  0.348968  0.478463  0.000000  1
  Ir  Ir20  1  0.499341  0.367137  0.000000  1
  Ir  Ir21  1  0.867796  0.500659  0.000000  1
  Ir  Ir22  1  0.632863  0.132204  0.000000  1
  Ir  Ir23  1  0.989792  0.269967  0.000000  1
  Ir  Ir24  1  0.730033  0.719825  0.000000  1
  Ir  Ir25  1  0.280175  0.010208  0.000000  1
  Ir  Ir26  1  0.638851  0.809261  0.500000  1
  Ir  Ir27  1  0.190739  0.829590  0.500000  1
  Ir  Ir28  1  0.170410  0.361149  0.500000  1
  Ir  Ir29  1  0.384993  0.180156  0.500000  1
  Ir  Ir30  1  0.795164  0.615007  0.500000  1
  Ir  Ir31  1  0.819844  0.204836  0.500000  1
  Ir  Ir32  1  0.000000  0.000000  0.500000  1
  Rh  Rh33  1  0.006736  0.452257  0.500000  1
  Rh  Rh34  1  0.547743  0.554479  0.500000  1
  Rh  Rh35  1  0.445521  0.993264  0.500000  1
