# generated using pymatgen
data_Sm8Tm11LuPb16
_symmetry_space_group_name_H-M   'P 1'
_cell_length_a   8.20509705
_cell_length_b   8.29238105
_cell_length_c   15.62472000
_cell_angle_alpha   90.00000000
_cell_angle_beta   90.00000000
_cell_angle_gamma   90.01301681
_symmetry_Int_Tables_number   1
_chemical_formula_structural   Sm8Tm11LuPb16
_chemical_formula_sum   'Sm8 Tm11 Lu1 Pb16'
_cell_volume   1063.10266117
_cell_formula_units_Z   1
loop_
 _symmetry_equiv_pos_site_id
 _symmetry_equiv_pos_as_xyz
  1  'x, y, z'
loop_
 _atom_site_type_symbol
 _atom_site_label
 _atom_site_symmetry_multiplicity
 _atom_site_fract_x
 _atom_site_fract_y
 _atom_site_fract_z
 _atom_site_occupancy
  Sm  Sm0  1  0.467703  0.677556  0.598682  1
  Sm  Sm1  1  0.967726  0.822429  0.901346  1
  Sm  Sm2  1  0.532350  0.322346  0.098662  1
  Sm  Sm3  1  0.032215  0.177479  0.401327  1
  Sm  Sm4  1  0.532350  0.322346  0.401338  1
  Sm  Sm5  1  0.032215  0.177479  0.098673  1
  Sm  Sm6  1  0.467703  0.677556  0.901318  1
  Sm  Sm7  1  0.967726  0.822429  0.598654  1
  Tm  Tm8  1  0.627395  0.158441  0.622043  1
  Tm  Tm9  1  0.127388  0.341602  0.877923  1
  Tm  Tm10  1  0.372754  0.841658  0.122072  1
  Tm  Tm11  1  0.872526  0.658462  0.377941  1
  Tm  Tm12  1  0.372754  0.841658  0.377928  1
  Tm  Tm13  1  0.872526  0.658462  0.122059  1
  Tm  Tm14  1  0.627395  0.158441  0.877957  1
  Tm  Tm15  1  0.127388  0.341602  0.622077  1
  Tm  Tm16  1  0.794861  0.494035  0.750000  1
  Tm  Tm17  1  0.294859  0.005936  0.750000  1
  Tm  Tm18  1  0.205117  0.505928  0.250000  1
  Lu  Lu19  1  0.705178  0.993938  0.250000  1
  Pb  Pb20  1  0.712083  0.962450  0.456733  1
  Pb  Pb21  1  0.212073  0.537547  0.043110  1
  Pb  Pb22  1  0.287948  0.037575  0.956891  1
  Pb  Pb23  1  0.787952  0.462461  0.543109  1
  Pb  Pb24  1  0.287948  0.037575  0.543109  1
  Pb  Pb25  1  0.787952  0.462461  0.956891  1
  Pb  Pb26  1  0.712083  0.962450  0.043267  1
  Pb  Pb27  1  0.212073  0.537547  0.456890  1
  Pb  Pb28  1  0.432083  0.371391  0.750000  1
  Pb  Pb29  1  0.932117  0.128548  0.750000  1
  Pb  Pb30  1  0.567984  0.628778  0.250000  1
  Pb  Pb31  1  0.067517  0.871677  0.250000  1
  Pb  Pb32  1  0.657334  0.847946  0.750000  1
  Pb  Pb33  1  0.157291  0.652156  0.750000  1
  Pb  Pb34  1  0.342695  0.152139  0.250000  1
  Pb  Pb35  1  0.842734  0.347519  0.250000  1
