# generated using pymatgen
data_Pr8Tm12Si15Sn
_symmetry_space_group_name_H-M   'P 1'
_cell_length_a   7.48683024
_cell_length_b   7.79259573
_cell_length_c   14.78867765
_cell_angle_alpha   90.04622662
_cell_angle_beta   89.55186211
_cell_angle_gamma   90.12187956
_symmetry_Int_Tables_number   1
_chemical_formula_structural   Pr8Tm12Si15Sn
_chemical_formula_sum   'Pr8 Tm12 Si15 Sn1'
_cell_volume   862.77007290
_cell_formula_units_Z   1
loop_
 _symmetry_equiv_pos_site_id
 _symmetry_equiv_pos_as_xyz
  1  'x, y, z'
loop_
 _atom_site_type_symbol
 _atom_site_label
 _atom_site_symmetry_multiplicity
 _atom_site_fract_x
 _atom_site_fract_y
 _atom_site_fract_z
 _atom_site_occupancy
  Pr  Pr0  1  0.010534  0.170029  0.397906  1
  Pr  Pr1  1  0.514828  0.322219  0.398657  1
  Pr  Pr2  1  0.485811  0.676157  0.901886  1
  Pr  Pr3  1  0.496729  0.682576  0.601610  1
  Pr  Pr4  1  0.985805  0.829547  0.600447  1
  Pr  Pr5  1  0.984688  0.824277  0.901984  1
  Pr  Pr6  1  0.514603  0.323769  0.098766  1
  Pr  Pr7  1  0.015326  0.176156  0.098533  1
  Tm  Tm8  1  0.338480  0.164116  0.629095  1
  Tm  Tm9  1  0.666919  0.824168  0.374600  1
  Tm  Tm10  1  0.664045  0.992660  0.752423  1
  Tm  Tm11  1  0.167379  0.683214  0.371304  1
  Tm  Tm12  1  0.827130  0.323411  0.877209  1
  Tm  Tm13  1  0.819857  0.324250  0.624876  1
  Tm  Tm14  1  0.836872  0.492896  0.249218  1
  Tm  Tm15  1  0.338058  0.007269  0.248682  1
  Tm  Tm16  1  0.326723  0.175608  0.876872  1
  Tm  Tm17  1  0.172536  0.676697  0.123261  1
  Tm  Tm18  1  0.672166  0.822672  0.122547  1
  Tm  Tm19  1  0.162307  0.506699  0.754551  1
  Si  Si20  1  0.284302  0.874142  0.752270  1
  Si  Si21  1  0.464470  0.618004  0.248497  1
  Si  Si22  1  0.033972  0.121668  0.750983  1
  Si  Si23  1  0.533847  0.382445  0.752179  1
  Si  Si24  1  0.962909  0.882935  0.247486  1
  Si  Si25  1  0.715721  0.121386  0.247902  1
  Si  Si26  1  0.848872  0.533484  0.039292  1
  Si  Si27  1  0.348474  0.966394  0.039157  1
  Si  Si28  1  0.151066  0.465831  0.961510  1
  Si  Si29  1  0.655610  0.036045  0.537716  1
  Si  Si30  1  0.344644  0.965757  0.460653  1
  Si  Si31  1  0.836269  0.537704  0.458636  1
  Si  Si32  1  0.786498  0.623374  0.751453  1
  Si  Si33  1  0.215538  0.378257  0.249066  1
  Si  Si34  1  0.650325  0.034118  0.961118  1
  Sn  Sn35  1  0.166687  0.460064  0.537655  1
