# generated using pymatgen
data_YbEr6Co6Sn23
_symmetry_space_group_name_H-M   'P 1'
_cell_length_a   9.68852700
_cell_length_b   9.68852768
_cell_length_c   9.92694200
_cell_angle_alpha   90.00000000
_cell_angle_beta   90.00000000
_cell_angle_gamma   120.00000110
_symmetry_Int_Tables_number   1
_chemical_formula_structural   YbEr6Co6Sn23
_chemical_formula_sum   'Yb1 Er6 Co6 Sn23'
_cell_volume   806.97791521
_cell_formula_units_Z   1
loop_
 _symmetry_equiv_pos_site_id
 _symmetry_equiv_pos_as_xyz
  1  'x, y, z'
loop_
 _atom_site_type_symbol
 _atom_site_label
 _atom_site_symmetry_multiplicity
 _atom_site_fract_x
 _atom_site_fract_y
 _atom_site_fract_z
 _atom_site_occupancy
  Yb  Yb0  1  0.000000  0.000000  0.000000  1
  Er  Er1  1  0.480269  0.519731  0.305741  1
  Er  Er2  1  0.519731  0.480269  0.694259  1
  Er  Er3  1  0.480269  0.960537  0.305741  1
  Er  Er4  1  0.519731  0.039463  0.694259  1
  Er  Er5  1  0.039463  0.519731  0.305741  1
  Er  Er6  1  0.960537  0.480269  0.694259  1
  Co  Co7  1  0.831060  0.168940  0.198885  1
  Co  Co8  1  0.168940  0.831060  0.801115  1
  Co  Co9  1  0.831060  0.662120  0.198885  1
  Co  Co10  1  0.168940  0.337880  0.801115  1
  Co  Co11  1  0.337880  0.168940  0.198885  1
  Co  Co12  1  0.662120  0.831060  0.801115  1
  Sn  Sn13  1  0.117564  0.882436  0.273720  1
  Sn  Sn14  1  0.882436  0.117564  0.726280  1
  Sn  Sn15  1  0.117564  0.235129  0.273720  1
  Sn  Sn16  1  0.882436  0.764871  0.726280  1
  Sn  Sn17  1  0.764871  0.882436  0.273720  1
  Sn  Sn18  1  0.235129  0.117564  0.726280  1
  Sn  Sn19  1  0.780947  0.219053  0.453139  1
  Sn  Sn20  1  0.219053  0.780947  0.546861  1
  Sn  Sn21  1  0.780947  0.561893  0.453139  1
  Sn  Sn22  1  0.219053  0.438107  0.546861  1
  Sn  Sn23  1  0.438107  0.219053  0.453139  1
  Sn  Sn24  1  0.561893  0.780947  0.546861  1
  Sn  Sn25  1  0.346298  0.000000  0.000000  1
  Sn  Sn26  1  0.653702  0.000000  0.000000  1
  Sn  Sn27  1  0.000000  0.346298  0.000000  1
  Sn  Sn28  1  0.000000  0.653702  0.000000  1
  Sn  Sn29  1  0.653702  0.653702  0.000000  1
  Sn  Sn30  1  0.346298  0.346298  0.000000  1
  Sn  Sn31  1  0.333333  0.666667  0.121989  1
  Sn  Sn32  1  0.666667  0.333333  0.878011  1
  Sn  Sn33  1  0.333333  0.666667  0.816934  1
  Sn  Sn34  1  0.666667  0.333333  0.183066  1
  Sn  Sn35  1  0.000000  0.000000  0.500000  1
