# generated using pymatgen
data_LaNi5AsP2
_symmetry_space_group_name_H-M   'P 1'
_cell_length_a   6.20484950
_cell_length_b   6.20484874
_cell_length_c   11.56708200
_cell_angle_alpha   90.00000000
_cell_angle_beta   90.00000000
_cell_angle_gamma   145.24318462
_symmetry_Int_Tables_number   1
_chemical_formula_structural   LaNi5AsP2
_chemical_formula_sum   'La2 Ni10 As2 P4'
_cell_volume   253.88270208
_cell_formula_units_Z   2
loop_
 _symmetry_equiv_pos_site_id
 _symmetry_equiv_pos_as_xyz
  1  'x, y, z'
loop_
 _atom_site_type_symbol
 _atom_site_label
 _atom_site_symmetry_multiplicity
 _atom_site_fract_x
 _atom_site_fract_y
 _atom_site_fract_z
 _atom_site_occupancy
  La  La0  1  0.340052  0.659948  0.250000  1
  La  La1  1  0.659948  0.340052  0.750000  1
  Ni  Ni2  1  0.045334  0.954666  0.142517  1
  Ni  Ni3  1  0.045334  0.954666  0.357483  1
  Ni  Ni4  1  0.698872  0.301128  0.440908  1
  Ni  Ni5  1  0.301128  0.698872  0.559092  1
  Ni  Ni6  1  0.301128  0.698872  0.940908  1
  Ni  Ni7  1  0.698872  0.301128  0.059092  1
  Ni  Ni8  1  0.500000  0.500000  0.500000  1
  Ni  Ni9  1  0.500000  0.500000  0.000000  1
  Ni  Ni10  1  0.954666  0.045334  0.642517  1
  Ni  Ni11  1  0.954666  0.045334  0.857483  1
  As  As12  1  0.619437  0.380563  0.250000  1
  As  As13  1  0.380563  0.619437  0.750000  1
  P  P14  1  0.118507  0.881493  0.538040  1
  P  P15  1  0.881493  0.118507  0.461960  1
  P  P16  1  0.881493  0.118507  0.038040  1
  P  P17  1  0.118507  0.881493  0.961960  1
