# generated using pymatgen
data_ErSc2AuO7
_symmetry_space_group_name_H-M   'P 1'
_cell_length_a   6.24354100
_cell_length_b   6.24354171
_cell_length_c   7.19398800
_cell_angle_alpha   90.00000000
_cell_angle_beta   90.00000000
_cell_angle_gamma   108.81324262
_symmetry_Int_Tables_number   1
_chemical_formula_structural   ErSc2AuO7
_chemical_formula_sum   'Er2 Sc4 Au2 O14'
_cell_volume   265.45237172
_cell_formula_units_Z   2
loop_
 _symmetry_equiv_pos_site_id
 _symmetry_equiv_pos_as_xyz
  1  'x, y, z'
loop_
 _atom_site_type_symbol
 _atom_site_label
 _atom_site_symmetry_multiplicity
 _atom_site_fract_x
 _atom_site_fract_y
 _atom_site_fract_z
 _atom_site_occupancy
  Er  Er0  1  0.500327  0.500327  0.500000  1
  Er  Er1  1  0.499673  0.499673  0.000000  1
  Sc  Sc2  1  0.999776  0.472693  0.749913  1
  Sc  Sc3  1  0.000224  0.527307  0.249913  1
  Sc  Sc4  1  0.527307  0.000224  0.750087  1
  Sc  Sc5  1  0.472693  0.999776  0.250087  1
  Au  Au6  1  0.999883  0.999883  0.500000  1
  Au  Au7  1  0.000117  0.000117  0.000000  1
  O  O8  1  0.647221  0.352779  0.750000  1
  O  O9  1  0.352779  0.647221  0.250000  1
  O  O10  1  0.911945  0.088055  0.750000  1
  O  O11  1  0.088055  0.911945  0.250000  1
  O  O12  1  0.917363  0.658935  0.525208  1
  O  O13  1  0.082637  0.341065  0.025208  1
  O  O14  1  0.341065  0.082637  0.974792  1
  O  O15  1  0.658935  0.917363  0.474792  1
  O  O16  1  0.359063  0.640937  0.750000  1
  O  O17  1  0.640937  0.359063  0.250000  1
  O  O18  1  0.917470  0.658985  0.974662  1
  O  O19  1  0.082530  0.341015  0.474662  1
  O  O20  1  0.341015  0.082530  0.525338  1
  O  O21  1  0.658985  0.917470  0.025338  1
