# generated using pymatgen
data_La2Nd(GaRh)2
_symmetry_space_group_name_H-M   'P 1'
_cell_length_a   5.69132100
_cell_length_b   8.33142800
_cell_length_c   13.86686500
_cell_angle_alpha   90.00000000
_cell_angle_beta   90.00000000
_cell_angle_gamma   90.00000000
_symmetry_Int_Tables_number   1
_chemical_formula_structural   La2Nd(GaRh)2
_chemical_formula_sum   'La8 Nd4 Ga8 Rh8'
_cell_volume   657.52279610
_cell_formula_units_Z   4
loop_
 _symmetry_equiv_pos_site_id
 _symmetry_equiv_pos_as_xyz
  1  'x, y, z'
loop_
 _atom_site_type_symbol
 _atom_site_label
 _atom_site_symmetry_multiplicity
 _atom_site_fract_x
 _atom_site_fract_y
 _atom_site_fract_z
 _atom_site_occupancy
  La  La0  1  0.155835  0.399901  0.095802  1
  La  La1  1  0.844165  0.600099  0.904198  1
  La  La2  1  0.844165  0.600099  0.595802  1
  La  La3  1  0.844165  0.899901  0.404198  1
  La  La4  1  0.155835  0.399901  0.404198  1
  La  La5  1  0.155835  0.100099  0.595802  1
  La  La6  1  0.155835  0.100099  0.904198  1
  La  La7  1  0.844165  0.899901  0.095802  1
  Nd  Nd8  1  0.641661  0.257093  0.250000  1
  Nd  Nd9  1  0.358339  0.742907  0.750000  1
  Nd  Nd10  1  0.358339  0.757093  0.250000  1
  Nd  Nd11  1  0.641661  0.242907  0.750000  1
  Ga  Ga12  1  0.145267  0.105668  0.250000  1
  Ga  Ga13  1  0.854733  0.894332  0.750000  1
  Ga  Ga14  1  0.854733  0.605668  0.250000  1
  Ga  Ga15  1  0.145267  0.394332  0.750000  1
  Ga  Ga16  1  0.641557  0.250000  0.000000  1
  Ga  Ga17  1  0.358443  0.750000  0.000000  1
  Ga  Ga18  1  0.358443  0.750000  0.500000  1
  Ga  Ga19  1  0.641557  0.250000  0.500000  1
  Rh  Rh20  1  0.368579  0.031361  0.092532  1
  Rh  Rh21  1  0.631421  0.968639  0.907468  1
  Rh  Rh22  1  0.631421  0.968639  0.592532  1
  Rh  Rh23  1  0.631421  0.531361  0.407468  1
  Rh  Rh24  1  0.368579  0.031361  0.407468  1
  Rh  Rh25  1  0.368579  0.468639  0.592532  1
  Rh  Rh26  1  0.368579  0.468639  0.907468  1
  Rh  Rh27  1  0.631421  0.531361  0.092532  1
