# generated using pymatgen
data_HoLu(NiAs)2
_symmetry_space_group_name_H-M   'P 1'
_cell_length_a   4.01564600
_cell_length_b   4.01564698
_cell_length_c   15.29495300
_cell_angle_alpha   90.00000000
_cell_angle_beta   90.00000000
_cell_angle_gamma   120.00000842
_symmetry_Int_Tables_number   1
_chemical_formula_structural   HoLu(NiAs)2
_chemical_formula_sum   'Ho2 Lu2 Ni4 As4'
_cell_volume   213.59431450
_cell_formula_units_Z   2
loop_
 _symmetry_equiv_pos_site_id
 _symmetry_equiv_pos_as_xyz
  1  'x, y, z'
loop_
 _atom_site_type_symbol
 _atom_site_label
 _atom_site_symmetry_multiplicity
 _atom_site_fract_x
 _atom_site_fract_y
 _atom_site_fract_z
 _atom_site_occupancy
  Ho  Ho0  1  0.000000  0.000000  0.000000  1
  Ho  Ho1  1  0.000000  0.000000  0.500000  1
  Lu  Lu2  1  0.000000  0.000000  0.250000  1
  Lu  Lu3  1  0.000000  0.000000  0.750000  1
  Ni  Ni4  1  0.333333  0.666667  0.136648  1
  Ni  Ni5  1  0.666667  0.333333  0.863352  1
  Ni  Ni6  1  0.666667  0.333333  0.636648  1
  Ni  Ni7  1  0.333333  0.666667  0.363352  1
  As  As8  1  0.333333  0.666667  0.620841  1
  As  As9  1  0.666667  0.333333  0.379159  1
  As  As10  1  0.666667  0.333333  0.120841  1
  As  As11  1  0.333333  0.666667  0.879159  1
