# generated using pymatgen
data_Cs3Na2ThAs3
_symmetry_space_group_name_H-M   'P 1'
_cell_length_a   11.57814208
_cell_length_b   11.57814215
_cell_length_c   16.89437500
_cell_angle_alpha   90.00000000
_cell_angle_beta   90.00000000
_cell_angle_gamma   142.92125579
_symmetry_Int_Tables_number   1
_chemical_formula_structural   Cs3Na2ThAs3
_chemical_formula_sum   'Cs12 Na8 Th4 As12'
_cell_volume   1365.44386358
_cell_formula_units_Z   4
loop_
 _symmetry_equiv_pos_site_id
 _symmetry_equiv_pos_as_xyz
  1  'x, y, z'
loop_
 _atom_site_type_symbol
 _atom_site_label
 _atom_site_symmetry_multiplicity
 _atom_site_fract_x
 _atom_site_fract_y
 _atom_site_fract_z
 _atom_site_occupancy
  Cs  Cs0  1  0.605183  0.948523  0.822159  1
  Cs  Cs1  1  0.286195  0.286195  0.315699  1
  Cs  Cs2  1  0.213805  0.213805  0.815699  1
  Cs  Cs3  1  0.713805  0.713805  0.684301  1
  Cs  Cs4  1  0.448523  0.105183  0.677841  1
  Cs  Cs5  1  0.894817  0.551477  0.322159  1
  Cs  Cs6  1  0.051477  0.394817  0.177841  1
  Cs  Cs7  1  0.394817  0.051477  0.177841  1
  Cs  Cs8  1  0.551477  0.894817  0.322159  1
  Cs  Cs9  1  0.105183  0.448523  0.677841  1
  Cs  Cs10  1  0.948523  0.605183  0.822159  1
  Cs  Cs11  1  0.786195  0.786195  0.184301  1
  Na  Na12  1  0.082471  0.917529  0.000000  1
  Na  Na13  1  0.582471  0.417529  0.500000  1
  Na  Na14  1  0.917529  0.082471  0.000000  1
  Na  Na15  1  0.755949  0.244051  0.000000  1
  Na  Na16  1  0.744051  0.255949  0.500000  1
  Na  Na17  1  0.244051  0.755949  0.000000  1
  Na  Na18  1  0.255949  0.744051  0.500000  1
  Na  Na19  1  0.417529  0.582471  0.500000  1
  Th  Th20  1  0.088302  0.911698  0.500000  1
  Th  Th21  1  0.411698  0.588302  0.000000  1
  Th  Th22  1  0.911698  0.088302  0.500000  1
  Th  Th23  1  0.588302  0.411698  0.000000  1
  As  As24  1  0.069402  0.391889  0.404369  1
  As  As25  1  0.891889  0.569402  0.095631  1
  As  As26  1  0.430598  0.108111  0.904369  1
  As  As27  1  0.608111  0.930598  0.595631  1
  As  As28  1  0.930598  0.608111  0.595631  1
  As  As29  1  0.108111  0.430598  0.904369  1
  As  As30  1  0.569402  0.891889  0.095631  1
  As  As31  1  0.391889  0.069402  0.404369  1
  As  As32  1  0.219265  0.219265  0.589500  1
  As  As33  1  0.719265  0.719265  0.910500  1
  As  As34  1  0.280735  0.280735  0.089500  1
  As  As35  1  0.780735  0.780735  0.410500  1
