# generated using pymatgen
data_Lu10Si4Bi3Pb
_symmetry_space_group_name_H-M   'P 1'
_cell_length_a   8.44892732
_cell_length_b   8.44892879
_cell_length_c   7.76203200
_cell_angle_alpha   89.88398330
_cell_angle_beta   89.88399006
_cell_angle_gamma   125.30839627
_symmetry_Int_Tables_number   1
_chemical_formula_structural   Lu10Si4Bi3Pb
_chemical_formula_sum   'Lu10 Si4 Bi3 Pb1'
_cell_volume   452.16063137
_cell_formula_units_Z   1
loop_
 _symmetry_equiv_pos_site_id
 _symmetry_equiv_pos_as_xyz
  1  'x, y, z'
loop_
 _atom_site_type_symbol
 _atom_site_label
 _atom_site_symmetry_multiplicity
 _atom_site_fract_x
 _atom_site_fract_y
 _atom_site_fract_z
 _atom_site_occupancy
  Lu  Lu0  1  0.042483  0.284866  0.332540  1
  Lu  Lu1  1  0.955565  0.712384  0.665858  1
  Lu  Lu2  1  0.459427  0.214975  0.837528  1
  Lu  Lu3  1  0.785025  0.540573  0.162472  1
  Lu  Lu4  1  0.545428  0.788021  0.162586  1
  Lu  Lu5  1  0.211979  0.454572  0.837414  1
  Lu  Lu6  1  0.715134  0.957517  0.667460  1
  Lu  Lu7  1  0.287616  0.044435  0.334142  1
  Lu  Lu8  1  0.997496  0.002504  0.000000  1
  Lu  Lu9  1  0.500375  0.499625  0.500000  1
  Si  Si10  1  0.366879  0.366689  0.134056  1
  Si  Si11  1  0.633311  0.633121  0.865944  1
  Si  Si12  1  0.135282  0.133803  0.633573  1
  Si  Si13  1  0.866197  0.864718  0.366427  1
  Bi  Bi14  1  0.207367  0.792633  0.000000  1
  Bi  Bi15  1  0.707721  0.292279  0.500000  1
  Bi  Bi16  1  0.292377  0.707623  0.500000  1
  Pb  Pb17  1  0.790336  0.209664  0.000000  1
