# generated using pymatgen
data_TbPa(B2Ir)3
_symmetry_space_group_name_H-M   'P 1'
_cell_length_a   3.73502100
_cell_length_b   5.94278325
_cell_length_c   5.94278200
_cell_angle_alpha   94.07394275
_cell_angle_beta   90.00000000
_cell_angle_gamma   90.00000000
_symmetry_Int_Tables_number   1
_chemical_formula_structural   TbPa(B2Ir)3
_chemical_formula_sum   'Tb1 Pa1 B6 Ir3'
_cell_volume   131.57517972
_cell_formula_units_Z   1
loop_
 _symmetry_equiv_pos_site_id
 _symmetry_equiv_pos_as_xyz
  1  'x, y, z'
loop_
 _atom_site_type_symbol
 _atom_site_label
 _atom_site_symmetry_multiplicity
 _atom_site_fract_x
 _atom_site_fract_y
 _atom_site_fract_z
 _atom_site_occupancy
  Tb  Tb0  1  0.000000  0.729664  0.270336  1
  Pa  Pa1  1  0.000000  0.271833  0.728167  1
  B  B2  1  0.500000  0.914432  0.615161  1
  B  B3  1  0.500000  0.087081  0.388515  1
  B  B4  1  0.500000  0.611485  0.912919  1
  B  B5  1  0.500000  0.384839  0.085568  1
  B  B6  1  0.500000  0.604209  0.608758  1
  B  B7  1  0.500000  0.391242  0.395791  1
  Ir  Ir8  1  0.500000  0.005449  0.994551  1
  Ir  Ir9  1  0.000000  0.761916  0.762152  1
  Ir  Ir10  1  0.000000  0.237848  0.238084  1
