# generated using pymatgen
data_CeHo2AlC3
_symmetry_space_group_name_H-M   'P 1'
_cell_length_a   3.58828400
_cell_length_b   7.29223600
_cell_length_c   9.84942300
_cell_angle_alpha   90.00000000
_cell_angle_beta   90.00000000
_cell_angle_gamma   90.00000000
_symmetry_Int_Tables_number   1
_chemical_formula_structural   CeHo2AlC3
_chemical_formula_sum   'Ce2 Ho4 Al2 C6'
_cell_volume   257.72604743
_cell_formula_units_Z   2
loop_
 _symmetry_equiv_pos_site_id
 _symmetry_equiv_pos_as_xyz
  1  'x, y, z'
loop_
 _atom_site_type_symbol
 _atom_site_label
 _atom_site_symmetry_multiplicity
 _atom_site_fract_x
 _atom_site_fract_y
 _atom_site_fract_z
 _atom_site_occupancy
  Ce  Ce0  1  0.000000  0.750000  0.465723  1
  Ce  Ce1  1  0.000000  0.250000  0.534277  1
  Ho  Ho2  1  0.500000  0.518607  0.197274  1
  Ho  Ho3  1  0.500000  0.481393  0.802726  1
  Ho  Ho4  1  0.500000  0.981393  0.197274  1
  Ho  Ho5  1  0.500000  0.018607  0.802726  1
  Al  Al6  1  0.000000  0.750000  0.000724  1
  Al  Al7  1  0.000000  0.250000  0.999276  1
  C  C8  1  0.500000  0.506614  0.567877  1
  C  C9  1  0.500000  0.493386  0.432123  1
  C  C10  1  0.500000  0.993386  0.567877  1
  C  C11  1  0.500000  0.006614  0.432123  1
  C  C12  1  0.000000  0.750000  0.206564  1
  C  C13  1  0.000000  0.250000  0.793436  1
