# generated using pymatgen
data_Nb3Fe(Co4P3)2
_symmetry_space_group_name_H-M   'P 1'
_cell_length_a   11.77272395
_cell_length_b   11.79391084
_cell_length_c   3.58982900
_cell_angle_alpha   90.00000000
_cell_angle_beta   90.00000000
_cell_angle_gamma   120.05955578
_symmetry_Int_Tables_number   1
_chemical_formula_structural   Nb3Fe(Co4P3)2
_chemical_formula_sum   'Nb6 Fe2 Co16 P12'
_cell_volume   431.39812267
_cell_formula_units_Z   2
loop_
 _symmetry_equiv_pos_site_id
 _symmetry_equiv_pos_as_xyz
  1  'x, y, z'
loop_
 _atom_site_type_symbol
 _atom_site_label
 _atom_site_symmetry_multiplicity
 _atom_site_fract_x
 _atom_site_fract_y
 _atom_site_fract_z
 _atom_site_occupancy
  Nb  Nb0  1  0.817765  0.819080  0.500000  1
  Nb  Nb1  1  0.000000  0.175158  0.500000  1
  Nb  Nb2  1  0.332674  0.665856  0.000000  1
  Nb  Nb3  1  0.667326  0.333182  0.000000  1
  Nb  Nb4  1  0.000000  0.551557  0.000000  1
  Nb  Nb5  1  0.182235  0.001315  0.500000  1
  Fe  Fe6  1  0.450657  0.451543  0.000000  1
  Fe  Fe7  1  0.549343  0.000886  0.000000  1
  Co  Co8  1  0.622940  0.819553  0.000000  1
  Co  Co9  1  0.377060  0.196613  0.000000  1
  Co  Co10  1  0.000000  0.724493  0.500000  1
  Co  Co11  1  0.282150  0.281128  0.500000  1
  Co  Co12  1  0.868670  0.350796  0.500000  1
  Co  Co13  1  0.717850  0.998977  0.500000  1
  Co  Co14  1  0.817473  0.627637  0.000000  1
  Co  Co15  1  0.182527  0.810164  0.000000  1
  Co  Co16  1  0.358794  0.874510  0.500000  1
  Co  Co17  1  0.131330  0.482125  0.500000  1
  Co  Co18  1  0.641206  0.515716  0.500000  1
  Co  Co19  1  0.000000  0.000272  0.000000  1
  Co  Co20  1  0.515920  0.645762  0.500000  1
  Co  Co21  1  0.484080  0.129842  0.500000  1
  Co  Co22  1  0.197105  0.374284  0.000000  1
  Co  Co23  1  0.802895  0.177179  0.000000  1
  P  P24  1  0.000000  0.347758  0.000000  1
  P  P25  1  0.826389  0.515297  0.500000  1
  P  P26  1  0.681466  0.164366  0.500000  1
  P  P27  1  0.178161  0.175920  0.000000  1
  P  P28  1  0.636797  0.640118  0.000000  1
  P  P29  1  0.821839  0.997759  0.000000  1
  P  P30  1  0.516769  0.833815  0.500000  1
  P  P31  1  0.173611  0.688907  0.500000  1
  P  P32  1  0.363203  0.003322  0.000000  1
  P  P33  1  0.483231  0.317047  0.500000  1
  P  P34  1  0.000000  0.825162  0.000000  1
  P  P35  1  0.318534  0.482898  0.500000  1
