# generated using pymatgen
data_CeThIr7
_symmetry_space_group_name_H-M   'P 1'
_cell_length_a   5.34330872
_cell_length_b   5.34330904
_cell_length_c   13.59451764
_cell_angle_alpha   78.66621320
_cell_angle_beta   78.66621174
_cell_angle_gamma   60.00000178
_symmetry_Int_Tables_number   1
_chemical_formula_structural   CeThIr7
_chemical_formula_sum   'Ce2 Th2 Ir14'
_cell_volume   327.36680244
_cell_formula_units_Z   2
loop_
 _symmetry_equiv_pos_site_id
 _symmetry_equiv_pos_as_xyz
  1  'x, y, z'
loop_
 _atom_site_type_symbol
 _atom_site_label
 _atom_site_symmetry_multiplicity
 _atom_site_fract_x
 _atom_site_fract_y
 _atom_site_fract_z
 _atom_site_occupancy
  Ce  Ce0  1  0.852602  0.852602  0.442192  1
  Ce  Ce1  1  0.147398  0.147398  0.557808  1
  Th  Th2  1  0.949579  0.949579  0.151262  1
  Th  Th3  1  0.050421  0.050421  0.848738  1
  Ir  Ir4  1  0.500000  0.500000  0.500000  1
  Ir  Ir5  1  0.722438  0.722438  0.832685  1
  Ir  Ir6  1  0.277562  0.277562  0.167315  1
  Ir  Ir7  1  0.610814  0.610814  0.167557  1
  Ir  Ir8  1  0.389186  0.389186  0.832443  1
  Ir  Ir9  1  0.000000  0.500000  0.000000  1
  Ir  Ir10  1  0.500000  0.000000  0.000000  1
  Ir  Ir11  1  0.500000  0.500000  0.000000  1
  Ir  Ir12  1  0.388304  0.388304  0.331650  1
  Ir  Ir13  1  0.891742  0.388304  0.331650  1
  Ir  Ir14  1  0.388304  0.891742  0.331650  1
  Ir  Ir15  1  0.611696  0.611696  0.668350  1
  Ir  Ir16  1  0.108258  0.611696  0.668350  1
  Ir  Ir17  1  0.611696  0.108258  0.668350  1
