# generated using pymatgen
data_InCo2Sb11Pt2
_symmetry_space_group_name_H-M   'P 1'
_cell_length_a   7.98610216
_cell_length_b   7.98610209
_cell_length_c   7.97897400
_cell_angle_alpha   109.74131472
_cell_angle_beta   109.88707629
_cell_angle_gamma   108.82408879
_symmetry_Int_Tables_number   1
_chemical_formula_structural   InCo2Sb11Pt2
_chemical_formula_sum   'In1 Co2 Sb11 Pt2'
_cell_volume   391.51985119
_cell_formula_units_Z   1
loop_
 _symmetry_equiv_pos_site_id
 _symmetry_equiv_pos_as_xyz
  1  'x, y, z'
loop_
 _atom_site_type_symbol
 _atom_site_label
 _atom_site_symmetry_multiplicity
 _atom_site_fract_x
 _atom_site_fract_y
 _atom_site_fract_z
 _atom_site_occupancy
  In  In0  1  0.845025  0.657757  0.502782  1
  Co  Co1  1  0.004139  0.498186  0.999948  1
  Co  Co2  1  0.501762  0.995810  0.999948  1
  Sb  Sb3  1  0.836187  0.335258  0.171446  1
  Sb  Sb4  1  0.155046  0.673486  0.828530  1
  Sb  Sb5  1  0.332793  0.493645  0.147184  1
  Sb  Sb6  1  0.145553  0.352189  0.497742  1
  Sb  Sb7  1  0.653539  0.814390  0.147184  1
  Sb  Sb8  1  0.182128  0.833514  0.329815  1
  Sb  Sb9  1  0.673235  0.504023  0.851116  1
  Sb  Sb10  1  0.821555  0.163754  0.673416  1
  Sb  Sb11  1  0.347092  0.177882  0.851116  1
  Sb  Sb12  1  0.509663  0.851860  0.673416  1
  Sb  Sb13  1  0.496301  0.147687  0.329815  1
  Pt  Pt14  1  0.003402  0.005690  0.498270  1
  Pt  Pt15  1  0.492580  0.494868  0.498270  1
