# generated using pymatgen
data_MgTa7(NbN6)2
_symmetry_space_group_name_H-M   'P 1'
_cell_length_a   5.24863176
_cell_length_b   5.25312513
_cell_length_c   10.34996397
_cell_angle_alpha   90.04945982
_cell_angle_beta   89.97524860
_cell_angle_gamma   120.02833872
_symmetry_Int_Tables_number   1
_chemical_formula_structural   MgTa7(NbN6)2
_chemical_formula_sum   'Mg1 Ta7 Nb2 N12'
_cell_volume   247.06377351
_cell_formula_units_Z   1
loop_
 _symmetry_equiv_pos_site_id
 _symmetry_equiv_pos_as_xyz
  1  'x, y, z'
loop_
 _atom_site_type_symbol
 _atom_site_label
 _atom_site_symmetry_multiplicity
 _atom_site_fract_x
 _atom_site_fract_y
 _atom_site_fract_z
 _atom_site_occupancy
  Mg  Mg0  1  0.332396  0.666199  0.500000  1
  Ta  Ta1  1  0.665211  0.332605  0.000000  1
  Ta  Ta2  1  0.663493  0.331746  0.500000  1
  Ta  Ta3  1  0.333880  0.666940  0.000000  1
  Ta  Ta4  1  0.677706  0.996670  0.749948  1
  Ta  Ta5  1  0.677706  0.681036  0.250052  1
  Ta  Ta6  1  0.003984  0.323269  0.249995  1
  Ta  Ta7  1  0.003984  0.680715  0.750005  1
  Nb  Nb8  1  0.320656  0.323998  0.751483  1
  Nb  Nb9  1  0.320656  0.996658  0.248517  1
  N  N10  1  0.350596  0.348164  0.374760  1
  N  N11  1  0.660438  0.007054  0.374883  1
  N  N12  1  0.988388  0.644268  0.374489  1
  N  N13  1  0.995746  0.341024  0.880080  1
  N  N14  1  0.664472  0.000804  0.118979  1
  N  N15  1  0.664472  0.663668  0.881021  1
  N  N16  1  0.340525  0.997076  0.880298  1
  N  N17  1  0.660438  0.653384  0.625117  1
  N  N18  1  0.988388  0.344120  0.625511  1
  N  N19  1  0.995746  0.654722  0.119920  1
  N  N20  1  0.350596  0.002432  0.625240  1
  N  N21  1  0.340525  0.343449  0.119702  1
