# generated using pymatgen
data_U4Cr(ReP)6
_symmetry_space_group_name_H-M   'P 1'
_cell_length_a   7.04252830
_cell_length_b   7.04252859
_cell_length_c   7.04252758
_cell_angle_alpha   109.42223397
_cell_angle_beta   109.56923922
_cell_angle_gamma   109.42222423
_symmetry_Int_Tables_number   1
_chemical_formula_structural   U4Cr(ReP)6
_chemical_formula_sum   'U4 Cr1 Re6 P6'
_cell_volume   268.88277370
_cell_formula_units_Z   1
loop_
 _symmetry_equiv_pos_site_id
 _symmetry_equiv_pos_as_xyz
  1  'x, y, z'
loop_
 _atom_site_type_symbol
 _atom_site_label
 _atom_site_symmetry_multiplicity
 _atom_site_fract_x
 _atom_site_fract_y
 _atom_site_fract_z
 _atom_site_occupancy
  U  U0  1  0.997340  0.994680  0.497340  1
  U  U1  1  0.502660  0.005320  0.002660  1
  U  U2  1  0.997340  0.500000  0.002660  1
  U  U3  1  0.502660  0.500000  0.497340  1
  Cr  Cr4  1  0.750000  0.500000  0.250000  1
  Re  Re5  1  0.500112  0.749534  0.249646  1
  Re  Re6  1  0.500112  0.250466  0.750578  1
  Re  Re7  1  0.750354  0.250466  0.499888  1
  Re  Re8  1  0.249422  0.749534  0.499888  1
  Re  Re9  1  0.250000  0.500000  0.750000  1
  Re  Re10  1  0.000000  0.000000  0.000000  1
  P  P11  1  0.309691  0.000000  0.309691  1
  P  P12  1  0.996497  0.313281  0.309778  1
  P  P13  1  0.996497  0.686719  0.683216  1
  P  P14  1  0.316784  0.313281  0.003503  1
  P  P15  1  0.690222  0.686719  0.003503  1
  P  P16  1  0.690309  0.000000  0.690309  1
