# generated using pymatgen
data_Pa6Ga5Tc6Ir
_symmetry_space_group_name_H-M   'P 1'
_cell_length_a   9.52798600
_cell_length_b   9.52798507
_cell_length_c   8.33510700
_cell_angle_alpha   90.00000000
_cell_angle_beta   90.00000000
_cell_angle_gamma   119.99998935
_symmetry_Int_Tables_number   1
_chemical_formula_structural   Pa6Ga5Tc6Ir
_chemical_formula_sum   'Pa12 Ga10 Tc12 Ir2'
_cell_volume   655.30583614
_cell_formula_units_Z   2
loop_
 _symmetry_equiv_pos_site_id
 _symmetry_equiv_pos_as_xyz
  1  'x, y, z'
loop_
 _atom_site_type_symbol
 _atom_site_label
 _atom_site_symmetry_multiplicity
 _atom_site_fract_x
 _atom_site_fract_y
 _atom_site_fract_z
 _atom_site_occupancy
  Pa  Pa0  1  0.334448  0.000000  0.066391  1
  Pa  Pa1  1  0.665552  0.000000  0.933609  1
  Pa  Pa2  1  0.000000  0.334448  0.066391  1
  Pa  Pa3  1  0.665552  0.000000  0.566391  1
  Pa  Pa4  1  0.000000  0.334448  0.433609  1
  Pa  Pa5  1  0.000000  0.665552  0.933609  1
  Pa  Pa6  1  0.334448  0.000000  0.433609  1
  Pa  Pa7  1  0.000000  0.665552  0.566391  1
  Pa  Pa8  1  0.665552  0.665552  0.066391  1
  Pa  Pa9  1  0.334448  0.334448  0.933609  1
  Pa  Pa10  1  0.334448  0.334448  0.566391  1
  Pa  Pa11  1  0.665552  0.665552  0.433609  1
  Ga  Ga12  1  0.333333  0.666667  0.500000  1
  Ga  Ga13  1  0.666667  0.333333  0.500000  1
  Ga  Ga14  1  0.666667  0.333333  0.000000  1
  Ga  Ga15  1  0.333333  0.666667  0.000000  1
  Ga  Ga16  1  0.167571  0.000000  0.750000  1
  Ga  Ga17  1  0.832429  0.000000  0.250000  1
  Ga  Ga18  1  0.000000  0.167571  0.750000  1
  Ga  Ga19  1  0.000000  0.832429  0.250000  1
  Ga  Ga20  1  0.832429  0.832429  0.750000  1
  Ga  Ga21  1  0.167571  0.167571  0.250000  1
  Tc  Tc22  1  0.160335  0.489188  0.750000  1
  Tc  Tc23  1  0.839665  0.510812  0.250000  1
  Tc  Tc24  1  0.510812  0.671148  0.750000  1
  Tc  Tc25  1  0.489188  0.160335  0.750000  1
  Tc  Tc26  1  0.489188  0.328852  0.250000  1
  Tc  Tc27  1  0.510812  0.839665  0.250000  1
  Tc  Tc28  1  0.328852  0.839665  0.750000  1
  Tc  Tc29  1  0.671148  0.510812  0.750000  1
  Tc  Tc30  1  0.671148  0.160335  0.250000  1
  Tc  Tc31  1  0.328852  0.489188  0.250000  1
  Tc  Tc32  1  0.839665  0.328852  0.750000  1
  Tc  Tc33  1  0.160335  0.671148  0.250000  1
  Ir  Ir34  1  0.000000  0.000000  0.500000  1
  Ir  Ir35  1  0.000000  0.000000  0.000000  1
