# generated using pymatgen
data_MgNpO4
_symmetry_space_group_name_H-M   'P 1'
_cell_length_a   5.83099504
_cell_length_b   5.83099380
_cell_length_c   5.83099335
_cell_angle_alpha   107.53287711
_cell_angle_beta   109.50622297
_cell_angle_gamma   111.39759050
_symmetry_Int_Tables_number   1
_chemical_formula_structural   MgNpO4
_chemical_formula_sum   'Mg2 Np2 O8'
_cell_volume   152.44453436
_cell_formula_units_Z   2
loop_
 _symmetry_equiv_pos_site_id
 _symmetry_equiv_pos_as_xyz
  1  'x, y, z'
loop_
 _atom_site_type_symbol
 _atom_site_label
 _atom_site_symmetry_multiplicity
 _atom_site_fract_x
 _atom_site_fract_y
 _atom_site_fract_z
 _atom_site_occupancy
  Mg  Mg0  1  0.500000  0.000000  0.500000  1
  Mg  Mg1  1  0.500000  0.500000  0.000000  1
  Np  Np2  1  0.008723  0.250000  0.258723  1
  Np  Np3  1  0.991277  0.750000  0.741277  1
  O  O4  1  0.808708  0.491572  0.300280  1
  O  O5  1  0.191292  0.508428  0.699720  1
  O  O6  1  0.808708  0.008428  0.817137  1
  O  O7  1  0.191292  0.991572  0.182863  1
  O  O8  1  0.714087  0.953623  0.260465  1
  O  O9  1  0.693158  0.453623  0.739535  1
  O  O10  1  0.306842  0.546377  0.260465  1
  O  O11  1  0.285913  0.046377  0.739535  1
