# generated using pymatgen
data_Yb10CuHg2Pd3
_symmetry_space_group_name_H-M   'P 1'
_cell_length_a   8.99607502
_cell_length_b   8.99607392
_cell_length_c   9.01398427
_cell_angle_alpha   128.84100127
_cell_angle_beta   128.84100893
_cell_angle_gamma   75.11853818
_symmetry_Int_Tables_number   1
_chemical_formula_structural   Yb10CuHg2Pd3
_chemical_formula_sum   'Yb10 Cu1 Hg2 Pd3'
_cell_volume   431.21258495
_cell_formula_units_Z   1
loop_
 _symmetry_equiv_pos_site_id
 _symmetry_equiv_pos_as_xyz
  1  'x, y, z'
loop_
 _atom_site_type_symbol
 _atom_site_label
 _atom_site_symmetry_multiplicity
 _atom_site_fract_x
 _atom_site_fract_y
 _atom_site_fract_z
 _atom_site_occupancy
  Yb  Yb0  1  0.500350  0.501476  0.001826  1
  Yb  Yb1  1  0.998524  0.999650  0.998174  1
  Yb  Yb2  1  0.534530  0.032635  0.837552  1
  Yb  Yb3  1  0.196979  0.695084  0.162448  1
  Yb  Yb4  1  0.031977  0.199895  0.500000  1
  Yb  Yb5  1  0.697514  0.534171  0.500000  1
  Yb  Yb6  1  0.467365  0.965470  0.162448  1
  Yb  Yb7  1  0.804916  0.303021  0.837552  1
  Yb  Yb8  1  0.965829  0.802486  0.500000  1
  Yb  Yb9  1  0.300105  0.468023  0.500000  1
  Cu  Cu10  1  0.378678  0.121322  0.500000  1
  Hg  Hg11  1  0.250253  0.249747  0.000000  1
  Hg  Hg12  1  0.750253  0.749747  0.000000  1
  Pd  Pd13  1  0.130462  0.630621  0.761083  1
  Pd  Pd14  1  0.869379  0.369538  0.238917  1
  Pd  Pd15  1  0.622885  0.877115  0.500000  1
