# generated using pymatgen
data_KSr4Bi2P
_symmetry_space_group_name_H-M   'P 1'
_cell_length_a   8.60486100
_cell_length_b   10.01767300
_cell_length_c   13.74906900
_cell_angle_alpha   90.00000000
_cell_angle_beta   90.00000000
_cell_angle_gamma   90.00000000
_symmetry_Int_Tables_number   1
_chemical_formula_structural   KSr4Bi2P
_chemical_formula_sum   'K4 Sr16 Bi8 P4'
_cell_volume   1185.17914815
_cell_formula_units_Z   4
loop_
 _symmetry_equiv_pos_site_id
 _symmetry_equiv_pos_as_xyz
  1  'x, y, z'
loop_
 _atom_site_type_symbol
 _atom_site_label
 _atom_site_symmetry_multiplicity
 _atom_site_fract_x
 _atom_site_fract_y
 _atom_site_fract_z
 _atom_site_occupancy
  K  K0  1  0.014139  0.750000  0.499929  1
  K  K1  1  0.985861  0.250000  0.500071  1
  K  K2  1  0.514139  0.250000  0.000071  1
  K  K3  1  0.485861  0.750000  0.999929  1
  Sr  Sr4  1  0.846678  0.750000  0.803025  1
  Sr  Sr5  1  0.153322  0.250000  0.196975  1
  Sr  Sr6  1  0.346678  0.250000  0.696975  1
  Sr  Sr7  1  0.653322  0.750000  0.303025  1
  Sr  Sr8  1  0.683156  0.504771  0.573407  1
  Sr  Sr9  1  0.316844  0.495229  0.426593  1
  Sr  Sr10  1  0.183156  0.495229  0.926593  1
  Sr  Sr11  1  0.316844  0.004771  0.426593  1
  Sr  Sr12  1  0.816844  0.504771  0.073407  1
  Sr  Sr13  1  0.683156  0.995229  0.573407  1
  Sr  Sr14  1  0.816844  0.995229  0.073407  1
  Sr  Sr15  1  0.183156  0.004771  0.926593  1
  Sr  Sr16  1  0.343200  0.750000  0.700062  1
  Sr  Sr17  1  0.656800  0.250000  0.299938  1
  Sr  Sr18  1  0.843200  0.250000  0.799938  1
  Sr  Sr19  1  0.156800  0.750000  0.200062  1
  Bi  Bi20  1  0.559817  0.500953  0.820749  1
  Bi  Bi21  1  0.440183  0.499047  0.179251  1
  Bi  Bi22  1  0.059817  0.499047  0.679251  1
  Bi  Bi23  1  0.440183  0.000953  0.179251  1
  Bi  Bi24  1  0.940183  0.500953  0.320749  1
  Bi  Bi25  1  0.559817  0.999047  0.820749  1
  Bi  Bi26  1  0.940183  0.999047  0.320749  1
  Bi  Bi27  1  0.059817  0.000953  0.679251  1
  P  P28  1  0.009226  0.750000  0.998874  1
  P  P29  1  0.990774  0.250000  0.001126  1
  P  P30  1  0.509226  0.250000  0.501126  1
  P  P31  1  0.490774  0.750000  0.498874  1
