# generated using pymatgen
data_CaSn4(PdRh2)2
_symmetry_space_group_name_H-M   'P 1'
_cell_length_a   7.73195160
_cell_length_b   7.80150740
_cell_length_c   4.02435700
_cell_angle_alpha   90.00000000
_cell_angle_beta   90.00000000
_cell_angle_gamma   120.29802870
_symmetry_Int_Tables_number   1
_chemical_formula_structural   CaSn4(PdRh2)2
_chemical_formula_sum   'Ca1 Sn4 Pd2 Rh4'
_cell_volume   209.59585471
_cell_formula_units_Z   1
loop_
 _symmetry_equiv_pos_site_id
 _symmetry_equiv_pos_as_xyz
  1  'x, y, z'
loop_
 _atom_site_type_symbol
 _atom_site_label
 _atom_site_symmetry_multiplicity
 _atom_site_fract_x
 _atom_site_fract_y
 _atom_site_fract_z
 _atom_site_occupancy
  Ca  Ca0  1  0.992291  0.996145  0.000000  1
  Sn  Sn1  1  0.802004  0.193500  0.500000  1
  Sn  Sn2  1  0.393061  0.196530  0.500000  1
  Sn  Sn3  1  0.340620  0.670311  0.000000  1
  Sn  Sn4  1  0.802004  0.608504  0.500000  1
  Pd  Pd5  1  0.200707  0.800469  0.500000  1
  Pd  Pd6  1  0.200707  0.400239  0.500000  1
  Rh  Rh7  1  0.532392  0.068109  0.000000  1
  Rh  Rh8  1  0.934039  0.467020  0.000000  1
  Rh  Rh9  1  0.532392  0.464284  0.000000  1
  Rh  Rh10  1  0.603115  0.801558  0.500000  1
