# generated using pymatgen
data_ThPd8
_symmetry_space_group_name_H-M   'P 1'
_cell_length_a   6.42132856
_cell_length_b   6.42132850
_cell_length_c   6.42132811
_cell_angle_alpha   95.90004123
_cell_angle_beta   95.90004258
_cell_angle_gamma   142.59989146
_symmetry_Int_Tables_number   1
_chemical_formula_structural   ThPd8
_chemical_formula_sum   'Th1 Pd8'
_cell_volume   152.32791338
_cell_formula_units_Z   1
loop_
 _symmetry_equiv_pos_site_id
 _symmetry_equiv_pos_as_xyz
  1  'x, y, z'
loop_
 _atom_site_type_symbol
 _atom_site_label
 _atom_site_symmetry_multiplicity
 _atom_site_fract_x
 _atom_site_fract_y
 _atom_site_fract_z
 _atom_site_occupancy
  Th  Th0  1  0.000000  0.000000  0.000000  1
  Pd  Pd1  1  0.671189  0.328813  0.000000  1
  Pd  Pd2  1  0.328813  0.671189  0.000000  1
  Pd  Pd3  1  0.336851  0.000000  0.336851  1
  Pd  Pd4  1  0.000000  0.336851  0.336851  1
  Pd  Pd5  1  0.671189  0.671189  0.342377  1
  Pd  Pd6  1  0.328812  0.328812  0.657623  1
  Pd  Pd7  1  0.663149  0.000000  0.663149  1
  Pd  Pd8  1  0.000000  0.663149  0.663149  1
