# generated using pymatgen
data_Y7Co2Sn23Os4
_symmetry_space_group_name_H-M   'P 1'
_cell_length_a   9.82817053
_cell_length_b   9.82817095
_cell_length_c   10.11390590
_cell_angle_alpha   90.15871833
_cell_angle_beta   89.84127972
_cell_angle_gamma   119.98645080
_symmetry_Int_Tables_number   1
_chemical_formula_structural   Y7Co2Sn23Os4
_chemical_formula_sum   'Y7 Co2 Sn23 Os4'
_cell_volume   846.15900683
_cell_formula_units_Z   1
loop_
 _symmetry_equiv_pos_site_id
 _symmetry_equiv_pos_as_xyz
  1  'x, y, z'
loop_
 _atom_site_type_symbol
 _atom_site_label
 _atom_site_symmetry_multiplicity
 _atom_site_fract_x
 _atom_site_fract_y
 _atom_site_fract_z
 _atom_site_occupancy
  Y  Y0  1  0.995169  0.004831  0.987552  1
  Y  Y1  1  0.038034  0.517231  0.305618  1
  Y  Y2  1  0.482769  0.961966  0.305618  1
  Y  Y3  1  0.481295  0.518705  0.306507  1
  Y  Y4  1  0.965600  0.482636  0.696712  1
  Y  Y5  1  0.517364  0.034400  0.696712  1
  Y  Y6  1  0.517638  0.482362  0.695905  1
  Co  Co7  1  0.339575  0.169921  0.199521  1
  Co  Co8  1  0.830079  0.660425  0.199521  1
  Sn  Sn9  1  0.000501  0.999499  0.496542  1
  Sn  Sn10  1  0.115526  0.884474  0.269580  1
  Sn  Sn11  1  0.766839  0.877301  0.271531  1
  Sn  Sn12  1  0.122699  0.233161  0.271531  1
  Sn  Sn13  1  0.882542  0.117458  0.721630  1
  Sn  Sn14  1  0.236395  0.117684  0.723435  1
  Sn  Sn15  1  0.882316  0.763605  0.723435  1
  Sn  Sn16  1  0.347248  0.003095  0.005440  1
  Sn  Sn17  1  0.653722  0.650030  0.004944  1
  Sn  Sn18  1  0.998541  0.351365  0.000489  1
  Sn  Sn19  1  0.349970  0.346278  0.004944  1
  Sn  Sn20  1  0.996905  0.652752  0.005440  1
  Sn  Sn21  1  0.648635  0.001459  0.000489  1
  Sn  Sn22  1  0.783006  0.564979  0.452778  1
  Sn  Sn23  1  0.780421  0.219579  0.459924  1
  Sn  Sn24  1  0.435021  0.216994  0.452778  1
  Sn  Sn25  1  0.219745  0.438862  0.541815  1
  Sn  Sn26  1  0.219461  0.780539  0.541304  1
  Sn  Sn27  1  0.561138  0.780255  0.541815  1
  Sn  Sn28  1  0.665608  0.334392  0.182417  1
  Sn  Sn29  1  0.333298  0.666702  0.823221  1
  Sn  Sn30  1  0.666801  0.333199  0.879455  1
  Sn  Sn31  1  0.333567  0.666433  0.124196  1
  Os  Os32  1  0.168733  0.831267  0.801745  1
  Os  Os33  1  0.662831  0.830487  0.801851  1
  Os  Os34  1  0.169513  0.337169  0.801851  1
  Os  Os35  1  0.831497  0.168503  0.201755  1
