# generated using pymatgen
data_Zr4V6ReRh
_symmetry_space_group_name_H-M   'P 1'
_cell_length_a   5.29651500
_cell_length_b   5.29651651
_cell_length_c   8.33862100
_cell_angle_alpha   90.00000000
_cell_angle_beta   90.00000000
_cell_angle_gamma   119.99999680
_symmetry_Int_Tables_number   1
_chemical_formula_structural   Zr4V6ReRh
_chemical_formula_sum   'Zr4 V6 Re1 Rh1'
_cell_volume   202.58412876
_cell_formula_units_Z   1
loop_
 _symmetry_equiv_pos_site_id
 _symmetry_equiv_pos_as_xyz
  1  'x, y, z'
loop_
 _atom_site_type_symbol
 _atom_site_label
 _atom_site_symmetry_multiplicity
 _atom_site_fract_x
 _atom_site_fract_y
 _atom_site_fract_z
 _atom_site_occupancy
  Zr  Zr0  1  0.333333  0.666667  0.439863  1
  Zr  Zr1  1  0.666667  0.333333  0.560137  1
  Zr  Zr2  1  0.666667  0.333333  0.940714  1
  Zr  Zr3  1  0.333333  0.666667  0.059286  1
  V  V4  1  0.830576  0.169424  0.252865  1
  V  V5  1  0.830576  0.661153  0.252865  1
  V  V6  1  0.338847  0.169424  0.252865  1
  V  V7  1  0.169424  0.830576  0.747135  1
  V  V8  1  0.169424  0.338847  0.747135  1
  V  V9  1  0.661153  0.830576  0.747135  1
  Re  Re10  1  0.000000  0.000000  0.500000  1
  Rh  Rh11  1  0.000000  0.000000  0.000000  1
