# generated using pymatgen
data_Er20FeCo3Bi8
_symmetry_space_group_name_H-M   'P 1'
_cell_length_a   7.92508162
_cell_length_b   8.85257600
_cell_length_c   12.31398420
_cell_angle_alpha   90.00000000
_cell_angle_beta   89.95315303
_cell_angle_gamma   90.00000000
_symmetry_Int_Tables_number   1
_chemical_formula_structural   Er20FeCo3Bi8
_chemical_formula_sum   'Er20 Fe1 Co3 Bi8'
_cell_volume   863.91666996
_cell_formula_units_Z   1
loop_
 _symmetry_equiv_pos_site_id
 _symmetry_equiv_pos_as_xyz
  1  'x, y, z'
loop_
 _atom_site_type_symbol
 _atom_site_label
 _atom_site_symmetry_multiplicity
 _atom_site_fract_x
 _atom_site_fract_y
 _atom_site_fract_z
 _atom_site_occupancy
  Er  Er0  1  0.346359  0.750000  0.700327  1
  Er  Er1  1  0.652746  0.250000  0.300758  1
  Er  Er2  1  0.847200  0.250000  0.800036  1
  Er  Er3  1  0.151974  0.750000  0.199213  1
  Er  Er4  1  0.887021  0.750000  0.811707  1
  Er  Er5  1  0.114061  0.250000  0.188832  1
  Er  Er6  1  0.385953  0.250000  0.687993  1
  Er  Er7  1  0.613578  0.750000  0.312588  1
  Er  Er8  1  0.675039  0.537403  0.563263  1
  Er  Er9  1  0.325053  0.461545  0.436883  1
  Er  Er10  1  0.173857  0.464248  0.937634  1
  Er  Er11  1  0.325053  0.038455  0.436883  1
  Er  Er12  1  0.824875  0.538799  0.062784  1
  Er  Er13  1  0.675039  0.962597  0.563263  1
  Er  Er14  1  0.824875  0.961201  0.062784  1
  Er  Er15  1  0.173857  0.035752  0.937634  1
  Er  Er16  1  0.053456  0.750000  0.497172  1
  Er  Er17  1  0.946947  0.250000  0.502483  1
  Er  Er18  1  0.554676  0.250000  0.002738  1
  Er  Er19  1  0.444898  0.750000  0.996687  1
  Fe  Fe20  1  0.069240  0.750000  0.990877  1
  Co  Co21  1  0.932748  0.250000  0.008413  1
  Co  Co22  1  0.566011  0.250000  0.508254  1
  Co  Co23  1  0.434095  0.750000  0.492391  1
  Bi  Bi24  1  0.571987  0.509288  0.826548  1
  Bi  Bi25  1  0.428908  0.490800  0.173035  1
  Bi  Bi26  1  0.071646  0.490825  0.672971  1
  Bi  Bi27  1  0.428908  0.009200  0.173035  1
  Bi  Bi28  1  0.928153  0.509398  0.326646  1
  Bi  Bi29  1  0.571987  0.990712  0.826548  1
  Bi  Bi30  1  0.928153  0.990602  0.326646  1
  Bi  Bi31  1  0.071646  0.009175  0.672971  1
