# generated using pymatgen
data_U3P6RhO24
_symmetry_space_group_name_H-M   'P 1'
_cell_length_a   9.08204605
_cell_length_b   9.08243364
_cell_length_c   9.39518500
_cell_angle_alpha   90.08911274
_cell_angle_beta   118.79524108
_cell_angle_gamma   119.99585765
_symmetry_Int_Tables_number   1
_chemical_formula_structural   U3P6RhO24
_chemical_formula_sum   'U3 P6 Rh1 O24'
_cell_volume   557.39139494
_cell_formula_units_Z   1
loop_
 _symmetry_equiv_pos_site_id
 _symmetry_equiv_pos_as_xyz
  1  'x, y, z'
loop_
 _atom_site_type_symbol
 _atom_site_label
 _atom_site_symmetry_multiplicity
 _atom_site_fract_x
 _atom_site_fract_y
 _atom_site_fract_z
 _atom_site_occupancy
  U  U0  1  0.782359  0.640234  0.423248  1
  U  U1  1  0.207092  0.354154  0.561336  1
  U  U2  1  0.784562  0.141614  0.926067  1
  P  P3  1  0.015738  0.963965  0.241106  1
  P  P4  1  0.277152  0.552152  0.242872  1
  P  P5  1  0.276848  0.744936  0.760167  1
  P  P6  1  0.689762  0.224362  0.243467  1
  P  P7  1  0.729712  0.485635  0.761172  1
  P  P8  1  0.018230  0.032980  0.762474  1
  Rh  Rh9  1  0.207410  0.854970  0.061950  1
  O  O10  1  0.276403  0.716297  0.224094  1
  O  O11  1  0.874080  0.991235  0.080481  1
  O  O12  1  0.872909  0.863888  0.600843  1
  O  O13  1  0.872388  0.800770  0.273534  1
  O  O14  1  0.166372  0.947085  0.228648  1
  O  O15  1  0.473955  0.573714  0.276474  1
  O  O16  1  0.092846  0.725243  0.594187  1
  O  O17  1  0.902590  0.650673  0.917725  1
  O  O18  1  0.271158  0.759463  0.917464  1
  O  O19  1  0.473333  0.907018  0.780577  1
  O  O20  1  0.733927  0.502538  0.597379  1
  O  O21  1  0.697793  0.398504  0.270959  1
  O  O22  1  0.271137  0.574130  0.722928  1
  O  O23  1  0.266253  0.511917  0.401346  1
  O  O24  1  0.508803  0.059638  0.227957  1
  O  O25  1  0.705383  0.206076  0.086435  1
  O  O26  1  0.090411  0.378636  0.085630  1
  O  O27  1  0.890050  0.259004  0.403938  1
  O  O28  1  0.524319  0.451521  0.717509  1
  O  O29  1  0.875897  0.068715  0.780117  1
  O  O30  1  0.148803  0.194359  0.720220  1
  O  O31  1  0.140072  0.133653  0.397664  1
  O  O32  1  0.163910  0.019334  0.923578  1
  O  O33  1  0.718340  0.311585  0.786456  1
