# generated using pymatgen
data_NdDy2Be2(PPd5)4
_symmetry_space_group_name_H-M   'P 1'
_cell_length_a   8.68769607
_cell_length_b   8.60922900
_cell_length_c   8.60923000
_cell_angle_alpha   60.60391453
_cell_angle_beta   59.69805227
_cell_angle_gamma   59.69804014
_symmetry_Int_Tables_number   1
_chemical_formula_structural   NdDy2Be2(PPd5)4
_chemical_formula_sum   'Nd1 Dy2 Be2 P4 Pd20'
_cell_volume   455.24521607
_cell_formula_units_Z   1
loop_
 _symmetry_equiv_pos_site_id
 _symmetry_equiv_pos_as_xyz
  1  'x, y, z'
loop_
 _atom_site_type_symbol
 _atom_site_label
 _atom_site_symmetry_multiplicity
 _atom_site_fract_x
 _atom_site_fract_y
 _atom_site_fract_z
 _atom_site_occupancy
  Nd  Nd0  1  0.750000  0.750000  0.750000  1
  Dy  Dy1  1  0.250000  0.250000  0.250000  1
  Dy  Dy2  1  0.000000  0.000000  0.000000  1
  Be  Be3  1  0.733002  0.266998  0.266998  1
  Be  Be4  1  0.266998  0.733002  0.733002  1
  P  P5  1  0.265771  0.734229  0.265771  1
  P  P6  1  0.734229  0.265771  0.734229  1
  P  P7  1  0.265771  0.265771  0.734229  1
  P  P8  1  0.734229  0.734229  0.265771  1
  Pd  Pd9  1  0.386881  0.382253  0.382253  1
  Pd  Pd10  1  0.610093  0.615698  0.615698  1
  Pd  Pd11  1  0.382253  0.386881  0.848615  1
  Pd  Pd12  1  0.382253  0.848615  0.386881  1
  Pd  Pd13  1  0.615698  0.610093  0.158508  1
  Pd  Pd14  1  0.615698  0.158508  0.610093  1
  Pd  Pd15  1  0.848615  0.382253  0.382253  1
  Pd  Pd16  1  0.158508  0.615698  0.615698  1
  Pd  Pd17  1  0.343533  0.000937  0.000937  1
  Pd  Pd18  1  0.654592  0.000937  0.000937  1
  Pd  Pd19  1  0.000937  0.343533  0.654592  1
  Pd  Pd20  1  0.000937  0.654592  0.343533  1
  Pd  Pd21  1  0.997512  0.342915  0.003655  1
  Pd  Pd22  1  0.655919  0.003655  0.342915  1
  Pd  Pd23  1  0.003655  0.655919  0.997512  1
  Pd  Pd24  1  0.342915  0.997512  0.655919  1
  Pd  Pd25  1  0.997512  0.003655  0.342915  1
  Pd  Pd26  1  0.003655  0.997512  0.655919  1
  Pd  Pd27  1  0.655919  0.342915  0.003655  1
  Pd  Pd28  1  0.342915  0.655919  0.997512  1
