# generated using pymatgen
data_Hf16Ir5Pd3O4
_symmetry_space_group_name_H-M   'P 1'
_cell_length_a   8.76405748
_cell_length_b   8.76405702
_cell_length_c   8.76405812
_cell_angle_alpha   60.07468084
_cell_angle_beta   60.07468465
_cell_angle_gamma   60.07468949
_symmetry_Int_Tables_number   1
_chemical_formula_structural   Hf16Ir5Pd3O4
_chemical_formula_sum   'Hf16 Ir5 Pd3 O4'
_cell_volume   476.79872306
_cell_formula_units_Z   1
loop_
 _symmetry_equiv_pos_site_id
 _symmetry_equiv_pos_as_xyz
  1  'x, y, z'
loop_
 _atom_site_type_symbol
 _atom_site_label
 _atom_site_symmetry_multiplicity
 _atom_site_fract_x
 _atom_site_fract_y
 _atom_site_fract_z
 _atom_site_occupancy
  Hf  Hf0  1  0.119551  0.625651  0.625651  1
  Hf  Hf1  1  0.625651  0.119551  0.625651  1
  Hf  Hf2  1  0.625651  0.625651  0.119551  1
  Hf  Hf3  1  0.629993  0.629993  0.629993  1
  Hf  Hf4  1  0.817082  0.817082  0.183048  1
  Hf  Hf5  1  0.184327  0.184327  0.815262  1
  Hf  Hf6  1  0.817082  0.183048  0.817082  1
  Hf  Hf7  1  0.184327  0.815262  0.184327  1
  Hf  Hf8  1  0.183048  0.817082  0.817082  1
  Hf  Hf9  1  0.815262  0.184327  0.184327  1
  Hf  Hf10  1  0.435124  0.435124  0.067290  1
  Hf  Hf11  1  0.062879  0.062879  0.436735  1
  Hf  Hf12  1  0.435124  0.067290  0.435124  1
  Hf  Hf13  1  0.062879  0.436735  0.062879  1
  Hf  Hf14  1  0.067290  0.435124  0.435124  1
  Hf  Hf15  1  0.436735  0.062879  0.062879  1
  Ir  Ir16  1  0.402165  0.402165  0.402165  1
  Ir  Ir17  1  0.459483  0.848295  0.848295  1
  Ir  Ir18  1  0.848295  0.459483  0.848295  1
  Ir  Ir19  1  0.848295  0.848295  0.459483  1
  Ir  Ir20  1  0.846745  0.846745  0.846745  1
  Pd  Pd21  1  0.777750  0.408605  0.408605  1
  Pd  Pd22  1  0.408605  0.777750  0.408605  1
  Pd  Pd23  1  0.408605  0.408605  0.777750  1
  O  O24  1  0.623085  0.124864  0.124864  1
  O  O25  1  0.124864  0.623085  0.124864  1
  O  O26  1  0.124864  0.124864  0.623085  1
  O  O27  1  0.125238  0.125238  0.125238  1
