# generated using pymatgen
data_BaPr(Cu2Pt3)2
_symmetry_space_group_name_H-M   'P 1'
_cell_length_a   4.15081300
_cell_length_b   5.48524900
_cell_length_c   9.51830500
_cell_angle_alpha   90.00000000
_cell_angle_beta   90.00000000
_cell_angle_gamma   90.00000000
_symmetry_Int_Tables_number   1
_chemical_formula_structural   BaPr(Cu2Pt3)2
_chemical_formula_sum   'Ba1 Pr1 Cu4 Pt6'
_cell_volume   216.71507983
_cell_formula_units_Z   1
loop_
 _symmetry_equiv_pos_site_id
 _symmetry_equiv_pos_as_xyz
  1  'x, y, z'
loop_
 _atom_site_type_symbol
 _atom_site_label
 _atom_site_symmetry_multiplicity
 _atom_site_fract_x
 _atom_site_fract_y
 _atom_site_fract_z
 _atom_site_occupancy
  Ba  Ba0  1  0.000000  0.000000  0.000000  1
  Pr  Pr1  1  0.000000  0.500000  0.500000  1
  Cu  Cu2  1  0.000000  0.000000  0.337728  1
  Cu  Cu3  1  0.000000  0.500000  0.828827  1
  Cu  Cu4  1  0.000000  0.500000  0.171173  1
  Cu  Cu5  1  0.000000  0.000000  0.662272  1
  Pt  Pt6  1  0.500000  0.000000  0.500000  1
  Pt  Pt7  1  0.500000  0.500000  0.000000  1
  Pt  Pt8  1  0.500000  0.256360  0.259464  1
  Pt  Pt9  1  0.500000  0.743640  0.740536  1
  Pt  Pt10  1  0.500000  0.743640  0.259464  1
  Pt  Pt11  1  0.500000  0.256360  0.740536  1
