# generated using pymatgen
data_CeSm4B4(Pd2Rh3)3
_symmetry_space_group_name_H-M   'P 1'
_cell_length_a   4.24314100
_cell_length_b   4.24314100
_cell_length_c   21.15164300
_cell_angle_alpha   90.00000000
_cell_angle_beta   90.00000000
_cell_angle_gamma   90.00000000
_symmetry_Int_Tables_number   1
_chemical_formula_structural   CeSm4B4(Pd2Rh3)3
_chemical_formula_sum   'Ce1 Sm4 B4 Pd6 Rh9'
_cell_volume   380.81937427
_cell_formula_units_Z   1
loop_
 _symmetry_equiv_pos_site_id
 _symmetry_equiv_pos_as_xyz
  1  'x, y, z'
loop_
 _atom_site_type_symbol
 _atom_site_label
 _atom_site_symmetry_multiplicity
 _atom_site_fract_x
 _atom_site_fract_y
 _atom_site_fract_z
 _atom_site_occupancy
  Ce  Ce0  1  0.000000  0.000000  0.500000  1
  Sm  Sm1  1  0.000000  0.000000  0.899866  1
  Sm  Sm2  1  0.000000  0.000000  0.100134  1
  Sm  Sm3  1  0.000000  0.000000  0.299606  1
  Sm  Sm4  1  0.000000  0.000000  0.700394  1
  B  B5  1  0.500000  0.500000  0.189251  1
  B  B6  1  0.500000  0.500000  0.397997  1
  B  B7  1  0.500000  0.500000  0.602003  1
  B  B8  1  0.500000  0.500000  0.810749  1
  Pd  Pd9  1  0.500000  0.500000  0.909243  1
  Pd  Pd10  1  0.500000  0.500000  0.090757  1
  Pd  Pd11  1  0.500000  0.500000  0.297091  1
  Pd  Pd12  1  0.500000  0.500000  0.702909  1
  Pd  Pd13  1  0.500000  0.000000  0.000000  1
  Pd  Pd14  1  0.000000  0.500000  0.000000  1
  Rh  Rh15  1  0.500000  0.500000  0.500000  1
  Rh  Rh16  1  0.500000  0.000000  0.201027  1
  Rh  Rh17  1  0.500000  0.000000  0.402882  1
  Rh  Rh18  1  0.500000  0.000000  0.597118  1
  Rh  Rh19  1  0.500000  0.000000  0.798973  1
  Rh  Rh20  1  0.000000  0.500000  0.201027  1
  Rh  Rh21  1  0.000000  0.500000  0.402882  1
  Rh  Rh22  1  0.000000  0.500000  0.597118  1
  Rh  Rh23  1  0.000000  0.500000  0.798973  1
