# generated using pymatgen
data_Tb4Mn3Co6P12Ir11
_symmetry_space_group_name_H-M   'P 1'
_cell_length_a   3.86076000
_cell_length_b   10.62302542
_cell_length_c   12.35446012
_cell_angle_alpha   90.16750248
_cell_angle_beta   90.00000000
_cell_angle_gamma   90.00000000
_symmetry_Int_Tables_number   1
_chemical_formula_structural   Tb4Mn3Co6P12Ir11
_chemical_formula_sum   'Tb4 Mn3 Co6 P12 Ir11'
_cell_volume   506.69070978
_cell_formula_units_Z   1
loop_
 _symmetry_equiv_pos_site_id
 _symmetry_equiv_pos_as_xyz
  1  'x, y, z'
loop_
 _atom_site_type_symbol
 _atom_site_label
 _atom_site_symmetry_multiplicity
 _atom_site_fract_x
 _atom_site_fract_y
 _atom_site_fract_z
 _atom_site_occupancy
  Tb  Tb0  1  0.250000  0.581894  0.712301  1
  Tb  Tb1  1  0.250000  0.919440  0.210288  1
  Tb  Tb2  1  0.750000  0.416999  0.291029  1
  Tb  Tb3  1  0.750000  0.083913  0.792916  1
  Mn  Mn4  1  0.250000  0.712124  0.980493  1
  Mn  Mn5  1  0.250000  0.786119  0.480556  1
  Mn  Mn6  1  0.750000  0.288930  0.012296  1
  Co  Co7  1  0.750000  0.115912  0.305779  1
  Co  Co8  1  0.750000  0.380690  0.804803  1
  Co  Co9  1  0.250000  0.462906  0.933438  1
  Co  Co10  1  0.250000  0.038635  0.435686  1
  Co  Co11  1  0.750000  0.532911  0.062526  1
  Co  Co12  1  0.750000  0.965792  0.563239  1
  P  P13  1  0.250000  0.421708  0.105296  1
  P  P14  1  0.250000  0.075431  0.608203  1
  P  P15  1  0.750000  0.567944  0.889926  1
  P  P16  1  0.750000  0.931701  0.389845  1
  P  P17  1  0.250000  0.273076  0.869578  1
  P  P18  1  0.250000  0.226257  0.368077  1
  P  P19  1  0.750000  0.727693  0.126741  1
  P  P20  1  0.750000  0.771637  0.627951  1
  P  P21  1  0.250000  0.602343  0.388034  1
  P  P22  1  0.250000  0.897337  0.890568  1
  P  P23  1  0.750000  0.403760  0.621573  1
  P  P24  1  0.750000  0.099200  0.119874  1
  Ir  Ir25  1  0.750000  0.217589  0.514117  1
  Ir  Ir26  1  0.250000  0.406437  0.477467  1
  Ir  Ir27  1  0.250000  0.095589  0.979656  1
  Ir  Ir28  1  0.750000  0.593238  0.520874  1
  Ir  Ir29  1  0.750000  0.905202  0.020874  1
  Ir  Ir30  1  0.250000  0.223402  0.180038  1
  Ir  Ir31  1  0.250000  0.275828  0.679282  1
  Ir  Ir32  1  0.750000  0.767857  0.823153  1
  Ir  Ir33  1  0.750000  0.731946  0.322230  1
  Ir  Ir34  1  0.250000  0.883973  0.696436  1
  Ir  Ir35  1  0.250000  0.614588  0.194858  1
