# generated using pymatgen
data_Ho20Cd6IrPd
_symmetry_space_group_name_H-M   'P 1'
_cell_length_a   9.61455000
_cell_length_b   9.61454953
_cell_length_c   9.75491200
_cell_angle_alpha   90.00000000
_cell_angle_beta   90.00000000
_cell_angle_gamma   120.00000163
_symmetry_Int_Tables_number   1
_chemical_formula_structural   Ho20Cd6IrPd
_chemical_formula_sum   'Ho20 Cd6 Ir1 Pd1'
_cell_volume   780.92959878
_cell_formula_units_Z   1
loop_
 _symmetry_equiv_pos_site_id
 _symmetry_equiv_pos_as_xyz
  1  'x, y, z'
loop_
 _atom_site_type_symbol
 _atom_site_label
 _atom_site_symmetry_multiplicity
 _atom_site_fract_x
 _atom_site_fract_y
 _atom_site_fract_z
 _atom_site_occupancy
  Ho  Ho0  1  0.209022  0.790978  0.940143  1
  Ho  Ho1  1  0.209022  0.418045  0.940143  1
  Ho  Ho2  1  0.581955  0.790978  0.940143  1
  Ho  Ho3  1  0.792476  0.207524  0.057868  1
  Ho  Ho4  1  0.792476  0.584954  0.057868  1
  Ho  Ho5  1  0.415046  0.207524  0.057868  1
  Ho  Ho6  1  0.792476  0.207524  0.442132  1
  Ho  Ho7  1  0.792476  0.584954  0.442132  1
  Ho  Ho8  1  0.415046  0.207524  0.442132  1
  Ho  Ho9  1  0.209022  0.790978  0.559857  1
  Ho  Ho10  1  0.209022  0.418045  0.559857  1
  Ho  Ho11  1  0.581955  0.790978  0.559857  1
  Ho  Ho12  1  0.541520  0.458480  0.750000  1
  Ho  Ho13  1  0.541520  0.083040  0.750000  1
  Ho  Ho14  1  0.916960  0.458480  0.750000  1
  Ho  Ho15  1  0.456915  0.543085  0.250000  1
  Ho  Ho16  1  0.456915  0.913830  0.250000  1
  Ho  Ho17  1  0.086170  0.543085  0.250000  1
  Ho  Ho18  1  0.000000  0.000000  0.000309  1
  Ho  Ho19  1  0.000000  0.000000  0.499691  1
  Cd  Cd20  1  0.884470  0.115530  0.750000  1
  Cd  Cd21  1  0.884470  0.768939  0.750000  1
  Cd  Cd22  1  0.231061  0.115530  0.750000  1
  Cd  Cd23  1  0.115541  0.884459  0.250000  1
  Cd  Cd24  1  0.115541  0.231082  0.250000  1
  Cd  Cd25  1  0.768918  0.884459  0.250000  1
  Ir  Ir26  1  0.333333  0.666667  0.750000  1
  Pd  Pd27  1  0.666667  0.333333  0.250000  1
