# generated using pymatgen
data_Np5Te9
_symmetry_space_group_name_H-M   'P 1'
_cell_length_a   13.26168450
_cell_length_b   13.26168453
_cell_length_c   10.88455140
_cell_angle_alpha   80.75113590
_cell_angle_beta   80.75113656
_cell_angle_gamma   26.94095299
_symmetry_Int_Tables_number   1
_chemical_formula_structural   Np5Te9
_chemical_formula_sum   'Np10 Te18'
_cell_volume   855.38472019
_cell_formula_units_Z   2
loop_
 _symmetry_equiv_pos_site_id
 _symmetry_equiv_pos_as_xyz
  1  'x, y, z'
loop_
 _atom_site_type_symbol
 _atom_site_label
 _atom_site_symmetry_multiplicity
 _atom_site_fract_x
 _atom_site_fract_y
 _atom_site_fract_z
 _atom_site_occupancy
  Np  Np0  1  0.948340  0.042879  0.239957  1
  Np  Np1  1  0.148101  0.246903  0.842439  1
  Np  Np2  1  0.342437  0.451779  0.436763  1
  Np  Np3  1  0.536695  0.655670  0.036187  1
  Np  Np4  1  0.753199  0.836935  0.637228  1
  Np  Np5  1  0.344330  0.463305  0.963813  1
  Np  Np6  1  0.548221  0.657563  0.563237  1
  Np  Np7  1  0.753097  0.851899  0.157561  1
  Np  Np8  1  0.957121  0.051660  0.760043  1
  Np  Np9  1  0.163065  0.246801  0.362772  1
  Te  Te10  1  0.474829  0.568565  0.818946  1
  Te  Te11  1  0.069560  0.178130  0.618207  1
  Te  Te12  1  0.866870  0.980199  0.017191  1
  Te  Te13  1  0.681264  0.761697  0.419667  1
  Te  Te14  1  0.273318  0.373508  0.218426  1
  Te  Te15  1  0.019801  0.133130  0.982809  1
  Te  Te16  1  0.626492  0.726682  0.781574  1
  Te  Te17  1  0.431435  0.525171  0.181054  1
  Te  Te18  1  0.238303  0.318736  0.580333  1
  Te  Te19  1  0.821870  0.930440  0.381793  1
  Te  Te20  1  0.699417  0.300583  0.500000  1
  Te  Te21  1  0.299667  0.899372  0.301208  1
  Te  Te22  1  0.100628  0.700333  0.698792  1
  Te  Te23  1  0.892751  0.490821  0.116604  1
  Te  Te24  1  0.509179  0.107249  0.883396  1
  Te  Te25  1  0.001546  0.600594  0.897732  1
  Te  Te26  1  0.199055  0.800945  0.500000  1
  Te  Te27  1  0.399406  0.998454  0.102268  1
