# generated using pymatgen
data_ErCdCu3Ir
_symmetry_space_group_name_H-M   'P 1'
_cell_length_a   5.06747158
_cell_length_b   5.20627701
_cell_length_c   5.06747100
_cell_angle_alpha   60.87809136
_cell_angle_beta   59.99999726
_cell_angle_gamma   60.87809224
_symmetry_Int_Tables_number   1
_chemical_formula_structural   ErCdCu3Ir
_chemical_formula_sum   'Er1 Cd1 Cu3 Ir1'
_cell_volume   95.77082481
_cell_formula_units_Z   1
loop_
 _symmetry_equiv_pos_site_id
 _symmetry_equiv_pos_as_xyz
  1  'x, y, z'
loop_
 _atom_site_type_symbol
 _atom_site_label
 _atom_site_symmetry_multiplicity
 _atom_site_fract_x
 _atom_site_fract_y
 _atom_site_fract_z
 _atom_site_occupancy
  Er  Er0  1  0.747531  0.757408  0.747531  1
  Cd  Cd1  1  0.999304  0.002087  0.999304  1
  Cu  Cu2  1  0.375912  0.372063  0.375912  1
  Cu  Cu3  1  0.876112  0.372063  0.375912  1
  Cu  Cu4  1  0.375912  0.372063  0.876112  1
  Ir  Ir5  1  0.375228  0.874315  0.375228  1
