# generated using pymatgen
data_PrLu5Bi2Mo
_symmetry_space_group_name_H-M   'P 1'
_cell_length_a   8.16527700
_cell_length_b   8.22073054
_cell_length_c   4.37550100
_cell_angle_alpha   90.00000000
_cell_angle_beta   90.00000000
_cell_angle_gamma   119.77710397
_symmetry_Int_Tables_number   1
_chemical_formula_structural   PrLu5Bi2Mo
_chemical_formula_sum   'Pr1 Lu5 Bi2 Mo1'
_cell_volume   254.92405944
_cell_formula_units_Z   1
loop_
 _symmetry_equiv_pos_site_id
 _symmetry_equiv_pos_as_xyz
  1  'x, y, z'
loop_
 _atom_site_type_symbol
 _atom_site_label
 _atom_site_symmetry_multiplicity
 _atom_site_fract_x
 _atom_site_fract_y
 _atom_site_fract_z
 _atom_site_occupancy
  Pr  Pr0  1  0.602714  0.000000  0.500000  1
  Lu  Lu1  1  0.383466  0.384265  0.500000  1
  Lu  Lu2  1  0.999201  0.615735  0.500000  1
  Lu  Lu3  1  0.001400  0.231185  0.000000  1
  Lu  Lu4  1  0.770216  0.768815  0.000000  1
  Lu  Lu5  1  0.236933  0.000000  0.000000  1
  Bi  Bi6  1  0.671415  0.345158  0.000000  1
  Bi  Bi7  1  0.326256  0.654842  0.000000  1
  Mo  Mo8  1  0.008398  0.000000  0.500000  1
