# generated using pymatgen
data_Er6Lu4(SnSb)3
_symmetry_space_group_name_H-M   'P 1'
_cell_length_a   8.85959300
_cell_length_b   8.85079487
_cell_length_c   6.30577600
_cell_angle_alpha   90.00000000
_cell_angle_beta   90.00000000
_cell_angle_gamma   120.03288463
_symmetry_Int_Tables_number   1
_chemical_formula_structural   Er6Lu4(SnSb)3
_chemical_formula_sum   'Er6 Lu4 Sn3 Sb3'
_cell_volume   428.07632650
_cell_formula_units_Z   1
loop_
 _symmetry_equiv_pos_site_id
 _symmetry_equiv_pos_as_xyz
  1  'x, y, z'
loop_
 _atom_site_type_symbol
 _atom_site_label
 _atom_site_symmetry_multiplicity
 _atom_site_fract_x
 _atom_site_fract_y
 _atom_site_fract_z
 _atom_site_occupancy
  Er  Er0  1  0.001021  0.761261  0.750000  1
  Er  Er1  1  0.000910  0.241397  0.250000  1
  Er  Er2  1  0.759513  0.758603  0.250000  1
  Er  Er3  1  0.758076  0.000000  0.750000  1
  Er  Er4  1  0.239760  0.238739  0.750000  1
  Er  Er5  1  0.239165  0.000000  0.250000  1
  Lu  Lu6  1  0.333256  0.666297  0.499304  1
  Lu  Lu7  1  0.666960  0.333703  0.000696  1
  Lu  Lu8  1  0.666960  0.333703  0.499304  1
  Lu  Lu9  1  0.333256  0.666297  0.000696  1
  Sn  Sn10  1  0.394496  0.000000  0.750000  1
  Sn  Sn11  1  0.393599  0.393855  0.250000  1
  Sn  Sn12  1  0.999745  0.606145  0.250000  1
  Sb  Sb13  1  0.999685  0.393106  0.750000  1
  Sb  Sb14  1  0.606578  0.606894  0.750000  1
  Sb  Sb15  1  0.607019  0.000000  0.250000  1
