# generated using pymatgen
data_Ba3Ca7
_symmetry_space_group_name_H-M   'P 1'
_cell_length_a   16.15894581
_cell_length_b   16.15894566
_cell_length_c   6.40489100
_cell_angle_alpha   90.00000000
_cell_angle_beta   90.00000000
_cell_angle_gamma   164.06732832
_symmetry_Int_Tables_number   1
_chemical_formula_structural   Ba3Ca7
_chemical_formula_sum   'Ba3 Ca7'
_cell_volume   459.08398145
_cell_formula_units_Z   1
loop_
 _symmetry_equiv_pos_site_id
 _symmetry_equiv_pos_as_xyz
  1  'x, y, z'
loop_
 _atom_site_type_symbol
 _atom_site_label
 _atom_site_symmetry_multiplicity
 _atom_site_fract_x
 _atom_site_fract_y
 _atom_site_fract_z
 _atom_site_occupancy
  Ba  Ba0  1  0.000000  0.000000  0.000000  1
  Ba  Ba1  1  0.802022  0.197979  0.000000  1
  Ba  Ba2  1  0.197979  0.802022  0.000000  1
  Ca  Ca3  1  0.599150  0.400851  0.000000  1
  Ca  Ca4  1  0.400851  0.599150  0.000000  1
  Ca  Ca5  1  0.901191  0.098809  0.499999  1
  Ca  Ca6  1  0.699044  0.300956  0.499999  1
  Ca  Ca7  1  0.500000  0.500000  0.499999  1
  Ca  Ca8  1  0.300956  0.699044  0.499999  1
  Ca  Ca9  1  0.098809  0.901191  0.499999  1
