# generated using pymatgen
data_Tm3CdAg(HgAu)2
_symmetry_space_group_name_H-M   'P 1'
_cell_length_a   3.79089000
_cell_length_b   7.81308380
_cell_length_c   7.87073722
_cell_angle_alpha   119.75798269
_cell_angle_beta   90.00000000
_cell_angle_gamma   90.00000000
_symmetry_Int_Tables_number   1
_chemical_formula_structural   Tm3CdAg(HgAu)2
_chemical_formula_sum   'Tm3 Cd1 Ag1 Hg2 Au2'
_cell_volume   202.37817623
_cell_formula_units_Z   1
loop_
 _symmetry_equiv_pos_site_id
 _symmetry_equiv_pos_as_xyz
  1  'x, y, z'
loop_
 _atom_site_type_symbol
 _atom_site_label
 _atom_site_symmetry_multiplicity
 _atom_site_fract_x
 _atom_site_fract_y
 _atom_site_fract_z
 _atom_site_occupancy
  Tm  Tm0  1  0.000000  0.403508  0.410887  1
  Tm  Tm1  1  0.000000  0.992621  0.589113  1
  Tm  Tm2  1  0.000000  0.604170  0.000000  1
  Cd  Cd3  1  0.500000  0.265913  0.000000  1
  Ag  Ag4  1  0.000000  0.003520  0.000000  1
  Hg  Hg5  1  0.500000  0.732647  0.727808  1
  Hg  Hg6  1  0.500000  0.004839  0.272192  1
  Au  Au7  1  0.500000  0.659079  0.325375  1
  Au  Au8  1  0.500000  0.333703  0.674625  1
