# generated using pymatgen
data_K2Zr6BeBr15
_symmetry_space_group_name_H-M   'P 1'
_cell_length_a   10.63035200
_cell_length_b   10.63035159
_cell_length_c   15.10043000
_cell_angle_alpha   90.00000000
_cell_angle_beta   90.00000000
_cell_angle_gamma   110.16018692
_symmetry_Int_Tables_number   1
_chemical_formula_structural   K2Zr6BeBr15
_chemical_formula_sum   'K4 Zr12 Be2 Br30'
_cell_volume   1601.86735275
_cell_formula_units_Z   2
loop_
 _symmetry_equiv_pos_site_id
 _symmetry_equiv_pos_as_xyz
  1  'x, y, z'
loop_
 _atom_site_type_symbol
 _atom_site_label
 _atom_site_symmetry_multiplicity
 _atom_site_fract_x
 _atom_site_fract_y
 _atom_site_fract_z
 _atom_site_occupancy
  K  K0  1  0.000000  0.000000  0.250000  1
  K  K1  1  0.000000  0.000000  0.750000  1
  K  K2  1  0.500000  0.000000  0.000000  1
  K  K3  1  0.000000  0.500000  0.500000  1
  Zr  Zr4  1  0.005730  0.275173  0.000000  1
  Zr  Zr5  1  0.994270  0.724827  0.000000  1
  Zr  Zr6  1  0.724827  0.994270  0.500000  1
  Zr  Zr7  1  0.275173  0.005730  0.500000  1
  Zr  Zr8  1  0.827709  0.441251  0.114908  1
  Zr  Zr9  1  0.172291  0.558749  0.885092  1
  Zr  Zr10  1  0.172291  0.558749  0.114908  1
  Zr  Zr11  1  0.558749  0.172291  0.385092  1
  Zr  Zr12  1  0.827709  0.441251  0.885092  1
  Zr  Zr13  1  0.441251  0.827709  0.614908  1
  Zr  Zr14  1  0.441251  0.827709  0.385092  1
  Zr  Zr15  1  0.558749  0.172291  0.614908  1
  Be  Be16  1  0.000000  0.500000  0.000000  1
  Be  Be17  1  0.500000  0.000000  0.500000  1
  Br  Br18  1  0.626574  0.373426  0.250000  1
  Br  Br19  1  0.373426  0.626574  0.750000  1
  Br  Br20  1  0.373426  0.626574  0.250000  1
  Br  Br21  1  0.626574  0.373426  0.750000  1
  Br  Br22  1  0.000000  0.500000  0.253581  1
  Br  Br23  1  0.000000  0.500000  0.746419  1
  Br  Br24  1  0.500000  0.000000  0.246419  1
  Br  Br25  1  0.500000  0.000000  0.753581  1
  Br  Br26  1  0.193839  0.310573  0.128327  1
  Br  Br27  1  0.806161  0.689427  0.871673  1
  Br  Br28  1  0.806161  0.689427  0.128327  1
  Br  Br29  1  0.689427  0.806161  0.371673  1
  Br  Br30  1  0.193839  0.310573  0.871673  1
  Br  Br31  1  0.310573  0.193839  0.628327  1
  Br  Br32  1  0.310573  0.193839  0.371673  1
  Br  Br33  1  0.689427  0.806161  0.628327  1
  Br  Br34  1  0.384091  0.637533  0.000000  1
  Br  Br35  1  0.615909  0.362467  0.000000  1
  Br  Br36  1  0.362467  0.615909  0.500000  1
  Br  Br37  1  0.637533  0.384091  0.500000  1
  Br  Br38  1  0.822812  0.190546  0.375767  1
  Br  Br39  1  0.177188  0.809454  0.624233  1
  Br  Br40  1  0.177188  0.809454  0.375767  1
  Br  Br41  1  0.809454  0.177188  0.124233  1
  Br  Br42  1  0.822812  0.190546  0.624233  1
  Br  Br43  1  0.190546  0.822812  0.875767  1
  Br  Br44  1  0.190546  0.822812  0.124233  1
  Br  Br45  1  0.809454  0.177188  0.875767  1
  Br  Br46  1  0.000000  0.000000  0.000000  1
  Br  Br47  1  0.000000  0.000000  0.500000  1
