# generated using pymatgen
data_Tb7Nd(Si3Au)4
_symmetry_space_group_name_H-M   'P 1'
_cell_length_a   8.22226200
_cell_length_b   8.22226170
_cell_length_c   8.30565800
_cell_angle_alpha   90.00000000
_cell_angle_beta   90.00000000
_cell_angle_gamma   119.99999316
_symmetry_Int_Tables_number   1
_chemical_formula_structural   Tb7Nd(Si3Au)4
_chemical_formula_sum   'Tb7 Nd1 Si12 Au4'
_cell_volume   486.28101306
_cell_formula_units_Z   1
loop_
 _symmetry_equiv_pos_site_id
 _symmetry_equiv_pos_as_xyz
  1  'x, y, z'
loop_
 _atom_site_type_symbol
 _atom_site_label
 _atom_site_symmetry_multiplicity
 _atom_site_fract_x
 _atom_site_fract_y
 _atom_site_fract_z
 _atom_site_occupancy
  Tb  Tb0  1  0.499471  0.500529  0.750000  1
  Tb  Tb1  1  0.500535  0.499465  0.250000  1
  Tb  Tb2  1  0.001059  0.500529  0.750000  1
  Tb  Tb3  1  0.998930  0.499465  0.250000  1
  Tb  Tb4  1  0.499471  0.998941  0.750000  1
  Tb  Tb5  1  0.500535  0.001070  0.250000  1
  Tb  Tb6  1  0.000000  0.000000  0.750000  1
  Nd  Nd7  1  0.000000  0.000000  0.250000  1
  Si  Si8  1  0.835775  0.164225  0.996182  1
  Si  Si9  1  0.164234  0.835766  0.997553  1
  Si  Si10  1  0.328449  0.164225  0.996182  1
  Si  Si11  1  0.164234  0.835766  0.502447  1
  Si  Si12  1  0.671532  0.835766  0.997553  1
  Si  Si13  1  0.835775  0.164225  0.503818  1
  Si  Si14  1  0.835775  0.671551  0.996182  1
  Si  Si15  1  0.671532  0.835766  0.502447  1
  Si  Si16  1  0.164234  0.328468  0.997553  1
  Si  Si17  1  0.328449  0.164225  0.503818  1
  Si  Si18  1  0.164234  0.328468  0.502447  1
  Si  Si19  1  0.835775  0.671551  0.503818  1
  Au  Au20  1  0.666667  0.333333  0.999831  1
  Au  Au21  1  0.333333  0.666667  0.001457  1
  Au  Au22  1  0.333333  0.666667  0.498543  1
  Au  Au23  1  0.666667  0.333333  0.500169  1
