# generated using pymatgen
data_Y12Er4Cd4Ni3Os
_symmetry_space_group_name_H-M   'P 1'
_cell_length_a   9.60329982
_cell_length_b   9.60330044
_cell_length_c   9.60329997
_cell_angle_alpha   59.58341449
_cell_angle_beta   59.58340324
_cell_angle_gamma   59.58341467
_symmetry_Int_Tables_number   1
_chemical_formula_structural   Y12Er4Cd4Ni3Os
_chemical_formula_sum   'Y12 Er4 Cd4 Ni3 Os1'
_cell_volume   620.31792773
_cell_formula_units_Z   1
loop_
 _symmetry_equiv_pos_site_id
 _symmetry_equiv_pos_as_xyz
  1  'x, y, z'
loop_
 _atom_site_type_symbol
 _atom_site_label
 _atom_site_symmetry_multiplicity
 _atom_site_fract_x
 _atom_site_fract_y
 _atom_site_fract_z
 _atom_site_occupancy
  Y  Y0  1  0.059777  0.438913  0.438913  1
  Y  Y1  1  0.437566  0.060470  0.060470  1
  Y  Y2  1  0.438913  0.059777  0.438913  1
  Y  Y3  1  0.060470  0.437566  0.060470  1
  Y  Y4  1  0.438913  0.438913  0.059777  1
  Y  Y5  1  0.060470  0.060470  0.437566  1
  Y  Y6  1  0.186542  0.814814  0.814814  1
  Y  Y7  1  0.807277  0.189125  0.189125  1
  Y  Y8  1  0.814814  0.186542  0.814814  1
  Y  Y9  1  0.189125  0.807277  0.189125  1
  Y  Y10  1  0.814814  0.814814  0.186542  1
  Y  Y11  1  0.189125  0.189125  0.807277  1
  Er  Er12  1  0.597215  0.597215  0.597215  1
  Er  Er13  1  0.600355  0.600355  0.205094  1
  Er  Er14  1  0.600355  0.205094  0.600355  1
  Er  Er15  1  0.205094  0.600355  0.600355  1
  Cd  Cd16  1  0.830084  0.830084  0.830084  1
  Cd  Cd17  1  0.830111  0.830111  0.506426  1
  Cd  Cd18  1  0.830111  0.506426  0.830111  1
  Cd  Cd19  1  0.506426  0.830111  0.830111  1
  Ni  Ni20  1  0.393245  0.393245  0.821561  1
  Ni  Ni21  1  0.393245  0.821561  0.393245  1
  Ni  Ni22  1  0.821561  0.393245  0.393245  1
  Os  Os23  1  0.394393  0.394393  0.394393  1
