# generated using pymatgen
data_Er16InHg3Pt4
_symmetry_space_group_name_H-M   'P 1'
_cell_length_a   9.56219994
_cell_length_b   9.56219998
_cell_length_c   9.56219935
_cell_angle_alpha   60.02519588
_cell_angle_beta   60.02519200
_cell_angle_gamma   60.02519692
_symmetry_Int_Tables_number   1
_chemical_formula_structural   Er16InHg3Pt4
_chemical_formula_sum   'Er16 In1 Hg3 Pt4'
_cell_volume   618.59500725
_cell_formula_units_Z   1
loop_
 _symmetry_equiv_pos_site_id
 _symmetry_equiv_pos_as_xyz
  1  'x, y, z'
loop_
 _atom_site_type_symbol
 _atom_site_label
 _atom_site_symmetry_multiplicity
 _atom_site_fract_x
 _atom_site_fract_y
 _atom_site_fract_z
 _atom_site_occupancy
  Er  Er0  1  0.353367  0.353367  0.353367  1
  Er  Er1  1  0.355778  0.355778  0.935950  1
  Er  Er2  1  0.355778  0.935950  0.355778  1
  Er  Er3  1  0.935950  0.355778  0.355778  1
  Er  Er4  1  0.810737  0.189513  0.189513  1
  Er  Er5  1  0.190173  0.810342  0.810342  1
  Er  Er6  1  0.189513  0.810737  0.189513  1
  Er  Er7  1  0.810342  0.190173  0.810342  1
  Er  Er8  1  0.189513  0.189513  0.810737  1
  Er  Er9  1  0.810342  0.810342  0.190173  1
  Er  Er10  1  0.938083  0.564971  0.564971  1
  Er  Er11  1  0.563495  0.936734  0.936734  1
  Er  Er12  1  0.564971  0.938083  0.564971  1
  Er  Er13  1  0.936734  0.563495  0.936734  1
  Er  Er14  1  0.564971  0.564971  0.938083  1
  Er  Er15  1  0.936734  0.936734  0.563495  1
  In  In16  1  0.582522  0.582522  0.582522  1
  Hg  Hg17  1  0.586452  0.586452  0.238879  1
  Hg  Hg18  1  0.586452  0.238879  0.586452  1
  Hg  Hg19  1  0.238879  0.586452  0.586452  1
  Pt  Pt20  1  0.144484  0.144484  0.144484  1
  Pt  Pt21  1  0.143162  0.143162  0.568406  1
  Pt  Pt22  1  0.143162  0.568406  0.143162  1
  Pt  Pt23  1  0.568406  0.143162  0.143162  1
