# generated using pymatgen
data_Re22Tc2Mo4W
_symmetry_space_group_name_H-M   'P 1'
_cell_length_a   8.35959065
_cell_length_b   8.34961016
_cell_length_c   8.35892600
_cell_angle_alpha   109.47852543
_cell_angle_beta   109.52827410
_cell_angle_gamma   109.44501187
_symmetry_Int_Tables_number   1
_chemical_formula_structural   Re22Tc2Mo4W
_chemical_formula_sum   'Re22 Tc2 Mo4 W1'
_cell_volume   448.92623407
_cell_formula_units_Z   1
loop_
 _symmetry_equiv_pos_site_id
 _symmetry_equiv_pos_as_xyz
  1  'x, y, z'
loop_
 _atom_site_type_symbol
 _atom_site_label
 _atom_site_symmetry_multiplicity
 _atom_site_fract_x
 _atom_site_fract_y
 _atom_site_fract_z
 _atom_site_occupancy
  Re  Re0  1  0.684970  0.402259  0.001212  1
  Re  Re1  1  0.597490  0.281526  0.597428  1
  Re  Re2  1  0.401604  0.000944  0.686056  1
  Re  Re3  1  0.001977  0.401841  0.685023  1
  Re  Re4  1  0.283064  0.598121  0.599848  1
  Re  Re5  1  0.717948  0.313877  0.315068  1
  Re  Re6  1  0.315963  0.718841  0.315966  1
  Re  Re7  1  0.685393  0.999583  0.400943  1
  Re  Re8  1  0.001437  0.686162  0.403611  1
  Re  Re9  1  0.598744  0.597635  0.282665  1
  Re  Re10  1  0.806069  0.805563  0.180546  1
  Re  Re11  1  0.375384  0.194373  0.000354  1
  Re  Re12  1  0.193531  0.378032  0.000229  1
  Re  Re13  1  0.623902  0.817579  0.623946  1
  Re  Re14  1  0.375755  0.999752  0.193247  1
  Re  Re15  1  0.000314  0.377047  0.193436  1
  Re  Re16  1  0.816620  0.623025  0.623707  1
  Re  Re17  1  0.181173  0.806103  0.806734  1
  Re  Re18  1  0.806380  0.182131  0.806277  1
  Re  Re19  1  0.193272  0.999836  0.375839  1
  Re  Re20  1  0.000571  0.193866  0.375597  1
  Re  Re21  1  0.622436  0.621982  0.815577  1
  Tc  Tc22  1  0.315315  0.314386  0.717284  1
  Tc  Tc23  1  0.402426  0.685531  0.001023  1
  Mo  Mo24  1  0.000056  0.999628  0.000030  1
  Mo  Mo25  1  0.999121  0.000380  0.641742  1
  Mo  Mo26  1  0.641561  0.999943  0.998940  1
  Mo  Mo27  1  0.999744  0.641146  0.999031  1
  W  W28  1  0.357779  0.358910  0.358637  1
