# generated using pymatgen
data_Ce2Pr3Pb3Au
_symmetry_space_group_name_H-M   'P 1'
_cell_length_a   9.73722000
_cell_length_b   9.73722097
_cell_length_c   6.72736500
_cell_angle_alpha   90.00000000
_cell_angle_beta   90.00000000
_cell_angle_gamma   119.99999671
_symmetry_Int_Tables_number   1
_chemical_formula_structural   Ce2Pr3Pb3Au
_chemical_formula_sum   'Ce4 Pr6 Pb6 Au2'
_cell_volume   552.38979354
_cell_formula_units_Z   2
loop_
 _symmetry_equiv_pos_site_id
 _symmetry_equiv_pos_as_xyz
  1  'x, y, z'
loop_
 _atom_site_type_symbol
 _atom_site_label
 _atom_site_symmetry_multiplicity
 _atom_site_fract_x
 _atom_site_fract_y
 _atom_site_fract_z
 _atom_site_occupancy
  Ce  Ce0  1  0.333333  0.666667  0.000000  1
  Ce  Ce1  1  0.666667  0.333333  0.000000  1
  Ce  Ce2  1  0.666667  0.333333  0.500000  1
  Ce  Ce3  1  0.333333  0.666667  0.500000  1
  Pr  Pr4  1  0.270511  0.000000  0.250000  1
  Pr  Pr5  1  0.729489  0.000000  0.750000  1
  Pr  Pr6  1  0.000000  0.270511  0.250000  1
  Pr  Pr7  1  0.000000  0.729489  0.750000  1
  Pr  Pr8  1  0.729489  0.729489  0.250000  1
  Pr  Pr9  1  0.270511  0.270511  0.750000  1
  Pb  Pb10  1  0.617643  0.000000  0.250000  1
  Pb  Pb11  1  0.382357  0.000000  0.750000  1
  Pb  Pb12  1  0.000000  0.617643  0.250000  1
  Pb  Pb13  1  0.000000  0.382357  0.750000  1
  Pb  Pb14  1  0.382357  0.382357  0.250000  1
  Pb  Pb15  1  0.617643  0.617643  0.750000  1
  Au  Au16  1  0.000000  0.000000  0.000000  1
  Au  Au17  1  0.000000  0.000000  0.500000  1
