# generated using pymatgen
data_Ho7Er(B6Ir)4
_symmetry_space_group_name_H-M   'P 1'
_cell_length_a   3.63482400
_cell_length_b   9.17525903
_cell_length_c   11.51452303
_cell_angle_alpha   90.00874011
_cell_angle_beta   90.00000000
_cell_angle_gamma   90.00000000
_symmetry_Int_Tables_number   1
_chemical_formula_structural   Ho7Er(B6Ir)4
_chemical_formula_sum   'Ho7 Er1 B24 Ir4'
_cell_volume   384.01454000
_cell_formula_units_Z   1
loop_
 _symmetry_equiv_pos_site_id
 _symmetry_equiv_pos_as_xyz
  1  'x, y, z'
loop_
 _atom_site_type_symbol
 _atom_site_label
 _atom_site_symmetry_multiplicity
 _atom_site_fract_x
 _atom_site_fract_y
 _atom_site_fract_z
 _atom_site_occupancy
  Ho  Ho0  1  0.000000  0.322238  0.412895  1
  Ho  Ho1  1  0.000000  0.677739  0.587170  1
  Ho  Ho2  1  0.000000  0.822129  0.087021  1
  Ho  Ho3  1  0.000000  0.177889  0.912857  1
  Ho  Ho4  1  0.000000  0.944295  0.374538  1
  Ho  Ho5  1  0.000000  0.055746  0.625527  1
  Ho  Ho6  1  0.000000  0.444329  0.125318  1
  Er  Er7  1  0.000000  0.555741  0.874497  1
  B  B8  1  0.500000  0.553244  0.433839  1
  B  B9  1  0.500000  0.446805  0.566259  1
  B  B10  1  0.500000  0.053195  0.066139  1
  B  B11  1  0.500000  0.946663  0.933787  1
  B  B12  1  0.500000  0.749373  0.420813  1
  B  B13  1  0.500000  0.250676  0.579235  1
  B  B14  1  0.500000  0.249453  0.079123  1
  B  B15  1  0.500000  0.750231  0.920765  1
  B  B16  1  0.500000  0.793272  0.265467  1
  B  B17  1  0.500000  0.206833  0.734551  1
  B  B18  1  0.500000  0.293308  0.234471  1
  B  B19  1  0.500000  0.706405  0.765668  1
  B  B20  1  0.500000  0.632403  0.184317  1
  B  B21  1  0.500000  0.367868  0.815742  1
  B  B22  1  0.500000  0.132461  0.315592  1
  B  B23  1  0.500000  0.867501  0.684466  1
  B  B24  1  0.500000  0.982007  0.212893  1
  B  B25  1  0.500000  0.017939  0.787143  1
  B  B26  1  0.500000  0.482002  0.287053  1
  B  B27  1  0.500000  0.518149  0.713183  1
  B  B28  1  0.500000  0.610844  0.030107  1
  B  B29  1  0.500000  0.389380  0.969414  1
  B  B30  1  0.500000  0.111195  0.469553  1
  B  B31  1  0.500000  0.888804  0.530493  1
  Ir  Ir32  1  0.000000  0.638370  0.321196  1
  Ir  Ir33  1  0.000000  0.361944  0.678985  1
  Ir  Ir34  1  0.000000  0.138378  0.178652  1
  Ir  Ir35  1  0.000000  0.861192  0.821273  1
