# generated using pymatgen
data_Np2Pa(GaIr)3
_symmetry_space_group_name_H-M   'P 1'
_cell_length_a   7.30281700
_cell_length_b   7.45088661
_cell_length_c   4.01093800
_cell_angle_alpha   90.00000000
_cell_angle_beta   90.00000000
_cell_angle_gamma   120.67300985
_symmetry_Int_Tables_number   1
_chemical_formula_structural   Np2Pa(GaIr)3
_chemical_formula_sum   'Np2 Pa1 Ga3 Ir3'
_cell_volume   187.71093382
_cell_formula_units_Z   1
loop_
 _symmetry_equiv_pos_site_id
 _symmetry_equiv_pos_as_xyz
  1  'x, y, z'
loop_
 _atom_site_type_symbol
 _atom_site_label
 _atom_site_symmetry_multiplicity
 _atom_site_fract_x
 _atom_site_fract_y
 _atom_site_fract_z
 _atom_site_occupancy
  Np  Np0  1  0.591493  0.585853  0.500000  1
  Np  Np1  1  0.408507  0.994359  0.500000  1
  Pa  Pa2  1  0.000000  0.413253  0.500000  1
  Ga  Ga3  1  0.000000  0.760628  0.000000  1
  Ga  Ga4  1  0.250598  0.247300  0.000000  1
  Ga  Ga5  1  0.749402  0.996702  0.000000  1
  Ir  Ir6  1  0.317835  0.654571  0.000000  1
  Ir  Ir7  1  0.682165  0.336735  0.000000  1
  Ir  Ir8  1  0.000000  0.010596  0.500000  1
