# generated using pymatgen
data_YHo2Si6Pd19Pt
_symmetry_space_group_name_H-M   'P 1'
_cell_length_a   8.71986738
_cell_length_b   8.71986777
_cell_length_c   8.71986724
_cell_angle_alpha   59.84688676
_cell_angle_beta   59.84688720
_cell_angle_gamma   59.84688559
_symmetry_Int_Tables_number   1
_chemical_formula_structural   YHo2Si6Pd19Pt
_chemical_formula_sum   'Y1 Ho2 Si6 Pd19 Pt1'
_cell_volume   467.20011611
_cell_formula_units_Z   1
loop_
 _symmetry_equiv_pos_site_id
 _symmetry_equiv_pos_as_xyz
  1  'x, y, z'
loop_
 _atom_site_type_symbol
 _atom_site_label
 _atom_site_symmetry_multiplicity
 _atom_site_fract_x
 _atom_site_fract_y
 _atom_site_fract_z
 _atom_site_occupancy
  Y  Y0  1  0.250566  0.250566  0.250566  1
  Ho  Ho1  1  0.749646  0.749646  0.749646  1
  Ho  Ho2  1  0.999989  0.999989  0.999989  1
  Si  Si3  1  0.731053  0.268125  0.268125  1
  Si  Si4  1  0.267906  0.732631  0.732631  1
  Si  Si5  1  0.268125  0.731053  0.268125  1
  Si  Si6  1  0.732631  0.267906  0.732631  1
  Si  Si7  1  0.268125  0.268125  0.731053  1
  Si  Si8  1  0.732631  0.732631  0.267906  1
  Pd  Pd9  1  0.616494  0.616494  0.616494  1
  Pd  Pd10  1  0.383301  0.383301  0.849494  1
  Pd  Pd11  1  0.383301  0.849494  0.383301  1
  Pd  Pd12  1  0.617981  0.617981  0.148905  1
  Pd  Pd13  1  0.617981  0.148905  0.617981  1
  Pd  Pd14  1  0.849494  0.383301  0.383301  1
  Pd  Pd15  1  0.148905  0.617981  0.617981  1
  Pd  Pd16  1  0.345050  0.999694  0.999694  1
  Pd  Pd17  1  0.654894  0.999606  0.999606  1
  Pd  Pd18  1  0.999597  0.344935  0.654956  1
  Pd  Pd19  1  0.999597  0.654956  0.344935  1
  Pd  Pd20  1  0.999694  0.345050  0.999694  1
  Pd  Pd21  1  0.654956  0.999597  0.344935  1
  Pd  Pd22  1  0.999606  0.654894  0.999606  1
  Pd  Pd23  1  0.344935  0.999597  0.654956  1
  Pd  Pd24  1  0.999694  0.999694  0.345050  1
  Pd  Pd25  1  0.999606  0.999606  0.654894  1
  Pd  Pd26  1  0.654956  0.344935  0.999597  1
  Pd  Pd27  1  0.344935  0.654956  0.999597  1
  Pt  Pt28  1  0.384353  0.384353  0.384353  1
