# generated using pymatgen
data_Sm4Co4P12Ru5Rh11
_symmetry_space_group_name_H-M   'P 1'
_cell_length_a   3.87479100
_cell_length_b   10.85048410
_cell_length_c   12.35789122
_cell_angle_alpha   90.13162628
_cell_angle_beta   90.00000000
_cell_angle_gamma   90.00000000
_symmetry_Int_Tables_number   1
_chemical_formula_structural   Sm4Co4P12Ru5Rh11
_chemical_formula_sum   'Sm4 Co4 P12 Ru5 Rh11'
_cell_volume   519.56587529
_cell_formula_units_Z   1
loop_
 _symmetry_equiv_pos_site_id
 _symmetry_equiv_pos_as_xyz
  1  'x, y, z'
loop_
 _atom_site_type_symbol
 _atom_site_label
 _atom_site_symmetry_multiplicity
 _atom_site_fract_x
 _atom_site_fract_y
 _atom_site_fract_z
 _atom_site_occupancy
  Sm  Sm0  1  0.250000  0.586655  0.705666  1
  Sm  Sm1  1  0.250000  0.913186  0.206839  1
  Sm  Sm2  1  0.750000  0.412949  0.294459  1
  Sm  Sm3  1  0.750000  0.087191  0.793461  1
  Co  Co4  1  0.250000  0.464928  0.933879  1
  Co  Co5  1  0.250000  0.035620  0.434088  1
  Co  Co6  1  0.750000  0.535040  0.065864  1
  Co  Co7  1  0.750000  0.964974  0.565551  1
  P  P8  1  0.250000  0.423058  0.105465  1
  P  P9  1  0.250000  0.076259  0.605334  1
  P  P10  1  0.750000  0.576629  0.894380  1
  P  P11  1  0.750000  0.923296  0.394344  1
  P  P12  1  0.250000  0.274243  0.876215  1
  P  P13  1  0.250000  0.228494  0.379170  1
  P  P14  1  0.750000  0.725695  0.123678  1
  P  P15  1  0.750000  0.774504  0.622916  1
  P  P16  1  0.250000  0.597332  0.391614  1
  P  P17  1  0.250000  0.898918  0.890142  1
  P  P18  1  0.750000  0.400073  0.606264  1
  P  P19  1  0.750000  0.101500  0.110232  1
  Ru  Ru20  1  0.250000  0.716981  0.989855  1
  Ru  Ru21  1  0.250000  0.782664  0.489527  1
  Ru  Ru22  1  0.750000  0.282829  0.009522  1
  Ru  Ru23  1  0.750000  0.215746  0.510341  1
  Ru  Ru24  1  0.250000  0.407075  0.490348  1
  Rh  Rh25  1  0.250000  0.092255  0.987791  1
  Rh  Rh26  1  0.750000  0.594493  0.512390  1
  Rh  Rh27  1  0.750000  0.907725  0.012287  1
  Rh  Rh28  1  0.250000  0.228822  0.179925  1
  Rh  Rh29  1  0.250000  0.269598  0.679779  1
  Rh  Rh30  1  0.750000  0.771183  0.820226  1
  Rh  Rh31  1  0.750000  0.729374  0.319921  1
  Rh  Rh32  1  0.250000  0.889275  0.699519  1
  Rh  Rh33  1  0.250000  0.610780  0.200022  1
  Rh  Rh34  1  0.750000  0.110743  0.300296  1
  Rh  Rh35  1  0.750000  0.389914  0.798692  1
