# generated using pymatgen
data_Cs24Ti7Si5O36
_symmetry_space_group_name_H-M   'P 1'
_cell_length_a   14.43444400
_cell_length_b   7.13037097
_cell_length_c   17.79684100
_cell_angle_alpha   71.82149066
_cell_angle_beta   90.00000000
_cell_angle_gamma   90.00000000
_symmetry_Int_Tables_number   1
_chemical_formula_structural   Cs24Ti7Si5O36
_chemical_formula_sum   'Cs24 Ti7 Si5 O36'
_cell_volume   1740.28131856
_cell_formula_units_Z   1
loop_
 _symmetry_equiv_pos_site_id
 _symmetry_equiv_pos_as_xyz
  1  'x, y, z'
loop_
 _atom_site_type_symbol
 _atom_site_label
 _atom_site_symmetry_multiplicity
 _atom_site_fract_x
 _atom_site_fract_y
 _atom_site_fract_z
 _atom_site_occupancy
  Cs  Cs0  1  0.659249  0.462036  0.514489  1
  Cs  Cs1  1  0.156485  0.540395  0.987231  1
  Cs  Cs2  1  0.195148  0.883626  0.305106  1
  Cs  Cs3  1  0.578003  0.272570  0.966664  1
  Cs  Cs4  1  0.901322  0.015885  0.913971  1
  Cs  Cs5  1  0.603793  0.013731  0.420319  1
  Cs  Cs6  1  0.687165  0.123362  0.195378  1
  Cs  Cs7  1  0.625537  0.882699  0.861069  1
  Cs  Cs8  1  0.410291  0.723834  0.024431  1
  Cs  Cs9  1  0.872285  0.878439  0.369970  1
  Cs  Cs10  1  0.307777  0.875839  0.807788  1
  Cs  Cs11  1  0.990264  0.351233  0.219058  1
  Cs  Cs12  1  0.912416  0.275377  0.474259  1
  Cs  Cs13  1  0.012454  0.646155  0.781784  1
  Cs  Cs14  1  0.125758  0.115900  0.639752  1
  Cs  Cs15  1  0.113227  0.989766  0.078039  1
  Cs  Cs16  1  0.399499  0.986182  0.580995  1
  Cs  Cs17  1  0.376766  0.119546  0.133252  1
  Cs  Cs18  1  0.841304  0.458163  0.010359  1
  Cs  Cs19  1  0.078202  0.722738  0.533654  1
  Cs  Cs20  1  0.511605  0.354040  0.717721  1
  Cs  Cs21  1  0.486730  0.644015  0.284130  1
  Cs  Cs22  1  0.807143  0.124754  0.690912  1
  Cs  Cs23  1  0.342108  0.541395  0.487171  1
  Ti  Ti24  1  0.647854  0.725371  0.102199  1
  Ti  Ti25  1  0.255059  0.462158  0.718805  1
  Ti  Ti26  1  0.151612  0.275942  0.397429  1
  Ti  Ti27  1  0.871874  0.840626  0.132943  1
  Ti  Ti28  1  0.755135  0.539321  0.780684  1
  Ti  Ti29  1  0.745746  0.533046  0.285132  1
  Ti  Ti30  1  0.247510  0.462197  0.218507  1
  Si  Si31  1  0.845215  0.722191  0.605965  1
  Si  Si32  1  0.634854  0.832051  0.635243  1
  Si  Si33  1  0.135100  0.168350  0.864094  1
  Si  Si34  1  0.345003  0.277325  0.893952  1
  Si  Si35  1  0.370050  0.160008  0.366917  1
  O  O36  1  0.226616  0.712864  0.666095  1
  O  O37  1  0.304686  0.330666  0.657730  1
  O  O38  1  0.860220  0.610439  0.539828  1
  O  O39  1  0.854274  0.671781  0.238535  1
  O  O40  1  0.279843  0.708937  0.163111  1
  O  O41  1  0.350640  0.314716  0.274044  1
  O  O42  1  0.757947  0.877125  0.076587  1
  O  O43  1  0.648709  0.680551  0.729543  1
  O  O44  1  0.148831  0.320159  0.769927  1
  O  O45  1  0.161748  0.473006  0.297620  1
  O  O46  1  0.556357  0.889069  0.108669  1
  O  O47  1  0.061284  0.107546  0.393452  1
  O  O48  1  0.441557  0.264638  0.412696  1
  O  O49  1  0.108202  0.947912  0.862259  1
  O  O50  1  0.836365  0.547698  0.696047  1
  O  O51  1  0.772277  0.282206  0.340084  1
  O  O52  1  0.741178  0.840748  0.592465  1
  O  O53  1  0.241229  0.157245  0.907211  1
  O  O54  1  0.128669  0.388648  0.472161  1
  O  O55  1  0.198140  0.327334  0.158731  1
  O  O56  1  0.608546  0.053022  0.636670  1
  O  O57  1  0.335660  0.452653  0.804061  1
  O  O58  1  0.400635  0.943866  0.362202  1
  O  O59  1  0.727317  0.288731  0.833704  1
  O  O60  1  0.266100  0.136428  0.413974  1
  O  O61  1  0.804768  0.671800  0.841524  1
  O  O62  1  0.663065  0.531158  0.202433  1
  O  O63  1  0.694493  0.668647  0.343904  1
  O  O64  1  0.359519  0.386738  0.960831  1
  O  O65  1  0.562100  0.731533  0.589151  1
  O  O66  1  0.622208  0.605377  0.030153  1
  O  O67  1  0.912645  0.076269  0.133125  1
  O  O68  1  0.924896  0.882085  0.609326  1
  O  O69  1  0.062610  0.269075  0.910342  1
  O  O70  1  0.952129  0.730342  0.082675  1
  O  O71  1  0.424994  0.118726  0.889757  1
