# generated using pymatgen
data_Tb8CoNiAg2
_symmetry_space_group_name_H-M   'P 1'
_cell_length_a   9.46768872
_cell_length_b   9.46768819
_cell_length_c   9.40979100
_cell_angle_alpha   60.20208869
_cell_angle_beta   60.20209050
_cell_angle_gamma   60.45109516
_symmetry_Int_Tables_number   1
_chemical_formula_structural   Tb8CoNiAg2
_chemical_formula_sum   'Tb16 Co2 Ni2 Ag4'
_cell_volume   600.26157074
_cell_formula_units_Z   2
loop_
 _symmetry_equiv_pos_site_id
 _symmetry_equiv_pos_as_xyz
  1  'x, y, z'
loop_
 _atom_site_type_symbol
 _atom_site_label
 _atom_site_symmetry_multiplicity
 _atom_site_fract_x
 _atom_site_fract_y
 _atom_site_fract_z
 _atom_site_occupancy
  Tb  Tb0  1  0.808551  0.187999  0.189105  1
  Tb  Tb1  1  0.187999  0.808551  0.814345  1
  Tb  Tb2  1  0.187999  0.808551  0.189105  1
  Tb  Tb3  1  0.808551  0.187999  0.814345  1
  Tb  Tb4  1  0.189206  0.189206  0.810794  1
  Tb  Tb5  1  0.812214  0.812214  0.187786  1
  Tb  Tb6  1  0.936551  0.564313  0.562007  1
  Tb  Tb7  1  0.564313  0.936551  0.937128  1
  Tb  Tb8  1  0.564314  0.936551  0.562007  1
  Tb  Tb9  1  0.936551  0.564313  0.937128  1
  Tb  Tb10  1  0.563156  0.563155  0.936845  1
  Tb  Tb11  1  0.936650  0.936650  0.563350  1
  Tb  Tb12  1  0.349859  0.349859  0.346572  1
  Tb  Tb13  1  0.349859  0.349859  0.953710  1
  Tb  Tb14  1  0.353697  0.948517  0.348893  1
  Tb  Tb15  1  0.948517  0.353697  0.348893  1
  Co  Co16  1  0.142604  0.573001  0.142198  1
  Co  Co17  1  0.573001  0.142604  0.142198  1
  Ni  Ni18  1  0.142218  0.142218  0.142809  1
  Ni  Ni19  1  0.142218  0.142218  0.572757  1
  Ag  Ag20  1  0.581919  0.581919  0.581331  1
  Ag  Ag21  1  0.581919  0.581919  0.254832  1
  Ag  Ag22  1  0.581658  0.256477  0.580932  1
  Ag  Ag23  1  0.256477  0.581658  0.580932  1
