# generated using pymatgen
data_Ga3Ni3Pt2
_symmetry_space_group_name_H-M   'P 1'
_cell_length_a   5.24454075
_cell_length_b   5.24454140
_cell_length_c   3.80606200
_cell_angle_alpha   90.00000000
_cell_angle_beta   90.00000000
_cell_angle_gamma   93.93393710
_symmetry_Int_Tables_number   1
_chemical_formula_structural   Ga3Ni3Pt2
_chemical_formula_sum   'Ga3 Ni3 Pt2'
_cell_volume   104.43987810
_cell_formula_units_Z   1
loop_
 _symmetry_equiv_pos_site_id
 _symmetry_equiv_pos_as_xyz
  1  'x, y, z'
loop_
 _atom_site_type_symbol
 _atom_site_label
 _atom_site_symmetry_multiplicity
 _atom_site_fract_x
 _atom_site_fract_y
 _atom_site_fract_z
 _atom_site_occupancy
  Ga  Ga0  1  0.000000  0.000000  0.000000  1
  Ga  Ga1  1  0.708048  0.291952  0.500000  1
  Ga  Ga2  1  0.291952  0.708048  0.500000  1
  Ni  Ni3  1  0.500000  0.500000  0.000000  1
  Ni  Ni4  1  0.219108  0.219108  0.500000  1
  Ni  Ni5  1  0.780892  0.780892  0.500000  1
  Pt  Pt6  1  0.000000  0.500000  0.000000  1
  Pt  Pt7  1  0.500000  0.000000  0.000000  1
