# generated using pymatgen
data_CeHo5(SnIr)6
_symmetry_space_group_name_H-M   'P 1'
_cell_length_a   7.53056020
_cell_length_b   7.50167315
_cell_length_c   7.88847700
_cell_angle_alpha   90.00000000
_cell_angle_beta   90.00000000
_cell_angle_gamma   120.14878923
_symmetry_Int_Tables_number   1
_chemical_formula_structural   CeHo5(SnIr)6
_chemical_formula_sum   'Ce1 Ho5 Sn6 Ir6'
_cell_volume   385.35067656
_cell_formula_units_Z   1
loop_
 _symmetry_equiv_pos_site_id
 _symmetry_equiv_pos_as_xyz
  1  'x, y, z'
loop_
 _atom_site_type_symbol
 _atom_site_label
 _atom_site_symmetry_multiplicity
 _atom_site_fract_x
 _atom_site_fract_y
 _atom_site_fract_z
 _atom_site_occupancy
  Ce  Ce0  1  0.410806  0.998897  0.750000  1
  Ho  Ho1  1  0.405305  0.001290  0.250000  1
  Ho  Ho2  1  0.596480  0.596089  0.750000  1
  Ho  Ho3  1  0.593188  0.595211  0.250000  1
  Ho  Ho4  1  0.996642  0.404282  0.250000  1
  Ho  Ho5  1  0.002959  0.405017  0.750000  1
  Sn  Sn6  1  0.259162  0.263165  0.499182  1
  Sn  Sn7  1  0.259162  0.263165  0.000818  1
  Sn  Sn8  1  0.744341  0.000120  0.002448  1
  Sn  Sn9  1  0.995636  0.736719  0.499143  1
  Sn  Sn10  1  0.744341  0.000120  0.497552  1
  Sn  Sn11  1  0.995636  0.736719  0.000857  1
  Ir  Ir12  1  0.661800  0.327225  0.503995  1
  Ir  Ir13  1  0.661800  0.327225  0.996005  1
  Ir  Ir14  1  0.334167  0.672361  0.999769  1
  Ir  Ir15  1  0.334167  0.672361  0.500231  1
  Ir  Ir16  1  0.003904  0.999993  0.750000  1
  Ir  Ir17  1  0.000508  0.000039  0.250000  1
