# generated using pymatgen
data_LaHo2AuO7
_symmetry_space_group_name_H-M   'P 1'
_cell_length_a   6.51073305
_cell_length_b   6.51073426
_cell_length_c   7.55478500
_cell_angle_alpha   90.00000000
_cell_angle_beta   90.00000000
_cell_angle_gamma   108.85979429
_symmetry_Int_Tables_number   1
_chemical_formula_structural   LaHo2AuO7
_chemical_formula_sum   'La2 Ho4 Au2 O14'
_cell_volume   303.05155118
_cell_formula_units_Z   2
loop_
 _symmetry_equiv_pos_site_id
 _symmetry_equiv_pos_as_xyz
  1  'x, y, z'
loop_
 _atom_site_type_symbol
 _atom_site_label
 _atom_site_symmetry_multiplicity
 _atom_site_fract_x
 _atom_site_fract_y
 _atom_site_fract_z
 _atom_site_occupancy
  La  La0  1  0.000000  0.000000  0.500000  1
  La  La1  1  0.000000  0.000000  0.000000  1
  Ho  Ho2  1  0.513423  0.056634  0.250000  1
  Ho  Ho3  1  0.943366  0.486577  0.750000  1
  Ho  Ho4  1  0.486577  0.943366  0.750000  1
  Ho  Ho5  1  0.056634  0.513423  0.250000  1
  Au  Au6  1  0.500000  0.500000  0.500000  1
  Au  Au7  1  0.500000  0.500000  0.000000  1
  O  O8  1  0.439337  0.173410  0.530506  1
  O  O9  1  0.826590  0.560663  0.469494  1
  O  O10  1  0.439337  0.173410  0.969494  1
  O  O11  1  0.826590  0.560663  0.030506  1
  O  O12  1  0.560663  0.826590  0.469494  1
  O  O13  1  0.173410  0.439337  0.530506  1
  O  O14  1  0.560663  0.826590  0.030506  1
  O  O15  1  0.173410  0.439337  0.969494  1
  O  O16  1  0.161577  0.875393  0.250000  1
  O  O17  1  0.124607  0.838423  0.750000  1
  O  O18  1  0.838423  0.124607  0.750000  1
  O  O19  1  0.875393  0.161577  0.250000  1
  O  O20  1  0.394577  0.394577  0.250000  1
  O  O21  1  0.605423  0.605423  0.750000  1
