# generated using pymatgen
data_Tm6Zn15Cu8S
_symmetry_space_group_name_H-M   'P 1'
_cell_length_a   8.82432353
_cell_length_b   8.82460502
_cell_length_c   8.82437400
_cell_angle_alpha   59.97048312
_cell_angle_beta   59.97082907
_cell_angle_gamma   59.96763951
_symmetry_Int_Tables_number   1
_chemical_formula_structural   Tm6Zn15Cu8S
_chemical_formula_sum   'Tm6 Zn15 Cu8 S1'
_cell_volume   485.56414412
_cell_formula_units_Z   1
loop_
 _symmetry_equiv_pos_site_id
 _symmetry_equiv_pos_as_xyz
  1  'x, y, z'
loop_
 _atom_site_type_symbol
 _atom_site_label
 _atom_site_symmetry_multiplicity
 _atom_site_fract_x
 _atom_site_fract_y
 _atom_site_fract_z
 _atom_site_occupancy
  Tm  Tm0  1  0.719393  0.284952  0.284966  1
  Tm  Tm1  1  0.287714  0.712491  0.712497  1
  Tm  Tm2  1  0.284960  0.719386  0.284962  1
  Tm  Tm3  1  0.712509  0.287712  0.712493  1
  Tm  Tm4  1  0.284969  0.284962  0.719381  1
  Tm  Tm5  1  0.712492  0.712477  0.287731  1
  Zn  Zn6  1  0.879135  0.879131  0.879178  1
  Zn  Zn7  1  0.121677  0.121672  0.635485  1
  Zn  Zn8  1  0.121665  0.635485  0.121653  1
  Zn  Zn9  1  0.879532  0.879544  0.362993  1
  Zn  Zn10  1  0.879552  0.362977  0.879535  1
  Zn  Zn11  1  0.635501  0.121645  0.121671  1
  Zn  Zn12  1  0.362986  0.879540  0.879541  1
  Zn  Zn13  1  0.330982  0.330964  0.330968  1
  Zn  Zn14  1  0.670505  0.670486  0.670521  1
  Zn  Zn15  1  0.326322  0.326319  0.014503  1
  Zn  Zn16  1  0.326319  0.014495  0.326324  1
  Zn  Zn17  1  0.670363  0.670370  0.987927  1
  Zn  Zn18  1  0.670382  0.987911  0.670383  1
  Zn  Zn19  1  0.014516  0.326308  0.326312  1
  Zn  Zn20  1  0.987907  0.670379  0.670375  1
  Cu  Cu21  1  0.121808  0.121777  0.121804  1
  Cu  Cu22  1  0.501849  0.999325  0.999223  1
  Cu  Cu23  1  0.000432  0.499187  0.498751  1
  Cu  Cu24  1  0.999300  0.501814  0.999112  1
  Cu  Cu25  1  0.498921  0.000420  0.499000  1
  Cu  Cu26  1  0.999078  0.998985  0.502001  1
  Cu  Cu27  1  0.498909  0.498993  0.000396  1
  Cu  Cu28  1  0.001164  0.001147  0.001159  1
  S  S29  1  0.499153  0.499148  0.499155  1
