# generated using pymatgen
data_Rb2Yb(SeO3)2
_symmetry_space_group_name_H-M   'P 1'
_cell_length_a   7.48124513
_cell_length_b   7.48124548
_cell_length_c   7.48124588
_cell_angle_alpha   46.46641262
_cell_angle_beta   46.46640656
_cell_angle_gamma   46.46641277
_symmetry_Int_Tables_number   1
_chemical_formula_structural   Rb2Yb(SeO3)2
_chemical_formula_sum   'Rb2 Yb1 Se2 O6'
_cell_volume   200.93487382
_cell_formula_units_Z   1
loop_
 _symmetry_equiv_pos_site_id
 _symmetry_equiv_pos_as_xyz
  1  'x, y, z'
loop_
 _atom_site_type_symbol
 _atom_site_label
 _atom_site_symmetry_multiplicity
 _atom_site_fract_x
 _atom_site_fract_y
 _atom_site_fract_z
 _atom_site_occupancy
  Rb  Rb0  1  0.197043  0.197043  0.197043  1
  Rb  Rb1  1  0.802957  0.802957  0.802957  1
  Yb  Yb2  1  0.000000  0.000000  0.000000  1
  Se  Se3  1  0.373482  0.373482  0.373482  1
  Se  Se4  1  0.626518  0.626518  0.626518  1
  O  O5  1  0.717370  0.254013  0.254014  1
  O  O6  1  0.254013  0.717370  0.254014  1
  O  O7  1  0.745987  0.745987  0.282629  1
  O  O8  1  0.254013  0.254013  0.717371  1
  O  O9  1  0.745987  0.282630  0.745986  1
  O  O10  1  0.282630  0.745987  0.745986  1
