# generated using pymatgen
data_Tm15Lu(Ga3Rh)2
_symmetry_space_group_name_H-M   'P 1'
_cell_length_a   9.93932107
_cell_length_b   9.93932046
_cell_length_c   6.88214203
_cell_angle_alpha   90.00894925
_cell_angle_beta   89.99105048
_cell_angle_gamma   119.99019419
_symmetry_Int_Tables_number   1
_chemical_formula_structural   Tm15Lu(Ga3Rh)2
_chemical_formula_sum   'Tm15 Lu1 Ga6 Rh2'
_cell_volume   588.85799051
_cell_formula_units_Z   1
loop_
 _symmetry_equiv_pos_site_id
 _symmetry_equiv_pos_as_xyz
  1  'x, y, z'
loop_
 _atom_site_type_symbol
 _atom_site_label
 _atom_site_symmetry_multiplicity
 _atom_site_fract_x
 _atom_site_fract_y
 _atom_site_fract_z
 _atom_site_occupancy
  Tm  Tm0  1  0.342166  0.171074  0.489517  1
  Tm  Tm1  1  0.828926  0.657834  0.489517  1
  Tm  Tm2  1  0.171120  0.342238  0.989521  1
  Tm  Tm3  1  0.657762  0.828880  0.989521  1
  Tm  Tm4  1  0.828879  0.171121  0.489573  1
  Tm  Tm5  1  0.333232  0.666768  0.663581  1
  Tm  Tm6  1  0.666674  0.333326  0.163230  1
  Tm  Tm7  1  0.465992  0.534008  0.295081  1
  Tm  Tm8  1  0.932212  0.466296  0.795332  1
  Tm  Tm9  1  0.533704  0.067788  0.795332  1
  Tm  Tm10  1  0.465756  0.931952  0.294869  1
  Tm  Tm11  1  0.068048  0.534244  0.294869  1
  Tm  Tm12  1  0.534029  0.465971  0.795227  1
  Tm  Tm13  1  0.000125  0.999875  0.265984  1
  Tm  Tm14  1  0.000076  0.999924  0.766737  1
  Lu  Lu15  1  0.171341  0.828659  0.989590  1
  Ga  Ga16  1  0.163358  0.836642  0.541377  1
  Ga  Ga17  1  0.326415  0.162793  0.040813  1
  Ga  Ga18  1  0.837207  0.673585  0.040813  1
  Ga  Ga19  1  0.163391  0.326792  0.540898  1
  Ga  Ga20  1  0.673208  0.836609  0.540898  1
  Ga  Ga21  1  0.836649  0.163351  0.040835  1
  Rh  Rh22  1  0.333048  0.666952  0.055388  1
  Rh  Rh23  1  0.666684  0.333316  0.555502  1
