# generated using pymatgen
data_Tb3Sc2ZnPt3
_symmetry_space_group_name_H-M   'P 1'
_cell_length_a   7.13373600
_cell_length_b   7.22179973
_cell_length_c   4.35047400
_cell_angle_alpha   90.00000000
_cell_angle_beta   90.00000000
_cell_angle_gamma   119.59743388
_symmetry_Int_Tables_number   1
_chemical_formula_structural   Tb3Sc2ZnPt3
_chemical_formula_sum   'Tb3 Sc2 Zn1 Pt3'
_cell_volume   194.88443484
_cell_formula_units_Z   1
loop_
 _symmetry_equiv_pos_site_id
 _symmetry_equiv_pos_as_xyz
  1  'x, y, z'
loop_
 _atom_site_type_symbol
 _atom_site_label
 _atom_site_symmetry_multiplicity
 _atom_site_fract_x
 _atom_site_fract_y
 _atom_site_fract_z
 _atom_site_occupancy
  Tb  Tb0  1  0.431766  0.000000  0.000000  1
  Tb  Tb1  1  0.983693  0.393501  0.000000  1
  Tb  Tb2  1  0.590192  0.606499  0.000000  1
  Sc  Sc3  1  0.241506  0.250378  0.500000  1
  Sc  Sc4  1  0.991127  0.749622  0.500000  1
  Zn  Zn5  1  0.755642  0.000000  0.500000  1
  Pt  Pt6  1  0.023126  0.000000  0.000000  1
  Pt  Pt7  1  0.657831  0.332715  0.500000  1
  Pt  Pt8  1  0.325117  0.667285  0.500000  1
