# generated using pymatgen
data_LuZn2(Ga2Pd)3
_symmetry_space_group_name_H-M   'P 1'
_cell_length_a   8.33889403
_cell_length_b   8.33889409
_cell_length_c   8.33889400
_cell_angle_alpha   90.08431295
_cell_angle_beta   90.08431295
_cell_angle_gamma   90.08431934
_symmetry_Int_Tables_number   1
_chemical_formula_structural   LuZn2(Ga2Pd)3
_chemical_formula_sum   'Lu3 Zn6 Ga18 Pd9'
_cell_volume   579.86107162
_cell_formula_units_Z   3
loop_
 _symmetry_equiv_pos_site_id
 _symmetry_equiv_pos_as_xyz
  1  'x, y, z'
loop_
 _atom_site_type_symbol
 _atom_site_label
 _atom_site_symmetry_multiplicity
 _atom_site_fract_x
 _atom_site_fract_y
 _atom_site_fract_z
 _atom_site_occupancy
  Lu  Lu0  1  0.000000  0.500000  0.000000  1
  Lu  Lu1  1  0.500000  0.000000  0.000000  1
  Lu  Lu2  1  0.000000  0.000000  0.500000  1
  Zn  Zn3  1  0.736717  0.500000  0.263283  1
  Zn  Zn4  1  0.263283  0.500000  0.736717  1
  Zn  Zn5  1  0.500000  0.263283  0.736717  1
  Zn  Zn6  1  0.500000  0.736717  0.263283  1
  Zn  Zn7  1  0.263283  0.736717  0.500000  1
  Zn  Zn8  1  0.736717  0.263283  0.500000  1
  Ga  Ga9  1  0.994144  0.639889  0.639889  1
  Ga  Ga10  1  0.639889  0.639889  0.994144  1
  Ga  Ga11  1  0.639889  0.994144  0.639889  1
  Ga  Ga12  1  0.005856  0.360111  0.360111  1
  Ga  Ga13  1  0.360111  0.360111  0.005856  1
  Ga  Ga14  1  0.360111  0.005856  0.360111  1
  Ga  Ga15  1  0.838724  0.136889  0.838724  1
  Ga  Ga16  1  0.136889  0.838724  0.838724  1
  Ga  Ga17  1  0.838724  0.838724  0.136889  1
  Ga  Ga18  1  0.161276  0.863111  0.161276  1
  Ga  Ga19  1  0.863111  0.161276  0.161276  1
  Ga  Ga20  1  0.161276  0.161276  0.863111  1
  Ga  Ga21  1  0.729761  0.484414  0.729761  1
  Ga  Ga22  1  0.484414  0.729761  0.729761  1
  Ga  Ga23  1  0.729761  0.729761  0.484414  1
  Ga  Ga24  1  0.270239  0.515586  0.270239  1
  Ga  Ga25  1  0.515586  0.270239  0.270239  1
  Ga  Ga26  1  0.270239  0.270239  0.515586  1
  Pd  Pd27  1  0.828538  0.828538  0.828538  1
  Pd  Pd28  1  0.171462  0.171462  0.171462  1
  Pd  Pd29  1  0.667148  0.332852  0.000000  1
  Pd  Pd30  1  0.000000  0.332852  0.667148  1
  Pd  Pd31  1  0.332852  0.000000  0.667148  1
  Pd  Pd32  1  0.332852  0.667148  0.000000  1
  Pd  Pd33  1  0.000000  0.667148  0.332852  1
  Pd  Pd34  1  0.667148  0.000000  0.332852  1
  Pd  Pd35  1  0.500000  0.500000  0.500000  1
