# generated using pymatgen
data_TbY7Lu2(SiB4)4
_symmetry_space_group_name_H-M   'P 1'
_cell_length_a   7.22096100
_cell_length_b   7.22096100
_cell_length_c   8.04447201
_cell_angle_alpha   90.00349855
_cell_angle_beta   89.99650145
_cell_angle_gamma   90.00085700
_symmetry_Int_Tables_number   1
_chemical_formula_structural   TbY7Lu2(SiB4)4
_chemical_formula_sum   'Tb1 Y7 Lu2 Si4 B16'
_cell_volume   419.45709268
_cell_formula_units_Z   1
loop_
 _symmetry_equiv_pos_site_id
 _symmetry_equiv_pos_as_xyz
  1  'x, y, z'
loop_
 _atom_site_type_symbol
 _atom_site_label
 _atom_site_symmetry_multiplicity
 _atom_site_fract_x
 _atom_site_fract_y
 _atom_site_fract_z
 _atom_site_occupancy
  Tb  Tb0  1  0.180275  0.319725  0.226405  1
  Y  Y1  1  0.680227  0.180242  0.225781  1
  Y  Y2  1  0.319730  0.819689  0.774229  1
  Y  Y3  1  0.319758  0.819773  0.225781  1
  Y  Y4  1  0.819801  0.680199  0.225873  1
  Y  Y5  1  0.819757  0.680243  0.774048  1
  Y  Y6  1  0.680311  0.180270  0.774229  1
  Y  Y7  1  0.180235  0.319765  0.773956  1
  Lu  Lu8  1  0.999963  0.999920  0.500066  1
  Lu  Lu9  1  0.500080  0.500037  0.500066  1
  Si  Si10  1  0.115824  0.616045  0.500099  1
  Si  Si11  1  0.883955  0.384176  0.500099  1
  Si  Si12  1  0.384228  0.115772  0.500122  1
  Si  Si13  1  0.615978  0.884022  0.500101  1
  B  B14  1  0.172583  0.039087  0.999976  1
  B  B15  1  0.827323  0.960841  0.999906  1
  B  B16  1  0.960909  0.172600  0.999964  1
  B  B17  1  0.327400  0.539091  0.999964  1
  B  B18  1  0.039083  0.827352  0.999906  1
  B  B19  1  0.672648  0.460917  0.999906  1
  B  B20  1  0.539159  0.672677  0.999906  1
  B  B21  1  0.460913  0.327417  0.999976  1
  B  B22  1  0.089783  0.589833  0.999954  1
  B  B23  1  0.910167  0.410217  0.999954  1
  B  B24  1  0.410223  0.089777  0.000107  1
  B  B25  1  0.589702  0.910298  0.999969  1
  B  B26  1  0.999924  0.999905  0.163453  1
  B  B27  1  0.999935  0.999969  0.836376  1
  B  B28  1  0.500031  0.500065  0.836376  1
  B  B29  1  0.500095  0.500076  0.163453  1
