# generated using pymatgen
data_LiSm3Hg3Rh2
_symmetry_space_group_name_H-M   'P 1'
_cell_length_a   7.72988000
_cell_length_b   7.72988184
_cell_length_c   3.82683400
_cell_angle_alpha   90.00000000
_cell_angle_beta   90.00000000
_cell_angle_gamma   120.00000067
_symmetry_Int_Tables_number   1
_chemical_formula_structural   LiSm3Hg3Rh2
_chemical_formula_sum   'Li1 Sm3 Hg3 Rh2'
_cell_volume   198.02310230
_cell_formula_units_Z   1
loop_
 _symmetry_equiv_pos_site_id
 _symmetry_equiv_pos_as_xyz
  1  'x, y, z'
loop_
 _atom_site_type_symbol
 _atom_site_label
 _atom_site_symmetry_multiplicity
 _atom_site_fract_x
 _atom_site_fract_y
 _atom_site_fract_z
 _atom_site_occupancy
  Li  Li0  1  0.000000  0.000000  0.500000  1
  Sm  Sm1  1  0.577966  0.000000  0.500000  1
  Sm  Sm2  1  0.000000  0.577966  0.500000  1
  Sm  Sm3  1  0.422034  0.422034  0.500000  1
  Hg  Hg4  1  0.247451  0.000000  0.000000  1
  Hg  Hg5  1  0.752549  0.752549  0.000000  1
  Hg  Hg6  1  0.000000  0.247451  0.000000  1
  Rh  Rh7  1  0.666667  0.333333  0.000000  1
  Rh  Rh8  1  0.333333  0.666667  0.000000  1
