# generated using pymatgen
data_Dy4ErIr3
_symmetry_space_group_name_H-M   'P 1'
_cell_length_a   10.86984600
_cell_length_b   10.86984600
_cell_length_c   6.36246600
_cell_angle_alpha   90.00000000
_cell_angle_beta   90.00000000
_cell_angle_gamma   90.00000000
_symmetry_Int_Tables_number   1
_chemical_formula_structural   Dy4ErIr3
_chemical_formula_sum   'Dy16 Er4 Ir12'
_cell_volume   751.74795778
_cell_formula_units_Z   4
loop_
 _symmetry_equiv_pos_site_id
 _symmetry_equiv_pos_as_xyz
  1  'x, y, z'
loop_
 _atom_site_type_symbol
 _atom_site_label
 _atom_site_symmetry_multiplicity
 _atom_site_fract_x
 _atom_site_fract_y
 _atom_site_fract_z
 _atom_site_occupancy
  Dy  Dy0  1  0.290825  0.087755  0.377809  1
  Dy  Dy1  1  0.290825  0.912245  0.877809  1
  Dy  Dy2  1  0.709175  0.087755  0.877809  1
  Dy  Dy3  1  0.709175  0.912245  0.377809  1
  Dy  Dy4  1  0.587755  0.790825  0.877809  1
  Dy  Dy5  1  0.587755  0.209175  0.377809  1
  Dy  Dy6  1  0.412245  0.790825  0.377809  1
  Dy  Dy7  1  0.412245  0.209175  0.877809  1
  Dy  Dy8  1  0.209175  0.412245  0.622191  1
  Dy  Dy9  1  0.209175  0.587755  0.122191  1
  Dy  Dy10  1  0.790825  0.412245  0.122191  1
  Dy  Dy11  1  0.790825  0.587755  0.622191  1
  Dy  Dy12  1  0.912245  0.709175  0.122191  1
  Dy  Dy13  1  0.912245  0.290825  0.622191  1
  Dy  Dy14  1  0.087755  0.709175  0.622191  1
  Dy  Dy15  1  0.087755  0.290825  0.122191  1
  Er  Er16  1  0.000000  0.000000  0.500000  1
  Er  Er17  1  0.000000  0.000000  0.000000  1
  Er  Er18  1  0.500000  0.500000  0.000000  1
  Er  Er19  1  0.500000  0.500000  0.500000  1
  Ir  Ir20  1  0.846796  0.153204  0.250000  1
  Ir  Ir21  1  0.846796  0.846796  0.750000  1
  Ir  Ir22  1  0.153204  0.153204  0.750000  1
  Ir  Ir23  1  0.153204  0.846796  0.250000  1
  Ir  Ir24  1  0.653204  0.346796  0.750000  1
  Ir  Ir25  1  0.653204  0.653204  0.250000  1
  Ir  Ir26  1  0.346796  0.346796  0.250000  1
  Ir  Ir27  1  0.346796  0.653204  0.750000  1
  Ir  Ir28  1  0.500000  0.000000  0.120199  1
  Ir  Ir29  1  0.500000  0.000000  0.620199  1
  Ir  Ir30  1  0.000000  0.500000  0.879801  1
  Ir  Ir31  1  0.000000  0.500000  0.379801  1
