# generated using pymatgen
data_PuFe10MoP6
_symmetry_space_group_name_H-M   'P 1'
_cell_length_a   3.63600900
_cell_length_b   10.09642800
_cell_length_c   11.68341200
_cell_angle_alpha   90.00000000
_cell_angle_beta   90.00000000
_cell_angle_gamma   90.00000000
_symmetry_Int_Tables_number   1
_chemical_formula_structural   PuFe10MoP6
_chemical_formula_sum   'Pu2 Fe20 Mo2 P12'
_cell_volume   428.90626884
_cell_formula_units_Z   2
loop_
 _symmetry_equiv_pos_site_id
 _symmetry_equiv_pos_as_xyz
  1  'x, y, z'
loop_
 _atom_site_type_symbol
 _atom_site_label
 _atom_site_symmetry_multiplicity
 _atom_site_fract_x
 _atom_site_fract_y
 _atom_site_fract_z
 _atom_site_occupancy
  Pu  Pu0  1  0.250000  0.580518  0.705397  1
  Pu  Pu1  1  0.250000  0.919482  0.205397  1
  Fe  Fe2  1  0.250000  0.706415  0.990631  1
  Fe  Fe3  1  0.250000  0.793585  0.490631  1
  Fe  Fe4  1  0.750000  0.287476  0.007317  1
  Fe  Fe5  1  0.750000  0.212524  0.507317  1
  Fe  Fe6  1  0.250000  0.406988  0.480501  1
  Fe  Fe7  1  0.250000  0.093012  0.980501  1
  Fe  Fe8  1  0.750000  0.590693  0.507613  1
  Fe  Fe9  1  0.750000  0.909307  0.007613  1
  Fe  Fe10  1  0.250000  0.226706  0.173854  1
  Fe  Fe11  1  0.250000  0.273294  0.673854  1
  Fe  Fe12  1  0.750000  0.778307  0.826296  1
  Fe  Fe13  1  0.750000  0.721693  0.326296  1
  Fe  Fe14  1  0.250000  0.885572  0.706107  1
  Fe  Fe15  1  0.250000  0.614428  0.206107  1
  Fe  Fe16  1  0.750000  0.128949  0.300222  1
  Fe  Fe17  1  0.750000  0.371051  0.800222  1
  Fe  Fe18  1  0.250000  0.456004  0.934109  1
  Fe  Fe19  1  0.250000  0.043996  0.434109  1
  Fe  Fe20  1  0.750000  0.529801  0.072902  1
  Fe  Fe21  1  0.750000  0.970199  0.572902  1
  Mo  Mo22  1  0.750000  0.421317  0.293379  1
  Mo  Mo23  1  0.750000  0.078683  0.793379  1
  P  P24  1  0.250000  0.423128  0.118302  1
  P  P25  1  0.250000  0.076872  0.618302  1
  P  P26  1  0.750000  0.573039  0.889644  1
  P  P27  1  0.750000  0.926961  0.389644  1
  P  P28  1  0.250000  0.257991  0.862314  1
  P  P29  1  0.250000  0.242009  0.362314  1
  P  P30  1  0.750000  0.730453  0.131668  1
  P  P31  1  0.750000  0.769547  0.631668  1
  P  P32  1  0.250000  0.601250  0.392133  1
  P  P33  1  0.250000  0.898750  0.892133  1
  P  P34  1  0.750000  0.395607  0.607609  1
  P  P35  1  0.750000  0.104393  0.107609  1
