# generated using pymatgen
data_Tc6H2Se5S3
_symmetry_space_group_name_H-M   'P 1'
_cell_length_a   10.56137600
_cell_length_b   6.48223419
_cell_length_c   10.23893259
_cell_angle_alpha   70.41915900
_cell_angle_beta   90.00000000
_cell_angle_gamma   90.00000000
_symmetry_Int_Tables_number   1
_chemical_formula_structural   Tc6H2Se5S3
_chemical_formula_sum   'Tc12 H4 Se10 S6'
_cell_volume   660.43332525
_cell_formula_units_Z   2
loop_
 _symmetry_equiv_pos_site_id
 _symmetry_equiv_pos_as_xyz
  1  'x, y, z'
loop_
 _atom_site_type_symbol
 _atom_site_label
 _atom_site_symmetry_multiplicity
 _atom_site_fract_x
 _atom_site_fract_y
 _atom_site_fract_z
 _atom_site_occupancy
  Tc  Tc0  1  0.620021  0.993999  0.367858  1
  Tc  Tc1  1  0.879979  0.993999  0.867858  1
  Tc  Tc2  1  0.378652  0.003384  0.631949  1
  Tc  Tc3  1  0.121348  0.003384  0.131949  1
  Tc  Tc4  1  0.369297  0.987327  0.380150  1
  Tc  Tc5  1  0.130703  0.987327  0.880150  1
  Tc  Tc6  1  0.629513  0.010478  0.621196  1
  Tc  Tc7  1  0.870487  0.010478  0.121196  1
  Tc  Tc8  1  0.501581  0.695187  0.570813  1
  Tc  Tc9  1  0.998419  0.695187  0.070813  1
  Tc  Tc10  1  0.496432  0.304208  0.429421  1
  Tc  Tc11  1  0.003568  0.304208  0.929421  1
  H  H12  1  0.235276  0.986881  0.268630  1
  H  H13  1  0.264724  0.986881  0.768630  1
  H  H14  1  0.764794  0.010684  0.732018  1
  H  H15  1  0.735206  0.010684  0.232018  1
  Se  Se16  1  0.735344  0.293842  0.421134  1
  Se  Se17  1  0.764656  0.293842  0.921134  1
  Se  Se18  1  0.487767  0.272871  0.190320  1
  Se  Se19  1  0.012233  0.272871  0.690320  1
  Se  Se20  1  0.510341  0.725706  0.810356  1
  Se  Se21  1  0.989659  0.725706  0.310356  1
  Se  Se22  1  0.740857  0.715971  0.558100  1
  Se  Se23  1  0.759143  0.715971  0.058100  1
  Se  Se24  1  0.257635  0.282415  0.442621  1
  Se  Se25  1  0.242365  0.282415  0.942621  1
  S  S26  1  0.492493  0.715890  0.325391  1
  S  S27  1  0.007507  0.715890  0.825391  1
  S  S28  1  0.505225  0.282710  0.674694  1
  S  S29  1  0.994775  0.282710  0.174694  1
  S  S30  1  0.275349  0.718446  0.575348  1
  S  S31  1  0.224651  0.718446  0.075348  1
