# generated using pymatgen
data_K2UCr3Se8
_symmetry_space_group_name_H-M   'P 1'
_cell_length_a   6.47840500
_cell_length_b   7.54442932
_cell_length_c   16.70334300
_cell_angle_alpha   90.19416763
_cell_angle_beta   90.00000000
_cell_angle_gamma   90.00000000
_symmetry_Int_Tables_number   1
_chemical_formula_structural   K2UCr3Se8
_chemical_formula_sum   'K4 U2 Cr6 Se16'
_cell_volume   816.38571043
_cell_formula_units_Z   2
loop_
 _symmetry_equiv_pos_site_id
 _symmetry_equiv_pos_as_xyz
  1  'x, y, z'
loop_
 _atom_site_type_symbol
 _atom_site_label
 _atom_site_symmetry_multiplicity
 _atom_site_fract_x
 _atom_site_fract_y
 _atom_site_fract_z
 _atom_site_occupancy
  K  K0  1  0.348988  0.000000  0.000000  1
  K  K1  1  0.651012  0.500000  0.500000  1
  K  K2  1  0.015954  0.000000  0.500000  1
  K  K3  1  0.984046  0.500000  0.000000  1
  U  U4  1  0.500000  0.250000  0.250000  1
  U  U5  1  0.500000  0.750000  0.750000  1
  Cr  Cr6  1  0.000932  0.995249  0.249782  1
  Cr  Cr7  1  0.000932  0.004751  0.750218  1
  Cr  Cr8  1  0.999068  0.504751  0.250218  1
  Cr  Cr9  1  0.999068  0.495249  0.749782  1
  Cr  Cr10  1  0.500000  0.750000  0.250000  1
  Cr  Cr11  1  0.500000  0.250000  0.750000  1
  Se  Se12  1  0.858097  0.251900  0.340699  1
  Se  Se13  1  0.858097  0.748100  0.659301  1
  Se  Se14  1  0.166202  0.749267  0.167772  1
  Se  Se15  1  0.166202  0.250733  0.832228  1
  Se  Se16  1  0.141903  0.248100  0.159301  1
  Se  Se17  1  0.141903  0.751900  0.840699  1
  Se  Se18  1  0.833798  0.750733  0.332228  1
  Se  Se19  1  0.833798  0.249267  0.667772  1
  Se  Se20  1  0.679947  0.979461  0.160895  1
  Se  Se21  1  0.679947  0.020539  0.839105  1
  Se  Se22  1  0.320053  0.520539  0.339105  1
  Se  Se23  1  0.320053  0.479461  0.660895  1
  Se  Se24  1  0.323550  0.980148  0.338785  1
  Se  Se25  1  0.323550  0.019852  0.661215  1
  Se  Se26  1  0.676450  0.519852  0.161215  1
  Se  Se27  1  0.676450  0.480148  0.838785  1
