# generated using pymatgen
data_Al5V12Zn2CoN4
_symmetry_space_group_name_H-M   'P 1'
_cell_length_a   6.58947257
_cell_length_b   6.58668262
_cell_length_c   6.58731577
_cell_angle_alpha   90.09394664
_cell_angle_beta   89.96904508
_cell_angle_gamma   89.93822123
_symmetry_Int_Tables_number   1
_chemical_formula_structural   Al5V12Zn2CoN4
_chemical_formula_sum   'Al5 V12 Zn2 Co1 N4'
_cell_volume   285.90712233
_cell_formula_units_Z   1
loop_
 _symmetry_equiv_pos_site_id
 _symmetry_equiv_pos_as_xyz
  1  'x, y, z'
loop_
 _atom_site_type_symbol
 _atom_site_label
 _atom_site_symmetry_multiplicity
 _atom_site_fract_x
 _atom_site_fract_y
 _atom_site_fract_z
 _atom_site_occupancy
  Al  Al0  1  0.186679  0.825147  0.328948  1
  Al  Al1  1  0.321449  0.165707  0.812317  1
  Al  Al2  1  0.827522  0.320526  0.182517  1
  Al  Al3  1  0.671561  0.690491  0.669723  1
  Al  Al4  1  0.571778  0.428158  0.926187  1
  V  V5  1  0.787218  0.961225  0.378494  1
  V  V6  1  0.706902  0.039641  0.874781  1
  V  V7  1  0.211053  0.460499  0.122346  1
  V  V8  1  0.291795  0.541314  0.628166  1
  V  V9  1  0.958591  0.375230  0.790881  1
  V  V10  1  0.042737  0.876541  0.708508  1
  V  V11  1  0.462656  0.126441  0.212550  1
  V  V12  1  0.537744  0.623503  0.290546  1
  V  V13  1  0.378839  0.788814  0.957158  1
  V  V14  1  0.870774  0.708225  0.038306  1
  V  V15  1  0.124785  0.206801  0.461516  1
  V  V16  1  0.622143  0.287304  0.540494  1
  Zn  Zn17  1  0.931251  0.573831  0.430046  1
  Zn  Zn18  1  0.072955  0.067981  0.070953  1
  Co  Co19  1  0.428303  0.928905  0.568686  1
  N  N20  1  0.873770  0.125400  0.627778  1
  N  N21  1  0.624589  0.874501  0.128397  1
  N  N22  1  0.124772  0.629295  0.873705  1
  N  N23  1  0.370133  0.374518  0.376994  1
