# generated using pymatgen
data_Tb7Er3Si5Sb
_symmetry_space_group_name_H-M   'P 1'
_cell_length_a   8.53197200
_cell_length_b   8.56180066
_cell_length_c   6.40516800
_cell_angle_alpha   89.98007784
_cell_angle_beta   90.00137666
_cell_angle_gamma   119.90646464
_symmetry_Int_Tables_number   1
_chemical_formula_structural   Tb7Er3Si5Sb
_chemical_formula_sum   'Tb7 Er3 Si5 Sb1'
_cell_volume   405.58718066
_cell_formula_units_Z   1
loop_
 _symmetry_equiv_pos_site_id
 _symmetry_equiv_pos_as_xyz
  1  'x, y, z'
loop_
 _atom_site_type_symbol
 _atom_site_label
 _atom_site_symmetry_multiplicity
 _atom_site_fract_x
 _atom_site_fract_y
 _atom_site_fract_z
 _atom_site_occupancy
  Tb  Tb0  1  0.988793  0.747194  0.750363  1
  Tb  Tb1  1  0.998189  0.243880  0.249484  1
  Tb  Tb2  1  0.754520  0.755935  0.249432  1
  Tb  Tb3  1  0.764868  0.000116  0.750276  1
  Tb  Tb4  1  0.241522  0.252795  0.750557  1
  Tb  Tb5  1  0.242757  0.000138  0.249812  1
  Tb  Tb6  1  0.331018  0.656718  0.496554  1
  Er  Er7  1  0.674295  0.343229  0.003562  1
  Er  Er8  1  0.674357  0.343490  0.496435  1
  Er  Er9  1  0.331014  0.656735  0.003468  1
  Si  Si10  1  0.394595  0.391662  0.248348  1
  Si  Si11  1  0.000581  0.607244  0.248595  1
  Si  Si12  1  0.997601  0.394216  0.751486  1
  Si  Si13  1  0.604483  0.604500  0.751487  1
  Si  Si14  1  0.605542  0.001059  0.248851  1
  Sb  Sb15  1  0.395866  0.001087  0.751290  1
