# generated using pymatgen
data_Nd5ErAl23VOs8
_symmetry_space_group_name_H-M   'P 1'
_cell_length_a   8.88705700
_cell_length_b   8.91505170
_cell_length_c   9.65370155
_cell_angle_alpha   90.03353501
_cell_angle_beta   90.00000000
_cell_angle_gamma   119.89618224
_symmetry_Int_Tables_number   1
_chemical_formula_structural   Nd5ErAl23VOs8
_chemical_formula_sum   'Nd5 Er1 Al23 V1 Os8'
_cell_volume   663.07035918
_cell_formula_units_Z   1
loop_
 _symmetry_equiv_pos_site_id
 _symmetry_equiv_pos_as_xyz
  1  'x, y, z'
loop_
 _atom_site_type_symbol
 _atom_site_label
 _atom_site_symmetry_multiplicity
 _atom_site_fract_x
 _atom_site_fract_y
 _atom_site_fract_z
 _atom_site_occupancy
  Nd  Nd0  1  0.808269  0.616538  0.751503  1
  Nd  Nd1  1  0.616259  0.808713  0.247139  1
  Nd  Nd2  1  0.382639  0.190300  0.751536  1
  Nd  Nd3  1  0.192453  0.808713  0.247139  1
  Nd  Nd4  1  0.807662  0.190300  0.751536  1
  Er  Er5  1  0.195888  0.391778  0.245171  1
  Al  Al6  1  0.666646  0.333291  0.983429  1
  Al  Al7  1  0.666206  0.332410  0.517864  1
  Al  Al8  1  0.332894  0.665790  0.483222  1
  Al  Al9  1  0.162726  0.325451  0.570339  1
  Al  Al10  1  0.835960  0.671921  0.424633  1
  Al  Al11  1  0.673480  0.836713  0.572874  1
  Al  Al12  1  0.835084  0.670170  0.078319  1
  Al  Al13  1  0.326277  0.164732  0.424819  1
  Al  Al14  1  0.160445  0.320891  0.929531  1
  Al  Al15  1  0.163233  0.836713  0.572874  1
  Al  Al16  1  0.327994  0.165355  0.077808  1
  Al  Al17  1  0.838454  0.164732  0.424819  1
  Al  Al18  1  0.677241  0.838732  0.927536  1
  Al  Al19  1  0.837360  0.165355  0.077808  1
  Al  Al20  1  0.161490  0.838732  0.927536  1
  Al  Al21  1  0.563265  0.126532  0.251743  1
  Al  Al22  1  0.439340  0.878682  0.749899  1
  Al  Al23  1  0.877070  0.437209  0.252438  1
  Al  Al24  1  0.119951  0.558954  0.750285  1
  Al  Al25  1  0.560138  0.437209  0.252438  1
  Al  Al26  1  0.439003  0.558954  0.750285  1
  Al  Al27  1  0.004252  0.008505  0.250944  1
  Al  Al28  1  0.999603  0.999206  0.750501  1
  V  V29  1  0.332610  0.665221  0.981414  1
  Os  Os30  1  0.493908  0.987817  0.005478  1
  Os  Os31  1  0.013640  0.505003  0.006928  1
  Os  Os32  1  0.498435  0.996870  0.500219  1
  Os  Os33  1  0.491363  0.505003  0.006928  1
  Os  Os34  1  0.002862  0.499865  0.500746  1
  Os  Os35  1  0.497003  0.499865  0.500746  1
  Os  Os36  1  0.999315  0.998630  0.002541  1
  Os  Os37  1  0.999576  0.999152  0.499033  1
