# generated using pymatgen
data_CeDy3(Al3Ir)6
_symmetry_space_group_name_H-M   'P 1'
_cell_length_a   7.57599805
_cell_length_b   7.57113395
_cell_length_c   9.46974400
_cell_angle_alpha   90.00000000
_cell_angle_beta   90.00000000
_cell_angle_gamma   119.49105941
_symmetry_Int_Tables_number   1
_chemical_formula_structural   CeDy3(Al3Ir)6
_chemical_formula_sum   'Ce1 Dy3 Al18 Ir6'
_cell_volume   472.79637005
_cell_formula_units_Z   1
loop_
 _symmetry_equiv_pos_site_id
 _symmetry_equiv_pos_as_xyz
  1  'x, y, z'
loop_
 _atom_site_type_symbol
 _atom_site_label
 _atom_site_symmetry_multiplicity
 _atom_site_fract_x
 _atom_site_fract_y
 _atom_site_fract_z
 _atom_site_occupancy
  Ce  Ce0  1  0.994998  0.670764  0.750000  1
  Dy  Dy1  1  0.004419  0.329790  0.250000  1
  Dy  Dy2  1  0.672770  0.995700  0.750000  1
  Dy  Dy3  1  0.327890  0.003188  0.250000  1
  Al  Al4  1  0.130427  0.130571  0.750000  1
  Al  Al5  1  0.872965  0.873757  0.250000  1
  Al  Al6  1  0.001176  0.333751  0.573974  1
  Al  Al7  1  0.998592  0.664468  0.422651  1
  Al  Al8  1  0.998592  0.664468  0.077349  1
  Al  Al9  1  0.337260  0.002633  0.925951  1
  Al  Al10  1  0.001176  0.333751  0.926026  1
  Al  Al11  1  0.664835  0.999383  0.075629  1
  Al  Al12  1  0.664835  0.999383  0.424371  1
  Al  Al13  1  0.337260  0.002633  0.574049  1
  Al  Al14  1  0.332813  0.332712  0.053088  1
  Al  Al15  1  0.664756  0.666421  0.950084  1
  Al  Al16  1  0.664756  0.666421  0.549916  1
  Al  Al17  1  0.332813  0.332712  0.446912  1
  Al  Al18  1  0.341067  0.548268  0.750000  1
  Al  Al19  1  0.659929  0.450220  0.250000  1
  Al  Al20  1  0.546431  0.339310  0.750000  1
  Al  Al21  1  0.451539  0.660760  0.250000  1
  Ir  Ir22  1  0.671892  0.328349  0.500260  1
  Ir  Ir23  1  0.327445  0.671547  0.500162  1
  Ir  Ir24  1  0.327445  0.671547  0.999838  1
  Ir  Ir25  1  0.671892  0.328349  0.999740  1
  Ir  Ir26  1  0.000015  0.999571  0.500696  1
  Ir  Ir27  1  0.000015  0.999571  0.999304  1
