# generated using pymatgen
data_Er2Hf2TaSi4
_symmetry_space_group_name_H-M   'P 1'
_cell_length_a   7.18813400
_cell_length_b   7.18813400
_cell_length_c   13.14843900
_cell_angle_alpha   90.00000000
_cell_angle_beta   90.00000000
_cell_angle_gamma   90.00000000
_symmetry_Int_Tables_number   1
_chemical_formula_structural   Er2Hf2TaSi4
_chemical_formula_sum   'Er8 Hf8 Ta4 Si16'
_cell_volume   679.37025005
_cell_formula_units_Z   4
loop_
 _symmetry_equiv_pos_site_id
 _symmetry_equiv_pos_as_xyz
  1  'x, y, z'
loop_
 _atom_site_type_symbol
 _atom_site_label
 _atom_site_symmetry_multiplicity
 _atom_site_fract_x
 _atom_site_fract_y
 _atom_site_fract_z
 _atom_site_occupancy
  Er  Er0  1  0.497357  0.154573  0.534417  1
  Er  Er1  1  0.502643  0.845427  0.034417  1
  Er  Er2  1  0.654573  0.002643  0.284417  1
  Er  Er3  1  0.345427  0.997357  0.784417  1
  Er  Er4  1  0.845427  0.502643  0.965583  1
  Er  Er5  1  0.154573  0.497357  0.465583  1
  Er  Er6  1  0.002643  0.654573  0.715583  1
  Er  Er7  1  0.997357  0.345427  0.215583  1
  Hf  Hf8  1  0.494146  0.353390  0.125495  1
  Hf  Hf9  1  0.505854  0.646610  0.625495  1
  Hf  Hf10  1  0.853390  0.005854  0.875495  1
  Hf  Hf11  1  0.146610  0.994146  0.375495  1
  Hf  Hf12  1  0.646610  0.505854  0.374505  1
  Hf  Hf13  1  0.353390  0.494146  0.874505  1
  Hf  Hf14  1  0.005854  0.853390  0.124505  1
  Hf  Hf15  1  0.994146  0.146610  0.624505  1
  Ta  Ta16  1  0.676707  0.323293  0.750000  1
  Ta  Ta17  1  0.323293  0.676707  0.250000  1
  Ta  Ta18  1  0.823293  0.823293  0.500000  1
  Ta  Ta19  1  0.176707  0.176707  0.000000  1
  Si  Si20  1  0.796808  0.140984  0.067823  1
  Si  Si21  1  0.203192  0.859016  0.567823  1
  Si  Si22  1  0.640984  0.703192  0.817823  1
  Si  Si23  1  0.359016  0.296808  0.317823  1
  Si  Si24  1  0.859016  0.203192  0.432177  1
  Si  Si25  1  0.140984  0.796808  0.932177  1
  Si  Si26  1  0.703192  0.640984  0.182177  1
  Si  Si27  1  0.296808  0.359016  0.682177  1
  Si  Si28  1  0.549137  0.203265  0.934578  1
  Si  Si29  1  0.450863  0.796735  0.434578  1
  Si  Si30  1  0.703265  0.950863  0.684578  1
  Si  Si31  1  0.296735  0.049137  0.184578  1
  Si  Si32  1  0.796735  0.450863  0.565422  1
  Si  Si33  1  0.203265  0.549137  0.065422  1
  Si  Si34  1  0.950863  0.703265  0.315422  1
  Si  Si35  1  0.049137  0.296735  0.815422  1
