# generated using pymatgen
data_HoTh3(Pd3Pt)3
_symmetry_space_group_name_H-M   'P 1'
_cell_length_a   5.92696500
_cell_length_b   5.93448335
_cell_length_c   9.73238824
_cell_angle_alpha   89.68328103
_cell_angle_beta   90.25798541
_cell_angle_gamma   119.96843784
_symmetry_Int_Tables_number   1
_chemical_formula_structural   HoTh3(Pd3Pt)3
_chemical_formula_sum   'Ho1 Th3 Pd9 Pt3'
_cell_volume   296.54858636
_cell_formula_units_Z   1
loop_
 _symmetry_equiv_pos_site_id
 _symmetry_equiv_pos_as_xyz
  1  'x, y, z'
loop_
 _atom_site_type_symbol
 _atom_site_label
 _atom_site_symmetry_multiplicity
 _atom_site_fract_x
 _atom_site_fract_y
 _atom_site_fract_z
 _atom_site_occupancy
  Ho  Ho0  1  0.334545  0.667236  0.250663  1
  Th  Th1  1  0.000219  0.000594  0.495491  1
  Th  Th2  1  0.000205  0.000557  0.004801  1
  Th  Th3  1  0.665153  0.331482  0.749735  1
  Pd  Pd4  1  0.499599  0.998900  0.498931  1
  Pd  Pd5  1  0.001315  0.500952  0.498568  1
  Pd  Pd6  1  0.499880  0.500999  0.001455  1
  Pd  Pd7  1  0.499454  0.999063  0.001125  1
  Pd  Pd8  1  0.001155  0.501151  0.001583  1
  Pd  Pd9  1  0.349649  0.173966  0.249253  1
  Pd  Pd10  1  0.825475  0.173640  0.248506  1
  Pd  Pd11  1  0.652039  0.826863  0.750624  1
  Pd  Pd12  1  0.173349  0.826985  0.751427  1
  Pt  Pt13  1  0.500007  0.501199  0.497912  1
  Pt  Pt14  1  0.823126  0.646115  0.249095  1
  Pt  Pt15  1  0.174830  0.350297  0.750829  1
