# generated using pymatgen
data_Eu10Ga5Sb
_symmetry_space_group_name_H-M   'P 1'
_cell_length_a   9.52971000
_cell_length_b   9.52971032
_cell_length_c   9.52971000
_cell_angle_alpha   129.46830886
_cell_angle_beta   129.46831043
_cell_angle_gamma   74.25820081
_symmetry_Int_Tables_number   1
_chemical_formula_structural   Eu10Ga5Sb
_chemical_formula_sum   'Eu10 Ga5 Sb1'
_cell_volume   502.80053384
_cell_formula_units_Z   1
loop_
 _symmetry_equiv_pos_site_id
 _symmetry_equiv_pos_as_xyz
  1  'x, y, z'
loop_
 _atom_site_type_symbol
 _atom_site_label
 _atom_site_symmetry_multiplicity
 _atom_site_fract_x
 _atom_site_fract_y
 _atom_site_fract_z
 _atom_site_occupancy
  Eu  Eu0  1  0.815663  0.326187  0.852100  1
  Eu  Eu1  1  0.474088  0.963563  0.147901  1
  Eu  Eu2  1  0.684338  0.536437  0.510525  1
  Eu  Eu3  1  0.025912  0.173813  0.489475  1
  Eu  Eu4  1  0.173813  0.684338  0.147901  1
  Eu  Eu5  1  0.536438  0.025912  0.852100  1
  Eu  Eu6  1  0.963563  0.815661  0.489475  1
  Eu  Eu7  1  0.326187  0.474088  0.510525  1
  Eu  Eu8  1  0.004779  0.004779  0.000000  1
  Eu  Eu9  1  0.495221  0.495221  0.000000  1
  Ga  Ga10  1  0.750000  0.750000  0.000000  1
  Ga  Ga11  1  0.888889  0.388889  0.277779  1
  Ga  Ga12  1  0.111111  0.611110  0.722219  1
  Ga  Ga13  1  0.611111  0.888889  0.500000  1
  Ga  Ga14  1  0.388889  0.111111  0.500000  1
  Sb  Sb15  1  0.250000  0.250000  0.000000  1
