# generated using pymatgen
data_RbAc(LaB12)2
_symmetry_space_group_name_H-M   'P 1'
_cell_length_a   7.26591904
_cell_length_b   7.26591984
_cell_length_c   5.93085600
_cell_angle_alpha   90.00000000
_cell_angle_beta   90.00000000
_cell_angle_gamma   109.45144560
_symmetry_Int_Tables_number   1
_chemical_formula_structural   RbAc(LaB12)2
_chemical_formula_sum   'Rb1 Ac1 La2 B24'
_cell_volume   295.24002993
_cell_formula_units_Z   1
loop_
 _symmetry_equiv_pos_site_id
 _symmetry_equiv_pos_as_xyz
  1  'x, y, z'
loop_
 _atom_site_type_symbol
 _atom_site_label
 _atom_site_symmetry_multiplicity
 _atom_site_fract_x
 _atom_site_fract_y
 _atom_site_fract_z
 _atom_site_occupancy
  Rb  Rb0  1  0.000158  0.999842  0.000000  1
  Ac  Ac1  1  0.751985  0.248015  0.500000  1
  La  La2  1  0.498856  0.501144  0.000000  1
  La  La3  1  0.248407  0.751593  0.500000  1
  B  B4  1  0.177580  0.326496  0.649254  1
  B  B5  1  0.925197  0.574220  0.149163  1
  B  B6  1  0.673504  0.822420  0.649254  1
  B  B7  1  0.425780  0.074803  0.149163  1
  B  B8  1  0.177580  0.326496  0.350746  1
  B  B9  1  0.925197  0.574220  0.850837  1
  B  B10  1  0.673504  0.822420  0.350746  1
  B  B11  1  0.425780  0.074803  0.850837  1
  B  B12  1  0.399878  0.400232  0.500000  1
  B  B13  1  0.149052  0.650165  0.000000  1
  B  B14  1  0.898455  0.897685  0.500000  1
  B  B15  1  0.649150  0.148258  0.000000  1
  B  B16  1  0.325682  0.176685  0.649233  1
  B  B17  1  0.076416  0.427276  0.149180  1
  B  B18  1  0.823315  0.674318  0.649233  1
  B  B19  1  0.572724  0.923584  0.149180  1
  B  B20  1  0.102315  0.101545  0.500000  1
  B  B21  1  0.851742  0.350850  0.000000  1
  B  B22  1  0.599768  0.600122  0.500000  1
  B  B23  1  0.349835  0.850948  0.000000  1
  B  B24  1  0.325682  0.176685  0.350767  1
  B  B25  1  0.076416  0.427276  0.850820  1
  B  B26  1  0.823315  0.674318  0.350767  1
  B  B27  1  0.572724  0.923584  0.850820  1
