# generated using pymatgen
data_Tb3YAl4(Ga7Ir3)2
_symmetry_space_group_name_H-M   'P 1'
_cell_length_a   7.57281903
_cell_length_b   7.57293268
_cell_length_c   9.52468700
_cell_angle_alpha   90.00000000
_cell_angle_beta   90.00000000
_cell_angle_gamma   119.73562241
_symmetry_Int_Tables_number   1
_chemical_formula_structural   Tb3YAl4(Ga7Ir3)2
_chemical_formula_sum   'Tb3 Y1 Al4 Ga14 Ir6'
_cell_volume   474.30078670
_cell_formula_units_Z   1
loop_
 _symmetry_equiv_pos_site_id
 _symmetry_equiv_pos_as_xyz
  1  'x, y, z'
loop_
 _atom_site_type_symbol
 _atom_site_label
 _atom_site_symmetry_multiplicity
 _atom_site_fract_x
 _atom_site_fract_y
 _atom_site_fract_z
 _atom_site_occupancy
  Tb  Tb0  1  0.000760  0.669702  0.250000  1
  Tb  Tb1  1  0.999240  0.330295  0.750000  1
  Tb  Tb2  1  0.669706  0.000766  0.250000  1
  Y  Y3  1  0.330299  0.999258  0.750000  1
  Al  Al4  1  0.331892  0.331881  0.553115  1
  Al  Al5  1  0.668107  0.668106  0.446883  1
  Al  Al6  1  0.668107  0.668106  0.053117  1
  Al  Al7  1  0.331892  0.331881  0.946885  1
  Ga  Ga8  1  0.127269  0.127270  0.250000  1
  Ga  Ga9  1  0.872737  0.872754  0.750000  1
  Ga  Ga10  1  0.000354  0.335202  0.079384  1
  Ga  Ga11  1  0.999661  0.664814  0.920626  1
  Ga  Ga12  1  0.999661  0.664814  0.579374  1
  Ga  Ga13  1  0.335202  0.000342  0.420619  1
  Ga  Ga14  1  0.000354  0.335202  0.420616  1
  Ga  Ga15  1  0.664782  0.999647  0.579375  1
  Ga  Ga16  1  0.664782  0.999647  0.920625  1
  Ga  Ga17  1  0.335202  0.000342  0.079381  1
  Ga  Ga18  1  0.346443  0.549438  0.250000  1
  Ga  Ga19  1  0.653577  0.450566  0.750000  1
  Ga  Ga20  1  0.549434  0.346445  0.250000  1
  Ga  Ga21  1  0.450548  0.653548  0.750000  1
  Ir  Ir22  1  0.669337  0.330646  0.999992  1
  Ir  Ir23  1  0.330650  0.669340  0.999998  1
  Ir  Ir24  1  0.330650  0.669340  0.500002  1
  Ir  Ir25  1  0.669337  0.330646  0.500008  1
  Ir  Ir26  1  0.000005  0.000000  0.999998  1
  Ir  Ir27  1  0.000005  0.000000  0.500002  1
