# generated using pymatgen
data_Tb9Lu(AlTe)4
_symmetry_space_group_name_H-M   'P 1'
_cell_length_a   8.73866253
_cell_length_b   8.73866226
_cell_length_c   7.97815914
_cell_angle_alpha   89.97218508
_cell_angle_beta   89.97218570
_cell_angle_gamma   125.98682645
_symmetry_Int_Tables_number   1
_chemical_formula_structural   Tb9Lu(AlTe)4
_chemical_formula_sum   'Tb9 Lu1 Al4 Te4'
_cell_volume   492.97233125
_cell_formula_units_Z   1
loop_
 _symmetry_equiv_pos_site_id
 _symmetry_equiv_pos_as_xyz
  1  'x, y, z'
loop_
 _atom_site_type_symbol
 _atom_site_label
 _atom_site_symmetry_multiplicity
 _atom_site_fract_x
 _atom_site_fract_y
 _atom_site_fract_z
 _atom_site_occupancy
  Tb  Tb0  1  0.000000  0.000000  0.000000  1
  Tb  Tb1  1  0.798673  0.538237  0.168128  1
  Tb  Tb2  1  0.461763  0.201327  0.831872  1
  Tb  Tb3  1  0.962233  0.701029  0.668202  1
  Tb  Tb4  1  0.298971  0.037767  0.331798  1
  Tb  Tb5  1  0.201327  0.461763  0.831872  1
  Tb  Tb6  1  0.538237  0.798673  0.168128  1
  Tb  Tb7  1  0.037767  0.298971  0.331798  1
  Tb  Tb8  1  0.701029  0.962233  0.668202  1
  Lu  Lu9  1  0.500000  0.500000  0.500000  1
  Al  Al10  1  0.875556  0.875556  0.378944  1
  Al  Al11  1  0.124444  0.124444  0.621056  1
  Al  Al12  1  0.622778  0.622778  0.875897  1
  Al  Al13  1  0.377222  0.377222  0.124103  1
  Te  Te14  1  0.204308  0.795692  0.000000  1
  Te  Te15  1  0.703293  0.296707  0.500000  1
  Te  Te16  1  0.795692  0.204308  0.000000  1
  Te  Te17  1  0.296707  0.703293  0.500000  1
