# generated using pymatgen
data_Hf3Sc3BAs5Ru6
_symmetry_space_group_name_H-M   'P 1'
_cell_length_a   7.65717281
_cell_length_b   7.63862798
_cell_length_c   7.65717437
_cell_angle_alpha   127.99732708
_cell_angle_beta   122.77929286
_cell_angle_gamma   81.03008542
_symmetry_Int_Tables_number   1
_chemical_formula_structural   Hf3Sc3BAs5Ru6
_chemical_formula_sum   'Hf3 Sc3 B1 As5 Ru6'
_cell_volume   285.90546868
_cell_formula_units_Z   1
loop_
 _symmetry_equiv_pos_site_id
 _symmetry_equiv_pos_as_xyz
  1  'x, y, z'
loop_
 _atom_site_type_symbol
 _atom_site_label
 _atom_site_symmetry_multiplicity
 _atom_site_fract_x
 _atom_site_fract_y
 _atom_site_fract_z
 _atom_site_occupancy
  Hf  Hf0  1  0.249964  0.858631  0.108666  1
  Hf  Hf1  1  0.049643  0.255991  0.706348  1
  Hf  Hf2  1  0.950830  0.653400  0.202571  1
  Sc  Sc3  1  0.452040  0.656848  0.704808  1
  Sc  Sc4  1  0.546229  0.253321  0.207092  1
  Sc  Sc5  1  0.751748  0.841377  0.589628  1
  B  B6  1  0.251836  0.257971  0.506136  1
  As  As7  1  0.743332  0.243007  0.999676  1
  As  As8  1  0.336236  0.587625  0.256474  1
  As  As9  1  0.666296  0.920031  0.251836  1
  As  As10  1  0.168194  0.920031  0.753735  1
  As  As11  1  0.831152  0.587625  0.751388  1
  Ru  Ru12  1  0.471549  0.491252  0.961405  1
  Ru  Ru13  1  0.029847  0.491252  0.519703  1
  Ru  Ru14  1  0.137924  0.254113  0.154543  1
  Ru  Ru15  1  0.917595  0.016505  0.170492  1
  Ru  Ru16  1  0.346014  0.016505  0.598910  1
  Ru  Ru17  1  0.599570  0.254113  0.616189  1
