# generated using pymatgen
data_Dy6Zn21SiAg2
_symmetry_space_group_name_H-M   'P 1'
_cell_length_a   9.08345494
_cell_length_b   9.07459276
_cell_length_c   9.07459300
_cell_angle_alpha   59.99999546
_cell_angle_beta   60.03226414
_cell_angle_gamma   60.03226627
_symmetry_Int_Tables_number   1
_chemical_formula_structural   Dy6Zn21SiAg2
_chemical_formula_sum   'Dy6 Zn21 Si1 Ag2'
_cell_volume   529.17824490
_cell_formula_units_Z   1
loop_
 _symmetry_equiv_pos_site_id
 _symmetry_equiv_pos_as_xyz
  1  'x, y, z'
loop_
 _atom_site_type_symbol
 _atom_site_label
 _atom_site_symmetry_multiplicity
 _atom_site_fract_x
 _atom_site_fract_y
 _atom_site_fract_z
 _atom_site_occupancy
  Dy  Dy0  1  0.716231  0.284325  0.284325  1
  Dy  Dy1  1  0.716231  0.284325  0.715118  1
  Dy  Dy2  1  0.716231  0.715118  0.284325  1
  Dy  Dy3  1  0.281640  0.717915  0.717915  1
  Dy  Dy4  1  0.281640  0.717915  0.282530  1
  Dy  Dy5  1  0.281640  0.282530  0.717915  1
  Zn  Zn6  1  0.125332  0.620375  0.127147  1
  Zn  Zn7  1  0.125332  0.127147  0.620375  1
  Zn  Zn8  1  0.125332  0.127147  0.127147  1
  Zn  Zn9  1  0.382155  0.872615  0.872615  1
  Zn  Zn10  1  0.871869  0.375539  0.876296  1
  Zn  Zn11  1  0.871869  0.876296  0.375539  1
  Zn  Zn12  1  0.871869  0.876296  0.876296  1
  Zn  Zn13  1  0.496817  0.999425  0.999425  1
  Zn  Zn14  1  0.496817  0.999425  0.504333  1
  Zn  Zn15  1  0.496817  0.504333  0.999425  1
  Zn  Zn16  1  0.999302  0.500467  0.500467  1
  Zn  Zn17  1  0.999302  0.500467  0.999764  1
  Zn  Zn18  1  0.999302  0.999764  0.500467  1
  Zn  Zn19  1  0.001028  0.332990  0.332990  1
  Zn  Zn20  1  0.333294  0.999476  0.333614  1
  Zn  Zn21  1  0.333294  0.333614  0.999476  1
  Zn  Zn22  1  0.333294  0.333614  0.333614  1
  Zn  Zn23  1  0.000038  0.666655  0.666655  1
  Zn  Zn24  1  0.667024  0.999286  0.666846  1
  Zn  Zn25  1  0.667024  0.666846  0.999286  1
  Zn  Zn26  1  0.667024  0.666846  0.666846  1
  Si  Si27  1  0.496778  0.501074  0.501074  1
  Ag  Ag28  1  0.630668  0.123111  0.123111  1
  Ag  Ag29  1  0.014802  0.995066  0.995066  1
