# generated using pymatgen
data_Cs6Ti2Se7
_symmetry_space_group_name_H-M   'P 1'
_cell_length_a   12.12155800
_cell_length_b   8.93409835
_cell_length_c   14.77468249
_cell_angle_alpha   54.96528030
_cell_angle_beta   90.00000000
_cell_angle_gamma   90.00000000
_symmetry_Int_Tables_number   1
_chemical_formula_structural   Cs6Ti2Se7
_chemical_formula_sum   'Cs12 Ti4 Se14'
_cell_volume   1310.10907791
_cell_formula_units_Z   2
loop_
 _symmetry_equiv_pos_site_id
 _symmetry_equiv_pos_as_xyz
  1  'x, y, z'
loop_
 _atom_site_type_symbol
 _atom_site_label
 _atom_site_symmetry_multiplicity
 _atom_site_fract_x
 _atom_site_fract_y
 _atom_site_fract_z
 _atom_site_occupancy
  Cs  Cs0  1  0.797111  0.568800  0.294977  1
  Cs  Cs1  1  0.650629  0.937541  0.918288  1
  Cs  Cs2  1  0.529173  0.179555  0.571565  1
  Cs  Cs3  1  0.029173  0.820445  0.928435  1
  Cs  Cs4  1  0.297111  0.431200  0.205023  1
  Cs  Cs5  1  0.150629  0.062459  0.581712  1
  Cs  Cs6  1  0.849371  0.937541  0.418288  1
  Cs  Cs7  1  0.702889  0.568800  0.794977  1
  Cs  Cs8  1  0.970827  0.179555  0.071565  1
  Cs  Cs9  1  0.470827  0.820445  0.428435  1
  Cs  Cs10  1  0.349371  0.062459  0.081712  1
  Cs  Cs11  1  0.202889  0.431200  0.705023  1
  Ti  Ti12  1  0.855562  0.315880  0.636196  1
  Ti  Ti13  1  0.355562  0.684120  0.863804  1
  Ti  Ti14  1  0.644438  0.315880  0.136196  1
  Ti  Ti15  1  0.144438  0.684120  0.363804  1
  Se  Se16  1  0.000000  0.500000  0.500000  1
  Se  Se17  1  0.092666  0.742527  0.191619  1
  Se  Se18  1  0.305063  0.497935  0.427732  1
  Se  Se19  1  0.329699  0.961536  0.851393  1
  Se  Se20  1  0.829699  0.038464  0.648607  1
  Se  Se21  1  0.805063  0.502065  0.072268  1
  Se  Se22  1  0.592666  0.257473  0.308381  1
  Se  Se23  1  0.500000  0.500000  0.000000  1
  Se  Se24  1  0.407334  0.742527  0.691619  1
  Se  Se25  1  0.194937  0.497935  0.927732  1
  Se  Se26  1  0.170301  0.961536  0.351393  1
  Se  Se27  1  0.670301  0.038464  0.148607  1
  Se  Se28  1  0.694937  0.502065  0.572268  1
  Se  Se29  1  0.907334  0.257473  0.808381  1
