# generated using pymatgen
data_Tb3Tm(AlRu)4
_symmetry_space_group_name_H-M   'P 1'
_cell_length_a   4.00780700
_cell_length_b   7.05622920
_cell_length_c   8.09748360
_cell_angle_alpha   90.14851199
_cell_angle_beta   90.00000000
_cell_angle_gamma   90.00000000
_symmetry_Int_Tables_number   1
_chemical_formula_structural   Tb3Tm(AlRu)4
_chemical_formula_sum   'Tb3 Tm1 Al4 Ru4'
_cell_volume   228.99610551
_cell_formula_units_Z   1
loop_
 _symmetry_equiv_pos_site_id
 _symmetry_equiv_pos_as_xyz
  1  'x, y, z'
loop_
 _atom_site_type_symbol
 _atom_site_label
 _atom_site_symmetry_multiplicity
 _atom_site_fract_x
 _atom_site_fract_y
 _atom_site_fract_z
 _atom_site_occupancy
  Tb  Tb0  1  0.250000  0.966513  0.321938  1
  Tb  Tb1  1  0.750000  0.533346  0.820338  1
  Tb  Tb2  1  0.250000  0.465842  0.179800  1
  Tm  Tm3  1  0.750000  0.034746  0.678108  1
  Al  Al4  1  0.750000  0.637708  0.442190  1
  Al  Al5  1  0.750000  0.135478  0.057297  1
  Al  Al6  1  0.250000  0.362674  0.560240  1
  Al  Al7  1  0.250000  0.864165  0.939898  1
  Ru  Ru8  1  0.750000  0.768922  0.125154  1
  Ru  Ru9  1  0.750000  0.269391  0.376402  1
  Ru  Ru10  1  0.250000  0.227195  0.872489  1
  Ru  Ru11  1  0.250000  0.734019  0.626146  1
