# generated using pymatgen
data_K6MgSe4
_symmetry_space_group_name_H-M   'P 1'
_cell_length_a   10.40947000
_cell_length_b   10.40946960
_cell_length_c   8.03921100
_cell_angle_alpha   90.00000000
_cell_angle_beta   90.00000000
_cell_angle_gamma   120.00000127
_symmetry_Int_Tables_number   1
_chemical_formula_structural   K6MgSe4
_chemical_formula_sum   'K12 Mg2 Se8'
_cell_volume   754.39929311
_cell_formula_units_Z   2
loop_
 _symmetry_equiv_pos_site_id
 _symmetry_equiv_pos_as_xyz
  1  'x, y, z'
loop_
 _atom_site_type_symbol
 _atom_site_label
 _atom_site_symmetry_multiplicity
 _atom_site_fract_x
 _atom_site_fract_y
 _atom_site_fract_z
 _atom_site_occupancy
  K  K0  1  0.852631  0.705262  0.545261  1
  K  K1  1  0.294738  0.147369  0.545261  1
  K  K2  1  0.852631  0.147369  0.545261  1
  K  K3  1  0.147369  0.294738  0.045261  1
  K  K4  1  0.705262  0.852631  0.045261  1
  K  K5  1  0.147369  0.852631  0.045261  1
  K  K6  1  0.471670  0.943341  0.365679  1
  K  K7  1  0.056659  0.528330  0.365679  1
  K  K8  1  0.471670  0.528330  0.365679  1
  K  K9  1  0.528330  0.056659  0.865679  1
  K  K10  1  0.943341  0.471670  0.865679  1
  K  K11  1  0.528330  0.471670  0.865679  1
  Mg  Mg12  1  0.666667  0.333333  0.249835  1
  Mg  Mg13  1  0.333333  0.666667  0.749835  1
  Se  Se14  1  0.666667  0.333333  0.578645  1
  Se  Se15  1  0.333333  0.666667  0.078645  1
  Se  Se16  1  0.806212  0.612426  0.149464  1
  Se  Se17  1  0.387574  0.193788  0.149464  1
  Se  Se18  1  0.806212  0.193788  0.149464  1
  Se  Se19  1  0.193788  0.387574  0.649464  1
  Se  Se20  1  0.612426  0.806212  0.649464  1
  Se  Se21  1  0.193788  0.806212  0.649464  1
