# generated using pymatgen
data_Zr8Ti11Si16Pt
_symmetry_space_group_name_H-M   'P 1'
_cell_length_a   6.84027181
_cell_length_b   6.84027186
_cell_length_c   12.48442977
_cell_angle_alpha   90.26439355
_cell_angle_beta   89.73560642
_cell_angle_gamma   89.84072288
_symmetry_Int_Tables_number   1
_chemical_formula_structural   Zr8Ti11Si16Pt
_chemical_formula_sum   'Zr8 Ti11 Si16 Pt1'
_cell_volume   584.12323478
_cell_formula_units_Z   1
loop_
 _symmetry_equiv_pos_site_id
 _symmetry_equiv_pos_as_xyz
  1  'x, y, z'
loop_
 _atom_site_type_symbol
 _atom_site_label
 _atom_site_symmetry_multiplicity
 _atom_site_fract_x
 _atom_site_fract_y
 _atom_site_fract_z
 _atom_site_occupancy
  Zr  Zr0  1  0.343897  0.999711  0.467514  1
  Zr  Zr1  1  0.499995  0.844026  0.718944  1
  Zr  Zr2  1  0.500467  0.154163  0.217368  1
  Zr  Zr3  1  0.844026  0.499995  0.281056  1
  Zr  Zr4  1  0.154163  0.500467  0.782632  1
  Zr  Zr5  1  0.658096  0.001033  0.968965  1
  Zr  Zr6  1  0.999711  0.343897  0.532486  1
  Zr  Zr7  1  0.001033  0.658096  0.031035  1
  Ti  Ti8  1  0.173111  0.827444  0.248456  1
  Ti  Ti9  1  0.827444  0.173111  0.751544  1
  Ti  Ti10  1  0.671291  0.671291  0.500000  1
  Ti  Ti11  1  0.148095  0.003125  0.872286  1
  Ti  Ti12  1  0.497230  0.652800  0.121773  1
  Ti  Ti13  1  0.504060  0.349103  0.624746  1
  Ti  Ti14  1  0.652800  0.497230  0.878227  1
  Ti  Ti15  1  0.349103  0.504060  0.375254  1
  Ti  Ti16  1  0.848285  0.995915  0.371797  1
  Ti  Ti17  1  0.003125  0.148095  0.127714  1
  Ti  Ti18  1  0.995915  0.848285  0.628203  1
  Si  Si19  1  0.206060  0.135904  0.678077  1
  Si  Si20  1  0.368374  0.714495  0.925295  1
  Si  Si21  1  0.634790  0.294037  0.427815  1
  Si  Si22  1  0.714495  0.368374  0.074705  1
  Si  Si23  1  0.294037  0.634790  0.572185  1
  Si  Si24  1  0.794849  0.862494  0.177583  1
  Si  Si25  1  0.135904  0.206060  0.321923  1
  Si  Si26  1  0.862494  0.794849  0.822417  1
  Si  Si27  1  0.290474  0.948777  0.063020  1
  Si  Si28  1  0.546285  0.792782  0.313904  1
  Si  Si29  1  0.451161  0.208358  0.814734  1
  Si  Si30  1  0.792782  0.546285  0.686096  1
  Si  Si31  1  0.208358  0.451161  0.185266  1
  Si  Si32  1  0.707188  0.046579  0.563862  1
  Si  Si33  1  0.948777  0.290474  0.936980  1
  Si  Si34  1  0.046579  0.707188  0.436138  1
  Pt  Pt35  1  0.325546  0.325546  0.000000  1
