# generated using pymatgen
data_Hf12Zn3Ga7Sn2
_symmetry_space_group_name_H-M   'P 1'
_cell_length_a   5.69578040
_cell_length_b   8.63683793
_cell_length_c   9.27100373
_cell_angle_alpha   90.05530940
_cell_angle_beta   90.01186198
_cell_angle_gamma   89.92064024
_symmetry_Int_Tables_number   1
_chemical_formula_structural   Hf12Zn3Ga7Sn2
_chemical_formula_sum   'Hf12 Zn3 Ga7 Sn2'
_cell_volume   456.07276121
_cell_formula_units_Z   1
loop_
 _symmetry_equiv_pos_site_id
 _symmetry_equiv_pos_as_xyz
  1  'x, y, z'
loop_
 _atom_site_type_symbol
 _atom_site_label
 _atom_site_symmetry_multiplicity
 _atom_site_fract_x
 _atom_site_fract_y
 _atom_site_fract_z
 _atom_site_occupancy
  Hf  Hf0  1  0.999225  0.735318  0.117410  1
  Hf  Hf1  1  0.499369  0.264940  0.882259  1
  Hf  Hf2  1  0.000744  0.264453  0.882449  1
  Hf  Hf3  1  0.500639  0.735050  0.116073  1
  Hf  Hf4  1  0.750288  0.474321  0.618648  1
  Hf  Hf5  1  0.250041  0.525816  0.381949  1
  Hf  Hf6  1  0.750038  0.970264  0.393353  1
  Hf  Hf7  1  0.249808  0.029455  0.607500  1
  Hf  Hf8  1  0.749430  0.374918  0.193811  1
  Hf  Hf9  1  0.249876  0.624759  0.805330  1
  Hf  Hf10  1  0.750362  0.863626  0.800099  1
  Hf  Hf11  1  0.250445  0.137422  0.199303  1
  Zn  Zn12  1  0.006165  0.748015  0.565132  1
  Zn  Zn13  1  0.506220  0.252079  0.435335  1
  Zn  Zn14  1  0.993868  0.251932  0.434862  1
  Ga  Ga15  1  0.493655  0.747739  0.566868  1
  Ga  Ga16  1  0.750265  0.554658  0.909687  1
  Ga  Ga17  1  0.249630  0.444912  0.091107  1
  Ga  Ga18  1  0.750681  0.136124  0.650705  1
  Ga  Ga19  1  0.248669  0.865426  0.348117  1
  Ga  Ga20  1  0.751198  0.633519  0.356723  1
  Ga  Ga21  1  0.249309  0.364753  0.642526  1
  Sn  Sn22  1  0.750606  0.048814  0.087823  1
  Sn  Sn23  1  0.249468  0.951688  0.912932  1
