# generated using pymatgen
data_Er3Tm(ZnSi)4
_symmetry_space_group_name_H-M   'P 1'
_cell_length_a   4.13591100
_cell_length_b   4.13591076
_cell_length_c   15.31028900
_cell_angle_alpha   90.00000000
_cell_angle_beta   90.00000000
_cell_angle_gamma   119.99999396
_symmetry_Int_Tables_number   1
_chemical_formula_structural   Er3Tm(ZnSi)4
_chemical_formula_sum   'Er3 Tm1 Zn4 Si4'
_cell_volume   226.80696670
_cell_formula_units_Z   1
loop_
 _symmetry_equiv_pos_site_id
 _symmetry_equiv_pos_as_xyz
  1  'x, y, z'
loop_
 _atom_site_type_symbol
 _atom_site_label
 _atom_site_symmetry_multiplicity
 _atom_site_fract_x
 _atom_site_fract_y
 _atom_site_fract_z
 _atom_site_occupancy
  Er  Er0  1  0.000000  0.000000  0.999996  1
  Er  Er1  1  0.000000  0.000000  0.250000  1
  Er  Er2  1  0.000000  0.000000  0.500004  1
  Tm  Tm3  1  0.000000  0.000000  0.750000  1
  Zn  Zn4  1  0.666666  0.333333  0.139910  1
  Zn  Zn5  1  0.666666  0.333333  0.360090  1
  Zn  Zn6  1  0.333333  0.666666  0.639995  1
  Zn  Zn7  1  0.333333  0.666666  0.860005  1
  Si  Si8  1  0.333333  0.666666  0.117360  1
  Si  Si9  1  0.333333  0.666666  0.382640  1
  Si  Si10  1  0.666666  0.333333  0.617398  1
  Si  Si11  1  0.666666  0.333333  0.882602  1
