# generated using pymatgen
data_K4ZnP2Pt
_symmetry_space_group_name_H-M   'P 1'
_cell_length_a   6.26598786
_cell_length_b   6.26598751
_cell_length_c   5.78688836
_cell_angle_alpha   89.08416549
_cell_angle_beta   90.91583445
_cell_angle_gamma   74.79669411
_symmetry_Int_Tables_number   1
_chemical_formula_structural   K4ZnP2Pt
_chemical_formula_sum   'K4 Zn1 P2 Pt1'
_cell_volume   219.18037298
_cell_formula_units_Z   1
loop_
 _symmetry_equiv_pos_site_id
 _symmetry_equiv_pos_as_xyz
  1  'x, y, z'
loop_
 _atom_site_type_symbol
 _atom_site_label
 _atom_site_symmetry_multiplicity
 _atom_site_fract_x
 _atom_site_fract_y
 _atom_site_fract_z
 _atom_site_occupancy
  K  K0  1  0.475356  0.182369  0.257928  1
  K  K1  1  0.817631  0.524644  0.257928  1
  K  K2  1  0.182369  0.475356  0.742072  1
  K  K3  1  0.524644  0.817631  0.742072  1
  Zn  Zn4  1  0.000000  0.000000  0.000000  1
  P  P5  1  0.242230  0.757770  0.243740  1
  P  P6  1  0.757770  0.242230  0.756260  1
  Pt  Pt7  1  0.000000  0.000000  0.499999  1
