# generated using pymatgen
data_Ce5TcIr2
_symmetry_space_group_name_H-M   'P 1'
_cell_length_a   11.07654400
_cell_length_b   11.07654400
_cell_length_c   6.27361500
_cell_angle_alpha   90.00000000
_cell_angle_beta   90.00000000
_cell_angle_gamma   90.00000000
_symmetry_Int_Tables_number   1
_chemical_formula_structural   Ce5TcIr2
_chemical_formula_sum   'Ce20 Tc4 Ir8'
_cell_volume   769.70873891
_cell_formula_units_Z   4
loop_
 _symmetry_equiv_pos_site_id
 _symmetry_equiv_pos_as_xyz
  1  'x, y, z'
loop_
 _atom_site_type_symbol
 _atom_site_label
 _atom_site_symmetry_multiplicity
 _atom_site_fract_x
 _atom_site_fract_y
 _atom_site_fract_z
 _atom_site_occupancy
  Ce  Ce0  1  0.292213  0.089395  0.373467  1
  Ce  Ce1  1  0.292213  0.910605  0.873467  1
  Ce  Ce2  1  0.707787  0.089395  0.873467  1
  Ce  Ce3  1  0.707787  0.910605  0.373467  1
  Ce  Ce4  1  0.589395  0.792213  0.873467  1
  Ce  Ce5  1  0.589395  0.207787  0.373467  1
  Ce  Ce6  1  0.410605  0.792213  0.373467  1
  Ce  Ce7  1  0.410605  0.207787  0.873467  1
  Ce  Ce8  1  0.207787  0.410605  0.626533  1
  Ce  Ce9  1  0.207787  0.589395  0.126533  1
  Ce  Ce10  1  0.792213  0.410605  0.126533  1
  Ce  Ce11  1  0.792213  0.589395  0.626533  1
  Ce  Ce12  1  0.910605  0.707787  0.126533  1
  Ce  Ce13  1  0.910605  0.292213  0.626533  1
  Ce  Ce14  1  0.089395  0.707787  0.626533  1
  Ce  Ce15  1  0.089395  0.292213  0.126533  1
  Ce  Ce16  1  0.000000  0.000000  0.500000  1
  Ce  Ce17  1  0.000000  0.000000  0.000000  1
  Ce  Ce18  1  0.500000  0.500000  0.000000  1
  Ce  Ce19  1  0.500000  0.500000  0.500000  1
  Tc  Tc20  1  0.500000  0.000000  0.123711  1
  Tc  Tc21  1  0.500000  0.000000  0.623711  1
  Tc  Tc22  1  0.000000  0.500000  0.876289  1
  Tc  Tc23  1  0.000000  0.500000  0.376289  1
  Ir  Ir24  1  0.843870  0.156130  0.250000  1
  Ir  Ir25  1  0.843870  0.843870  0.750000  1
  Ir  Ir26  1  0.156130  0.156130  0.750000  1
  Ir  Ir27  1  0.156130  0.843870  0.250000  1
  Ir  Ir28  1  0.656130  0.343870  0.750000  1
  Ir  Ir29  1  0.656130  0.656130  0.250000  1
  Ir  Ir30  1  0.343870  0.343870  0.250000  1
  Ir  Ir31  1  0.343870  0.656130  0.750000  1
