# generated using pymatgen
data_Ho2Lu2MnCrC4
_symmetry_space_group_name_H-M   'P 1'
_cell_length_a   4.96790900
_cell_length_b   6.36929165
_cell_length_c   9.54659965
_cell_angle_alpha   89.72151208
_cell_angle_beta   90.00000000
_cell_angle_gamma   90.00000000
_symmetry_Int_Tables_number   1
_chemical_formula_structural   Ho2Lu2MnCrC4
_chemical_formula_sum   'Ho4 Lu4 Mn2 Cr2 C8'
_cell_volume   302.07052293
_cell_formula_units_Z   2
loop_
 _symmetry_equiv_pos_site_id
 _symmetry_equiv_pos_as_xyz
  1  'x, y, z'
loop_
 _atom_site_type_symbol
 _atom_site_label
 _atom_site_symmetry_multiplicity
 _atom_site_fract_x
 _atom_site_fract_y
 _atom_site_fract_z
 _atom_site_occupancy
  Ho  Ho0  1  0.250000  0.532169  0.213706  1
  Ho  Ho1  1  0.750000  0.467831  0.786294  1
  Ho  Ho2  1  0.750000  0.971545  0.713119  1
  Ho  Ho3  1  0.250000  0.028455  0.286881  1
  Lu  Lu4  1  0.250000  0.676539  0.557097  1
  Lu  Lu5  1  0.750000  0.323461  0.442903  1
  Lu  Lu6  1  0.750000  0.823892  0.057443  1
  Lu  Lu7  1  0.250000  0.176108  0.942557  1
  Mn  Mn8  1  0.750000  0.772127  0.360235  1
  Mn  Mn9  1  0.250000  0.227873  0.639765  1
  Cr  Cr10  1  0.250000  0.726421  0.859752  1
  Cr  Cr11  1  0.750000  0.273579  0.140248  1
  C  C12  1  0.250000  0.455510  0.761137  1
  C  C13  1  0.750000  0.544490  0.238863  1
  C  C14  1  0.750000  0.040908  0.263488  1
  C  C15  1  0.250000  0.959092  0.736512  1
  C  C16  1  0.250000  0.817609  0.040774  1
  C  C17  1  0.750000  0.182391  0.959226  1
  C  C18  1  0.750000  0.683203  0.538119  1
  C  C19  1  0.250000  0.316797  0.461881  1
