# generated using pymatgen
data_Er5Tl4
_symmetry_space_group_name_H-M   'P 1'
_cell_length_a   9.20469600
_cell_length_b   9.20469724
_cell_length_c   6.64993500
_cell_angle_alpha   90.00000000
_cell_angle_beta   90.00000000
_cell_angle_gamma   119.99999555
_symmetry_Int_Tables_number   1
_chemical_formula_structural   Er5Tl4
_chemical_formula_sum   'Er10 Tl8'
_cell_volume   487.94066022
_cell_formula_units_Z   2
loop_
 _symmetry_equiv_pos_site_id
 _symmetry_equiv_pos_as_xyz
  1  'x, y, z'
loop_
 _atom_site_type_symbol
 _atom_site_label
 _atom_site_symmetry_multiplicity
 _atom_site_fract_x
 _atom_site_fract_y
 _atom_site_fract_z
 _atom_site_occupancy
  Er  Er0  1  0.333333  0.666667  0.500000  1
  Er  Er1  1  0.666667  0.333333  0.500000  1
  Er  Er2  1  0.666667  0.333333  0.000000  1
  Er  Er3  1  0.333333  0.666667  0.000000  1
  Er  Er4  1  0.288833  0.000000  0.750000  1
  Er  Er5  1  0.711167  0.000000  0.250000  1
  Er  Er6  1  0.000000  0.288833  0.750000  1
  Er  Er7  1  0.000000  0.711167  0.250000  1
  Er  Er8  1  0.711167  0.711167  0.750000  1
  Er  Er9  1  0.288833  0.288833  0.250000  1
  Tl  Tl10  1  0.000000  0.000000  0.500000  1
  Tl  Tl11  1  0.000000  0.000000  0.000000  1
  Tl  Tl12  1  0.627355  0.000000  0.750000  1
  Tl  Tl13  1  0.372645  0.000000  0.250000  1
  Tl  Tl14  1  0.000000  0.627355  0.750000  1
  Tl  Tl15  1  0.000000  0.372645  0.250000  1
  Tl  Tl16  1  0.372645  0.372645  0.750000  1
  Tl  Tl17  1  0.627355  0.627355  0.250000  1
