# generated using pymatgen
data_HfZr2SiTc3As2
_symmetry_space_group_name_H-M   'P 1'
_cell_length_a   7.80470575
_cell_length_b   7.80470646
_cell_length_c   7.80470772
_cell_angle_alpha   127.12331086
_cell_angle_beta   125.93227584
_cell_angle_gamma   79.02614875
_symmetry_Int_Tables_number   1
_chemical_formula_structural   HfZr2SiTc3As2
_chemical_formula_sum   'Hf2 Zr4 Si2 Tc6 As4'
_cell_volume   296.88828418
_cell_formula_units_Z   2
loop_
 _symmetry_equiv_pos_site_id
 _symmetry_equiv_pos_as_xyz
  1  'x, y, z'
loop_
 _atom_site_type_symbol
 _atom_site_label
 _atom_site_symmetry_multiplicity
 _atom_site_fract_x
 _atom_site_fract_y
 _atom_site_fract_z
 _atom_site_occupancy
  Hf  Hf0  1  0.051132  0.253984  0.702852  1
  Hf  Hf1  1  0.948868  0.651719  0.202852  1
  Zr  Zr2  1  0.451922  0.656713  0.704791  1
  Zr  Zr3  1  0.548078  0.252869  0.204791  1
  Zr  Zr4  1  0.748939  0.850479  0.601540  1
  Zr  Zr5  1  0.251061  0.852602  0.101540  1
  Si  Si6  1  0.252461  0.255437  0.502977  1
  Si  Si7  1  0.747539  0.250516  0.002977  1
  Tc  Tc8  1  0.500000  0.500195  0.000195  1
  Tc  Tc9  1  0.000000  0.500195  0.500195  1
  Tc  Tc10  1  0.118286  0.254011  0.125281  1
  Tc  Tc11  1  0.881714  0.006995  0.135724  1
  Tc  Tc12  1  0.371271  0.006995  0.625281  1
  Tc  Tc13  1  0.628729  0.254011  0.635724  1
  As  As14  1  0.330540  0.585907  0.251074  1
  As  As15  1  0.669460  0.920534  0.255367  1
  As  As16  1  0.165167  0.920534  0.751074  1
  As  As17  1  0.834833  0.585907  0.755367  1
