# generated using pymatgen
data_Sr8CaPd6
_symmetry_space_group_name_H-M   'P 1'
_cell_length_a   8.08709516
_cell_length_b   8.08709503
_cell_length_c   8.08709497
_cell_angle_alpha   72.16558761
_cell_angle_beta   72.16559276
_cell_angle_gamma   72.16558282
_symmetry_Int_Tables_number   1
_chemical_formula_structural   Sr8CaPd6
_chemical_formula_sum   'Sr8 Ca1 Pd6'
_cell_volume   465.93399636
_cell_formula_units_Z   1
loop_
 _symmetry_equiv_pos_site_id
 _symmetry_equiv_pos_as_xyz
  1  'x, y, z'
loop_
 _atom_site_type_symbol
 _atom_site_label
 _atom_site_symmetry_multiplicity
 _atom_site_fract_x
 _atom_site_fract_y
 _atom_site_fract_z
 _atom_site_occupancy
  Sr  Sr0  1  0.797415  0.797415  0.797415  1
  Sr  Sr1  1  0.202585  0.202585  0.202585  1
  Sr  Sr2  1  0.325656  0.613021  0.841897  1
  Sr  Sr3  1  0.841897  0.325656  0.613021  1
  Sr  Sr4  1  0.613020  0.841897  0.325656  1
  Sr  Sr5  1  0.674344  0.386979  0.158103  1
  Sr  Sr6  1  0.158103  0.674344  0.386979  1
  Sr  Sr7  1  0.386979  0.158103  0.674344  1
  Ca  Ca8  1  0.000000  0.000000  0.000000  1
  Pd  Pd9  1  0.143858  0.961960  0.593018  1
  Pd  Pd10  1  0.593018  0.143858  0.961960  1
  Pd  Pd11  1  0.961960  0.593018  0.143858  1
  Pd  Pd12  1  0.856142  0.038040  0.406982  1
  Pd  Pd13  1  0.406982  0.856142  0.038040  1
  Pd  Pd14  1  0.038040  0.406982  0.856142  1
