# generated using pymatgen
data_Ba4NiH12Pt
_symmetry_space_group_name_H-M   'P 1'
_cell_length_a   7.87138798
_cell_length_b   7.87138782
_cell_length_c   5.96214560
_cell_angle_alpha   90.31580299
_cell_angle_beta   90.31581059
_cell_angle_gamma   135.45672650
_symmetry_Int_Tables_number   1
_chemical_formula_structural   Ba4NiH12Pt
_chemical_formula_sum   'Ba4 Ni1 H12 Pt1'
_cell_volume   259.09235971
_cell_formula_units_Z   1
loop_
 _symmetry_equiv_pos_site_id
 _symmetry_equiv_pos_as_xyz
  1  'x, y, z'
loop_
 _atom_site_type_symbol
 _atom_site_label
 _atom_site_symmetry_multiplicity
 _atom_site_fract_x
 _atom_site_fract_y
 _atom_site_fract_z
 _atom_site_occupancy
  Ba  Ba0  1  0.358665  0.641335  0.000000  1
  Ba  Ba1  1  0.858891  0.141109  0.500000  1
  Ba  Ba2  1  0.641335  0.358665  0.000000  1
  Ba  Ba3  1  0.141109  0.858891  0.500000  1
  Ni  Ni4  1  0.000000  0.000000  0.000000  1
  H  H5  1  0.001045  0.500768  0.250430  1
  H  H6  1  0.499232  0.998955  0.749570  1
  H  H7  1  0.998955  0.499232  0.749570  1
  H  H8  1  0.500768  0.001045  0.250430  1
  H  H9  1  0.106225  0.893775  0.000000  1
  H  H10  1  0.614437  0.385563  0.500000  1
  H  H11  1  0.893775  0.106225  0.000000  1
  H  H12  1  0.385563  0.614437  0.500000  1
  H  H13  1  0.815765  0.815765  0.181644  1
  H  H14  1  0.184235  0.184235  0.818356  1
  H  H15  1  0.703403  0.703403  0.700850  1
  H  H16  1  0.296597  0.296597  0.299150  1
  Pt  Pt17  1  0.500000  0.500000  0.500000  1
