# generated using pymatgen
data_SrCu4HgO8
_symmetry_space_group_name_H-M   'P 1'
_cell_length_a   6.34902479
_cell_length_b   6.34902533
_cell_length_c   6.34902509
_cell_angle_alpha   124.30403342
_cell_angle_beta   124.30404070
_cell_angle_gamma   82.69399892
_symmetry_Int_Tables_number   1
_chemical_formula_structural   SrCu4HgO8
_chemical_formula_sum   'Sr1 Cu4 Hg1 O8'
_cell_volume   167.69918655
_cell_formula_units_Z   1
loop_
 _symmetry_equiv_pos_site_id
 _symmetry_equiv_pos_as_xyz
  1  'x, y, z'
loop_
 _atom_site_type_symbol
 _atom_site_label
 _atom_site_symmetry_multiplicity
 _atom_site_fract_x
 _atom_site_fract_y
 _atom_site_fract_z
 _atom_site_occupancy
  Sr  Sr0  1  0.000000  0.000000  0.000000  1
  Cu  Cu1  1  0.370519  0.622713  0.243890  1
  Cu  Cu2  1  0.378822  0.126629  0.756110  1
  Cu  Cu3  1  0.377287  0.621178  0.747806  1
  Cu  Cu4  1  0.873371  0.629481  0.252194  1
  Hg  Hg5  1  0.750000  0.250000  0.500000  1
  O  O6  1  0.719134  0.316515  0.135055  1
  O  O7  1  0.181461  0.584079  0.864945  1
  O  O8  1  0.032822  0.947045  0.386277  1
  O  O9  1  0.560768  0.646545  0.613723  1
  O  O10  1  0.052955  0.439232  0.085777  1
  O  O11  1  0.353455  0.967178  0.914223  1
  O  O12  1  0.415921  0.280866  0.597382  1
  O  O13  1  0.683485  0.818539  0.402618  1
