# generated using pymatgen
data_TcMo2Ir5
_symmetry_space_group_name_H-M   'P 1'
_cell_length_a   5.55389639
_cell_length_b   5.52204176
_cell_length_c   4.42125800
_cell_angle_alpha   90.00000000
_cell_angle_beta   90.00000000
_cell_angle_gamma   119.81035313
_symmetry_Int_Tables_number   1
_chemical_formula_structural   TcMo2Ir5
_chemical_formula_sum   'Tc1 Mo2 Ir5'
_cell_volume   117.65238170
_cell_formula_units_Z   1
loop_
 _symmetry_equiv_pos_site_id
 _symmetry_equiv_pos_as_xyz
  1  'x, y, z'
loop_
 _atom_site_type_symbol
 _atom_site_label
 _atom_site_symmetry_multiplicity
 _atom_site_fract_x
 _atom_site_fract_y
 _atom_site_fract_z
 _atom_site_occupancy
  Tc  Tc0  1  0.665624  0.832814  0.750001  1
  Mo  Mo1  1  0.665355  0.332678  0.750001  1
  Mo  Mo2  1  0.335250  0.667625  0.250000  1
  Ir  Ir3  1  0.167784  0.835238  0.750001  1
  Ir  Ir4  1  0.833224  0.166701  0.250000  1
  Ir  Ir5  1  0.331761  0.165879  0.250000  1
  Ir  Ir6  1  0.167784  0.332550  0.750001  1
  Ir  Ir7  1  0.833223  0.666519  0.250000  1
