# generated using pymatgen
data_Ho12TmTh7Sn16
_symmetry_space_group_name_H-M   'P 1'
_cell_length_a   8.09279835
_cell_length_b   8.18449850
_cell_length_c   15.47016900
_cell_angle_alpha   90.05677426
_cell_angle_beta   90.37284865
_cell_angle_gamma   89.86533521
_symmetry_Int_Tables_number   1
_chemical_formula_structural   Ho12TmTh7Sn16
_chemical_formula_sum   'Ho12 Tm1 Th7 Sn16'
_cell_volume   1024.64930302
_cell_formula_units_Z   1
loop_
 _symmetry_equiv_pos_site_id
 _symmetry_equiv_pos_as_xyz
  1  'x, y, z'
loop_
 _atom_site_type_symbol
 _atom_site_label
 _atom_site_symmetry_multiplicity
 _atom_site_fract_x
 _atom_site_fract_y
 _atom_site_fract_z
 _atom_site_occupancy
  Ho  Ho0  1  0.360684  0.835988  0.875865  1
  Ho  Ho1  1  0.858525  0.661684  0.624444  1
  Ho  Ho2  1  0.639703  0.163449  0.375969  1
  Ho  Ho3  1  0.135762  0.337077  0.123205  1
  Ho  Ho4  1  0.637289  0.163207  0.123360  1
  Ho  Ho5  1  0.140540  0.337423  0.376118  1
  Ho  Ho6  1  0.359974  0.838917  0.625447  1
  Ho  Ho7  1  0.863772  0.662327  0.876188  1
  Ho  Ho8  1  0.526723  0.324762  0.900422  1
  Ho  Ho9  1  0.191158  0.499143  0.750424  1
  Ho  Ho10  1  0.692130  0.000829  0.750471  1
  Ho  Ho11  1  0.808457  0.501212  0.249777  1
  Tm  Tm12  1  0.307983  0.998431  0.250090  1
  Th  Th13  1  0.020082  0.178647  0.597259  1
  Th  Th14  1  0.481721  0.678491  0.404059  1
  Th  Th15  1  0.978766  0.822075  0.095409  1
  Th  Th16  1  0.480318  0.678123  0.096494  1
  Th  Th17  1  0.982047  0.822314  0.404983  1
  Th  Th18  1  0.516751  0.321037  0.595122  1
  Th  Th19  1  0.018375  0.176534  0.903924  1
  Sn  Sn20  1  0.298312  0.037108  0.043280  1
  Sn  Sn21  1  0.801010  0.459783  0.458051  1
  Sn  Sn22  1  0.699445  0.960472  0.542222  1
  Sn  Sn23  1  0.207442  0.533960  0.956952  1
  Sn  Sn24  1  0.697799  0.961230  0.957169  1
  Sn  Sn25  1  0.198536  0.542847  0.541668  1
  Sn  Sn26  1  0.301257  0.040258  0.458279  1
  Sn  Sn27  1  0.795530  0.458694  0.040638  1
  Sn  Sn28  1  0.557334  0.621956  0.749903  1
  Sn  Sn29  1  0.056924  0.877787  0.750151  1
  Sn  Sn30  1  0.441757  0.376502  0.249467  1
  Sn  Sn31  1  0.942994  0.122733  0.249813  1
  Sn  Sn32  1  0.329501  0.147231  0.752939  1
  Sn  Sn33  1  0.824263  0.356347  0.750369  1
  Sn  Sn34  1  0.674318  0.857289  0.250165  1
  Sn  Sn35  1  0.172816  0.644135  0.249901  1
