# generated using pymatgen
data_NdY15MgAg3Rh4
_symmetry_space_group_name_H-M   'P 1'
_cell_length_a   9.63417703
_cell_length_b   9.64821441
_cell_length_c   9.65613700
_cell_angle_alpha   59.97282958
_cell_angle_beta   59.92456651
_cell_angle_gamma   59.81071681
_symmetry_Int_Tables_number   1
_chemical_formula_structural   NdY15MgAg3Rh4
_chemical_formula_sum   'Nd1 Y15 Mg1 Ag3 Rh4'
_cell_volume   633.26936837
_cell_formula_units_Z   1
loop_
 _symmetry_equiv_pos_site_id
 _symmetry_equiv_pos_as_xyz
  1  'x, y, z'
loop_
 _atom_site_type_symbol
 _atom_site_label
 _atom_site_symmetry_multiplicity
 _atom_site_fract_x
 _atom_site_fract_y
 _atom_site_fract_z
 _atom_site_occupancy
  Nd  Nd0  1  0.184348  0.183951  0.815850  1
  Y  Y1  1  0.601230  0.599637  0.598103  1
  Y  Y2  1  0.601230  0.599637  0.201029  1
  Y  Y3  1  0.600402  0.204814  0.597391  1
  Y  Y4  1  0.189451  0.604313  0.603118  1
  Y  Y5  1  0.059642  0.438950  0.438390  1
  Y  Y6  1  0.436339  0.062782  0.064557  1
  Y  Y7  1  0.436339  0.062782  0.436322  1
  Y  Y8  1  0.059642  0.438950  0.063016  1
  Y  Y9  1  0.436440  0.437525  0.063018  1
  Y  Y10  1  0.059461  0.060794  0.439872  1
  Y  Y11  1  0.183471  0.811757  0.815155  1
  Y  Y12  1  0.812121  0.185406  0.187439  1
  Y  Y13  1  0.812121  0.185406  0.815034  1
  Y  Y14  1  0.183471  0.811757  0.189616  1
  Y  Y15  1  0.813827  0.815392  0.185391  1
  Mg  Mg16  1  0.540977  0.819534  0.819746  1
  Ag  Ag17  1  0.832878  0.834344  0.834358  1
  Ag  Ag18  1  0.832878  0.834344  0.498422  1
  Ag  Ag19  1  0.829052  0.501711  0.834620  1
  Rh  Rh20  1  0.390890  0.396049  0.390127  1
  Rh  Rh21  1  0.390890  0.396049  0.822933  1
  Rh  Rh22  1  0.390294  0.821336  0.394184  1
  Rh  Rh23  1  0.822603  0.392782  0.392307  1
