# generated using pymatgen
data_Er2Th(InPt)3
_symmetry_space_group_name_H-M   'P 1'
_cell_length_a   7.67128400
_cell_length_b   7.65586628
_cell_length_c   3.94825000
_cell_angle_alpha   90.00000000
_cell_angle_beta   90.00000000
_cell_angle_gamma   120.06663979
_symmetry_Int_Tables_number   1
_chemical_formula_structural   Er2Th(InPt)3
_chemical_formula_sum   'Er2 Th1 In3 Pt3'
_cell_volume   200.68072112
_cell_formula_units_Z   1
loop_
 _symmetry_equiv_pos_site_id
 _symmetry_equiv_pos_as_xyz
  1  'x, y, z'
loop_
 _atom_site_type_symbol
 _atom_site_label
 _atom_site_symmetry_multiplicity
 _atom_site_fract_x
 _atom_site_fract_y
 _atom_site_fract_z
 _atom_site_occupancy
  Er  Er0  1  0.406245  0.404718  0.500000  1
  Er  Er1  1  0.001526  0.595282  0.500000  1
  Th  Th2  1  0.589642  0.000000  0.500000  1
  In  In3  1  0.743065  0.732212  0.000000  1
  In  In4  1  0.010853  0.267788  0.000000  1
  In  In5  1  0.248377  0.000000  0.000000  1
  Pt  Pt6  1  0.339584  0.673090  0.000000  1
  Pt  Pt7  1  0.666494  0.326910  0.000000  1
  Pt  Pt8  1  0.994214  0.000000  0.500000  1
