# generated using pymatgen
data_Mn6Al5SbRh12
_symmetry_space_group_name_H-M   'P 1'
_cell_length_a   4.32495104
_cell_length_b   6.09226106
_cell_length_c   12.92442500
_cell_angle_alpha   89.99994518
_cell_angle_beta   89.99942623
_cell_angle_gamma   90.01636533
_symmetry_Int_Tables_number   1
_chemical_formula_structural   Mn6Al5SbRh12
_chemical_formula_sum   'Mn6 Al5 Sb1 Rh12'
_cell_volume   340.54218172
_cell_formula_units_Z   1
loop_
 _symmetry_equiv_pos_site_id
 _symmetry_equiv_pos_as_xyz
  1  'x, y, z'
loop_
 _atom_site_type_symbol
 _atom_site_label
 _atom_site_symmetry_multiplicity
 _atom_site_fract_x
 _atom_site_fract_y
 _atom_site_fract_z
 _atom_site_occupancy
  Mn  Mn0  1  0.000001  0.999997  0.000027  1
  Mn  Mn1  1  0.499983  0.500001  0.172383  1
  Mn  Mn2  1  0.999965  0.999999  0.336008  1
  Mn  Mn3  1  0.499998  0.500003  0.499989  1
  Mn  Mn4  1  0.000038  0.999999  0.663977  1
  Mn  Mn5  1  0.500017  0.499999  0.827617  1
  Al  Al6  1  0.499983  0.000000  0.170512  1
  Al  Al7  1  0.999963  0.500000  0.335787  1
  Al  Al8  1  0.500000  0.000001  0.499998  1
  Al  Al9  1  0.000037  0.499999  0.664215  1
  Al  Al10  1  0.500019  0.999999  0.829487  1
  Sb  Sb11  1  0.000001  0.499998  0.000007  1
  Rh  Rh12  1  0.499995  0.243419  0.000021  1
  Rh  Rh13  1  0.500007  0.756576  0.000022  1
  Rh  Rh14  1  0.999979  0.245502  0.169619  1
  Rh  Rh15  1  0.999981  0.754499  0.169618  1
  Rh  Rh16  1  0.499968  0.250461  0.334562  1
  Rh  Rh17  1  0.499971  0.749541  0.334562  1
  Rh  Rh18  1  0.999994  0.249744  0.500000  1
  Rh  Rh19  1  0.000006  0.750258  0.500000  1
  Rh  Rh20  1  0.500032  0.250485  0.665413  1
  Rh  Rh21  1  0.500024  0.749515  0.665414  1
  Rh  Rh22  1  0.000018  0.245485  0.830381  1
  Rh  Rh23  1  0.000024  0.754510  0.830382  1
