# generated using pymatgen
data_Ta3BeCr3P2
_symmetry_space_group_name_H-M   'P 1'
_cell_length_a   6.49898500
_cell_length_b   6.49898379
_cell_length_c   3.22497300
_cell_angle_alpha   90.00000000
_cell_angle_beta   90.00000000
_cell_angle_gamma   120.00000107
_symmetry_Int_Tables_number   1
_chemical_formula_structural   Ta3BeCr3P2
_chemical_formula_sum   'Ta3 Be1 Cr3 P2'
_cell_volume   117.96351322
_cell_formula_units_Z   1
loop_
 _symmetry_equiv_pos_site_id
 _symmetry_equiv_pos_as_xyz
  1  'x, y, z'
loop_
 _atom_site_type_symbol
 _atom_site_label
 _atom_site_symmetry_multiplicity
 _atom_site_fract_x
 _atom_site_fract_y
 _atom_site_fract_z
 _atom_site_occupancy
  Ta  Ta0  1  0.596875  0.010591  0.500000  1
  Ta  Ta1  1  0.413715  0.403125  0.500000  1
  Ta  Ta2  1  0.989409  0.586285  0.500000  1
  Be  Be3  1  0.666667  0.333333  0.000000  1
  Cr  Cr4  1  0.250981  0.997049  0.000000  1
  Cr  Cr5  1  0.002951  0.253933  0.000000  1
  Cr  Cr6  1  0.746066  0.749018  0.000000  1
  P  P7  1  0.333333  0.666666  0.000000  1
  P  P8  1  0.000000  0.000000  0.500000  1
