# generated using pymatgen
data_Rb6Tm(IrBr6)3
_symmetry_space_group_name_H-M   'P 1'
_cell_length_a   7.64657900
_cell_length_b   7.64657817
_cell_length_c   19.51910100
_cell_angle_alpha   90.00000000
_cell_angle_beta   90.00000000
_cell_angle_gamma   119.99999925
_symmetry_Int_Tables_number   1
_chemical_formula_structural   Rb6Tm(IrBr6)3
_chemical_formula_sum   'Rb6 Tm1 Ir3 Br18'
_cell_volume   988.38184349
_cell_formula_units_Z   1
loop_
 _symmetry_equiv_pos_site_id
 _symmetry_equiv_pos_as_xyz
  1  'x, y, z'
loop_
 _atom_site_type_symbol
 _atom_site_label
 _atom_site_symmetry_multiplicity
 _atom_site_fract_x
 _atom_site_fract_y
 _atom_site_fract_z
 _atom_site_occupancy
  Rb  Rb0  1  0.333333  0.666667  0.062693  1
  Rb  Rb1  1  0.666667  0.333333  0.941680  1
  Rb  Rb2  1  0.666667  0.333333  0.564918  1
  Rb  Rb3  1  0.333333  0.666667  0.440800  1
  Rb  Rb4  1  0.000000  0.000000  0.250860  1
  Rb  Rb5  1  0.000000  0.000000  0.744674  1
  Tm  Tm6  1  0.333333  0.666667  0.837503  1
  Ir  Ir7  1  0.333333  0.666667  0.667170  1
  Ir  Ir8  1  0.666667  0.333333  0.335099  1
  Ir  Ir9  1  0.666667  0.333333  0.165460  1
  Br  Br10  1  0.178820  0.357640  0.593950  1
  Br  Br11  1  0.821694  0.643386  0.407431  1
  Br  Br12  1  0.642360  0.821180  0.593950  1
  Br  Br13  1  0.821584  0.643167  0.093043  1
  Br  Br14  1  0.356614  0.178306  0.407431  1
  Br  Br15  1  0.163323  0.326646  0.911301  1
  Br  Br16  1  0.178820  0.821180  0.593950  1
  Br  Br17  1  0.356833  0.178416  0.093043  1
  Br  Br18  1  0.821694  0.178306  0.407431  1
  Br  Br19  1  0.673354  0.836677  0.911301  1
  Br  Br20  1  0.821584  0.178416  0.093043  1
  Br  Br21  1  0.163323  0.836677  0.911301  1
  Br  Br22  1  0.519786  0.039575  0.250217  1
  Br  Br23  1  0.493770  0.987540  0.740439  1
  Br  Br24  1  0.960425  0.480214  0.250217  1
  Br  Br25  1  0.012460  0.506230  0.740439  1
  Br  Br26  1  0.519786  0.480214  0.250217  1
  Br  Br27  1  0.493770  0.506230  0.740439  1
