# generated using pymatgen
data_Y3Ho7Cd4(InPd)4
_symmetry_space_group_name_H-M   'P 1'
_cell_length_a   3.61848900
_cell_length_b   8.07637817
_cell_length_c   18.31498353
_cell_angle_alpha   89.88330835
_cell_angle_beta   90.00000000
_cell_angle_gamma   90.00000000
_symmetry_Int_Tables_number   1
_chemical_formula_structural   Y3Ho7Cd4(InPd)4
_chemical_formula_sum   'Y3 Ho7 Cd4 In4 Pd4'
_cell_volume   535.24119895
_cell_formula_units_Z   1
loop_
 _symmetry_equiv_pos_site_id
 _symmetry_equiv_pos_as_xyz
  1  'x, y, z'
loop_
 _atom_site_type_symbol
 _atom_site_label
 _atom_site_symmetry_multiplicity
 _atom_site_fract_x
 _atom_site_fract_y
 _atom_site_fract_z
 _atom_site_occupancy
  Y  Y0  1  0.000000  0.500020  0.500012  1
  Y  Y1  1  0.000000  0.000050  0.999971  1
  Y  Y2  1  0.000000  0.741127  0.281360  1
  Ho  Ho3  1  0.000000  0.258407  0.718940  1
  Ho  Ho4  1  0.000000  0.758427  0.781028  1
  Ho  Ho5  1  0.000000  0.241594  0.218942  1
  Ho  Ho6  1  0.000000  0.612010  0.083577  1
  Ho  Ho7  1  0.000000  0.387881  0.916242  1
  Ho  Ho8  1  0.000000  0.887916  0.583748  1
  Ho  Ho9  1  0.000000  0.112236  0.416351  1
  Cd  Cd10  1  0.500000  0.711125  0.931245  1
  Cd  Cd11  1  0.500000  0.288708  0.068634  1
  Cd  Cd12  1  0.500000  0.789194  0.431586  1
  Cd  Cd13  1  0.500000  0.211134  0.568737  1
  In  In14  1  0.500000  0.577073  0.648068  1
  In  In15  1  0.500000  0.422453  0.352007  1
  In  In16  1  0.500000  0.923141  0.147961  1
  In  In17  1  0.500000  0.076993  0.851946  1
  Pd  Pd18  1  0.500000  0.523643  0.196056  1
  Pd  Pd19  1  0.500000  0.475046  0.803494  1
  Pd  Pd20  1  0.500000  0.975108  0.696501  1
  Pd  Pd21  1  0.500000  0.026713  0.303595  1
