# generated using pymatgen
data_Pr6Nd2SnPd24
_symmetry_space_group_name_H-M   'P 1'
_cell_length_a   8.56444101
_cell_length_b   8.56444101
_cell_length_c   8.56444101
_cell_angle_alpha   89.99554440
_cell_angle_beta   90.00445560
_cell_angle_gamma   90.00445560
_symmetry_Int_Tables_number   1
_chemical_formula_structural   Pr6Nd2SnPd24
_chemical_formula_sum   'Pr6 Nd2 Sn1 Pd24'
_cell_volume   628.19874388
_cell_formula_units_Z   1
loop_
 _symmetry_equiv_pos_site_id
 _symmetry_equiv_pos_as_xyz
  1  'x, y, z'
loop_
 _atom_site_type_symbol
 _atom_site_label
 _atom_site_symmetry_multiplicity
 _atom_site_fract_x
 _atom_site_fract_y
 _atom_site_fract_z
 _atom_site_occupancy
  Pr  Pr0  1  0.252010  0.252031  0.252031  1
  Pr  Pr1  1  0.747990  0.747969  0.747969  1
  Pr  Pr2  1  0.747969  0.747990  0.252031  1
  Pr  Pr3  1  0.747969  0.252031  0.747990  1
  Pr  Pr4  1  0.252031  0.252010  0.747969  1
  Pr  Pr5  1  0.252031  0.747969  0.252010  1
  Nd  Nd6  1  0.252053  0.747947  0.747947  1
  Nd  Nd7  1  0.747947  0.252053  0.252053  1
  Sn  Sn8  1  0.000000  0.000000  0.000000  1
  Pd  Pd9  1  0.266632  0.500137  0.999865  1
  Pd  Pd10  1  0.733368  0.499863  0.000135  1
  Pd  Pd11  1  0.999865  0.266632  0.499863  1
  Pd  Pd12  1  0.500137  0.266632  0.000135  1
  Pd  Pd13  1  0.000135  0.733368  0.500137  1
  Pd  Pd14  1  0.499863  0.733368  0.999865  1
  Pd  Pd15  1  0.500137  0.000135  0.266632  1
  Pd  Pd16  1  0.266632  0.999865  0.500137  1
  Pd  Pd17  1  0.499863  0.999865  0.733368  1
  Pd  Pd18  1  0.733368  0.000135  0.499863  1
  Pd  Pd19  1  0.999865  0.499863  0.266632  1
  Pd  Pd20  1  0.000135  0.500137  0.733368  1
  Pd  Pd21  1  0.255181  0.500156  0.500156  1
  Pd  Pd22  1  0.744819  0.499844  0.499844  1
  Pd  Pd23  1  0.500156  0.255181  0.499844  1
  Pd  Pd24  1  0.499844  0.744819  0.500156  1
  Pd  Pd25  1  0.500156  0.499844  0.255181  1
  Pd  Pd26  1  0.499844  0.500156  0.744819  1
  Pd  Pd27  1  0.311971  0.999866  0.999866  1
  Pd  Pd28  1  0.688029  0.000134  0.000134  1
  Pd  Pd29  1  0.999866  0.311971  0.000134  1
  Pd  Pd30  1  0.000134  0.688029  0.999866  1
  Pd  Pd31  1  0.999866  0.000134  0.311971  1
  Pd  Pd32  1  0.000134  0.999866  0.688029  1
