# generated using pymatgen
data_DyHo3Th(FeB3)2
_symmetry_space_group_name_H-M   'P 1'
_cell_length_a   5.41252258
_cell_length_b   5.41252262
_cell_length_c   8.11674063
_cell_angle_alpha   70.52369041
_cell_angle_beta   70.52369014
_cell_angle_gamma   59.99998066
_symmetry_Int_Tables_number   1
_chemical_formula_structural   DyHo3Th(FeB3)2
_chemical_formula_sum   'Dy1 Ho3 Th1 Fe2 B6'
_cell_volume   190.05299878
_cell_formula_units_Z   1
loop_
 _symmetry_equiv_pos_site_id
 _symmetry_equiv_pos_as_xyz
  1  'x, y, z'
loop_
 _atom_site_type_symbol
 _atom_site_label
 _atom_site_symmetry_multiplicity
 _atom_site_fract_x
 _atom_site_fract_y
 _atom_site_fract_z
 _atom_site_occupancy
  Dy  Dy0  1  0.584690  0.584690  0.245929  1
  Ho  Ho1  1  0.251397  0.251397  0.245810  1
  Ho  Ho2  1  0.748597  0.748597  0.754210  1
  Ho  Ho3  1  0.415600  0.415600  0.753201  1
  Th  Th4  1  0.000095  0.000095  0.999716  1
  Fe  Fe5  1  0.112367  0.112367  0.662900  1
  Fe  Fe6  1  0.887589  0.887589  0.337232  1
  B  B7  1  0.167373  0.832467  0.500167  1
  B  B8  1  0.832467  0.499993  0.500167  1
  B  B9  1  0.499993  0.167373  0.500167  1
  B  B10  1  0.167373  0.499993  0.500167  1
  B  B11  1  0.499993  0.832467  0.500167  1
  B  B12  1  0.832467  0.167373  0.500167  1
