# generated using pymatgen
data_Pr2NdCd3Si2Au
_symmetry_space_group_name_H-M   'P 1'
_cell_length_a   7.46607302
_cell_length_b   7.46607482
_cell_length_c   4.45933400
_cell_angle_alpha   90.00000000
_cell_angle_beta   90.00000000
_cell_angle_gamma   119.99087445
_symmetry_Int_Tables_number   1
_chemical_formula_structural   Pr2NdCd3Si2Au
_chemical_formula_sum   'Pr2 Nd1 Cd3 Si2 Au1'
_cell_volume   215.29063198
_cell_formula_units_Z   1
loop_
 _symmetry_equiv_pos_site_id
 _symmetry_equiv_pos_as_xyz
  1  'x, y, z'
loop_
 _atom_site_type_symbol
 _atom_site_label
 _atom_site_symmetry_multiplicity
 _atom_site_fract_x
 _atom_site_fract_y
 _atom_site_fract_z
 _atom_site_occupancy
  Pr  Pr0  1  0.585454  0.999931  0.000000  1
  Pr  Pr1  1  0.999931  0.585454  0.000000  1
  Nd  Nd2  1  0.414389  0.414389  0.000000  1
  Cd  Cd3  1  0.251579  0.000158  0.500000  1
  Cd  Cd4  1  0.000158  0.251579  0.500000  1
  Cd  Cd5  1  0.748279  0.748279  0.500000  1
  Si  Si6  1  0.333455  0.666427  0.500000  1
  Si  Si7  1  0.666427  0.333455  0.500000  1
  Au  Au8  1  0.000328  0.000328  0.000000  1
