# generated using pymatgen
data_Tm4Zn4Ir2PtRh
_symmetry_space_group_name_H-M   'P 1'
_cell_length_a   4.03505500
_cell_length_b   6.93398259
_cell_length_c   8.08993416
_cell_angle_alpha   89.87878185
_cell_angle_beta   90.00000000
_cell_angle_gamma   90.00000000
_symmetry_Int_Tables_number   1
_chemical_formula_structural   Tm4Zn4Ir2PtRh
_chemical_formula_sum   'Tm4 Zn4 Ir2 Pt1 Rh1'
_cell_volume   226.34777029
_cell_formula_units_Z   1
loop_
 _symmetry_equiv_pos_site_id
 _symmetry_equiv_pos_as_xyz
  1  'x, y, z'
loop_
 _atom_site_type_symbol
 _atom_site_label
 _atom_site_symmetry_multiplicity
 _atom_site_fract_x
 _atom_site_fract_y
 _atom_site_fract_z
 _atom_site_occupancy
  Tm  Tm0  1  0.250000  0.533042  0.178882  1
  Tm  Tm1  1  0.750000  0.464544  0.819039  1
  Tm  Tm2  1  0.750000  0.963368  0.686606  1
  Tm  Tm3  1  0.250000  0.041765  0.314897  1
  Zn  Zn4  1  0.250000  0.636245  0.567940  1
  Zn  Zn5  1  0.750000  0.358495  0.435255  1
  Zn  Zn6  1  0.750000  0.862051  0.063398  1
  Zn  Zn7  1  0.250000  0.139292  0.934693  1
  Ir  Ir8  1  0.250000  0.755751  0.877133  1
  Ir  Ir9  1  0.750000  0.246196  0.122701  1
  Pt  Pt10  1  0.750000  0.745780  0.379732  1
  Rh  Rh11  1  0.250000  0.253471  0.619725  1
