# generated using pymatgen
data_Zr10AlCoPb6
_symmetry_space_group_name_H-M   'P 1'
_cell_length_a   8.83599300
_cell_length_b   8.83599326
_cell_length_c   5.96839300
_cell_angle_alpha   90.00000000
_cell_angle_beta   90.00000000
_cell_angle_gamma   119.99999527
_symmetry_Int_Tables_number   1
_chemical_formula_structural   Zr10AlCoPb6
_chemical_formula_sum   'Zr10 Al1 Co1 Pb6'
_cell_volume   403.55134959
_cell_formula_units_Z   1
loop_
 _symmetry_equiv_pos_site_id
 _symmetry_equiv_pos_as_xyz
  1  'x, y, z'
loop_
 _atom_site_type_symbol
 _atom_site_label
 _atom_site_symmetry_multiplicity
 _atom_site_fract_x
 _atom_site_fract_y
 _atom_site_fract_z
 _atom_site_occupancy
  Zr  Zr0  1  0.666667  0.333333  0.000000  1
  Zr  Zr1  1  0.333333  0.666667  0.000000  1
  Zr  Zr2  1  0.333333  0.666667  0.500000  1
  Zr  Zr3  1  0.666667  0.333333  0.500000  1
  Zr  Zr4  1  0.746145  0.746145  0.765189  1
  Zr  Zr5  1  0.253855  0.000000  0.765189  1
  Zr  Zr6  1  0.000000  0.253855  0.765189  1
  Zr  Zr7  1  0.253855  0.253855  0.234811  1
  Zr  Zr8  1  0.746145  0.000000  0.234811  1
  Zr  Zr9  1  0.000000  0.746145  0.234811  1
  Al  Al10  1  0.000000  0.000000  0.500000  1
  Co  Co11  1  0.000000  0.000000  0.000000  1
  Pb  Pb12  1  0.390025  0.390025  0.745803  1
  Pb  Pb13  1  0.609975  0.000000  0.745803  1
  Pb  Pb14  1  0.000000  0.609975  0.745803  1
  Pb  Pb15  1  0.609975  0.609975  0.254197  1
  Pb  Pb16  1  0.390025  0.000000  0.254197  1
  Pb  Pb17  1  0.000000  0.390025  0.254197  1
