# generated using pymatgen
data_La5Nd(Sn6Ru)2
_symmetry_space_group_name_H-M   'P 1'
_cell_length_a   8.77512294
_cell_length_b   8.77512348
_cell_length_c   13.58921500
_cell_angle_alpha   90.00000000
_cell_angle_beta   90.00000000
_cell_angle_gamma   148.33025005
_symmetry_Int_Tables_number   1
_chemical_formula_structural   La5Nd(Sn6Ru)2
_chemical_formula_sum   'La5 Nd1 Sn12 Ru2'
_cell_volume   549.38732231
_cell_formula_units_Z   1
loop_
 _symmetry_equiv_pos_site_id
 _symmetry_equiv_pos_as_xyz
  1  'x, y, z'
loop_
 _atom_site_type_symbol
 _atom_site_label
 _atom_site_symmetry_multiplicity
 _atom_site_fract_x
 _atom_site_fract_y
 _atom_site_fract_z
 _atom_site_occupancy
  La  La0  1  0.604072  0.395928  0.250000  1
  La  La1  1  0.399798  0.600202  0.405239  1
  La  La2  1  0.599899  0.400101  0.595085  1
  La  La3  1  0.399798  0.600202  0.094761  1
  La  La4  1  0.599899  0.400101  0.904915  1
  Nd  Nd5  1  0.396828  0.603172  0.750000  1
  Sn  Sn6  1  0.927111  0.072889  0.921313  1
  Sn  Sn7  1  0.071120  0.928880  0.076473  1
  Sn  Sn8  1  0.927111  0.072889  0.578687  1
  Sn  Sn9  1  0.071120  0.928880  0.423527  1
  Sn  Sn10  1  0.958592  0.041408  0.250000  1
  Sn  Sn11  1  0.040783  0.959217  0.750000  1
  Sn  Sn12  1  0.747713  0.252288  0.434025  1
  Sn  Sn13  1  0.253729  0.746271  0.567419  1
  Sn  Sn14  1  0.747713  0.252288  0.065975  1
  Sn  Sn15  1  0.253729  0.746271  0.932581  1
  Sn  Sn16  1  0.234940  0.765060  0.250000  1
  Sn  Sn17  1  0.766317  0.233683  0.750000  1
  Ru  Ru18  1  0.800014  0.199986  0.250000  1
  Ru  Ru19  1  0.199719  0.800281  0.750000  1
