# generated using pymatgen
data_Yb9YIr4
_symmetry_space_group_name_H-M   'P 1'
_cell_length_a   6.45522863
_cell_length_b   7.43615061
_cell_length_c   8.45580139
_cell_angle_alpha   96.86923809
_cell_angle_beta   112.43927986
_cell_angle_gamma   89.99999430
_symmetry_Int_Tables_number   1
_chemical_formula_structural   Yb9YIr4
_chemical_formula_sum   'Yb9 Y1 Ir4'
_cell_volume   372.00897839
_cell_formula_units_Z   1
loop_
 _symmetry_equiv_pos_site_id
 _symmetry_equiv_pos_as_xyz
  1  'x, y, z'
loop_
 _atom_site_type_symbol
 _atom_site_label
 _atom_site_symmetry_multiplicity
 _atom_site_fract_x
 _atom_site_fract_y
 _atom_site_fract_z
 _atom_site_occupancy
  Yb  Yb0  1  0.966199  0.919357  0.170585  1
  Yb  Yb1  1  0.795613  0.580643  0.829415  1
  Yb  Yb2  1  0.030886  0.079011  0.828325  1
  Yb  Yb3  1  0.202563  0.420989  0.171675  1
  Yb  Yb4  1  0.642136  0.822215  0.436630  1
  Yb  Yb5  1  0.205505  0.677785  0.563370  1
  Yb  Yb6  1  0.354820  0.178416  0.559324  1
  Yb  Yb7  1  0.795496  0.321584  0.440676  1
  Yb  Yb8  1  0.429578  0.750000  0.000000  1
  Y  Y9  1  0.568048  0.250000  0.000000  1
  Ir  Ir10  1  0.821808  0.571614  0.215537  1
  Ir  Ir11  1  0.606270  0.928386  0.784463  1
  Ir  Ir12  1  0.182763  0.418897  0.784448  1
  Ir  Ir13  1  0.398315  0.081103  0.215552  1
