# generated using pymatgen
data_Y4Al17SiNiRh5
_symmetry_space_group_name_H-M   'P 1'
_cell_length_a   7.51895001
_cell_length_b   7.51895053
_cell_length_c   9.37028921
_cell_angle_alpha   90.12770189
_cell_angle_beta   90.12769972
_cell_angle_gamma   119.66616386
_symmetry_Int_Tables_number   1
_chemical_formula_structural   Y4Al17SiNiRh5
_chemical_formula_sum   'Y4 Al17 Si1 Ni1 Rh5'
_cell_volume   460.30418090
_cell_formula_units_Z   1
loop_
 _symmetry_equiv_pos_site_id
 _symmetry_equiv_pos_as_xyz
  1  'x, y, z'
loop_
 _atom_site_type_symbol
 _atom_site_label
 _atom_site_symmetry_multiplicity
 _atom_site_fract_x
 _atom_site_fract_y
 _atom_site_fract_z
 _atom_site_occupancy
  Y  Y0  1  0.993982  0.674413  0.249338  1
  Y  Y1  1  0.005193  0.330217  0.750700  1
  Y  Y2  1  0.674413  0.993982  0.249338  1
  Y  Y3  1  0.330217  0.005193  0.750700  1
  Al  Al4  1  0.876344  0.876344  0.752136  1
  Al  Al5  1  0.000564  0.333657  0.076447  1
  Al  Al6  1  0.999740  0.667097  0.925210  1
  Al  Al7  1  0.999452  0.666105  0.574953  1
  Al  Al8  1  0.335777  0.000681  0.423866  1
  Al  Al9  1  0.000681  0.335777  0.423866  1
  Al  Al10  1  0.666105  0.999452  0.574953  1
  Al  Al11  1  0.667097  0.999740  0.925210  1
  Al  Al12  1  0.333657  0.000564  0.076447  1
  Al  Al13  1  0.333013  0.333013  0.554512  1
  Al  Al14  1  0.664803  0.664803  0.449125  1
  Al  Al15  1  0.667146  0.667146  0.049351  1
  Al  Al16  1  0.331189  0.331189  0.946756  1
  Al  Al17  1  0.336158  0.548573  0.249804  1
  Al  Al18  1  0.661333  0.451609  0.750449  1
  Al  Al19  1  0.548573  0.336158  0.249804  1
  Al  Al20  1  0.451609  0.661333  0.750449  1
  Si  Si21  1  0.125839  0.125839  0.246240  1
  Ni  Ni22  1  0.001370  0.001370  0.006678  1
  Rh  Rh23  1  0.670506  0.326576  0.000711  1
  Rh  Rh24  1  0.326576  0.670506  0.000711  1
  Rh  Rh25  1  0.326732  0.670715  0.499531  1
  Rh  Rh26  1  0.670715  0.326732  0.499531  1
  Rh  Rh27  1  0.001213  0.001213  0.493185  1
