# generated using pymatgen
data_Ca8TmLu(Sn3H)2
_symmetry_space_group_name_H-M   'P 1'
_cell_length_a   9.39282520
_cell_length_b   9.37470741
_cell_length_c   9.38711607
_cell_angle_alpha   129.27603972
_cell_angle_beta   129.23137513
_cell_angle_gamma   74.53772995
_symmetry_Int_Tables_number   1
_chemical_formula_structural   Ca8TmLu(Sn3H)2
_chemical_formula_sum   'Ca8 Tm1 Lu1 Sn6 H2'
_cell_volume   483.14341124
_cell_formula_units_Z   1
loop_
 _symmetry_equiv_pos_site_id
 _symmetry_equiv_pos_as_xyz
  1  'x, y, z'
loop_
 _atom_site_type_symbol
 _atom_site_label
 _atom_site_symmetry_multiplicity
 _atom_site_fract_x
 _atom_site_fract_y
 _atom_site_fract_z
 _atom_site_occupancy
  Ca  Ca0  1  0.000910  0.998366  0.000842  1
  Ca  Ca1  1  0.185745  0.685295  0.173742  1
  Ca  Ca2  1  0.008067  0.185531  0.498578  1
  Ca  Ca3  1  0.686207  0.508653  0.499248  1
  Ca  Ca4  1  0.490136  0.989312  0.177079  1
  Ca  Ca5  1  0.812113  0.312945  0.821964  1
  Ca  Ca6  1  0.988156  0.812411  0.499096  1
  Ca  Ca7  1  0.313699  0.489199  0.501004  1
  Tm  Tm8  1  0.511571  0.014651  0.822965  1
  Lu  Lu9  1  0.497518  0.500829  0.000417  1
  Sn  Sn10  1  0.261008  0.246851  0.994722  1
  Sn  Sn11  1  0.740133  0.752409  0.995085  1
  Sn  Sn12  1  0.860448  0.370353  0.232407  1
  Sn  Sn13  1  0.132503  0.621603  0.755830  1
  Sn  Sn14  1  0.374008  0.133498  0.513919  1
  Sn  Sn15  1  0.623863  0.864331  0.495243  1
  H  H16  1  0.263812  0.763820  0.515867  1
  H  H17  1  0.750101  0.249943  0.501993  1
