# generated using pymatgen
data_La3Pa(Pt2Pb)2
_symmetry_space_group_name_H-M   'P 1'
_cell_length_a   8.09033600
_cell_length_b   8.09033567
_cell_length_c   7.49166000
_cell_angle_alpha   90.00000000
_cell_angle_beta   90.00000000
_cell_angle_gamma   92.96941770
_symmetry_Int_Tables_number   1
_chemical_formula_structural   La3Pa(Pt2Pb)2
_chemical_formula_sum   'La6 Pa2 Pt8 Pb4'
_cell_volume   489.69723502
_cell_formula_units_Z   2
loop_
 _symmetry_equiv_pos_site_id
 _symmetry_equiv_pos_as_xyz
  1  'x, y, z'
loop_
 _atom_site_type_symbol
 _atom_site_label
 _atom_site_symmetry_multiplicity
 _atom_site_fract_x
 _atom_site_fract_y
 _atom_site_fract_z
 _atom_site_occupancy
  La  La0  1  0.667932  0.667932  0.000000  1
  La  La1  1  0.830738  0.169262  0.500000  1
  La  La2  1  0.332068  0.332068  0.000000  1
  La  La3  1  0.169262  0.830738  0.500000  1
  La  La4  1  0.827058  0.172942  0.000000  1
  La  La5  1  0.172942  0.827058  0.000000  1
  Pa  Pa6  1  0.327072  0.327072  0.500000  1
  Pa  Pa7  1  0.672928  0.672928  0.500000  1
  Pt  Pt8  1  0.866259  0.866259  0.739436  1
  Pt  Pt9  1  0.133741  0.133741  0.739436  1
  Pt  Pt10  1  0.622169  0.377831  0.724157  1
  Pt  Pt11  1  0.622169  0.377831  0.275843  1
  Pt  Pt12  1  0.377831  0.622169  0.275843  1
  Pt  Pt13  1  0.133741  0.133741  0.260564  1
  Pt  Pt14  1  0.866259  0.866259  0.260564  1
  Pt  Pt15  1  0.377831  0.622169  0.724157  1
  Pb  Pb16  1  0.500000  0.000000  0.750115  1
  Pb  Pb17  1  0.500000  0.000000  0.249885  1
  Pb  Pb18  1  0.000000  0.500000  0.750115  1
  Pb  Pb19  1  0.000000  0.500000  0.249885  1
