# generated using pymatgen
data_HoSc5Co16(MoP6)2
_symmetry_space_group_name_H-M   'P 1'
_cell_length_a   3.64028400
_cell_length_b   10.40078000
_cell_length_c   12.02245700
_cell_angle_alpha   90.00000000
_cell_angle_beta   90.00000000
_cell_angle_gamma   90.00000000
_symmetry_Int_Tables_number   1
_chemical_formula_structural   HoSc5Co16(MoP6)2
_chemical_formula_sum   'Ho1 Sc5 Co16 Mo2 P12'
_cell_volume   455.19177854
_cell_formula_units_Z   1
loop_
 _symmetry_equiv_pos_site_id
 _symmetry_equiv_pos_as_xyz
  1  'x, y, z'
loop_
 _atom_site_type_symbol
 _atom_site_label
 _atom_site_symmetry_multiplicity
 _atom_site_fract_x
 _atom_site_fract_y
 _atom_site_fract_z
 _atom_site_occupancy
  Ho  Ho0  1  0.500000  0.000000  0.472800  1
  Sc  Sc1  1  0.000000  0.500000  0.525983  1
  Sc  Sc2  1  0.500000  0.819389  0.203936  1
  Sc  Sc3  1  0.500000  0.180611  0.203936  1
  Sc  Sc4  1  0.000000  0.679644  0.795263  1
  Sc  Sc5  1  0.000000  0.320356  0.795263  1
  Co  Co6  1  0.000000  0.500000  0.985221  1
  Co  Co7  1  0.500000  0.000000  0.014783  1
  Co  Co8  1  0.500000  0.298367  0.432183  1
  Co  Co9  1  0.500000  0.701633  0.432183  1
  Co  Co10  1  0.000000  0.205757  0.568405  1
  Co  Co11  1  0.000000  0.794243  0.568405  1
  Co  Co12  1  0.500000  0.875045  0.706780  1
  Co  Co13  1  0.500000  0.124955  0.706780  1
  Co  Co14  1  0.000000  0.623591  0.294116  1
  Co  Co15  1  0.000000  0.376409  0.294116  1
  Co  Co16  1  0.500000  0.332969  0.989377  1
  Co  Co17  1  0.500000  0.667031  0.989377  1
  Co  Co18  1  0.000000  0.167757  0.010599  1
  Co  Co19  1  0.000000  0.832243  0.010599  1
  Co  Co20  1  0.500000  0.500000  0.700285  1
  Co  Co21  1  0.000000  0.000000  0.297228  1
  Mo  Mo22  1  0.500000  0.500000  0.158503  1
  Mo  Mo23  1  0.000000  0.000000  0.843307  1
  P  P24  1  0.500000  0.315651  0.617860  1
  P  P25  1  0.500000  0.684349  0.617860  1
  P  P26  1  0.000000  0.187373  0.380816  1
  P  P27  1  0.000000  0.812627  0.380816  1
  P  P28  1  0.500000  0.500000  0.876836  1
  P  P29  1  0.000000  0.000000  0.121807  1
  P  P30  1  0.500000  0.841074  0.890439  1
  P  P31  1  0.500000  0.158926  0.890439  1
  P  P32  1  0.000000  0.658175  0.109884  1
  P  P33  1  0.000000  0.341825  0.109884  1
  P  P34  1  0.500000  0.500000  0.355493  1
  P  P35  1  0.000000  0.000000  0.648435  1
