# generated using pymatgen
data_CePu3(BeSi3)2
_symmetry_space_group_name_H-M   'P 1'
_cell_length_a   7.85816000
_cell_length_b   7.85815984
_cell_length_c   8.21725000
_cell_angle_alpha   90.00000000
_cell_angle_beta   90.00000000
_cell_angle_gamma   120.00000068
_symmetry_Int_Tables_number   1
_chemical_formula_structural   CePu3(BeSi3)2
_chemical_formula_sum   'Ce2 Pu6 Be4 Si12'
_cell_volume   439.43925962
_cell_formula_units_Z   2
loop_
 _symmetry_equiv_pos_site_id
 _symmetry_equiv_pos_as_xyz
  1  'x, y, z'
loop_
 _atom_site_type_symbol
 _atom_site_label
 _atom_site_symmetry_multiplicity
 _atom_site_fract_x
 _atom_site_fract_y
 _atom_site_fract_z
 _atom_site_occupancy
  Ce  Ce0  1  0.000000  0.000000  0.250000  1
  Ce  Ce1  1  0.000000  0.000000  0.750000  1
  Pu  Pu2  1  0.999963  0.499981  0.250000  1
  Pu  Pu3  1  0.500019  0.499981  0.250000  1
  Pu  Pu4  1  0.499981  0.999963  0.750000  1
  Pu  Pu5  1  0.500019  0.000037  0.250000  1
  Pu  Pu6  1  0.499981  0.500019  0.750000  1
  Pu  Pu7  1  0.000037  0.500019  0.750000  1
  Be  Be8  1  0.333333  0.666667  0.999478  1
  Be  Be9  1  0.333333  0.666667  0.500522  1
  Be  Be10  1  0.666667  0.333333  0.000522  1
  Be  Be11  1  0.666667  0.333333  0.499478  1
  Si  Si12  1  0.173177  0.346354  0.000058  1
  Si  Si13  1  0.653646  0.826823  0.000058  1
  Si  Si14  1  0.173177  0.346354  0.499942  1
  Si  Si15  1  0.346354  0.173177  0.999942  1
  Si  Si16  1  0.173177  0.826823  0.000058  1
  Si  Si17  1  0.653646  0.826823  0.499942  1
  Si  Si18  1  0.826823  0.653646  0.999942  1
  Si  Si19  1  0.346354  0.173177  0.500058  1
  Si  Si20  1  0.173177  0.826823  0.499942  1
  Si  Si21  1  0.826823  0.653646  0.500058  1
  Si  Si22  1  0.826823  0.173177  0.999942  1
  Si  Si23  1  0.826823  0.173177  0.500058  1
