# generated using pymatgen
data_Pr3Cd3Hg2Ir
_symmetry_space_group_name_H-M   'P 1'
_cell_length_a   8.22895300
_cell_length_b   8.22895418
_cell_length_c   3.96421000
_cell_angle_alpha   90.00000000
_cell_angle_beta   90.00000000
_cell_angle_gamma   119.99999122
_symmetry_Int_Tables_number   1
_chemical_formula_structural   Pr3Cd3Hg2Ir
_chemical_formula_sum   'Pr3 Cd3 Hg2 Ir1'
_cell_volume   232.47515663
_cell_formula_units_Z   1
loop_
 _symmetry_equiv_pos_site_id
 _symmetry_equiv_pos_as_xyz
  1  'x, y, z'
loop_
 _atom_site_type_symbol
 _atom_site_label
 _atom_site_symmetry_multiplicity
 _atom_site_fract_x
 _atom_site_fract_y
 _atom_site_fract_z
 _atom_site_occupancy
  Pr  Pr0  1  0.608157  0.033512  0.000000  1
  Pr  Pr1  1  0.966488  0.574645  0.000000  1
  Pr  Pr2  1  0.425355  0.391843  0.000000  1
  Cd  Cd3  1  0.272360  0.000936  0.500000  1
  Cd  Cd4  1  0.999064  0.271423  0.500000  1
  Cd  Cd5  1  0.728577  0.727640  0.500000  1
  Hg  Hg6  1  0.333333  0.666667  0.500000  1
  Hg  Hg7  1  0.000000  0.000000  0.000000  1
  Ir  Ir8  1  0.666667  0.333333  0.500000  1
