# generated using pymatgen
data_AlS8I3
_symmetry_space_group_name_H-M   'P 1'
_cell_length_a   8.65344656
_cell_length_b   11.00345159
_cell_length_c   12.69886817
_cell_angle_alpha   97.57330607
_cell_angle_beta   113.88397464
_cell_angle_gamma   102.87062329
_symmetry_Int_Tables_number   1
_chemical_formula_structural   AlS8I3
_chemical_formula_sum   'Al2 S16 I6'
_cell_volume   1043.88038466
_cell_formula_units_Z   2
loop_
 _symmetry_equiv_pos_site_id
 _symmetry_equiv_pos_as_xyz
  1  'x, y, z'
loop_
 _atom_site_type_symbol
 _atom_site_label
 _atom_site_symmetry_multiplicity
 _atom_site_fract_x
 _atom_site_fract_y
 _atom_site_fract_z
 _atom_site_occupancy
  Al  Al0  1  0.816715  0.979548  0.855768  1
  Al  Al1  1  0.183285  0.020452  0.144232  1
  S  S2  1  0.854620  0.488330  0.798708  1
  S  S3  1  0.145380  0.511670  0.201292  1
  S  S4  1  0.711247  0.405778  0.618228  1
  S  S5  1  0.288753  0.594222  0.381772  1
  S  S6  1  0.750279  0.230186  0.580104  1
  S  S7  1  0.249721  0.769814  0.419896  1
  S  S8  1  0.944483  0.252506  0.523524  1
  S  S9  1  0.055517  0.747494  0.476476  1
  S  S10  1  0.908067  0.382872  0.168254  1
  S  S11  1  0.091933  0.617128  0.831746  1
  S  S12  1  0.712389  0.471912  0.116244  1
  S  S13  1  0.287611  0.528088  0.883756  1
  S  S14  1  0.672985  0.538688  0.260321  1
  S  S15  1  0.327015  0.461312  0.739679  1
  S  S16  1  0.816652  0.730836  0.335064  1
  S  S17  1  0.183348  0.269164  0.664936  1
  I  I18  1  0.577578  0.079883  0.833240  1
  I  I19  1  0.422422  0.920117  0.166760  1
  I  I20  1  0.859901  0.847794  0.023871  1
  I  I21  1  0.140099  0.152206  0.976129  1
  I  I22  1  0.793326  0.845076  0.672707  1
  I  I23  1  0.206674  0.154924  0.327293  1
