# generated using pymatgen
data_Er8Al2NiRh
_symmetry_space_group_name_H-M   'P 1'
_cell_length_a   9.39813526
_cell_length_b   9.39886881
_cell_length_c   9.39886953
_cell_angle_alpha   60.05141430
_cell_angle_beta   60.00258289
_cell_angle_gamma   60.00258465
_symmetry_Int_Tables_number   1
_chemical_formula_structural   Er8Al2NiRh
_chemical_formula_sum   'Er16 Al4 Ni2 Rh2'
_cell_volume   587.30451774
_cell_formula_units_Z   2
loop_
 _symmetry_equiv_pos_site_id
 _symmetry_equiv_pos_as_xyz
  1  'x, y, z'
loop_
 _atom_site_type_symbol
 _atom_site_label
 _atom_site_symmetry_multiplicity
 _atom_site_fract_x
 _atom_site_fract_y
 _atom_site_fract_z
 _atom_site_occupancy
  Er  Er0  1  0.189874  0.193661  0.808897  1
  Er  Er1  1  0.437774  0.062226  0.062226  1
  Er  Er2  1  0.435333  0.063560  0.436806  1
  Er  Er3  1  0.064300  0.436806  0.063560  1
  Er  Er4  1  0.649171  0.057943  0.643715  1
  Er  Er5  1  0.192092  0.807908  0.807908  1
  Er  Er6  1  0.064300  0.063560  0.436806  1
  Er  Er7  1  0.808756  0.191244  0.191244  1
  Er  Er8  1  0.807569  0.808897  0.193661  1
  Er  Er9  1  0.649171  0.643715  0.057943  1
  Er  Er10  1  0.651031  0.647312  0.647312  1
  Er  Er11  1  0.064913  0.435087  0.435087  1
  Er  Er12  1  0.054345  0.647312  0.647312  1
  Er  Er13  1  0.807569  0.193661  0.808897  1
  Er  Er14  1  0.435333  0.436806  0.063560  1
  Er  Er15  1  0.189874  0.808897  0.193661  1
  Al  Al16  1  0.421611  0.733696  0.423081  1
  Al  Al17  1  0.421611  0.423081  0.733696  1
  Al  Al18  1  0.734492  0.422374  0.422374  1
  Al  Al19  1  0.420761  0.422374  0.422374  1
  Ni  Ni20  1  0.857445  0.427259  0.857851  1
  Ni  Ni21  1  0.857445  0.857851  0.427259  1
  Rh  Rh22  1  0.428980  0.857387  0.857387  1
  Rh  Rh23  1  0.856247  0.857387  0.857387  1
