# generated using pymatgen
data_Ca2Co4B4Ir
_symmetry_space_group_name_H-M   'P 1'
_cell_length_a   7.20402319
_cell_length_b   5.89662430
_cell_length_c   5.50929517
_cell_angle_alpha   78.25590697
_cell_angle_beta   53.26243507
_cell_angle_gamma   48.48166062
_symmetry_Int_Tables_number   1
_chemical_formula_structural   Ca2Co4B4Ir
_chemical_formula_sum   'Ca2 Co4 B4 Ir1'
_cell_volume   132.96780868
_cell_formula_units_Z   1
loop_
 _symmetry_equiv_pos_site_id
 _symmetry_equiv_pos_as_xyz
  1  'x, y, z'
loop_
 _atom_site_type_symbol
 _atom_site_label
 _atom_site_symmetry_multiplicity
 _atom_site_fract_x
 _atom_site_fract_y
 _atom_site_fract_z
 _atom_site_occupancy
  Ca  Ca0  1  0.852425  0.852427  0.147574  1
  Ca  Ca1  1  0.147572  0.147574  0.852427  1
  Co  Co2  1  0.499999  0.500000  0.000000  1
  Co  Co3  1  0.250000  0.250001  0.250000  1
  Co  Co4  1  0.000000  0.000000  0.500000  1
  Co  Co5  1  0.749998  0.750001  0.750001  1
  B  B6  1  0.462078  0.799253  0.200748  1
  B  B7  1  0.200746  0.537922  0.462080  1
  B  B8  1  0.799251  0.462080  0.537922  1
  B  B9  1  0.537920  0.200748  0.799253  1
  Ir  Ir10  1  0.499999  0.500001  0.500001  1
