# generated using pymatgen
data_Tb15Er(InNi)4
_symmetry_space_group_name_H-M   'P 1'
_cell_length_a   9.64641714
_cell_length_b   9.64641760
_cell_length_c   9.64641725
_cell_angle_alpha   59.93605652
_cell_angle_beta   59.93605693
_cell_angle_gamma   59.93605196
_symmetry_Int_Tables_number   1
_chemical_formula_structural   Tb15Er(InNi)4
_chemical_formula_sum   'Tb15 Er1 In4 Ni4'
_cell_volume   633.80081990
_cell_formula_units_Z   1
loop_
 _symmetry_equiv_pos_site_id
 _symmetry_equiv_pos_as_xyz
  1  'x, y, z'
loop_
 _atom_site_type_symbol
 _atom_site_label
 _atom_site_symmetry_multiplicity
 _atom_site_fract_x
 _atom_site_fract_y
 _atom_site_fract_z
 _atom_site_occupancy
  Tb  Tb0  1  0.346845  0.346845  0.956763  1
  Tb  Tb1  1  0.346845  0.956763  0.346845  1
  Tb  Tb2  1  0.956763  0.346845  0.346845  1
  Tb  Tb3  1  0.812416  0.188549  0.188549  1
  Tb  Tb4  1  0.188715  0.811938  0.811938  1
  Tb  Tb5  1  0.188549  0.812416  0.188549  1
  Tb  Tb6  1  0.811938  0.188715  0.811938  1
  Tb  Tb7  1  0.188549  0.188549  0.812416  1
  Tb  Tb8  1  0.811938  0.811938  0.188715  1
  Tb  Tb9  1  0.937145  0.563032  0.563032  1
  Tb  Tb10  1  0.563704  0.937230  0.937230  1
  Tb  Tb11  1  0.563032  0.937145  0.563032  1
  Tb  Tb12  1  0.937230  0.563704  0.937230  1
  Tb  Tb13  1  0.563032  0.563032  0.937145  1
  Tb  Tb14  1  0.937230  0.937230  0.563704  1
  Er  Er15  1  0.346222  0.346222  0.346222  1
  In  In16  1  0.582657  0.582657  0.582657  1
  In  In17  1  0.580971  0.580971  0.255116  1
  In  In18  1  0.580971  0.255116  0.580971  1
  In  In19  1  0.255116  0.580971  0.580971  1
  Ni  Ni20  1  0.142764  0.142764  0.142764  1
  Ni  Ni21  1  0.142580  0.142580  0.572205  1
  Ni  Ni22  1  0.142580  0.572205  0.142580  1
  Ni  Ni23  1  0.572205  0.142580  0.142580  1
