# generated using pymatgen
data_Y4MoWC4
_symmetry_space_group_name_H-M   'P 1'
_cell_length_a   5.74959800
_cell_length_b   5.74978300
_cell_length_c   9.92146500
_cell_angle_alpha   90.00000000
_cell_angle_beta   90.00000000
_cell_angle_gamma   90.00000000
_symmetry_Int_Tables_number   1
_chemical_formula_structural   Y4MoWC4
_chemical_formula_sum   'Y8 Mo2 W2 C8'
_cell_volume   327.99312445
_cell_formula_units_Z   2
loop_
 _symmetry_equiv_pos_site_id
 _symmetry_equiv_pos_as_xyz
  1  'x, y, z'
loop_
 _atom_site_type_symbol
 _atom_site_label
 _atom_site_symmetry_multiplicity
 _atom_site_fract_x
 _atom_site_fract_y
 _atom_site_fract_z
 _atom_site_occupancy
  Y  Y0  1  0.201423  0.800043  0.157015  1
  Y  Y1  1  0.800293  0.201142  0.842707  1
  Y  Y2  1  0.201423  0.800043  0.842985  1
  Y  Y3  1  0.298577  0.300043  0.342985  1
  Y  Y4  1  0.699707  0.701142  0.342707  1
  Y  Y5  1  0.298577  0.300043  0.657015  1
  Y  Y6  1  0.800293  0.201142  0.157293  1
  Y  Y7  1  0.699707  0.701142  0.657293  1
  Mo  Mo8  1  0.677306  0.676865  0.000000  1
  Mo  Mo9  1  0.822694  0.176865  0.500000  1
  W  W10  1  0.323863  0.323439  0.000000  1
  W  W11  1  0.176137  0.823439  0.500000  1
  C  C12  1  0.000323  0.501371  0.500000  1
  C  C13  1  0.001290  0.998327  0.346187  1
  C  C14  1  0.499677  0.001371  0.000000  1
  C  C15  1  0.001290  0.998327  0.653813  1
  C  C16  1  0.498710  0.498327  0.846187  1
  C  C17  1  0.498710  0.498327  0.153813  1
  C  C18  1  0.498671  0.999301  0.500000  1
  C  C19  1  0.001329  0.499301  0.000000  1
