# generated using pymatgen
data_Tm3Zn2AgAu3
_symmetry_space_group_name_H-M   'P 1'
_cell_length_a   7.62688500
_cell_length_b   7.52390682
_cell_length_c   3.77938200
_cell_angle_alpha   90.00000000
_cell_angle_beta   90.00000000
_cell_angle_gamma   120.45379345
_symmetry_Int_Tables_number   1
_chemical_formula_structural   Tm3Zn2AgAu3
_chemical_formula_sum   'Tm3 Zn2 Ag1 Au3'
_cell_volume   186.95535187
_cell_formula_units_Z   1
loop_
 _symmetry_equiv_pos_site_id
 _symmetry_equiv_pos_as_xyz
  1  'x, y, z'
loop_
 _atom_site_type_symbol
 _atom_site_label
 _atom_site_symmetry_multiplicity
 _atom_site_fract_x
 _atom_site_fract_y
 _atom_site_fract_z
 _atom_site_occupancy
  Tm  Tm0  1  0.402219  0.000000  0.000000  1
  Tm  Tm1  1  0.993524  0.392103  0.000000  1
  Tm  Tm2  1  0.601422  0.607897  0.000000  1
  Zn  Zn3  1  0.263767  0.263148  0.500001  1
  Zn  Zn4  1  0.000619  0.736852  0.500001  1
  Ag  Ag5  1  0.735251  0.000000  0.500001  1
  Au  Au6  1  0.018424  0.000000  0.000000  1
  Au  Au7  1  0.663939  0.343102  0.500001  1
  Au  Au8  1  0.320836  0.656898  0.500001  1
