# generated using pymatgen
data_Tm5LuAl17Si7Os8
_symmetry_space_group_name_H-M   'P 1'
_cell_length_a   8.67994500
_cell_length_b   8.67028673
_cell_length_c   9.44434600
_cell_angle_alpha   90.00000000
_cell_angle_beta   90.00000000
_cell_angle_gamma   120.08865594
_symmetry_Int_Tables_number   1
_chemical_formula_structural   Tm5LuAl17Si7Os8
_chemical_formula_sum   'Tm5 Lu1 Al17 Si7 Os8'
_cell_volume   614.98465769
_cell_formula_units_Z   1
loop_
 _symmetry_equiv_pos_site_id
 _symmetry_equiv_pos_as_xyz
  1  'x, y, z'
loop_
 _atom_site_type_symbol
 _atom_site_label
 _atom_site_symmetry_multiplicity
 _atom_site_fract_x
 _atom_site_fract_y
 _atom_site_fract_z
 _atom_site_occupancy
  Tm  Tm0  1  0.806043  0.612311  0.750000  1
  Tm  Tm1  1  0.608997  0.806290  0.250000  1
  Tm  Tm2  1  0.389787  0.191996  0.750000  1
  Tm  Tm3  1  0.196614  0.804294  0.250000  1
  Tm  Tm4  1  0.801669  0.192435  0.750000  1
  Lu  Lu5  1  0.194102  0.391035  0.250000  1
  Al  Al6  1  0.164202  0.329284  0.578808  1
  Al  Al7  1  0.834235  0.671318  0.420535  1
  Al  Al8  1  0.671603  0.835106  0.578501  1
  Al  Al9  1  0.834235  0.671318  0.079465  1
  Al  Al10  1  0.329576  0.166067  0.421648  1
  Al  Al11  1  0.164202  0.329284  0.921192  1
  Al  Al12  1  0.163543  0.834355  0.577522  1
  Al  Al13  1  0.329576  0.166067  0.078352  1
  Al  Al14  1  0.835707  0.164222  0.420747  1
  Al  Al15  1  0.671603  0.835106  0.921499  1
  Al  Al16  1  0.835707  0.164222  0.079253  1
  Al  Al17  1  0.163543  0.834355  0.922478  1
  Al  Al18  1  0.125188  0.565067  0.750000  1
  Al  Al19  1  0.564087  0.435311  0.250000  1
  Al  Al20  1  0.438802  0.565926  0.750000  1
  Al  Al21  1  0.999628  0.999596  0.250000  1
  Al  Al22  1  0.000014  0.000903  0.750000  1
  Si  Si23  1  0.333213  0.664354  0.040181  1
  Si  Si24  1  0.666501  0.335566  0.959089  1
  Si  Si25  1  0.666501  0.335566  0.540911  1
  Si  Si26  1  0.333213  0.664354  0.459819  1
  Si  Si27  1  0.564341  0.124123  0.250000  1
  Si  Si28  1  0.436710  0.873567  0.750000  1
  Si  Si29  1  0.875311  0.435168  0.250000  1
  Os  Os30  1  0.500908  0.000900  0.001022  1
  Os  Os31  1  0.998767  0.499376  0.006773  1
  Os  Os32  1  0.500908  0.000900  0.498978  1
  Os  Os33  1  0.500440  0.500078  0.000533  1
  Os  Os34  1  0.998767  0.499376  0.493227  1
  Os  Os35  1  0.500440  0.500078  0.499467  1
  Os  Os36  1  0.000659  0.000361  0.000200  1
  Os  Os37  1  0.000659  0.000361  0.499800  1
