# generated using pymatgen
data_La5Mg(P2Ru3)6
_symmetry_space_group_name_H-M   'P 1'
_cell_length_a   12.80785553
_cell_length_b   12.66080803
_cell_length_c   4.04018600
_cell_angle_alpha   90.00000000
_cell_angle_beta   90.00000000
_cell_angle_gamma   119.62093641
_symmetry_Int_Tables_number   1
_chemical_formula_structural   La5Mg(P2Ru3)6
_chemical_formula_sum   'La5 Mg1 P12 Ru18'
_cell_volume   569.52929430
_cell_formula_units_Z   1
loop_
 _symmetry_equiv_pos_site_id
 _symmetry_equiv_pos_as_xyz
  1  'x, y, z'
loop_
 _atom_site_type_symbol
 _atom_site_label
 _atom_site_symmetry_multiplicity
 _atom_site_fract_x
 _atom_site_fract_y
 _atom_site_fract_z
 _atom_site_occupancy
  La  La0  1  0.000000  0.179325  0.500000  1
  La  La1  1  0.816592  0.816313  0.500000  1
  La  La2  1  0.183408  0.999721  0.500000  1
  La  La3  1  0.660595  0.329315  0.000000  1
  La  La4  1  0.339405  0.668721  0.000000  1
  Mg  Mg5  1  0.000000  0.562378  0.000000  1
  P  P6  1  0.000000  0.807192  0.000000  1
  P  P7  1  0.187742  0.188123  0.000000  1
  P  P8  1  0.812258  0.000380  0.000000  1
  P  P9  1  0.692331  0.169982  0.500000  1
  P  P10  1  0.819219  0.521961  0.500000  1
  P  P11  1  0.472349  0.305440  0.500000  1
  P  P12  1  0.180781  0.702743  0.500000  1
  P  P13  1  0.527651  0.833090  0.500000  1
  P  P14  1  0.307669  0.477651  0.500000  1
  P  P15  1  0.000000  0.363655  0.000000  1
  P  P16  1  0.621399  0.622740  0.000000  1
  P  P17  1  0.378601  0.001341  0.000000  1
  Ru  Ru18  1  0.443778  0.444702  0.000000  1
  Ru  Ru19  1  0.556222  0.000924  0.000000  1
  Ru  Ru20  1  0.000000  0.712343  0.500000  1
  Ru  Ru21  1  0.284388  0.286132  0.500000  1
  Ru  Ru22  1  0.715612  0.001743  0.500000  1
  Ru  Ru23  1  0.803838  0.184538  0.000000  1
  Ru  Ru24  1  0.813626  0.618860  0.000000  1
  Ru  Ru25  1  0.375592  0.192105  0.000000  1
  Ru  Ru26  1  0.186374  0.805234  0.000000  1
  Ru  Ru27  1  0.624408  0.816513  0.000000  1
  Ru  Ru28  1  0.196162  0.380700  0.000000  1
  Ru  Ru29  1  0.876945  0.366763  0.500000  1
  Ru  Ru30  1  0.630088  0.510334  0.500000  1
  Ru  Ru31  1  0.491375  0.126569  0.500000  1
  Ru  Ru32  1  0.369912  0.880246  0.500000  1
  Ru  Ru33  1  0.508625  0.635194  0.500000  1
  Ru  Ru34  1  0.123055  0.489818  0.500000  1
  Ru  Ru35  1  0.000000  0.997211  0.000000  1
