# generated using pymatgen
data_Er3ZnIn3CuPd
_symmetry_space_group_name_H-M   'P 1'
_cell_length_a   7.62054200
_cell_length_b   7.62054203
_cell_length_c   3.85338300
_cell_angle_alpha   90.00000000
_cell_angle_beta   90.00000000
_cell_angle_gamma   119.99999986
_symmetry_Int_Tables_number   1
_chemical_formula_structural   Er3ZnIn3CuPd
_chemical_formula_sum   'Er3 Zn1 In3 Cu1 Pd1'
_cell_volume   193.79587701
_cell_formula_units_Z   1
loop_
 _symmetry_equiv_pos_site_id
 _symmetry_equiv_pos_as_xyz
  1  'x, y, z'
loop_
 _atom_site_type_symbol
 _atom_site_label
 _atom_site_symmetry_multiplicity
 _atom_site_fract_x
 _atom_site_fract_y
 _atom_site_fract_z
 _atom_site_occupancy
  Er  Er0  1  0.012304  0.600373  0.500000  1
  Er  Er1  1  0.399627  0.411931  0.500000  1
  Er  Er2  1  0.588069  0.987696  0.500000  1
  Zn  Zn3  1  0.666667  0.333333  0.000000  1
  In  In4  1  0.747584  0.745377  0.000000  1
  In  In5  1  0.997794  0.252416  0.000000  1
  In  In6  1  0.254623  0.002206  0.000000  1
  Cu  Cu7  1  0.000000  0.000000  0.500000  1
  Pd  Pd8  1  0.333333  0.666667  0.000000  1
