# generated using pymatgen
data_Tb5ScTcTe2
_symmetry_space_group_name_H-M   'P 1'
_cell_length_a   8.21703012
_cell_length_b   8.37540908
_cell_length_c   4.05717400
_cell_angle_alpha   90.00000000
_cell_angle_beta   90.00000000
_cell_angle_gamma   120.63967059
_symmetry_Int_Tables_number   1
_chemical_formula_structural   Tb5ScTcTe2
_chemical_formula_sum   'Tb5 Sc1 Tc1 Te2'
_cell_volume   240.23682363
_cell_formula_units_Z   1
loop_
 _symmetry_equiv_pos_site_id
 _symmetry_equiv_pos_as_xyz
  1  'x, y, z'
loop_
 _atom_site_type_symbol
 _atom_site_label
 _atom_site_symmetry_multiplicity
 _atom_site_fract_x
 _atom_site_fract_y
 _atom_site_fract_z
 _atom_site_occupancy
  Tb  Tb0  1  0.000000  0.411426  0.500000  1
  Tb  Tb1  1  0.612474  0.610759  0.500000  1
  Tb  Tb2  1  0.387526  0.998285  0.500000  1
  Tb  Tb3  1  0.232660  0.236881  0.000000  1
  Tb  Tb4  1  0.767340  0.004221  0.000000  1
  Sc  Sc5  1  0.000000  0.762716  0.000000  1
  Tc  Tc6  1  0.000000  0.968268  0.500000  1
  Te  Te7  1  0.329066  0.668256  0.000000  1
  Te  Te8  1  0.670934  0.339189  0.000000  1
