# generated using pymatgen
data_Ta8Fe3Co4Si14Rh
_symmetry_space_group_name_H-M   'P 1'
_cell_length_a   9.24130594
_cell_length_b   9.25369465
_cell_length_c   9.21994620
_cell_angle_alpha   94.30692027
_cell_angle_beta   94.23393263
_cell_angle_gamma   148.37629885
_symmetry_Int_Tables_number   1
_chemical_formula_structural   Ta8Fe3Co4Si14Rh
_chemical_formula_sum   'Ta8 Fe3 Co4 Si14 Rh1'
_cell_volume   397.67967408
_cell_formula_units_Z   1
loop_
 _symmetry_equiv_pos_site_id
 _symmetry_equiv_pos_as_xyz
  1  'x, y, z'
loop_
 _atom_site_type_symbol
 _atom_site_label
 _atom_site_symmetry_multiplicity
 _atom_site_fract_x
 _atom_site_fract_y
 _atom_site_fract_z
 _atom_site_occupancy
  Ta  Ta0  1  0.310667  0.498786  0.809785  1
  Ta  Ta1  1  0.691110  0.501717  0.191487  1
  Ta  Ta2  1  0.500403  0.689788  0.191496  1
  Ta  Ta3  1  0.499126  0.311004  0.809774  1
  Ta  Ta4  1  0.134185  0.134183  0.268388  1
  Ta  Ta5  1  0.866056  0.866055  0.732081  1
  Ta  Ta6  1  0.134006  0.868243  0.001898  1
  Ta  Ta7  1  0.867923  0.133688  0.001905  1
  Fe  Fe8  1  0.104307  0.604323  0.208622  1
  Fe  Fe9  1  0.899319  0.095524  0.496781  1
  Fe  Fe10  1  0.597359  0.401136  0.496785  1
  Co  Co11  1  0.597845  0.097835  0.195627  1
  Co  Co12  1  0.900731  0.400718  0.801480  1
  Co  Co13  1  0.103159  0.899825  0.501965  1
  Co  Co14  1  0.398731  0.602085  0.501972  1
  Si  Si15  1  0.291095  0.291095  0.582183  1
  Si  Si16  1  0.708304  0.708292  0.416681  1
  Si  Si17  1  0.282652  0.697130  0.004706  1
  Si  Si18  1  0.722082  0.307604  0.004704  1
  Si  Si19  1  0.064970  0.466602  0.587741  1
  Si  Si20  1  0.897791  0.493292  0.406417  1
  Si  Si21  1  0.508627  0.913143  0.406417  1
  Si  Si22  1  0.522765  0.121128  0.587743  1
  Si  Si23  1  0.249013  0.248839  0.000537  1
  Si  Si24  1  0.751541  0.751713  0.000532  1
  Si  Si25  1  0.300566  0.003582  0.297200  1
  Si  Si26  1  0.718979  0.009519  0.702263  1
  Si  Si27  1  0.983258  0.692719  0.702237  1
  Si  Si28  1  0.996648  0.293635  0.297202  1
  Rh  Rh29  1  0.396783  0.896792  0.793390  1
