# generated using pymatgen
data_Sm7Ho(SiI6)2
_symmetry_space_group_name_H-M   'P 1'
_cell_length_a   4.27440700
_cell_length_b   14.27602193
_cell_length_c   15.06661003
_cell_angle_alpha   89.78284802
_cell_angle_beta   90.00000000
_cell_angle_gamma   90.00000000
_symmetry_Int_Tables_number   1
_chemical_formula_structural   Sm7Ho(SiI6)2
_chemical_formula_sum   'Sm7 Ho1 Si2 I12'
_cell_volume   919.38096350
_cell_formula_units_Z   1
loop_
 _symmetry_equiv_pos_site_id
 _symmetry_equiv_pos_as_xyz
  1  'x, y, z'
loop_
 _atom_site_type_symbol
 _atom_site_label
 _atom_site_symmetry_multiplicity
 _atom_site_fract_x
 _atom_site_fract_y
 _atom_site_fract_z
 _atom_site_occupancy
  Sm  Sm0  1  0.500000  0.115130  0.346349  1
  Sm  Sm1  1  0.500000  0.885406  0.653133  1
  Sm  Sm2  1  0.500000  0.613446  0.152839  1
  Sm  Sm3  1  0.500000  0.385251  0.847960  1
  Sm  Sm4  1  0.000000  0.112812  0.575198  1
  Sm  Sm5  1  0.000000  0.887337  0.424415  1
  Sm  Sm6  1  0.000000  0.611114  0.925615  1
  Ho  Ho7  1  0.000000  0.389585  0.073670  1
  Si  Si8  1  0.500000  0.000236  0.499607  1
  Si  Si9  1  0.500000  0.497713  0.001478  1
  I  I10  1  0.500000  0.250987  0.159648  1
  I  I11  1  0.500000  0.754375  0.838458  1
  I  I12  1  0.500000  0.744173  0.337966  1
  I  I13  1  0.500000  0.255068  0.662561  1
  I  I14  1  0.000000  0.259429  0.413641  1
  I  I15  1  0.000000  0.740881  0.586090  1
  I  I16  1  0.000000  0.758353  0.085760  1
  I  I17  1  0.000000  0.242185  0.918617  1
  I  I18  1  0.000000  0.999674  0.239558  1
  I  I19  1  0.000000  0.001149  0.759830  1
  I  I20  1  0.000000  0.494584  0.256687  1
  I  I21  1  0.000000  0.501109  0.740918  1
