# generated using pymatgen
data_CaAc3Cu8
_symmetry_space_group_name_H-M   'P 1'
_cell_length_a   4.13697000
_cell_length_b   4.13697000
_cell_length_c   15.52676000
_cell_angle_alpha   90.00000000
_cell_angle_beta   90.00000000
_cell_angle_gamma   90.00000000
_symmetry_Int_Tables_number   1
_chemical_formula_structural   CaAc3Cu8
_chemical_formula_sum   'Ca1 Ac3 Cu8'
_cell_volume   265.73305668
_cell_formula_units_Z   1
loop_
 _symmetry_equiv_pos_site_id
 _symmetry_equiv_pos_as_xyz
  1  'x, y, z'
loop_
 _atom_site_type_symbol
 _atom_site_label
 _atom_site_symmetry_multiplicity
 _atom_site_fract_x
 _atom_site_fract_y
 _atom_site_fract_z
 _atom_site_occupancy
  Ca  Ca0  1  0.500000  0.500000  0.000000  1
  Ac  Ac1  1  0.000000  0.000000  0.500000  1
  Ac  Ac2  1  0.500000  0.000000  0.755202  1
  Ac  Ac3  1  0.000000  0.500000  0.244798  1
  Cu  Cu4  1  0.000000  0.000000  0.921750  1
  Cu  Cu5  1  0.500000  0.500000  0.417347  1
  Cu  Cu6  1  0.000000  0.500000  0.836738  1
  Cu  Cu7  1  0.500000  0.000000  0.328307  1
  Cu  Cu8  1  0.000000  0.000000  0.078250  1
  Cu  Cu9  1  0.500000  0.500000  0.582653  1
  Cu  Cu10  1  0.500000  0.000000  0.163262  1
  Cu  Cu11  1  0.000000  0.500000  0.671693  1
