# generated using pymatgen
data_HoFe2Co2P3W
_symmetry_space_group_name_H-M   'P 1'
_cell_length_a   3.70290900
_cell_length_b   10.37279700
_cell_length_c   11.93688900
_cell_angle_alpha   90.00000000
_cell_angle_beta   90.00000000
_cell_angle_gamma   90.00000000
_symmetry_Int_Tables_number   1
_chemical_formula_structural   HoFe2Co2P3W
_chemical_formula_sum   'Ho4 Fe8 Co8 P12 W4'
_cell_volume   458.49021697
_cell_formula_units_Z   4
loop_
 _symmetry_equiv_pos_site_id
 _symmetry_equiv_pos_as_xyz
  1  'x, y, z'
loop_
 _atom_site_type_symbol
 _atom_site_label
 _atom_site_symmetry_multiplicity
 _atom_site_fract_x
 _atom_site_fract_y
 _atom_site_fract_z
 _atom_site_occupancy
  Ho  Ho0  1  0.250000  0.580355  0.705690  1
  Ho  Ho1  1  0.250000  0.919645  0.205690  1
  Ho  Ho2  1  0.750000  0.419645  0.294310  1
  Ho  Ho3  1  0.750000  0.080355  0.794310  1
  Fe  Fe4  1  0.250000  0.881218  0.701389  1
  Fe  Fe5  1  0.250000  0.618782  0.201389  1
  Fe  Fe6  1  0.750000  0.118782  0.298611  1
  Fe  Fe7  1  0.750000  0.381218  0.798611  1
  Fe  Fe8  1  0.250000  0.463337  0.934685  1
  Fe  Fe9  1  0.250000  0.036663  0.434685  1
  Fe  Fe10  1  0.750000  0.536663  0.065315  1
  Fe  Fe11  1  0.750000  0.963337  0.565315  1
  Co  Co12  1  0.250000  0.405920  0.487451  1
  Co  Co13  1  0.250000  0.094080  0.987451  1
  Co  Co14  1  0.750000  0.594080  0.512549  1
  Co  Co15  1  0.750000  0.905920  0.012549  1
  Co  Co16  1  0.250000  0.222803  0.174003  1
  Co  Co17  1  0.250000  0.277197  0.674003  1
  Co  Co18  1  0.750000  0.777197  0.825997  1
  Co  Co19  1  0.750000  0.722803  0.325997  1
  P  P20  1  0.250000  0.425459  0.115776  1
  P  P21  1  0.250000  0.074541  0.615776  1
  P  P22  1  0.750000  0.574541  0.884224  1
  P  P23  1  0.750000  0.925459  0.384224  1
  P  P24  1  0.250000  0.269524  0.860437  1
  P  P25  1  0.250000  0.230476  0.360437  1
  P  P26  1  0.750000  0.730476  0.139563  1
  P  P27  1  0.750000  0.769524  0.639563  1
  P  P28  1  0.250000  0.595037  0.389898  1
  P  P29  1  0.250000  0.904963  0.889898  1
  P  P30  1  0.750000  0.404963  0.610102  1
  P  P31  1  0.750000  0.095037  0.110102  1
  W  W32  1  0.250000  0.702874  0.991058  1
  W  W33  1  0.250000  0.797126  0.491058  1
  W  W34  1  0.750000  0.297126  0.008942  1
  W  W35  1  0.750000  0.202874  0.508942  1
