# generated using pymatgen
data_Nd2Ho2Ir3RhO14
_symmetry_space_group_name_H-M   'P 1'
_cell_length_a   7.31181261
_cell_length_b   7.26722486
_cell_length_c   7.31181308
_cell_angle_alpha   60.18050254
_cell_angle_beta   60.42815847
_cell_angle_gamma   60.18050312
_symmetry_Int_Tables_number   1
_chemical_formula_structural   Nd2Ho2Ir3RhO14
_chemical_formula_sum   'Nd2 Ho2 Ir3 Rh1 O14'
_cell_volume   276.36086273
_cell_formula_units_Z   1
loop_
 _symmetry_equiv_pos_site_id
 _symmetry_equiv_pos_as_xyz
  1  'x, y, z'
loop_
 _atom_site_type_symbol
 _atom_site_label
 _atom_site_symmetry_multiplicity
 _atom_site_fract_x
 _atom_site_fract_y
 _atom_site_fract_z
 _atom_site_occupancy
  Nd  Nd0  1  0.625000  0.125000  0.125000  1
  Nd  Nd1  1  0.125000  0.125000  0.625000  1
  Ho  Ho2  1  0.125000  0.625000  0.125000  1
  Ho  Ho3  1  0.125000  0.125000  0.125000  1
  Ir  Ir4  1  0.125000  0.625000  0.625000  1
  Ir  Ir5  1  0.625000  0.125000  0.625000  1
  Ir  Ir6  1  0.625000  0.625000  0.125000  1
  Rh  Rh7  1  0.625000  0.625000  0.625000  1
  O  O8  1  0.719840  0.703378  0.285225  1
  O  O9  1  0.291188  0.291778  0.719764  1
  O  O10  1  0.711424  0.285436  0.711424  1
  O  O11  1  0.291740  0.711241  0.291740  1
  O  O12  1  0.285225  0.703378  0.719840  1
  O  O13  1  0.719764  0.291778  0.291188  1
  O  O14  1  0.530160  0.546622  0.964775  1
  O  O15  1  0.958812  0.958222  0.530236  1
  O  O16  1  0.538576  0.964564  0.538576  1
  O  O17  1  0.958260  0.538759  0.958260  1
  O  O18  1  0.964775  0.546622  0.530160  1
  O  O19  1  0.530236  0.958222  0.958812  1
  O  O20  1  0.241694  0.256870  0.241694  1
  O  O21  1  0.008306  0.993130  0.008306  1
