# generated using pymatgen
data_ScNb4(Re11Tc)2
_symmetry_space_group_name_H-M   'P 1'
_cell_length_a   8.41992488
_cell_length_b   8.42521129
_cell_length_c   8.41992347
_cell_angle_alpha   109.49190709
_cell_angle_beta   109.43863094
_cell_angle_gamma   109.45768435
_symmetry_Int_Tables_number   1
_chemical_formula_structural   ScNb4(Re11Tc)2
_chemical_formula_sum   'Sc1 Nb4 Re22 Tc2'
_cell_volume   459.95090086
_cell_formula_units_Z   1
loop_
 _symmetry_equiv_pos_site_id
 _symmetry_equiv_pos_as_xyz
  1  'x, y, z'
loop_
 _atom_site_type_symbol
 _atom_site_label
 _atom_site_symmetry_multiplicity
 _atom_site_fract_x
 _atom_site_fract_y
 _atom_site_fract_z
 _atom_site_occupancy
  Sc  Sc0  1  0.999992  0.000000  0.999992  1
  Nb  Nb1  1  0.368478  0.369003  0.369424  1
  Nb  Nb2  1  0.000421  0.630997  0.999475  1
  Nb  Nb3  1  0.631425  0.999582  0.999952  1
  Nb  Nb4  1  0.000370  0.000418  0.631844  1
  Re  Re5  1  0.718301  0.318281  0.317966  1
  Re  Re6  1  0.317820  0.717658  0.318358  1
  Re  Re7  1  0.681414  0.000210  0.399798  1
  Re  Re8  1  0.999685  0.681719  0.400021  1
  Re  Re9  1  0.599536  0.600066  0.281736  1
  Re  Re10  1  0.805682  0.805679  0.182041  1
  Re  Re11  1  0.376362  0.194321  0.000004  1
  Re  Re12  1  0.194388  0.376019  0.999793  1
  Re  Re13  1  0.623588  0.818302  0.624003  1
  Re  Re14  1  0.376213  0.999885  0.194295  1
  Re  Re15  1  0.999799  0.376065  0.195178  1
  Re  Re16  1  0.819113  0.623935  0.623734  1
  Re  Re17  1  0.182895  0.805255  0.805068  1
  Re  Re18  1  0.805701  0.181698  0.805287  1
  Re  Re19  1  0.194410  0.000115  0.376328  1
  Re  Re20  1  0.999813  0.194745  0.377639  1
  Re  Re21  1  0.623774  0.623981  0.818368  1
  Re  Re22  1  0.399587  0.999790  0.681204  1
  Re  Re23  1  0.600700  0.282342  0.600161  1
  Re  Re24  1  0.681669  0.399934  0.999470  1
  Re  Re25  1  0.398615  0.680514  0.998525  1
  Re  Re26  1  0.318010  0.319486  0.718100  1
  Tc  Tc27  1  0.999755  0.400043  0.682525  1
  Tc  Tc28  1  0.282483  0.599957  0.599712  1
