# generated using pymatgen
data_Y4Tm8Tc3Os
_symmetry_space_group_name_H-M   'P 1'
_cell_length_a   7.45397796
_cell_length_b   8.95277700
_cell_length_c   6.22723012
_cell_angle_alpha   90.00000000
_cell_angle_beta   89.92264702
_cell_angle_gamma   90.00000000
_symmetry_Int_Tables_number   1
_chemical_formula_structural   Y4Tm8Tc3Os
_chemical_formula_sum   'Y4 Tm8 Tc3 Os1'
_cell_volume   415.56636604
_cell_formula_units_Z   1
loop_
 _symmetry_equiv_pos_site_id
 _symmetry_equiv_pos_as_xyz
  1  'x, y, z'
loop_
 _atom_site_type_symbol
 _atom_site_label
 _atom_site_symmetry_multiplicity
 _atom_site_fract_x
 _atom_site_fract_y
 _atom_site_fract_z
 _atom_site_occupancy
  Y  Y0  1  0.041513  0.250000  0.625651  1
  Y  Y1  1  0.959842  0.750000  0.377736  1
  Y  Y2  1  0.462003  0.750000  0.123557  1
  Y  Y3  1  0.538318  0.250000  0.876838  1
  Tm  Tm4  1  0.172756  0.062684  0.157373  1
  Tm  Tm5  1  0.826148  0.938566  0.842105  1
  Tm  Tm6  1  0.324967  0.937366  0.654743  1
  Tm  Tm7  1  0.826148  0.561434  0.842105  1
  Tm  Tm8  1  0.676254  0.063204  0.342881  1
  Tm  Tm9  1  0.172756  0.437316  0.157373  1
  Tm  Tm10  1  0.676254  0.436796  0.342881  1
  Tm  Tm11  1  0.324967  0.562634  0.654743  1
  Tc  Tc12  1  0.383346  0.250000  0.452238  1
  Tc  Tc13  1  0.616942  0.750000  0.549310  1
  Tc  Tc14  1  0.115870  0.750000  0.954795  1
  Os  Os15  1  0.881916  0.250000  0.045672  1
