# generated using pymatgen
data_Tb2Er3Si3Ir
_symmetry_space_group_name_H-M   'P 1'
_cell_length_a   7.14365700
_cell_length_b   7.91546400
_cell_length_c   14.56113200
_cell_angle_alpha   90.00000000
_cell_angle_beta   90.00000000
_cell_angle_gamma   90.00000000
_symmetry_Int_Tables_number   1
_chemical_formula_structural   Tb2Er3Si3Ir
_chemical_formula_sum   'Tb8 Er12 Si12 Ir4'
_cell_volume   823.36444821
_cell_formula_units_Z   4
loop_
 _symmetry_equiv_pos_site_id
 _symmetry_equiv_pos_as_xyz
  1  'x, y, z'
loop_
 _atom_site_type_symbol
 _atom_site_label
 _atom_site_symmetry_multiplicity
 _atom_site_fract_x
 _atom_site_fract_y
 _atom_site_fract_z
 _atom_site_occupancy
  Tb  Tb0  1  0.512475  0.682917  0.593756  1
  Tb  Tb1  1  0.012475  0.817083  0.906244  1
  Tb  Tb2  1  0.487525  0.317083  0.093756  1
  Tb  Tb3  1  0.987525  0.182917  0.406244  1
  Tb  Tb4  1  0.487525  0.317083  0.406244  1
  Tb  Tb5  1  0.987525  0.182917  0.093756  1
  Tb  Tb6  1  0.512475  0.682917  0.906244  1
  Tb  Tb7  1  0.012475  0.817083  0.593756  1
  Er  Er8  1  0.689780  0.174081  0.627795  1
  Er  Er9  1  0.189780  0.325919  0.872205  1
  Er  Er10  1  0.310220  0.825919  0.127795  1
  Er  Er11  1  0.810220  0.674081  0.372205  1
  Er  Er12  1  0.310220  0.825919  0.372205  1
  Er  Er13  1  0.810220  0.674081  0.127795  1
  Er  Er14  1  0.689780  0.174081  0.872205  1
  Er  Er15  1  0.189780  0.325919  0.627795  1
  Er  Er16  1  0.835094  0.511535  0.750000  1
  Er  Er17  1  0.335094  0.988465  0.750000  1
  Er  Er18  1  0.164906  0.488465  0.250000  1
  Er  Er19  1  0.664906  0.011535  0.250000  1
  Si  Si20  1  0.652355  0.971417  0.461644  1
  Si  Si21  1  0.152355  0.528583  0.038356  1
  Si  Si22  1  0.347645  0.028583  0.961644  1
  Si  Si23  1  0.847645  0.471417  0.538356  1
  Si  Si24  1  0.347645  0.028583  0.538356  1
  Si  Si25  1  0.847645  0.471417  0.961644  1
  Si  Si26  1  0.652355  0.971417  0.038356  1
  Si  Si27  1  0.152355  0.528583  0.461644  1
  Si  Si28  1  0.735689  0.865069  0.750000  1
  Si  Si29  1  0.235689  0.634931  0.750000  1
  Si  Si30  1  0.264311  0.134931  0.250000  1
  Si  Si31  1  0.764311  0.365069  0.250000  1
  Ir  Ir32  1  0.482182  0.404591  0.750000  1
  Ir  Ir33  1  0.982182  0.095409  0.750000  1
  Ir  Ir34  1  0.517818  0.595409  0.250000  1
  Ir  Ir35  1  0.017818  0.904591  0.250000  1
