# generated using pymatgen
data_YTm2CoSn3Ir2
_symmetry_space_group_name_H-M   'P 1'
_cell_length_a   7.63078386
_cell_length_b   7.60297979
_cell_length_c   3.64221300
_cell_angle_alpha   90.00000000
_cell_angle_beta   90.00000000
_cell_angle_gamma   119.87955060
_symmetry_Int_Tables_number   1
_chemical_formula_structural   YTm2CoSn3Ir2
_chemical_formula_sum   'Y1 Tm2 Co1 Sn3 Ir2'
_cell_volume   183.22080936
_cell_formula_units_Z   1
loop_
 _symmetry_equiv_pos_site_id
 _symmetry_equiv_pos_as_xyz
  1  'x, y, z'
loop_
 _atom_site_type_symbol
 _atom_site_label
 _atom_site_symmetry_multiplicity
 _atom_site_fract_x
 _atom_site_fract_y
 _atom_site_fract_z
 _atom_site_occupancy
  Y  Y0  1  0.000000  0.403699  0.500000  1
  Tm  Tm1  1  0.595941  0.595940  0.500000  1
  Tm  Tm2  1  0.404059  0.999999  0.500000  1
  Co  Co3  1  0.000000  0.999102  0.500000  1
  Sn  Sn4  1  0.000000  0.743931  0.000000  1
  Sn  Sn5  1  0.258247  0.256617  0.000000  1
  Sn  Sn6  1  0.741753  0.998370  0.000000  1
  Ir  Ir7  1  0.337383  0.669864  0.000000  1
  Ir  Ir8  1  0.662617  0.332480  0.000000  1
