# generated using pymatgen
data_CdFeSnO4
_symmetry_space_group_name_H-M   'P 1'
_cell_length_a   6.32796400
_cell_length_b   6.49226800
_cell_length_c   9.23942400
_cell_angle_alpha   90.00000883
_cell_angle_beta   90.00000000
_cell_angle_gamma   90.00000000
_symmetry_Int_Tables_number   1
_chemical_formula_structural   CdFeSnO4
_chemical_formula_sum   'Cd4 Fe4 Sn4 O16'
_cell_volume   379.58176109
_cell_formula_units_Z   4
loop_
 _symmetry_equiv_pos_site_id
 _symmetry_equiv_pos_as_xyz
  1  'x, y, z'
loop_
 _atom_site_type_symbol
 _atom_site_label
 _atom_site_symmetry_multiplicity
 _atom_site_fract_x
 _atom_site_fract_y
 _atom_site_fract_z
 _atom_site_occupancy
  Cd  Cd0  1  0.000000  0.250000  0.140978  1
  Cd  Cd1  1  0.500000  0.750000  0.640978  1
  Cd  Cd2  1  0.000000  0.750000  0.859022  1
  Cd  Cd3  1  0.500000  0.250000  0.359022  1
  Fe  Fe4  1  0.750000  0.250000  0.750000  1
  Fe  Fe5  1  0.250000  0.250000  0.750000  1
  Fe  Fe6  1  0.250000  0.750000  0.250000  1
  Fe  Fe7  1  0.750000  0.750000  0.250000  1
  Sn  Sn8  1  0.000000  0.500000  0.500000  1
  Sn  Sn9  1  0.500000  0.000000  0.000000  1
  Sn  Sn10  1  0.000000  0.000000  0.500000  1
  Sn  Sn11  1  0.500000  0.500000  0.000000  1
  O  O12  1  0.000000  0.528150  0.276631  1
  O  O13  1  0.500000  0.028150  0.776631  1
  O  O14  1  0.000000  0.971851  0.276631  1
  O  O15  1  0.500000  0.471851  0.776631  1
  O  O16  1  0.000000  0.028149  0.723369  1
  O  O17  1  0.500000  0.528149  0.223369  1
  O  O18  1  0.000000  0.471850  0.723369  1
  O  O19  1  0.500000  0.971850  0.223369  1
  O  O20  1  0.220437  0.750000  0.494002  1
  O  O21  1  0.720437  0.250000  0.994002  1
  O  O22  1  0.779563  0.750000  0.494002  1
  O  O23  1  0.279563  0.250000  0.994002  1
  O  O24  1  0.779563  0.250000  0.505998  1
  O  O25  1  0.279563  0.750000  0.005998  1
  O  O26  1  0.220437  0.250000  0.505998  1
  O  O27  1  0.720437  0.750000  0.005998  1
