# generated using pymatgen
data_Ho3TmGa18(Ir2Pt)2
_symmetry_space_group_name_H-M   'P 1'
_cell_length_a   7.60809816
_cell_length_b   7.60804148
_cell_length_c   9.44962200
_cell_angle_alpha   90.00000000
_cell_angle_beta   90.00000000
_cell_angle_gamma   119.93291599
_symmetry_Int_Tables_number   1
_chemical_formula_structural   Ho3TmGa18(Ir2Pt)2
_chemical_formula_sum   'Ho3 Tm1 Ga18 Ir4 Pt2'
_cell_volume   474.00969652
_cell_formula_units_Z   1
loop_
 _symmetry_equiv_pos_site_id
 _symmetry_equiv_pos_as_xyz
  1  'x, y, z'
loop_
 _atom_site_type_symbol
 _atom_site_label
 _atom_site_symmetry_multiplicity
 _atom_site_fract_x
 _atom_site_fract_y
 _atom_site_fract_z
 _atom_site_occupancy
  Ho  Ho0  1  0.003322  0.330491  0.750000  1
  Ho  Ho1  1  0.669537  0.996710  0.250000  1
  Ho  Ho2  1  0.330451  0.003292  0.750000  1
  Tm  Tm3  1  0.996700  0.669510  0.250000  1
  Ga  Ga4  1  0.131339  0.131194  0.250000  1
  Ga  Ga5  1  0.868574  0.868546  0.750000  1
  Ga  Ga6  1  0.998139  0.337871  0.082105  1
  Ga  Ga7  1  0.001864  0.662454  0.918290  1
  Ga  Ga8  1  0.001864  0.662454  0.581710  1
  Ga  Ga9  1  0.337227  0.997824  0.417912  1
  Ga  Ga10  1  0.998139  0.337871  0.417895  1
  Ga  Ga11  1  0.662446  0.001859  0.581903  1
  Ga  Ga12  1  0.662446  0.001859  0.918097  1
  Ga  Ga13  1  0.337227  0.997824  0.082088  1
  Ga  Ga14  1  0.335301  0.335300  0.568745  1
  Ga  Ga15  1  0.664988  0.664703  0.431053  1
  Ga  Ga16  1  0.664988  0.664703  0.068947  1
  Ga  Ga17  1  0.335301  0.335300  0.931255  1
  Ga  Ga18  1  0.337252  0.546617  0.250000  1
  Ga  Ga19  1  0.662646  0.453454  0.750000  1
  Ga  Ga20  1  0.546833  0.337559  0.250000  1
  Ga  Ga21  1  0.453446  0.662634  0.750000  1
  Ir  Ir22  1  0.671381  0.328760  0.000095  1
  Ir  Ir23  1  0.328619  0.671302  0.000092  1
  Ir  Ir24  1  0.328619  0.671302  0.499908  1
  Ir  Ir25  1  0.671381  0.328760  0.499905  1
  Pt  Pt26  1  0.999986  0.999924  0.000067  1
  Pt  Pt27  1  0.999986  0.999924  0.499933  1
