# generated using pymatgen
data_Dy4ErAlSb2
_symmetry_space_group_name_H-M   'P 1'
_cell_length_a   8.88612620
_cell_length_b   8.88974981
_cell_length_c   6.39912202
_cell_angle_alpha   89.99180505
_cell_angle_beta   90.00410005
_cell_angle_gamma   120.01348347
_symmetry_Int_Tables_number   1
_chemical_formula_structural   Dy4ErAlSb2
_chemical_formula_sum   'Dy8 Er2 Al2 Sb4'
_cell_volume   437.71760126
_cell_formula_units_Z   2
loop_
 _symmetry_equiv_pos_site_id
 _symmetry_equiv_pos_as_xyz
  1  'x, y, z'
loop_
 _atom_site_type_symbol
 _atom_site_label
 _atom_site_symmetry_multiplicity
 _atom_site_fract_x
 _atom_site_fract_y
 _atom_site_fract_z
 _atom_site_occupancy
  Dy  Dy0  1  0.008636  0.766004  0.750043  1
  Dy  Dy1  1  0.008636  0.242632  0.249957  1
  Dy  Dy2  1  0.755420  0.756509  0.250030  1
  Dy  Dy3  1  0.755420  0.998912  0.749970  1
  Dy  Dy4  1  0.241695  0.232366  0.749971  1
  Dy  Dy5  1  0.241695  0.009330  0.250029  1
  Dy  Dy6  1  0.335803  0.667902  0.500000  1
  Dy  Dy7  1  0.655917  0.327958  0.000000  1
  Er  Er8  1  0.655796  0.327897  0.500000  1
  Er  Er9  1  0.335844  0.667923  0.000000  1
  Al  Al10  1  0.398026  0.997183  0.749970  1
  Al  Al11  1  0.398026  0.400843  0.250030  1
  Sb  Sb12  1  0.998649  0.606348  0.249947  1
  Sb  Sb13  1  0.998649  0.392301  0.750053  1
  Sb  Sb14  1  0.605894  0.604936  0.749971  1
  Sb  Sb15  1  0.605894  0.000958  0.250029  1
