# generated using pymatgen
data_YHoLu6(WO6)4
_symmetry_space_group_name_H-M   'P 1'
_cell_length_a   5.32370700
_cell_length_b   7.60495390
_cell_length_c   11.33641816
_cell_angle_alpha   75.20939580
_cell_angle_beta   90.00000000
_cell_angle_gamma   90.00000000
_symmetry_Int_Tables_number   1
_chemical_formula_structural   YHoLu6(WO6)4
_chemical_formula_sum   'Y1 Ho1 Lu6 W4 O24'
_cell_volume   443.76449006
_cell_formula_units_Z   1
loop_
 _symmetry_equiv_pos_site_id
 _symmetry_equiv_pos_as_xyz
  1  'x, y, z'
loop_
 _atom_site_type_symbol
 _atom_site_label
 _atom_site_symmetry_multiplicity
 _atom_site_fract_x
 _atom_site_fract_y
 _atom_site_fract_z
 _atom_site_occupancy
  Y  Y0  1  0.685051  0.500000  0.750000  1
  Ho  Ho1  1  0.315079  0.500000  0.250000  1
  Lu  Lu2  1  0.739922  0.000000  0.750000  1
  Lu  Lu3  1  0.260572  0.000000  0.250000  1
  Lu  Lu4  1  0.186382  0.797605  0.578341  1
  Lu  Lu5  1  0.813842  0.797179  0.078739  1
  Lu  Lu6  1  0.186382  0.202395  0.921659  1
  Lu  Lu7  1  0.813842  0.202821  0.421261  1
  W  W8  1  0.254377  0.724519  0.886247  1
  W  W9  1  0.745582  0.724204  0.385674  1
  W  W10  1  0.254377  0.275481  0.613753  1
  W  W11  1  0.745582  0.275796  0.114326  1
  O  O12  1  0.037859  0.942591  0.895676  1
  O  O13  1  0.536315  0.849573  0.931335  1
  O  O14  1  0.961981  0.942901  0.395064  1
  O  O15  1  0.460321  0.794061  0.725711  1
  O  O16  1  0.464259  0.849742  0.431162  1
  O  O17  1  0.982003  0.714698  0.769102  1
  O  O18  1  0.538983  0.793242  0.225607  1
  O  O19  1  0.856903  0.636183  0.549487  1
  O  O20  1  0.357553  0.486821  0.888018  1
  O  O21  1  0.019007  0.713191  0.269329  1
  O  O22  1  0.357553  0.513179  0.611982  1
  O  O23  1  0.856903  0.363817  0.950513  1
  O  O24  1  0.143953  0.636253  0.050407  1
  O  O25  1  0.640367  0.486903  0.387292  1
  O  O26  1  0.982003  0.285302  0.730898  1
  O  O27  1  0.640367  0.513097  0.112708  1
  O  O28  1  0.143953  0.363747  0.449593  1
  O  O29  1  0.460321  0.205939  0.774289  1
  O  O30  1  0.019007  0.286809  0.230671  1
  O  O31  1  0.536315  0.150427  0.568665  1
  O  O32  1  0.538983  0.206758  0.274393  1
  O  O33  1  0.037859  0.057409  0.604324  1
  O  O34  1  0.464259  0.150258  0.068838  1
  O  O35  1  0.961981  0.057099  0.104936  1
