# generated using pymatgen
data_Ti12Zn8Cu4C3O
_symmetry_space_group_name_H-M   'P 1'
_cell_length_a   8.12590382
_cell_length_b   8.12590398
_cell_length_c   8.10497851
_cell_angle_alpha   59.91455441
_cell_angle_beta   59.91456455
_cell_angle_gamma   60.00000008
_symmetry_Int_Tables_number   1
_chemical_formula_structural   Ti12Zn8Cu4C3O
_chemical_formula_sum   'Ti12 Zn8 Cu4 C3 O1'
_cell_volume   377.93591393
_cell_formula_units_Z   1
loop_
 _symmetry_equiv_pos_site_id
 _symmetry_equiv_pos_as_xyz
  1  'x, y, z'
loop_
 _atom_site_type_symbol
 _atom_site_label
 _atom_site_symmetry_multiplicity
 _atom_site_fract_x
 _atom_site_fract_y
 _atom_site_fract_z
 _atom_site_occupancy
  Ti  Ti0  1  0.934307  0.934307  0.566518  1
  Ti  Ti1  1  0.564868  0.934307  0.566518  1
  Ti  Ti2  1  0.934307  0.564868  0.566518  1
  Ti  Ti3  1  0.566871  0.566871  0.930647  1
  Ti  Ti4  1  0.935610  0.566871  0.930647  1
  Ti  Ti5  1  0.566871  0.935610  0.930647  1
  Ti  Ti6  1  0.315693  0.315693  0.683482  1
  Ti  Ti7  1  0.685132  0.315693  0.683482  1
  Ti  Ti8  1  0.315693  0.685132  0.683482  1
  Ti  Ti9  1  0.683129  0.683129  0.319353  1
  Ti  Ti10  1  0.314390  0.683129  0.319353  1
  Ti  Ti11  1  0.683129  0.314390  0.319353  1
  Zn  Zn12  1  0.334296  0.334296  0.997111  1
  Zn  Zn13  1  0.334297  0.998763  0.332641  1
  Zn  Zn14  1  0.998763  0.334297  0.332641  1
  Zn  Zn15  1  0.334297  0.334297  0.332641  1
  Zn  Zn16  1  0.915704  0.915704  0.252889  1
  Zn  Zn17  1  0.915703  0.251237  0.917359  1
  Zn  Zn18  1  0.251237  0.915703  0.917359  1
  Zn  Zn19  1  0.915703  0.915703  0.917359  1
  Cu  Cu20  1  0.125000  0.125000  0.625000  1
  Cu  Cu21  1  0.125000  0.625000  0.125000  1
  Cu  Cu22  1  0.625000  0.125000  0.125000  1
  Cu  Cu23  1  0.125000  0.125000  0.125000  1
  C  C24  1  0.625000  0.125000  0.625000  1
  C  C25  1  0.125000  0.625000  0.625000  1
  C  C26  1  0.625000  0.625000  0.625000  1
  O  O27  1  0.625000  0.625000  0.125000  1
