# generated using pymatgen
data_Ta4GeB2W
_symmetry_space_group_name_H-M   'P 1'
_cell_length_a   7.30840897
_cell_length_b   7.30840944
_cell_length_c   7.30840950
_cell_angle_alpha   129.60413896
_cell_angle_beta   129.60414382
_cell_angle_gamma   74.04040670
_symmetry_Int_Tables_number   1
_chemical_formula_structural   Ta4GeB2W
_chemical_formula_sum   'Ta8 Ge2 B4 W2'
_cell_volume   225.97693289
_cell_formula_units_Z   2
loop_
 _symmetry_equiv_pos_site_id
 _symmetry_equiv_pos_as_xyz
  1  'x, y, z'
loop_
 _atom_site_type_symbol
 _atom_site_label
 _atom_site_symmetry_multiplicity
 _atom_site_fract_x
 _atom_site_fract_y
 _atom_site_fract_z
 _atom_site_occupancy
  Ta  Ta0  1  0.528178  0.696734  0.500000  1
  Ta  Ta1  1  0.196734  0.028178  0.500000  1
  Ta  Ta2  1  0.028178  0.528178  0.831445  1
  Ta  Ta3  1  0.696734  0.196734  0.168555  1
  Ta  Ta4  1  0.471822  0.303266  0.500000  1
  Ta  Ta5  1  0.803266  0.971822  0.500000  1
  Ta  Ta6  1  0.971822  0.471822  0.168555  1
  Ta  Ta7  1  0.303266  0.803266  0.831445  1
  Ge  Ge8  1  0.250000  0.250000  0.000000  1
  Ge  Ge9  1  0.750000  0.750000  0.000000  1
  B  B10  1  0.878351  0.621649  0.500000  1
  B  B11  1  0.121649  0.378351  0.500000  1
  B  B12  1  0.378351  0.878351  0.256701  1
  B  B13  1  0.621649  0.121649  0.743299  1
  W  W14  1  0.500000  0.500000  0.000000  1
  W  W15  1  0.000000  0.000000  0.000000  1
