# generated using pymatgen
data_Tb8Zn2CoSi12Pt
_symmetry_space_group_name_H-M   'P 1'
_cell_length_a   8.08350600
_cell_length_b   8.08350466
_cell_length_c   8.19167100
_cell_angle_alpha   90.00000000
_cell_angle_beta   90.00000000
_cell_angle_gamma   120.00000548
_symmetry_Int_Tables_number   1
_chemical_formula_structural   Tb8Zn2CoSi12Pt
_chemical_formula_sum   'Tb8 Zn2 Co1 Si12 Pt1'
_cell_volume   463.55638481
_cell_formula_units_Z   1
loop_
 _symmetry_equiv_pos_site_id
 _symmetry_equiv_pos_as_xyz
  1  'x, y, z'
loop_
 _atom_site_type_symbol
 _atom_site_label
 _atom_site_symmetry_multiplicity
 _atom_site_fract_x
 _atom_site_fract_y
 _atom_site_fract_z
 _atom_site_occupancy
  Tb  Tb0  1  0.496956  0.993912  0.246154  1
  Tb  Tb1  1  0.496318  0.992637  0.753122  1
  Tb  Tb2  1  0.006088  0.503044  0.246154  1
  Tb  Tb3  1  0.007363  0.503682  0.753122  1
  Tb  Tb4  1  0.496956  0.503044  0.246154  1
  Tb  Tb5  1  0.496318  0.503682  0.753122  1
  Tb  Tb6  1  0.000000  0.000000  0.249387  1
  Tb  Tb7  1  0.000000  0.000000  0.751654  1
  Zn  Zn8  1  0.666667  0.333333  0.996377  1
  Zn  Zn9  1  0.666667  0.333333  0.499911  1
  Co  Co10  1  0.333333  0.666667  0.003238  1
  Si  Si11  1  0.175188  0.350377  0.998983  1
  Si  Si12  1  0.836781  0.673561  0.001393  1
  Si  Si13  1  0.649623  0.824812  0.998983  1
  Si  Si14  1  0.834740  0.669480  0.501544  1
  Si  Si15  1  0.326439  0.163219  0.001393  1
  Si  Si16  1  0.166373  0.332746  0.498769  1
  Si  Si17  1  0.175188  0.824812  0.998983  1
  Si  Si18  1  0.330520  0.165260  0.501544  1
  Si  Si19  1  0.836781  0.163219  0.001393  1
  Si  Si20  1  0.667254  0.833627  0.498769  1
  Si  Si21  1  0.834740  0.165260  0.501544  1
  Si  Si22  1  0.166373  0.833627  0.498769  1
  Pt  Pt23  1  0.333333  0.666667  0.499540  1
