# generated using pymatgen
data_Ho2Si5Ru3
_symmetry_space_group_name_H-M   'P 1'
_cell_length_a   8.24101976
_cell_length_b   8.24102025
_cell_length_c   8.24101927
_cell_angle_alpha   140.27170046
_cell_angle_beta   108.60485817
_cell_angle_gamma   84.94432285
_symmetry_Int_Tables_number   1
_chemical_formula_structural   Ho2Si5Ru3
_chemical_formula_sum   'Ho4 Si10 Ru6'
_cell_volume   327.40474238
_cell_formula_units_Z   2
loop_
 _symmetry_equiv_pos_site_id
 _symmetry_equiv_pos_as_xyz
  1  'x, y, z'
loop_
 _atom_site_type_symbol
 _atom_site_label
 _atom_site_symmetry_multiplicity
 _atom_site_fract_x
 _atom_site_fract_y
 _atom_site_fract_z
 _atom_site_occupancy
  Ho  Ho0  1  0.904188  0.136253  0.767935  1
  Ho  Ho1  1  0.095812  0.863747  0.232065  1
  Ho  Ho2  1  0.631681  0.363747  0.267935  1
  Ho  Ho3  1  0.368319  0.636253  0.732065  1
  Si  Si4  1  0.000000  0.750000  0.750000  1
  Si  Si5  1  0.000000  0.250000  0.250000  1
  Si  Si6  1  0.707113  0.457113  0.750000  1
  Si  Si7  1  0.292887  0.042887  0.750000  1
  Si  Si8  1  0.292887  0.542887  0.250000  1
  Si  Si9  1  0.707113  0.957113  0.250000  1
  Si  Si10  1  0.235115  0.404625  0.830490  1
  Si  Si11  1  0.574134  0.904625  0.669510  1
  Si  Si12  1  0.425866  0.095375  0.330490  1
  Si  Si13  1  0.764885  0.595375  0.169510  1
  Ru  Ru14  1  0.761162  0.853629  0.907534  1
  Ru  Ru15  1  0.500000  0.250000  0.750000  1
  Ru  Ru16  1  0.946095  0.353629  0.592466  1
  Ru  Ru17  1  0.053905  0.646371  0.407534  1
  Ru  Ru18  1  0.238838  0.146371  0.092466  1
  Ru  Ru19  1  0.500000  0.750000  0.250000  1
