# generated using pymatgen
data_Pr2Ga9PdRu2
_symmetry_space_group_name_H-M   'P 1'
_cell_length_a   7.64299426
_cell_length_b   7.64300183
_cell_length_c   9.80595100
_cell_angle_alpha   90.00000000
_cell_angle_beta   90.00000000
_cell_angle_gamma   119.47022138
_symmetry_Int_Tables_number   1
_chemical_formula_structural   Pr2Ga9PdRu2
_chemical_formula_sum   'Pr4 Ga18 Pd2 Ru4'
_cell_volume   498.70258524
_cell_formula_units_Z   2
loop_
 _symmetry_equiv_pos_site_id
 _symmetry_equiv_pos_as_xyz
  1  'x, y, z'
loop_
 _atom_site_type_symbol
 _atom_site_label
 _atom_site_symmetry_multiplicity
 _atom_site_fract_x
 _atom_site_fract_y
 _atom_site_fract_z
 _atom_site_occupancy
  Pr  Pr0  1  0.996634  0.672145  0.250000  1
  Pr  Pr1  1  0.003366  0.327855  0.750000  1
  Pr  Pr2  1  0.672149  0.996634  0.250000  1
  Pr  Pr3  1  0.327851  0.003366  0.750000  1
  Ga  Ga4  1  0.136884  0.136884  0.250000  1
  Ga  Ga5  1  0.863116  0.863116  0.750000  1
  Ga  Ga6  1  0.005467  0.341132  0.074346  1
  Ga  Ga7  1  0.994533  0.658868  0.925654  1
  Ga  Ga8  1  0.994533  0.658868  0.574346  1
  Ga  Ga9  1  0.341132  0.005467  0.425654  1
  Ga  Ga10  1  0.005467  0.341132  0.425654  1
  Ga  Ga11  1  0.658868  0.994533  0.574346  1
  Ga  Ga12  1  0.658868  0.994533  0.925654  1
  Ga  Ga13  1  0.341132  0.005467  0.074346  1
  Ga  Ga14  1  0.343492  0.343492  0.559578  1
  Ga  Ga15  1  0.656508  0.656508  0.440422  1
  Ga  Ga16  1  0.656508  0.656508  0.059578  1
  Ga  Ga17  1  0.343492  0.343492  0.940422  1
  Ga  Ga18  1  0.334562  0.547015  0.250000  1
  Ga  Ga19  1  0.665438  0.452985  0.750000  1
  Ga  Ga20  1  0.547016  0.334562  0.250000  1
  Ga  Ga21  1  0.452984  0.665438  0.750000  1
  Pd  Pd22  1  0.000000  0.000000  0.000000  1
  Pd  Pd23  1  0.000000  0.000000  0.500000  1
  Ru  Ru24  1  0.672619  0.327381  0.000000  1
  Ru  Ru25  1  0.327381  0.672619  0.000000  1
  Ru  Ru26  1  0.327381  0.672619  0.500000  1
  Ru  Ru27  1  0.672619  0.327381  0.500000  1
