# generated using pymatgen
data_CeEr2Pa(ZnRh)4
_symmetry_space_group_name_H-M   'P 1'
_cell_length_a   3.84029300
_cell_length_b   7.10451573
_cell_length_c   8.38087781
_cell_angle_alpha   91.17436965
_cell_angle_beta   90.00000000
_cell_angle_gamma   90.00000000
_symmetry_Int_Tables_number   1
_chemical_formula_structural   CeEr2Pa(ZnRh)4
_chemical_formula_sum   'Ce1 Er2 Pa1 Zn4 Rh4'
_cell_volume   228.61099686
_cell_formula_units_Z   1
loop_
 _symmetry_equiv_pos_site_id
 _symmetry_equiv_pos_as_xyz
  1  'x, y, z'
loop_
 _atom_site_type_symbol
 _atom_site_label
 _atom_site_symmetry_multiplicity
 _atom_site_fract_x
 _atom_site_fract_y
 _atom_site_fract_z
 _atom_site_occupancy
  Ce  Ce0  1  0.250000  0.555627  0.191940  1
  Er  Er1  1  0.750000  0.942061  0.681650  1
  Er  Er2  1  0.250000  0.059504  0.314674  1
  Pa  Pa3  1  0.750000  0.445276  0.814501  1
  Zn  Zn4  1  0.250000  0.630135  0.558795  1
  Zn  Zn5  1  0.750000  0.372465  0.441581  1
  Zn  Zn6  1  0.750000  0.882543  0.060765  1
  Zn  Zn7  1  0.250000  0.110031  0.937924  1
  Rh  Rh8  1  0.250000  0.718589  0.871002  1
  Rh  Rh9  1  0.750000  0.271624  0.118306  1
  Rh  Rh10  1  0.750000  0.759205  0.365128  1
  Rh  Rh11  1  0.250000  0.252940  0.643734  1
