# generated using pymatgen
data_Er7Tm2Mg(Ni2Bi)2
_symmetry_space_group_name_H-M   'P 1'
_cell_length_a   8.67793724
_cell_length_b   8.67816436
_cell_length_c   8.67809100
_cell_angle_alpha   129.16472593
_cell_angle_beta   129.16484613
_cell_angle_gamma   74.74574413
_symmetry_Int_Tables_number   1
_chemical_formula_structural   Er7Tm2Mg(Ni2Bi)2
_chemical_formula_sum   'Er7 Tm2 Mg1 Ni4 Bi2'
_cell_volume   382.71728373
_cell_formula_units_Z   1
loop_
 _symmetry_equiv_pos_site_id
 _symmetry_equiv_pos_as_xyz
  1  'x, y, z'
loop_
 _atom_site_type_symbol
 _atom_site_label
 _atom_site_symmetry_multiplicity
 _atom_site_fract_x
 _atom_site_fract_y
 _atom_site_fract_z
 _atom_site_occupancy
  Er  Er0  1  0.201444  0.718080  0.177098  1
  Er  Er1  1  0.459024  0.975660  0.177121  1
  Er  Er2  1  0.281894  0.459008  0.483342  1
  Er  Er3  1  0.024340  0.201453  0.483363  1
  Er  Er4  1  0.540997  0.024351  0.822887  1
  Er  Er5  1  0.718091  0.540987  0.516644  1
  Er  Er6  1  0.975644  0.798548  0.516635  1
  Tm  Tm7  1  0.500009  0.499990  0.999994  1
  Tm  Tm8  1  0.798557  0.281904  0.822923  1
  Mg  Mg9  1  0.999996  0.000005  0.999994  1
  Ni  Ni10  1  0.131973  0.623794  0.755772  1
  Ni  Ni11  1  0.868017  0.376195  0.244199  1
  Ni  Ni12  1  0.623808  0.868045  0.491838  1
  Ni  Ni13  1  0.376222  0.131989  0.508196  1
  Bi  Bi14  1  0.258556  0.258571  0.999998  1
  Bi  Bi15  1  0.741427  0.741419  0.999996  1
