# generated using pymatgen
data_Lu2Fe9MoP6
_symmetry_space_group_name_H-M   'P 1'
_cell_length_a   3.66236300
_cell_length_b   10.33020800
_cell_length_c   11.83463000
_cell_angle_alpha   90.00000000
_cell_angle_beta   90.00000000
_cell_angle_gamma   90.00000000
_symmetry_Int_Tables_number   1
_chemical_formula_structural   Lu2Fe9MoP6
_chemical_formula_sum   'Lu4 Fe18 Mo2 P12'
_cell_volume   447.73922023
_cell_formula_units_Z   2
loop_
 _symmetry_equiv_pos_site_id
 _symmetry_equiv_pos_as_xyz
  1  'x, y, z'
loop_
 _atom_site_type_symbol
 _atom_site_label
 _atom_site_symmetry_multiplicity
 _atom_site_fract_x
 _atom_site_fract_y
 _atom_site_fract_z
 _atom_site_occupancy
  Lu  Lu0  1  0.250000  0.578084  0.704164  1
  Lu  Lu1  1  0.250000  0.921916  0.204164  1
  Lu  Lu2  1  0.750000  0.417254  0.294409  1
  Lu  Lu3  1  0.750000  0.082746  0.794409  1
  Fe  Fe4  1  0.750000  0.293316  0.011178  1
  Fe  Fe5  1  0.750000  0.206684  0.511178  1
  Fe  Fe6  1  0.250000  0.400904  0.490906  1
  Fe  Fe7  1  0.250000  0.099096  0.990906  1
  Fe  Fe8  1  0.750000  0.589056  0.511052  1
  Fe  Fe9  1  0.750000  0.910944  0.011052  1
  Fe  Fe10  1  0.250000  0.221917  0.176108  1
  Fe  Fe11  1  0.250000  0.278083  0.676108  1
  Fe  Fe12  1  0.750000  0.783141  0.822406  1
  Fe  Fe13  1  0.750000  0.716859  0.322406  1
  Fe  Fe14  1  0.250000  0.876062  0.703515  1
  Fe  Fe15  1  0.250000  0.623938  0.203515  1
  Fe  Fe16  1  0.750000  0.124903  0.299045  1
  Fe  Fe17  1  0.750000  0.375097  0.799045  1
  Fe  Fe18  1  0.250000  0.459332  0.932878  1
  Fe  Fe19  1  0.250000  0.040668  0.432878  1
  Fe  Fe20  1  0.750000  0.533440  0.067781  1
  Fe  Fe21  1  0.750000  0.966560  0.567781  1
  Mo  Mo22  1  0.250000  0.705983  0.987193  1
  Mo  Mo23  1  0.250000  0.794017  0.487193  1
  P  P24  1  0.250000  0.422056  0.114131  1
  P  P25  1  0.250000  0.077944  0.614131  1
  P  P26  1  0.750000  0.572242  0.884221  1
  P  P27  1  0.750000  0.927758  0.384221  1
  P  P28  1  0.250000  0.263279  0.869166  1
  P  P29  1  0.250000  0.236721  0.369166  1
  P  P30  1  0.750000  0.736788  0.131391  1
  P  P31  1  0.750000  0.763212  0.631391  1
  P  P32  1  0.250000  0.587582  0.394278  1
  P  P33  1  0.250000  0.912418  0.894278  1
  P  P34  1  0.750000  0.395507  0.606178  1
  P  P35  1  0.750000  0.104493  0.106178  1
