# generated using pymatgen
data_La5Pr(Ga4Cl)2
_symmetry_space_group_name_H-M   'P 1'
_cell_length_a   8.16246058
_cell_length_b   8.16245936
_cell_length_c   8.16246000
_cell_angle_alpha   119.69591718
_cell_angle_beta   119.69591231
_cell_angle_gamma   90.52750387
_symmetry_Int_Tables_number   1
_chemical_formula_structural   La5Pr(Ga4Cl)2
_chemical_formula_sum   'La5 Pr1 Ga8 Cl2'
_cell_volume   386.29564708
_cell_formula_units_Z   1
loop_
 _symmetry_equiv_pos_site_id
 _symmetry_equiv_pos_as_xyz
  1  'x, y, z'
loop_
 _atom_site_type_symbol
 _atom_site_label
 _atom_site_symmetry_multiplicity
 _atom_site_fract_x
 _atom_site_fract_y
 _atom_site_fract_z
 _atom_site_occupancy
  La  La0  1  0.660523  0.160523  0.821045  1
  La  La1  1  0.160523  0.339477  0.500000  1
  La  La2  1  0.839477  0.660523  0.500000  1
  La  La3  1  0.750000  0.750000  0.000000  1
  La  La4  1  0.339477  0.839477  0.178955  1
  Pr  Pr5  1  0.250000  0.250000  0.000000  1
  Ga  Ga6  1  0.945938  0.445206  0.786277  1
  Ga  Ga7  1  0.841072  0.054794  0.500733  1
  Ga  Ga8  1  0.340339  0.841072  0.786277  1
  Ga  Ga9  1  0.445206  0.658928  0.499267  1
  Ga  Ga10  1  0.554062  0.340339  0.499267  1
  Ga  Ga11  1  0.054794  0.554062  0.213723  1
  Ga  Ga12  1  0.159661  0.945938  0.500733  1
  Ga  Ga13  1  0.658928  0.159661  0.213723  1
  Cl  Cl14  1  0.498645  0.498645  0.000000  1
  Cl  Cl15  1  0.001355  0.001355  0.000000  1
