# generated using pymatgen
data_ZnCuMo12(Pt3N2)2
_symmetry_space_group_name_H-M   'P 1'
_cell_length_a   6.87437003
_cell_length_b   6.86178680
_cell_length_c   6.87439832
_cell_angle_alpha   89.99046430
_cell_angle_beta   89.90632863
_cell_angle_gamma   89.73019178
_symmetry_Int_Tables_number   1
_chemical_formula_structural   ZnCuMo12(Pt3N2)2
_chemical_formula_sum   'Zn1 Cu1 Mo12 Pt6 N4'
_cell_volume   324.26450876
_cell_formula_units_Z   1
loop_
 _symmetry_equiv_pos_site_id
 _symmetry_equiv_pos_as_xyz
  1  'x, y, z'
loop_
 _atom_site_type_symbol
 _atom_site_label
 _atom_site_symmetry_multiplicity
 _atom_site_fract_x
 _atom_site_fract_y
 _atom_site_fract_z
 _atom_site_occupancy
  Zn  Zn0  1  0.189197  0.183299  0.187281  1
  Cu  Cu1  1  0.308267  0.815853  0.688293  1
  Mo  Mo2  1  0.622542  0.699490  0.957234  1
  Mo  Mo3  1  0.459848  0.876460  0.304624  1
  Mo  Mo4  1  0.702377  0.952924  0.620889  1
  Mo  Mo5  1  0.548619  0.375084  0.203080  1
  Mo  Mo6  1  0.376397  0.201723  0.547276  1
  Mo  Mo7  1  0.196963  0.543126  0.372083  1
  Mo  Mo8  1  0.874604  0.303266  0.459909  1
  Mo  Mo9  1  0.041970  0.120075  0.799646  1
  Mo  Mo10  1  0.304903  0.463044  0.869170  1
  Mo  Mo11  1  0.123496  0.795727  0.043775  1
  Mo  Mo12  1  0.795684  0.046158  0.120205  1
  Mo  Mo13  1  0.953848  0.624616  0.702846  1
  Pt  Pt14  1  0.426472  0.058236  0.938230  1
  Pt  Pt15  1  0.814718  0.687676  0.310206  1
  Pt  Pt16  1  0.685482  0.311623  0.811367  1
  Pt  Pt17  1  0.549458  0.569399  0.561230  1
  Pt  Pt18  1  0.072800  0.942240  0.436726  1
  Pt  Pt19  1  0.950699  0.428593  0.061768  1
  N  N20  1  0.374989  0.625818  0.127896  1
  N  N21  1  0.870956  0.872552  0.874000  1
  N  N22  1  0.126424  0.375297  0.627125  1
  N  N23  1  0.629288  0.127721  0.375144  1
