# generated using pymatgen
data_Si6As3PPt2
_symmetry_space_group_name_H-M   'P 1'
_cell_length_a   4.95342470
_cell_length_b   5.65700944
_cell_length_c   8.36619611
_cell_angle_alpha   92.00880556
_cell_angle_beta   93.27161911
_cell_angle_gamma   107.80011643
_symmetry_Int_Tables_number   1
_chemical_formula_structural   Si6As3PPt2
_chemical_formula_sum   'Si6 As3 P1 Pt2'
_cell_volume   222.50739856
_cell_formula_units_Z   1
loop_
 _symmetry_equiv_pos_site_id
 _symmetry_equiv_pos_as_xyz
  1  'x, y, z'
loop_
 _atom_site_type_symbol
 _atom_site_label
 _atom_site_symmetry_multiplicity
 _atom_site_fract_x
 _atom_site_fract_y
 _atom_site_fract_z
 _atom_site_occupancy
  Si  Si0  1  0.681526  0.605977  0.072379  1
  Si  Si1  1  0.176610  0.766227  0.803555  1
  Si  Si2  1  0.666526  0.960538  0.757261  1
  Si  Si3  1  0.578726  0.329284  0.671495  1
  Si  Si4  1  0.352334  0.030827  0.222873  1
  Si  Si5  1  0.037956  0.452940  0.396594  1
  As  As6  1  0.191712  0.117746  0.479299  1
  As  As7  1  0.291482  0.396661  0.884776  1
  As  As8  1  0.494753  0.693305  0.318938  1
  P  P9  1  0.795601  0.269539  0.162456  1
  Pt  Pt10  1  0.851170  0.710244  0.566908  1
  Pt  Pt11  1  0.993804  0.992422  0.001136  1
