# generated using pymatgen
data_YbNb6CrSe12
_symmetry_space_group_name_H-M   'P 1'
_cell_length_a   6.06911800
_cell_length_b   6.06911768
_cell_length_c   13.81920200
_cell_angle_alpha   90.00000000
_cell_angle_beta   90.00000000
_cell_angle_gamma   120.00000173
_symmetry_Int_Tables_number   1
_chemical_formula_structural   YbNb6CrSe12
_chemical_formula_sum   'Yb1 Nb6 Cr1 Se12'
_cell_volume   440.82349083
_cell_formula_units_Z   1
loop_
 _symmetry_equiv_pos_site_id
 _symmetry_equiv_pos_as_xyz
  1  'x, y, z'
loop_
 _atom_site_type_symbol
 _atom_site_label
 _atom_site_symmetry_multiplicity
 _atom_site_fract_x
 _atom_site_fract_y
 _atom_site_fract_z
 _atom_site_occupancy
  Yb  Yb0  1  0.333333  0.666667  0.250000  1
  Nb  Nb1  1  0.333333  0.666667  0.977854  1
  Nb  Nb2  1  0.000000  0.000000  0.977536  1
  Nb  Nb3  1  0.000000  0.000000  0.522464  1
  Nb  Nb4  1  0.333333  0.666667  0.522146  1
  Nb  Nb5  1  0.666667  0.333333  0.977539  1
  Nb  Nb6  1  0.666667  0.333333  0.522461  1
  Cr  Cr7  1  0.666667  0.333333  0.750000  1
  Se  Se8  1  0.333124  0.003455  0.099608  1
  Se  Se9  1  0.666757  0.996585  0.642575  1
  Se  Se10  1  0.996545  0.329668  0.099608  1
  Se  Se11  1  0.670332  0.003455  0.400392  1
  Se  Se12  1  0.333124  0.329668  0.400392  1
  Se  Se13  1  0.996545  0.666876  0.400392  1
  Se  Se14  1  0.670332  0.666876  0.099608  1
  Se  Se15  1  0.329828  0.333243  0.642575  1
  Se  Se16  1  0.003415  0.670172  0.642575  1
  Se  Se17  1  0.329828  0.996585  0.857425  1
  Se  Se18  1  0.666757  0.670172  0.857425  1
  Se  Se19  1  0.003415  0.333243  0.857425  1
