# generated using pymatgen
data_TmTh3Al11Ga7Ir6
_symmetry_space_group_name_H-M   'P 1'
_cell_length_a   7.62832830
_cell_length_b   7.63820485
_cell_length_c   9.54592147
_cell_angle_alpha   90.04044183
_cell_angle_beta   89.93707759
_cell_angle_gamma   119.64781191
_symmetry_Int_Tables_number   1
_chemical_formula_structural   TmTh3Al11Ga7Ir6
_chemical_formula_sum   'Tm1 Th3 Al11 Ga7 Ir6'
_cell_volume   483.39175935
_cell_formula_units_Z   1
loop_
 _symmetry_equiv_pos_site_id
 _symmetry_equiv_pos_as_xyz
  1  'x, y, z'
loop_
 _atom_site_type_symbol
 _atom_site_label
 _atom_site_symmetry_multiplicity
 _atom_site_fract_x
 _atom_site_fract_y
 _atom_site_fract_z
 _atom_site_occupancy
  Tm  Tm0  1  0.328616  0.005554  0.749992  1
  Th  Th1  1  0.995760  0.669441  0.248701  1
  Th  Th2  1  0.002900  0.329614  0.753109  1
  Th  Th3  1  0.671106  0.996238  0.248653  1
  Al  Al4  1  0.001087  0.672038  0.922110  1
  Al  Al5  1  0.000920  0.670270  0.576532  1
  Al  Al6  1  0.334804  0.003251  0.432909  1
  Al  Al7  1  0.005692  0.335196  0.428898  1
  Al  Al8  1  0.659614  0.995962  0.576452  1
  Al  Al9  1  0.657660  0.993934  0.922130  1
  Al  Al10  1  0.334875  0.004049  0.067093  1
  Al  Al11  1  0.336183  0.332325  0.556464  1
  Al  Al12  1  0.663981  0.663896  0.451436  1
  Al  Al13  1  0.663255  0.663094  0.048288  1
  Al  Al14  1  0.336099  0.332310  0.944334  1
  Ga  Ga15  1  0.137447  0.132421  0.250036  1
  Ga  Ga16  1  0.870935  0.868827  0.749447  1
  Ga  Ga17  1  0.003873  0.335286  0.078056  1
  Ga  Ga18  1  0.345079  0.544819  0.250075  1
  Ga  Ga19  1  0.654600  0.449157  0.749380  1
  Ga  Ga20  1  0.542920  0.339350  0.249775  1
  Ga  Ga21  1  0.453885  0.662189  0.749556  1
  Ir  Ir22  1  0.670803  0.328531  0.998549  1
  Ir  Ir23  1  0.329068  0.673095  0.999483  1
  Ir  Ir24  1  0.327114  0.670705  0.499827  1
  Ir  Ir25  1  0.673989  0.328880  0.499525  1
  Ir  Ir26  1  0.998806  0.998520  0.999497  1
  Ir  Ir27  1  0.998936  0.001048  0.499695  1
