# generated using pymatgen
data_Pm4Cr(FeO4)3
_symmetry_space_group_name_H-M   'P 1'
_cell_length_a   5.45841982
_cell_length_b   5.67203277
_cell_length_c   7.81870124
_cell_angle_alpha   90.01462894
_cell_angle_beta   90.02435333
_cell_angle_gamma   89.94205598
_symmetry_Int_Tables_number   1
_chemical_formula_structural   Pm4Cr(FeO4)3
_chemical_formula_sum   'Pm4 Cr1 Fe3 O12'
_cell_volume   242.06946478
_cell_formula_units_Z   1
loop_
 _symmetry_equiv_pos_site_id
 _symmetry_equiv_pos_as_xyz
  1  'x, y, z'
loop_
 _atom_site_type_symbol
 _atom_site_label
 _atom_site_symmetry_multiplicity
 _atom_site_fract_x
 _atom_site_fract_y
 _atom_site_fract_z
 _atom_site_occupancy
  Pm  Pm0  1  0.985375  0.059065  0.250825  1
  Pm  Pm1  1  0.514796  0.558390  0.250822  1
  Pm  Pm2  1  0.485203  0.441608  0.749179  1
  Pm  Pm3  1  0.014626  0.940935  0.749176  1
  Cr  Cr4  1  0.000000  0.499999  0.500000  1
  Fe  Fe5  1  0.500001  0.000000  0.000000  1
  Fe  Fe6  1  0.000000  0.499999  0.000000  1
  Fe  Fe7  1  0.500001  0.000000  0.500000  1
  O  O8  1  0.700172  0.299644  0.051727  1
  O  O9  1  0.799979  0.799532  0.051681  1
  O  O10  1  0.097154  0.469747  0.250697  1
  O  O11  1  0.402581  0.969580  0.250601  1
  O  O12  1  0.701923  0.297903  0.448915  1
  O  O13  1  0.799327  0.796834  0.449231  1
  O  O14  1  0.200674  0.203166  0.550770  1
  O  O15  1  0.298077  0.702097  0.551086  1
  O  O16  1  0.597418  0.030419  0.749400  1
  O  O17  1  0.902847  0.530253  0.749304  1
  O  O18  1  0.200022  0.200468  0.948319  1
  O  O19  1  0.299828  0.700356  0.948273  1
