# generated using pymatgen
data_LaY2(ZnPt)4
_symmetry_space_group_name_H-M   'P 1'
_cell_length_a   8.28598806
_cell_length_b   8.28598782
_cell_length_c   8.28598696
_cell_angle_alpha   151.52207043
_cell_angle_beta   125.99071817
_cell_angle_gamma   62.18261574
_symmetry_Int_Tables_number   1
_chemical_formula_structural   LaY2(ZnPt)4
_chemical_formula_sum   'La1 Y2 Zn4 Pt4'
_cell_volume   217.63752482
_cell_formula_units_Z   1
loop_
 _symmetry_equiv_pos_site_id
 _symmetry_equiv_pos_as_xyz
  1  'x, y, z'
loop_
 _atom_site_type_symbol
 _atom_site_label
 _atom_site_symmetry_multiplicity
 _atom_site_fract_x
 _atom_site_fract_y
 _atom_site_fract_z
 _atom_site_occupancy
  La  La0  1  0.500000  0.000000  0.500000  1
  Y  Y1  1  0.873415  0.873415  0.000000  1
  Y  Y2  1  0.126585  0.126585  0.000000  1
  Zn  Zn3  1  0.477340  0.674299  0.803041  1
  Zn  Zn4  1  0.871258  0.674299  0.196959  1
  Zn  Zn5  1  0.128742  0.325701  0.803041  1
  Zn  Zn6  1  0.522660  0.325701  0.196959  1
  Pt  Pt7  1  0.276903  0.776903  0.500000  1
  Pt  Pt8  1  0.723097  0.223097  0.500000  1
  Pt  Pt9  1  0.810393  0.500000  0.310393  1
  Pt  Pt10  1  0.189607  0.500000  0.689607  1
