# generated using pymatgen
data_Tb5AlZnRu3
_symmetry_space_group_name_H-M   'P 1'
_cell_length_a   8.36980672
_cell_length_b   8.36980749
_cell_length_c   8.31483015
_cell_angle_alpha   109.51703037
_cell_angle_beta   109.51017226
_cell_angle_gamma   109.65324632
_symmetry_Int_Tables_number   1
_chemical_formula_structural   Tb5AlZnRu3
_chemical_formula_sum   'Tb10 Al2 Zn2 Ru6'
_cell_volume   446.91357092
_cell_formula_units_Z   2
loop_
 _symmetry_equiv_pos_site_id
 _symmetry_equiv_pos_as_xyz
  1  'x, y, z'
loop_
 _atom_site_type_symbol
 _atom_site_label
 _atom_site_symmetry_multiplicity
 _atom_site_fract_x
 _atom_site_fract_y
 _atom_site_fract_z
 _atom_site_occupancy
  Tb  Tb0  1  0.252212  0.682972  0.435624  1
  Tb  Tb1  1  0.747347  0.816587  0.064376  1
  Tb  Tb2  1  0.433005  0.251215  0.684062  1
  Tb  Tb3  1  0.682529  0.432529  0.250000  1
  Tb  Tb4  1  0.067153  0.748943  0.815938  1
  Tb  Tb5  1  0.816395  0.066395  0.750000  1
  Tb  Tb6  1  0.218526  0.219153  0.218606  1
  Tb  Tb7  1  0.500546  0.999920  0.281394  1
  Tb  Tb8  1  0.282036  0.499620  0.999296  1
  Tb  Tb9  1  0.000325  0.282740  0.500704  1
  Al  Al10  1  0.910848  0.501569  0.002102  1
  Al  Al11  1  0.999466  0.908745  0.497898  1
  Zn  Zn12  1  0.589181  0.587767  0.587803  1
  Zn  Zn13  1  0.499962  0.001377  0.912197  1
  Ru  Ru14  1  0.243319  0.123174  0.871064  1
  Ru  Ru15  1  0.752109  0.372255  0.628936  1
  Ru  Ru16  1  0.881661  0.257532  0.127693  1
  Ru  Ru17  1  0.122938  0.872937  0.250000  1
  Ru  Ru18  1  0.629839  0.753969  0.372307  1
  Ru  Ru19  1  0.370603  0.620603  0.750000  1
