# generated using pymatgen
data_Y5Ga2Rh3
_symmetry_space_group_name_H-M   'P 1'
_cell_length_a   8.36132601
_cell_length_b   8.36132658
_cell_length_c   8.36132600
_cell_angle_alpha   109.47121439
_cell_angle_beta   109.47121576
_cell_angle_gamma   109.47122413
_symmetry_Int_Tables_number   1
_chemical_formula_structural   Y5Ga2Rh3
_chemical_formula_sum   'Y10 Ga4 Rh6'
_cell_volume   449.99081595
_cell_formula_units_Z   2
loop_
 _symmetry_equiv_pos_site_id
 _symmetry_equiv_pos_as_xyz
  1  'x, y, z'
loop_
 _atom_site_type_symbol
 _atom_site_label
 _atom_site_symmetry_multiplicity
 _atom_site_fract_x
 _atom_site_fract_y
 _atom_site_fract_z
 _atom_site_occupancy
  Y  Y0  1  0.000000  0.226849  0.000000  1
  Y  Y1  1  0.750000  0.441382  0.191383  1
  Y  Y2  1  0.441383  0.691384  0.250000  1
  Y  Y3  1  0.250000  0.058617  0.308618  1
  Y  Y4  1  0.226849  0.500001  0.500001  1
  Y  Y5  1  0.808617  0.250000  0.558617  1
  Y  Y6  1  0.500000  0.000000  0.726849  1
  Y  Y7  1  0.058617  0.808617  0.750000  1
  Y  Y8  1  0.273151  0.273151  0.773152  1
  Y  Y9  1  0.691384  0.750000  0.941383  1
  Ga  Ga10  1  0.000000  0.598252  0.000000  1
  Ga  Ga11  1  0.500000  0.000000  0.098252  1
  Ga  Ga12  1  0.901748  0.901748  0.401748  1
  Ga  Ga13  1  0.598252  0.500000  0.500000  1
  Rh  Rh14  1  0.368445  0.250000  0.118445  1
  Rh  Rh15  1  0.881556  0.131556  0.249999  1
  Rh  Rh16  1  0.131556  0.750000  0.381555  1
  Rh  Rh17  1  0.750000  0.881556  0.631556  1
  Rh  Rh18  1  0.618444  0.368445  0.750000  1
  Rh  Rh19  1  0.250000  0.618444  0.868445  1
