# generated using pymatgen
data_Pr4Tm3Lu(B6Ru)4
_symmetry_space_group_name_H-M   'P 1'
_cell_length_a   3.70536900
_cell_length_b   9.20379702
_cell_length_c   11.64528003
_cell_angle_alpha   90.00826020
_cell_angle_beta   90.00000000
_cell_angle_gamma   90.00000000
_symmetry_Int_Tables_number   1
_chemical_formula_structural   Pr4Tm3Lu(B6Ru)4
_chemical_formula_sum   'Pr4 Tm3 Lu1 B24 Ru4'
_cell_volume   397.14438619
_cell_formula_units_Z   1
loop_
 _symmetry_equiv_pos_site_id
 _symmetry_equiv_pos_as_xyz
  1  'x, y, z'
loop_
 _atom_site_type_symbol
 _atom_site_label
 _atom_site_symmetry_multiplicity
 _atom_site_fract_x
 _atom_site_fract_y
 _atom_site_fract_z
 _atom_site_occupancy
  Pr  Pr0  1  0.000000  0.322818  0.414778  1
  Pr  Pr1  1  0.000000  0.677169  0.585356  1
  Pr  Pr2  1  0.000000  0.822670  0.085151  1
  Pr  Pr3  1  0.000000  0.177360  0.914698  1
  Tm  Tm4  1  0.000000  0.944423  0.371869  1
  Tm  Tm5  1  0.000000  0.055570  0.628211  1
  Tm  Tm6  1  0.000000  0.444543  0.127857  1
  Lu  Lu7  1  0.000000  0.555529  0.871926  1
  B  B8  1  0.500000  0.557390  0.429289  1
  B  B9  1  0.500000  0.442647  0.570827  1
  B  B10  1  0.500000  0.057352  0.070676  1
  B  B11  1  0.500000  0.942461  0.929248  1
  B  B12  1  0.500000  0.751066  0.416438  1
  B  B13  1  0.500000  0.249022  0.583614  1
  B  B14  1  0.500000  0.251109  0.083529  1
  B  B15  1  0.500000  0.748409  0.916442  1
  B  B16  1  0.500000  0.791186  0.266427  1
  B  B17  1  0.500000  0.208993  0.733615  1
  B  B18  1  0.500000  0.291230  0.233526  1
  B  B19  1  0.500000  0.708295  0.766555  1
  B  B20  1  0.500000  0.630182  0.184458  1
  B  B21  1  0.500000  0.370230  0.815738  1
  B  B22  1  0.500000  0.130224  0.315490  1
  B  B23  1  0.500000  0.869702  0.684575  1
  B  B24  1  0.500000  0.985980  0.214634  1
  B  B25  1  0.500000  0.013909  0.785389  1
  B  B26  1  0.500000  0.485958  0.285320  1
  B  B27  1  0.500000  0.514356  0.715004  1
  B  B28  1  0.500000  0.600604  0.026677  1
  B  B29  1  0.500000  0.399799  0.972439  1
  B  B30  1  0.500000  0.100758  0.472804  1
  B  B31  1  0.500000  0.899224  0.527230  1
  Ru  Ru32  1  0.000000  0.640439  0.318283  1
  Ru  Ru33  1  0.000000  0.359878  0.681930  1
  Ru  Ru34  1  0.000000  0.140496  0.181591  1
  Ru  Ru35  1  0.000000  0.859019  0.818407  1
