# generated using pymatgen
data_Nd4Y(InSb)2
_symmetry_space_group_name_H-M   'P 1'
_cell_length_a   9.03064312
_cell_length_b   9.03064292
_cell_length_c   8.33633500
_cell_angle_alpha   90.00000000
_cell_angle_beta   90.00000000
_cell_angle_gamma   124.91426817
_symmetry_Int_Tables_number   1
_chemical_formula_structural   Nd4Y(InSb)2
_chemical_formula_sum   'Nd8 Y2 In4 Sb4'
_cell_volume   557.48260920
_cell_formula_units_Z   2
loop_
 _symmetry_equiv_pos_site_id
 _symmetry_equiv_pos_as_xyz
  1  'x, y, z'
loop_
 _atom_site_type_symbol
 _atom_site_label
 _atom_site_symmetry_multiplicity
 _atom_site_fract_x
 _atom_site_fract_y
 _atom_site_fract_z
 _atom_site_occupancy
  Nd  Nd0  1  0.032730  0.310976  0.333307  1
  Nd  Nd1  1  0.967270  0.689024  0.666693  1
  Nd  Nd2  1  0.467270  0.189024  0.833307  1
  Nd  Nd3  1  0.810976  0.532730  0.166693  1
  Nd  Nd4  1  0.532730  0.810976  0.166693  1
  Nd  Nd5  1  0.189024  0.467270  0.833307  1
  Nd  Nd6  1  0.689024  0.967270  0.666693  1
  Nd  Nd7  1  0.310976  0.032730  0.333307  1
  Y  Y8  1  0.000000  0.000000  0.000000  1
  Y  Y9  1  0.500000  0.500000  0.500000  1
  In  In10  1  0.372606  0.372606  0.126954  1
  In  In11  1  0.627394  0.627394  0.873046  1
  In  In12  1  0.127394  0.127394  0.626954  1
  In  In13  1  0.872606  0.872606  0.373046  1
  Sb  Sb14  1  0.800149  0.199851  0.000000  1
  Sb  Sb15  1  0.199851  0.800149  0.000000  1
  Sb  Sb16  1  0.699851  0.300149  0.500000  1
  Sb  Sb17  1  0.300149  0.699851  0.500000  1
