# generated using pymatgen
data_LaNd5SmCoI12
_symmetry_space_group_name_H-M   'P 1'
_cell_length_a   9.99615184
_cell_length_b   9.99054070
_cell_length_c   9.99540495
_cell_angle_alpha   106.45244380
_cell_angle_beta   106.50019222
_cell_angle_gamma   106.41577035
_symmetry_Int_Tables_number   1
_chemical_formula_structural   LaNd5SmCoI12
_chemical_formula_sum   'La1 Nd5 Sm1 Co1 I12'
_cell_volume   843.34867161
_cell_formula_units_Z   1
loop_
 _symmetry_equiv_pos_site_id
 _symmetry_equiv_pos_as_xyz
  1  'x, y, z'
loop_
 _atom_site_type_symbol
 _atom_site_label
 _atom_site_symmetry_multiplicity
 _atom_site_fract_x
 _atom_site_fract_y
 _atom_site_fract_z
 _atom_site_occupancy
  La  La0  1  0.995659  0.995545  0.995710  1
  Nd  Nd1  1  0.518371  0.591686  0.791913  1
  Nd  Nd2  1  0.791828  0.517969  0.592487  1
  Nd  Nd3  1  0.592460  0.792317  0.518637  1
  Nd  Nd4  1  0.479518  0.405195  0.206601  1
  Nd  Nd5  1  0.206554  0.479396  0.405792  1
  Sm  Sm6  1  0.406907  0.209682  0.479845  1
  Co  Co7  1  0.499328  0.498933  0.499384  1
  I  I8  1  0.274205  0.823485  0.426573  1
  I  I9  1  0.425854  0.272400  0.819751  1
  I  I10  1  0.822233  0.426247  0.273691  1
  I  I11  1  0.722084  0.176104  0.571625  1
  I  I12  1  0.572481  0.724790  0.176644  1
  I  I13  1  0.176570  0.572580  0.725021  1
  I  I14  1  0.042184  0.118985  0.344756  1
  I  I15  1  0.343998  0.040122  0.120887  1
  I  I16  1  0.118774  0.343660  0.039591  1
  I  I17  1  0.958336  0.878414  0.649592  1
  I  I18  1  0.649528  0.958290  0.878394  1
  I  I19  1  0.878497  0.649566  0.958474  1
