# generated using pymatgen
data_Tb7SmSc12Ga11Si5
_symmetry_space_group_name_H-M   'P 1'
_cell_length_a   7.24389745
_cell_length_b   7.52540761
_cell_length_c   14.37262591
_cell_angle_alpha   90.03623638
_cell_angle_beta   89.86167329
_cell_angle_gamma   90.10654366
_symmetry_Int_Tables_number   1
_chemical_formula_structural   Tb7SmSc12Ga11Si5
_chemical_formula_sum   'Tb7 Sm1 Sc12 Ga11 Si5'
_cell_volume   783.49520272
_cell_formula_units_Z   1
loop_
 _symmetry_equiv_pos_site_id
 _symmetry_equiv_pos_as_xyz
  1  'x, y, z'
loop_
 _atom_site_type_symbol
 _atom_site_label
 _atom_site_symmetry_multiplicity
 _atom_site_fract_x
 _atom_site_fract_y
 _atom_site_fract_z
 _atom_site_occupancy
  Tb  Tb0  1  0.013581  0.176253  0.096065  1
  Tb  Tb1  1  0.989128  0.820434  0.904481  1
  Tb  Tb2  1  0.487632  0.679667  0.903896  1
  Tb  Tb3  1  0.988510  0.822375  0.596990  1
  Tb  Tb4  1  0.511586  0.320647  0.096637  1
  Tb  Tb5  1  0.010768  0.177965  0.402601  1
  Tb  Tb6  1  0.511103  0.321590  0.402139  1
  Sm  Sm7  1  0.488730  0.677428  0.596699  1
  Sc  Sc8  1  0.163190  0.507170  0.749938  1
  Sc  Sc9  1  0.837830  0.493146  0.249803  1
  Sc  Sc10  1  0.336578  0.007456  0.248617  1
  Sc  Sc11  1  0.662460  0.993070  0.749999  1
  Sc  Sc12  1  0.328689  0.171193  0.623362  1
  Sc  Sc13  1  0.670643  0.828721  0.376142  1
  Sc  Sc14  1  0.170316  0.671676  0.376243  1
  Sc  Sc15  1  0.668252  0.827516  0.123298  1
  Sc  Sc16  1  0.829340  0.328011  0.623667  1
  Sc  Sc17  1  0.327839  0.171428  0.878324  1
  Sc  Sc18  1  0.828828  0.329543  0.877327  1
  Sc  Sc19  1  0.174595  0.673674  0.121917  1
  Ga  Ga20  1  0.031410  0.116490  0.751524  1
  Ga  Ga21  1  0.967432  0.882456  0.249151  1
  Ga  Ga22  1  0.467199  0.615787  0.249403  1
  Ga  Ga23  1  0.532120  0.382458  0.751152  1
  Ga  Ga24  1  0.158346  0.462679  0.541180  1
  Ga  Ga25  1  0.840428  0.536038  0.458183  1
  Ga  Ga26  1  0.339349  0.965117  0.457834  1
  Ga  Ga27  1  0.840398  0.536086  0.042484  1
  Ga  Ga28  1  0.660413  0.037224  0.540943  1
  Ga  Ga29  1  0.159434  0.464442  0.958741  1
  Ga  Ga30  1  0.659311  0.035852  0.959113  1
  Si  Si31  1  0.284091  0.877466  0.751417  1
  Si  Si32  1  0.715714  0.123433  0.248980  1
  Si  Si33  1  0.215025  0.376576  0.249118  1
  Si  Si34  1  0.785368  0.622898  0.751206  1
  Si  Si35  1  0.344364  0.966037  0.041427  1
