# generated using pymatgen
data_TaTi2Si3Ru2W
_symmetry_space_group_name_H-M   'P 1'
_cell_length_a   7.46935160
_cell_length_b   7.46935062
_cell_length_c   7.46935117
_cell_angle_alpha   126.38946916
_cell_angle_beta   124.69185478
_cell_angle_gamma   80.65181608
_symmetry_Int_Tables_number   1
_chemical_formula_structural   TaTi2Si3Ru2W
_chemical_formula_sum   'Ta2 Ti4 Si6 Ru4 W2'
_cell_volume   265.98490872
_cell_formula_units_Z   2
loop_
 _symmetry_equiv_pos_site_id
 _symmetry_equiv_pos_as_xyz
  1  'x, y, z'
loop_
 _atom_site_type_symbol
 _atom_site_label
 _atom_site_symmetry_multiplicity
 _atom_site_fract_x
 _atom_site_fract_y
 _atom_site_fract_z
 _atom_site_occupancy
  Ta  Ta0  1  0.745179  0.079583  0.834405  1
  Ta  Ta1  1  0.254821  0.089227  0.334405  1
  Ti  Ti2  1  0.940397  0.901251  0.460855  1
  Ti  Ti3  1  0.059603  0.520458  0.960855  1
  Ti  Ti4  1  0.537713  0.516534  0.478820  1
  Ti  Ti5  1  0.462287  0.941106  0.978820  1
  Si  Si6  1  0.720127  0.451816  0.231689  1
  Si  Si7  1  0.279873  0.511562  0.731689  1
  Si  Si8  1  0.680309  0.182591  0.517408  1
  Si  Si9  1  0.319691  0.837099  0.502280  1
  Si  Si10  1  0.165182  0.182591  0.002280  1
  Si  Si11  1  0.834818  0.837099  0.017408  1
  Ru  Ru12  1  0.907189  0.246653  0.409933  1
  Ru  Ru13  1  0.092811  0.502744  0.339463  1
  Ru  Ru14  1  0.336720  0.246653  0.839463  1
  Ru  Ru15  1  0.663280  0.502744  0.909933  1
  W  W16  1  0.500000  0.754046  0.254046  1
  W  W17  1  0.000000  0.754046  0.754046  1
