# generated using pymatgen
data_Pr5In4PtRh
_symmetry_space_group_name_H-M   'P 1'
_cell_length_a   3.80769000
_cell_length_b   8.37508386
_cell_length_c   18.81006032
_cell_angle_alpha   89.88795076
_cell_angle_beta   90.00000000
_cell_angle_gamma   90.00000000
_symmetry_Int_Tables_number   1
_chemical_formula_structural   Pr5In4PtRh
_chemical_formula_sum   'Pr10 In8 Pt2 Rh2'
_cell_volume   599.84646739
_cell_formula_units_Z   2
loop_
 _symmetry_equiv_pos_site_id
 _symmetry_equiv_pos_as_xyz
  1  'x, y, z'
loop_
 _atom_site_type_symbol
 _atom_site_label
 _atom_site_symmetry_multiplicity
 _atom_site_fract_x
 _atom_site_fract_y
 _atom_site_fract_z
 _atom_site_occupancy
  Pr  Pr0  1  0.000000  0.118222  0.414603  1
  Pr  Pr1  1  0.000000  0.881778  0.585397  1
  Pr  Pr2  1  0.000000  0.385463  0.912649  1
  Pr  Pr3  1  0.000000  0.614537  0.087351  1
  Pr  Pr4  1  0.000000  0.247290  0.219870  1
  Pr  Pr5  1  0.000000  0.752710  0.780130  1
  Pr  Pr6  1  0.000000  0.261959  0.720613  1
  Pr  Pr7  1  0.000000  0.738041  0.279387  1
  Pr  Pr8  1  0.000000  0.000000  0.000000  1
  Pr  Pr9  1  0.000000  0.500000  0.500000  1
  In  In10  1  0.500000  0.430163  0.349217  1
  In  In11  1  0.500000  0.569837  0.650783  1
  In  In12  1  0.500000  0.072832  0.850441  1
  In  In13  1  0.500000  0.927168  0.149559  1
  In  In14  1  0.500000  0.292272  0.070611  1
  In  In15  1  0.500000  0.707728  0.929389  1
  In  In16  1  0.500000  0.208479  0.569681  1
  In  In17  1  0.500000  0.791521  0.430319  1
  Pt  Pt18  1  0.500000  0.017569  0.303068  1
  Pt  Pt19  1  0.500000  0.982431  0.696932  1
  Rh  Rh20  1  0.500000  0.484544  0.804658  1
  Rh  Rh21  1  0.500000  0.515456  0.195342  1
