# generated using pymatgen
data_La5Mg3(Ni4P3)4
_symmetry_space_group_name_H-M   'P 1'
_cell_length_a   12.43863400
_cell_length_b   12.43863361
_cell_length_c   3.91498800
_cell_angle_alpha   90.00000000
_cell_angle_beta   90.00000000
_cell_angle_gamma   120.00000637
_symmetry_Int_Tables_number   1
_chemical_formula_structural   La5Mg3(Ni4P3)4
_chemical_formula_sum   'La5 Mg3 Ni16 P12'
_cell_volume   524.57356776
_cell_formula_units_Z   1
loop_
 _symmetry_equiv_pos_site_id
 _symmetry_equiv_pos_as_xyz
  1  'x, y, z'
loop_
 _atom_site_type_symbol
 _atom_site_label
 _atom_site_symmetry_multiplicity
 _atom_site_fract_x
 _atom_site_fract_y
 _atom_site_fract_z
 _atom_site_occupancy
  La  La0  1  0.190548  0.190548  0.500000  1
  La  La1  1  0.809452  0.000000  0.500000  1
  La  La2  1  0.000000  0.809452  0.500000  1
  La  La3  1  0.333333  0.666667  0.000000  1
  La  La4  1  0.666667  0.333333  0.000000  1
  Mg  Mg5  1  0.570720  0.570720  0.000000  1
  Mg  Mg6  1  0.429280  0.000000  0.000000  1
  Mg  Mg7  1  0.000000  0.429280  0.000000  1
  Ni  Ni8  1  0.720326  0.720326  0.500000  1
  Ni  Ni9  1  0.279674  0.000000  0.500000  1
  Ni  Ni10  1  0.000000  0.279674  0.500000  1
  Ni  Ni11  1  0.187473  0.381937  0.000000  1
  Ni  Ni12  1  0.618063  0.805536  0.000000  1
  Ni  Ni13  1  0.194464  0.812527  0.000000  1
  Ni  Ni14  1  0.805536  0.618063  0.000000  1
  Ni  Ni15  1  0.812527  0.194464  0.000000  1
  Ni  Ni16  1  0.381937  0.187473  0.000000  1
  Ni  Ni17  1  0.365862  0.485408  0.500000  1
  Ni  Ni18  1  0.514592  0.880455  0.500000  1
  Ni  Ni19  1  0.119545  0.634138  0.500000  1
  Ni  Ni20  1  0.880455  0.514592  0.500000  1
  Ni  Ni21  1  0.634138  0.119545  0.500000  1
  Ni  Ni22  1  0.485408  0.365862  0.500000  1
  Ni  Ni23  1  0.000000  0.000000  0.000000  1
  P  P24  1  0.819683  0.819683  0.000000  1
  P  P25  1  0.180317  0.000000  0.000000  1
  P  P26  1  0.000000  0.180317  0.000000  1
  P  P27  1  0.171390  0.470381  0.500000  1
  P  P28  1  0.529619  0.701009  0.500000  1
  P  P29  1  0.298991  0.828610  0.500000  1
  P  P30  1  0.701009  0.529619  0.500000  1
  P  P31  1  0.828610  0.298991  0.500000  1
  P  P32  1  0.470381  0.171390  0.500000  1
  P  P33  1  0.368530  0.368530  0.000000  1
  P  P34  1  0.631470  0.000000  0.000000  1
  P  P35  1  0.000000  0.631470  0.000000  1
