# generated using pymatgen
data_LuTh5(SnIr)6
_symmetry_space_group_name_H-M   'P 1'
_cell_length_a   7.55020112
_cell_length_b   7.55226236
_cell_length_c   8.23693800
_cell_angle_alpha   90.00000000
_cell_angle_beta   90.00000000
_cell_angle_gamma   120.03757583
_symmetry_Int_Tables_number   1
_chemical_formula_structural   LuTh5(SnIr)6
_chemical_formula_sum   'Lu1 Th5 Sn6 Ir6'
_cell_volume   406.60007347
_cell_formula_units_Z   1
loop_
 _symmetry_equiv_pos_site_id
 _symmetry_equiv_pos_as_xyz
  1  'x, y, z'
loop_
 _atom_site_type_symbol
 _atom_site_label
 _atom_site_symmetry_multiplicity
 _atom_site_fract_x
 _atom_site_fract_y
 _atom_site_fract_z
 _atom_site_occupancy
  Lu  Lu0  1  0.402205  0.000953  0.750000  1
  Th  Th1  1  0.416027  0.001274  0.250000  1
  Th  Th2  1  0.584900  0.586199  0.750000  1
  Th  Th3  1  0.590501  0.589365  0.250000  1
  Th  Th4  1  0.999559  0.409953  0.250000  1
  Th  Th5  1  0.001463  0.415252  0.750000  1
  Sn  Sn6  1  0.252310  0.247343  0.500978  1
  Sn  Sn7  1  0.252310  0.247343  0.999022  1
  Sn  Sn8  1  0.743229  0.999853  0.992863  1
  Sn  Sn9  1  0.005021  0.752484  0.501398  1
  Sn  Sn10  1  0.743229  0.999853  0.507137  1
  Sn  Sn11  1  0.005021  0.752484  0.998602  1
  Ir  Ir12  1  0.669852  0.336228  0.503189  1
  Ir  Ir13  1  0.669852  0.336228  0.996811  1
  Ir  Ir14  1  0.333235  0.662579  0.000082  1
  Ir  Ir15  1  0.333235  0.662579  0.499918  1
  Ir  Ir16  1  0.999604  0.000372  0.750000  1
  Ir  Ir17  1  0.998450  0.999657  0.250000  1
