# generated using pymatgen
data_Y3Mg3CuSiGe
_symmetry_space_group_name_H-M   'P 1'
_cell_length_a   7.21486400
_cell_length_b   7.21486479
_cell_length_c   4.26115100
_cell_angle_alpha   90.00000000
_cell_angle_beta   90.00000000
_cell_angle_gamma   119.99998720
_symmetry_Int_Tables_number   1
_chemical_formula_structural   Y3Mg3CuSiGe
_chemical_formula_sum   'Y3 Mg3 Cu1 Si1 Ge1'
_cell_volume   192.09406979
_cell_formula_units_Z   1
loop_
 _symmetry_equiv_pos_site_id
 _symmetry_equiv_pos_as_xyz
  1  'x, y, z'
loop_
 _atom_site_type_symbol
 _atom_site_label
 _atom_site_symmetry_multiplicity
 _atom_site_fract_x
 _atom_site_fract_y
 _atom_site_fract_z
 _atom_site_occupancy
  Y  Y0  1  0.001916  0.586257  0.000000  1
  Y  Y1  1  0.584340  0.998084  0.000000  1
  Y  Y2  1  0.413743  0.415660  0.000000  1
  Mg  Mg3  1  0.000843  0.242035  0.500000  1
  Mg  Mg4  1  0.757965  0.758808  0.500000  1
  Mg  Mg5  1  0.241192  0.999157  0.500000  1
  Cu  Cu6  1  0.000000  0.000000  0.000000  1
  Si  Si7  1  0.333333  0.666667  0.500000  1
  Ge  Ge8  1  0.666667  0.333333  0.500000  1
