# generated using pymatgen
data_Yb3Th(InRh)4
_symmetry_space_group_name_H-M   'P 1'
_cell_length_a   4.16500700
_cell_length_b   7.26518793
_cell_length_c   8.68611684
_cell_angle_alpha   90.31880346
_cell_angle_beta   90.00000000
_cell_angle_gamma   90.00000000
_symmetry_Int_Tables_number   1
_chemical_formula_structural   Yb3Th(InRh)4
_chemical_formula_sum   'Yb3 Th1 In4 Rh4'
_cell_volume   262.83399263
_cell_formula_units_Z   1
loop_
 _symmetry_equiv_pos_site_id
 _symmetry_equiv_pos_as_xyz
  1  'x, y, z'
loop_
 _atom_site_type_symbol
 _atom_site_label
 _atom_site_symmetry_multiplicity
 _atom_site_fract_x
 _atom_site_fract_y
 _atom_site_fract_z
 _atom_site_occupancy
  Yb  Yb0  1  0.750000  0.967506  0.817877  1
  Yb  Yb1  1  0.250000  0.529787  0.325827  1
  Yb  Yb2  1  0.750000  0.466434  0.678511  1
  Th  Th3  1  0.250000  0.032906  0.177259  1
  In  In4  1  0.750000  0.369621  0.058665  1
  In  In5  1  0.250000  0.644352  0.932632  1
  In  In6  1  0.750000  0.844500  0.445804  1
  In  In7  1  0.250000  0.145918  0.565391  1
  Rh  Rh8  1  0.250000  0.759981  0.634914  1
  Rh  Rh9  1  0.750000  0.227737  0.353337  1
  Rh  Rh10  1  0.250000  0.252964  0.875409  1
  Rh  Rh11  1  0.750000  0.758293  0.134372  1
