# generated using pymatgen
data_Dy3Zn3Cu2Pt
_symmetry_space_group_name_H-M   'P 1'
_cell_length_a   7.30571700
_cell_length_b   7.30571717
_cell_length_c   3.73022800
_cell_angle_alpha   90.00000000
_cell_angle_beta   90.00000000
_cell_angle_gamma   119.99999470
_symmetry_Int_Tables_number   1
_chemical_formula_structural   Dy3Zn3Cu2Pt
_chemical_formula_sum   'Dy3 Zn3 Cu2 Pt1'
_cell_volume   172.42162457
_cell_formula_units_Z   1
loop_
 _symmetry_equiv_pos_site_id
 _symmetry_equiv_pos_as_xyz
  1  'x, y, z'
loop_
 _atom_site_type_symbol
 _atom_site_label
 _atom_site_symmetry_multiplicity
 _atom_site_fract_x
 _atom_site_fract_y
 _atom_site_fract_z
 _atom_site_occupancy
  Dy  Dy0  1  0.408832  0.406294  0.000000  1
  Dy  Dy1  1  0.593706  0.002537  0.000000  1
  Dy  Dy2  1  0.997463  0.591168  0.000000  1
  Zn  Zn3  1  0.750324  0.755091  0.500000  1
  Zn  Zn4  1  0.244909  0.995233  0.500000  1
  Zn  Zn5  1  0.004767  0.249676  0.500000  1
  Cu  Cu6  1  0.000000  0.000000  0.000000  1
  Cu  Cu7  1  0.333333  0.666667  0.500000  1
  Pt  Pt8  1  0.666667  0.333333  0.500000  1
