# generated using pymatgen
data_Zr4ZnCo3Au2
_symmetry_space_group_name_H-M   'P 1'
_cell_length_a   7.09260513
_cell_length_b   7.09260570
_cell_length_c   3.37548800
_cell_angle_alpha   90.00000000
_cell_angle_beta   90.00000000
_cell_angle_gamma   91.01041586
_symmetry_Int_Tables_number   1
_chemical_formula_structural   Zr4ZnCo3Au2
_chemical_formula_sum   'Zr4 Zn1 Co3 Au2'
_cell_volume   169.77769442
_cell_formula_units_Z   1
loop_
 _symmetry_equiv_pos_site_id
 _symmetry_equiv_pos_as_xyz
  1  'x, y, z'
loop_
 _atom_site_type_symbol
 _atom_site_label
 _atom_site_symmetry_multiplicity
 _atom_site_fract_x
 _atom_site_fract_y
 _atom_site_fract_z
 _atom_site_occupancy
  Zr  Zr0  1  0.696006  0.161098  0.500000  1
  Zr  Zr1  1  0.150137  0.349863  0.500000  1
  Zr  Zr2  1  0.825554  0.674446  0.500000  1
  Zr  Zr3  1  0.338902  0.803994  0.500000  1
  Zn  Zn4  1  0.373448  0.126552  0.000000  1
  Co  Co5  1  0.122942  0.634132  0.000000  1
  Co  Co6  1  0.622070  0.877930  0.000000  1
  Co  Co7  1  0.865868  0.377058  0.000000  1
  Au  Au8  1  0.005999  0.000926  0.000000  1
  Au  Au9  1  0.499074  0.494001  0.000000  1
