# generated using pymatgen
data_Tm4FeNiRu6
_symmetry_space_group_name_H-M   'P 1'
_cell_length_a   5.26245100
_cell_length_b   5.12964045
_cell_length_c   8.81529400
_cell_angle_alpha   90.00000000
_cell_angle_beta   90.00000000
_cell_angle_gamma   120.22359529
_symmetry_Int_Tables_number   1
_chemical_formula_structural   Tm4FeNiRu6
_chemical_formula_sum   'Tm4 Fe1 Ni1 Ru6'
_cell_volume   205.61722854
_cell_formula_units_Z   1
loop_
 _symmetry_equiv_pos_site_id
 _symmetry_equiv_pos_as_xyz
  1  'x, y, z'
loop_
 _atom_site_type_symbol
 _atom_site_label
 _atom_site_symmetry_multiplicity
 _atom_site_fract_x
 _atom_site_fract_y
 _atom_site_fract_z
 _atom_site_occupancy
  Tm  Tm0  1  0.330486  0.664257  0.433167  1
  Tm  Tm1  1  0.666643  0.334598  0.564722  1
  Tm  Tm2  1  0.666643  0.334598  0.935278  1
  Tm  Tm3  1  0.330486  0.664257  0.066833  1
  Fe  Fe4  1  0.165889  0.331551  0.750000  1
  Ni  Ni5  1  0.336222  0.169259  0.250000  1
  Ru  Ru6  1  0.174273  0.824523  0.750000  1
  Ru  Ru7  1  0.833923  0.663153  0.250000  1
  Ru  Ru8  1  0.660291  0.830069  0.750000  1
  Ru  Ru9  1  0.001030  0.003253  0.000392  1
  Ru  Ru10  1  0.833081  0.177231  0.250000  1
  Ru  Ru11  1  0.001030  0.003253  0.499608  1
