# generated using pymatgen
data_Eu2Y18Si15Pd
_symmetry_space_group_name_H-M   'P 1'
_cell_length_a   7.46195656
_cell_length_b   7.79773487
_cell_length_c   14.75674600
_cell_angle_alpha   89.61337334
_cell_angle_beta   89.94401688
_cell_angle_gamma   89.93921643
_symmetry_Int_Tables_number   1
_chemical_formula_structural   Eu2Y18Si15Pd
_chemical_formula_sum   'Eu2 Y18 Si15 Pd1'
_cell_volume   858.62088235
_cell_formula_units_Z   1
loop_
 _symmetry_equiv_pos_site_id
 _symmetry_equiv_pos_as_xyz
  1  'x, y, z'
loop_
 _atom_site_type_symbol
 _atom_site_label
 _atom_site_symmetry_multiplicity
 _atom_site_fract_x
 _atom_site_fract_y
 _atom_site_fract_z
 _atom_site_occupancy
  Eu  Eu0  1  0.522696  0.573190  0.340936  1
  Eu  Eu1  1  0.023850  0.428196  0.658259  1
  Y  Y2  1  0.811986  0.575374  0.874288  1
  Y  Y3  1  0.314918  0.424490  0.126641  1
  Y  Y4  1  0.184132  0.926830  0.372664  1
  Y  Y5  1  0.682869  0.070778  0.627086  1
  Y  Y6  1  0.183394  0.927986  0.628421  1
  Y  Y7  1  0.683030  0.070184  0.371538  1
  Y  Y8  1  0.816012  0.571778  0.126876  1
  Y  Y9  1  0.318031  0.427583  0.872453  1
  Y  Y10  1  0.644476  0.231904  0.999793  1
  Y  Y11  1  0.155843  0.759889  0.000363  1
  Y  Y12  1  0.350537  0.269392  0.499966  1
  Y  Y13  1  0.850287  0.729790  0.499712  1
  Y  Y14  1  0.474094  0.933452  0.844850  1
  Y  Y15  1  0.972636  0.066650  0.152906  1
  Y  Y16  1  0.471696  0.934635  0.153546  1
  Y  Y17  1  0.970740  0.066542  0.848705  1
  Y  Y18  1  0.528177  0.566774  0.654211  1
  Y  Y19  1  0.029059  0.433952  0.346295  1
  Si  Si20  1  0.018695  0.352391  0.999704  1
  Si  Si21  1  0.477146  0.859611  0.501658  1
  Si  Si22  1  0.978025  0.139368  0.498265  1
  Si  Si23  1  0.647416  0.276241  0.791416  1
  Si  Si24  1  0.148720  0.722443  0.208553  1
  Si  Si25  1  0.352207  0.215301  0.287907  1
  Si  Si26  1  0.850957  0.784671  0.713028  1
  Si  Si27  1  0.360863  0.219203  0.710351  1
  Si  Si28  1  0.860451  0.780388  0.289396  1
  Si  Si29  1  0.644861  0.269297  0.205771  1
  Si  Si30  1  0.146749  0.728387  0.793717  1
  Si  Si31  1  0.772822  0.880272  0.000552  1
  Si  Si32  1  0.259009  0.125491  0.999709  1
  Si  Si33  1  0.237512  0.631636  0.500961  1
  Si  Si34  1  0.736270  0.368516  0.498850  1
  Pd  Pd35  1  0.519833  0.657417  0.000652  1
