# generated using pymatgen
data_Tm5Sc7Co5Sn
_symmetry_space_group_name_H-M   'P 1'
_cell_length_a   7.90454793
_cell_length_b   7.90562333
_cell_length_c   7.90454719
_cell_angle_alpha   106.69019446
_cell_angle_beta   111.25243892
_cell_angle_gamma   110.50193493
_symmetry_Int_Tables_number   1
_chemical_formula_structural   Tm5Sc7Co5Sn
_chemical_formula_sum   'Tm5 Sc7 Co5 Sn1'
_cell_volume   379.58979876
_cell_formula_units_Z   1
loop_
 _symmetry_equiv_pos_site_id
 _symmetry_equiv_pos_as_xyz
  1  'x, y, z'
loop_
 _atom_site_type_symbol
 _atom_site_label
 _atom_site_symmetry_multiplicity
 _atom_site_fract_x
 _atom_site_fract_y
 _atom_site_fract_z
 _atom_site_occupancy
  Tm  Tm0  1  0.472865  0.281418  0.188355  1
  Tm  Tm1  1  0.093064  0.281418  0.808553  1
  Tm  Tm2  1  0.904256  0.718929  0.188997  1
  Tm  Tm3  1  0.529933  0.718929  0.814672  1
  Tm  Tm4  1  0.303760  0.617972  0.314212  1
  Sc  Sc5  1  0.307966  0.994835  0.686868  1
  Sc  Sc6  1  0.692885  0.379128  0.686243  1
  Sc  Sc7  1  0.691734  0.005471  0.313738  1
  Sc  Sc8  1  0.193423  0.213340  0.410153  1
  Sc  Sc9  1  0.809892  0.786541  0.593906  1
  Sc  Sc10  1  0.192636  0.786541  0.976648  1
  Sc  Sc11  1  0.803186  0.213340  0.019918  1
  Co  Co12  1  0.503539  0.616932  0.113393  1
  Co  Co13  1  0.499085  0.377185  0.878100  1
  Co  Co14  1  0.368147  0.003824  0.368137  1
  Co  Co15  1  0.635688  0.003824  0.635678  1
  Co  Co16  1  0.001008  0.001681  0.000673  1
  Sn  Sn17  1  0.996932  0.498690  0.501758  1
