# generated using pymatgen
data_KLi6UO6
_symmetry_space_group_name_H-M   'P 1'
_cell_length_a   5.52965715
_cell_length_b   5.52965729
_cell_length_c   5.52965799
_cell_angle_alpha   101.34872678
_cell_angle_beta   101.34872119
_cell_angle_gamma   101.34872230
_symmetry_Int_Tables_number   1
_chemical_formula_structural   KLi6UO6
_chemical_formula_sum   'K1 Li6 U1 O6'
_cell_volume   157.58067060
_cell_formula_units_Z   1
loop_
 _symmetry_equiv_pos_site_id
 _symmetry_equiv_pos_as_xyz
  1  'x, y, z'
loop_
 _atom_site_type_symbol
 _atom_site_label
 _atom_site_symmetry_multiplicity
 _atom_site_fract_x
 _atom_site_fract_y
 _atom_site_fract_z
 _atom_site_occupancy
  K  K0  1  0.500000  0.500000  0.500000  1
  Li  Li1  1  0.000000  0.348373  0.651627  1
  Li  Li2  1  0.651627  0.000000  0.348373  1
  Li  Li3  1  0.651627  0.348373  0.000000  1
  Li  Li4  1  0.348373  0.000000  0.651627  1
  Li  Li5  1  0.000000  0.651627  0.348373  1
  Li  Li6  1  0.348373  0.651627  0.000000  1
  U  U7  1  0.000000  0.000000  0.000000  1
  O  O8  1  0.277455  0.899535  0.277455  1
  O  O9  1  0.899535  0.277455  0.277455  1
  O  O10  1  0.722545  0.722545  0.100465  1
  O  O11  1  0.722545  0.100465  0.722545  1
  O  O12  1  0.100465  0.722545  0.722545  1
  O  O13  1  0.277455  0.277455  0.899535  1
