# generated using pymatgen
data_Tb3DyBe4(SiO7)2
_symmetry_space_group_name_H-M   'P 1'
_cell_length_a   7.35469909
_cell_length_b   7.35469909
_cell_length_c   4.80167130
_cell_angle_alpha   90.02853212
_cell_angle_beta   89.97146788
_cell_angle_gamma   89.94444269
_symmetry_Int_Tables_number   1
_chemical_formula_structural   Tb3DyBe4(SiO7)2
_chemical_formula_sum   'Tb3 Dy1 Be4 Si2 O14'
_cell_volume   259.72989056
_cell_formula_units_Z   1
loop_
 _symmetry_equiv_pos_site_id
 _symmetry_equiv_pos_as_xyz
  1  'x, y, z'
loop_
 _atom_site_type_symbol
 _atom_site_label
 _atom_site_symmetry_multiplicity
 _atom_site_fract_x
 _atom_site_fract_y
 _atom_site_fract_z
 _atom_site_occupancy
  Tb  Tb0  1  0.158747  0.341253  0.507440  1
  Tb  Tb1  1  0.659126  0.159076  0.492687  1
  Tb  Tb2  1  0.340924  0.840874  0.492687  1
  Dy  Dy3  1  0.841020  0.658980  0.507807  1
  Be  Be4  1  0.136091  0.636646  0.040120  1
  Be  Be5  1  0.636980  0.863020  0.960084  1
  Be  Be6  1  0.363351  0.136649  0.960080  1
  Be  Be7  1  0.863354  0.363909  0.040120  1
  Si  Si8  1  0.500329  0.500099  0.999771  1
  Si  Si9  1  0.999901  0.999671  0.999771  1
  O  O10  1  0.918827  0.163196  0.198018  1
  O  O11  1  0.837196  0.918222  0.800548  1
  O  O12  1  0.163064  0.080972  0.801419  1
  O  O13  1  0.080847  0.836884  0.198956  1
  O  O14  1  0.419028  0.336936  0.801419  1
  O  O15  1  0.581778  0.662804  0.800548  1
  O  O16  1  0.663116  0.419153  0.198956  1
  O  O17  1  0.336804  0.581173  0.198018  1
  O  O18  1  0.642358  0.857642  0.291060  1
  O  O19  1  0.140337  0.641388  0.708995  1
  O  O20  1  0.858612  0.359663  0.708995  1
  O  O21  1  0.358813  0.141187  0.290943  1
  O  O22  1  0.500222  0.999778  0.820216  1
  O  O23  1  0.999175  0.500825  0.181342  1
