# generated using pymatgen
data_Ti8Si3Ge3(MoC)2
_symmetry_space_group_name_H-M   'P 1'
_cell_length_a   7.50664793
_cell_length_b   7.50358783
_cell_length_c   5.19636950
_cell_angle_alpha   89.99639973
_cell_angle_beta   89.95809581
_cell_angle_gamma   120.05216612
_symmetry_Int_Tables_number   1
_chemical_formula_structural   Ti8Si3Ge3(MoC)2
_chemical_formula_sum   'Ti8 Si3 Ge3 Mo2 C2'
_cell_volume   253.34770473
_cell_formula_units_Z   1
loop_
 _symmetry_equiv_pos_site_id
 _symmetry_equiv_pos_as_xyz
  1  'x, y, z'
loop_
 _atom_site_type_symbol
 _atom_site_label
 _atom_site_symmetry_multiplicity
 _atom_site_fract_x
 _atom_site_fract_y
 _atom_site_fract_z
 _atom_site_occupancy
  Ti  Ti0  1  0.666381  0.337657  0.500542  1
  Ti  Ti1  1  0.333563  0.660571  0.500542  1
  Ti  Ti2  1  0.229087  0.003145  0.251121  1
  Ti  Ti3  1  0.772394  0.999765  0.748804  1
  Ti  Ti4  1  0.003043  0.231026  0.251756  1
  Ti  Ti5  1  0.996743  0.769232  0.748723  1
  Ti  Ti6  1  0.768613  0.768585  0.252141  1
  Ti  Ti7  1  0.229828  0.232675  0.747745  1
  Si  Si8  1  0.998411  0.404372  0.755821  1
  Si  Si9  1  0.407551  0.406237  0.242590  1
  Si  Si10  1  0.593990  0.594259  0.756768  1
  Ge  Ge11  1  0.596007  0.000430  0.249440  1
  Ge  Ge12  1  0.402487  0.998570  0.750072  1
  Ge  Ge13  1  0.001804  0.595998  0.249429  1
  Mo  Mo14  1  0.333453  0.660913  0.997302  1
  Mo  Mo15  1  0.666672  0.337015  0.997333  1
  C  C16  1  0.999982  0.999610  0.000410  1
  C  C17  1  0.999990  0.999941  0.499461  1
