# generated using pymatgen
data_TiBe8VRe2
_symmetry_space_group_name_H-M   'P 1'
_cell_length_a   4.39028600
_cell_length_b   4.39028632
_cell_length_c   7.17408500
_cell_angle_alpha   90.00000000
_cell_angle_beta   90.00000000
_cell_angle_gamma   120.00001265
_symmetry_Int_Tables_number   1
_chemical_formula_structural   TiBe8VRe2
_chemical_formula_sum   'Ti1 Be8 V1 Re2'
_cell_volume   119.75199347
_cell_formula_units_Z   1
loop_
 _symmetry_equiv_pos_site_id
 _symmetry_equiv_pos_as_xyz
  1  'x, y, z'
loop_
 _atom_site_type_symbol
 _atom_site_label
 _atom_site_symmetry_multiplicity
 _atom_site_fract_x
 _atom_site_fract_y
 _atom_site_fract_z
 _atom_site_occupancy
  Ti  Ti0  1  0.666667  0.333333  0.565624  1
  Be  Be1  1  0.000000  0.000000  0.996939  1
  Be  Be2  1  0.000000  0.000000  0.497063  1
  Be  Be3  1  0.830215  0.660429  0.249394  1
  Be  Be4  1  0.170638  0.829362  0.751244  1
  Be  Be5  1  0.658724  0.829362  0.751244  1
  Be  Be6  1  0.339571  0.169785  0.249394  1
  Be  Be7  1  0.830215  0.169785  0.249394  1
  Be  Be8  1  0.170638  0.341276  0.751244  1
  V  V9  1  0.333333  0.666667  0.063469  1
  Re  Re10  1  0.666667  0.333333  0.942541  1
  Re  Re11  1  0.333333  0.666667  0.432449  1
