# generated using pymatgen
data_TbHo2(Ni3P2)3
_symmetry_space_group_name_H-M   'P 1'
_cell_length_a   3.76877700
_cell_length_b   10.44324700
_cell_length_c   12.30076600
_cell_angle_alpha   90.00000000
_cell_angle_beta   90.00000000
_cell_angle_gamma   90.00000000
_symmetry_Int_Tables_number   1
_chemical_formula_structural   TbHo2(Ni3P2)3
_chemical_formula_sum   'Tb2 Ho4 Ni18 P12'
_cell_volume   484.13685835
_cell_formula_units_Z   2
loop_
 _symmetry_equiv_pos_site_id
 _symmetry_equiv_pos_as_xyz
  1  'x, y, z'
loop_
 _atom_site_type_symbol
 _atom_site_label
 _atom_site_symmetry_multiplicity
 _atom_site_fract_x
 _atom_site_fract_y
 _atom_site_fract_z
 _atom_site_occupancy
  Tb  Tb0  1  0.751966  0.000000  0.478997  1
  Tb  Tb1  1  0.251966  0.500000  0.521003  1
  Ho  Ho2  1  0.251781  0.683493  0.794409  1
  Ho  Ho3  1  0.251781  0.316507  0.794409  1
  Ho  Ho4  1  0.751781  0.816507  0.205591  1
  Ho  Ho5  1  0.751781  0.183493  0.205591  1
  Ni  Ni6  1  0.752257  0.000000  0.016635  1
  Ni  Ni7  1  0.252257  0.500000  0.983365  1
  Ni  Ni8  1  0.251499  0.199680  0.571385  1
  Ni  Ni9  1  0.251499  0.800320  0.571385  1
  Ni  Ni10  1  0.751499  0.300320  0.428615  1
  Ni  Ni11  1  0.751499  0.699680  0.428615  1
  Ni  Ni12  1  0.252530  0.620809  0.288058  1
  Ni  Ni13  1  0.252530  0.379191  0.288058  1
  Ni  Ni14  1  0.752530  0.879191  0.711942  1
  Ni  Ni15  1  0.752530  0.120809  0.711942  1
  Ni  Ni16  1  0.251814  0.167230  0.004100  1
  Ni  Ni17  1  0.251814  0.832770  0.004100  1
  Ni  Ni18  1  0.751814  0.332770  0.995900  1
  Ni  Ni19  1  0.751814  0.667230  0.995900  1
  Ni  Ni20  1  0.250908  0.000000  0.842229  1
  Ni  Ni21  1  0.750908  0.500000  0.157771  1
  Ni  Ni22  1  0.251692  0.000000  0.299686  1
  Ni  Ni23  1  0.751692  0.500000  0.700314  1
  P  P24  1  0.251956  0.187218  0.385277  1
  P  P25  1  0.251956  0.812782  0.385277  1
  P  P26  1  0.751956  0.312782  0.614723  1
  P  P27  1  0.751956  0.687218  0.614723  1
  P  P28  1  0.251712  0.000000  0.123671  1
  P  P29  1  0.751712  0.500000  0.876329  1
  P  P30  1  0.251585  0.652055  0.107338  1
  P  P31  1  0.251585  0.347945  0.107338  1
  P  P32  1  0.751585  0.847945  0.892662  1
  P  P33  1  0.751585  0.152055  0.892662  1
  P  P34  1  0.251934  0.000000  0.656850  1
  P  P35  1  0.751934  0.500000  0.343150  1
