# generated using pymatgen
data_Ho2SiPd14
_symmetry_space_group_name_H-M   'P 1'
_cell_length_a   8.91872600
_cell_length_b   8.91872600
_cell_length_c   7.08449000
_cell_angle_alpha   90.00000000
_cell_angle_beta   90.00000000
_cell_angle_gamma   90.00000000
_symmetry_Int_Tables_number   1
_chemical_formula_structural   Ho2SiPd14
_chemical_formula_sum   'Ho4 Si2 Pd28'
_cell_volume   563.52635921
_cell_formula_units_Z   2
loop_
 _symmetry_equiv_pos_site_id
 _symmetry_equiv_pos_as_xyz
  1  'x, y, z'
loop_
 _atom_site_type_symbol
 _atom_site_label
 _atom_site_symmetry_multiplicity
 _atom_site_fract_x
 _atom_site_fract_y
 _atom_site_fract_z
 _atom_site_occupancy
  Ho  Ho0  1  0.500000  0.000000  0.935379  1
  Ho  Ho1  1  0.000000  0.500000  0.064621  1
  Ho  Ho2  1  0.000000  0.000000  0.500000  1
  Ho  Ho3  1  0.500000  0.500000  0.500000  1
  Si  Si4  1  0.500000  0.000000  0.448568  1
  Si  Si5  1  0.000000  0.500000  0.551432  1
  Pd  Pd6  1  0.334405  0.834405  0.616393  1
  Pd  Pd7  1  0.334405  0.165595  0.616393  1
  Pd  Pd8  1  0.665595  0.834405  0.616393  1
  Pd  Pd9  1  0.665595  0.165595  0.616393  1
  Pd  Pd10  1  0.165595  0.665595  0.383607  1
  Pd  Pd11  1  0.165595  0.334405  0.383607  1
  Pd  Pd12  1  0.834405  0.665595  0.383607  1
  Pd  Pd13  1  0.834405  0.334405  0.383607  1
  Pd  Pd14  1  0.500000  0.770148  0.256078  1
  Pd  Pd15  1  0.500000  0.229852  0.256078  1
  Pd  Pd16  1  0.270148  0.000000  0.256078  1
  Pd  Pd17  1  0.729852  0.000000  0.256078  1
  Pd  Pd18  1  0.000000  0.729852  0.743922  1
  Pd  Pd19  1  0.000000  0.270148  0.743922  1
  Pd  Pd20  1  0.229852  0.500000  0.743922  1
  Pd  Pd21  1  0.770148  0.500000  0.743922  1
  Pd  Pd22  1  0.500000  0.348936  0.852963  1
  Pd  Pd23  1  0.500000  0.651064  0.852963  1
  Pd  Pd24  1  0.848936  0.000000  0.852963  1
  Pd  Pd25  1  0.151064  0.000000  0.852963  1
  Pd  Pd26  1  0.000000  0.151064  0.147037  1
  Pd  Pd27  1  0.000000  0.848936  0.147037  1
  Pd  Pd28  1  0.651064  0.500000  0.147037  1
  Pd  Pd29  1  0.348936  0.500000  0.147037  1
  Pd  Pd30  1  0.250000  0.750000  0.000000  1
  Pd  Pd31  1  0.250000  0.250000  0.000000  1
  Pd  Pd32  1  0.750000  0.750000  0.000000  1
  Pd  Pd33  1  0.750000  0.250000  0.000000  1
