# generated using pymatgen
data_La4Yb(CoB3)2
_symmetry_space_group_name_H-M   'P 1'
_cell_length_a   9.27985507
_cell_length_b   9.27985433
_cell_length_c   9.27985383
_cell_angle_alpha   34.26090794
_cell_angle_beta   34.26091478
_cell_angle_gamma   34.26091036
_symmetry_Int_Tables_number   1
_chemical_formula_structural   La4Yb(CoB3)2
_chemical_formula_sum   'La4 Yb1 Co2 B6'
_cell_volume   225.85639734
_cell_formula_units_Z   1
loop_
 _symmetry_equiv_pos_site_id
 _symmetry_equiv_pos_as_xyz
  1  'x, y, z'
loop_
 _atom_site_type_symbol
 _atom_site_label
 _atom_site_symmetry_multiplicity
 _atom_site_fract_x
 _atom_site_fract_y
 _atom_site_fract_z
 _atom_site_occupancy
  La  La0  1  0.579523  0.579523  0.579523  1
  La  La1  1  0.420477  0.420477  0.420477  1
  La  La2  1  0.752780  0.752780  0.752780  1
  La  La3  1  0.247220  0.247220  0.247220  1
  Yb  Yb4  1  0.000000  0.000000  0.000000  1
  Co  Co5  1  0.874364  0.874364  0.874364  1
  Co  Co6  1  0.125636  0.125636  0.125636  1
  B  B7  1  0.500000  0.832671  0.167329  1
  B  B8  1  0.167329  0.500000  0.832671  1
  B  B9  1  0.832671  0.167329  0.500000  1
  B  B10  1  0.500000  0.167329  0.832671  1
  B  B11  1  0.832671  0.500000  0.167329  1
  B  B12  1  0.167329  0.832671  0.500000  1
