# generated using pymatgen
data_Nd5In4HgIr
_symmetry_space_group_name_H-M   'P 1'
_cell_length_a   3.78848700
_cell_length_b   8.47866914
_cell_length_c   19.00527924
_cell_angle_alpha   89.87187244
_cell_angle_beta   90.00000000
_cell_angle_gamma   90.00000000
_symmetry_Int_Tables_number   1
_chemical_formula_structural   Nd5In4HgIr
_chemical_formula_sum   'Nd10 In8 Hg2 Ir2'
_cell_volume   610.47327837
_cell_formula_units_Z   2
loop_
 _symmetry_equiv_pos_site_id
 _symmetry_equiv_pos_as_xyz
  1  'x, y, z'
loop_
 _atom_site_type_symbol
 _atom_site_label
 _atom_site_symmetry_multiplicity
 _atom_site_fract_x
 _atom_site_fract_y
 _atom_site_fract_z
 _atom_site_occupancy
  Nd  Nd0  1  0.000000  0.125845  0.423268  1
  Nd  Nd1  1  0.000000  0.874155  0.576732  1
  Nd  Nd2  1  0.000000  0.386337  0.915182  1
  Nd  Nd3  1  0.000000  0.613663  0.084818  1
  Nd  Nd4  1  0.000000  0.263588  0.215818  1
  Nd  Nd5  1  0.000000  0.736412  0.784182  1
  Nd  Nd6  1  0.000000  0.289520  0.724377  1
  Nd  Nd7  1  0.000000  0.710480  0.275623  1
  Nd  Nd8  1  0.000000  0.000000  0.000000  1
  Nd  Nd9  1  0.000000  0.500000  0.500000  1
  In  In10  1  0.500000  0.425338  0.351895  1
  In  In11  1  0.500000  0.574662  0.648105  1
  In  In12  1  0.500000  0.078225  0.854160  1
  In  In13  1  0.500000  0.921775  0.145840  1
  In  In14  1  0.500000  0.292144  0.068154  1
  In  In15  1  0.500000  0.707856  0.931846  1
  In  In16  1  0.500000  0.211382  0.570305  1
  In  In17  1  0.500000  0.788618  0.429695  1
  Hg  Hg18  1  0.500000  0.018851  0.300531  1
  Hg  Hg19  1  0.500000  0.981149  0.699469  1
  Ir  Ir20  1  0.500000  0.484268  0.805466  1
  Ir  Ir21  1  0.500000  0.515732  0.194534  1
