# generated using pymatgen
data_Nd2CdGa7Co2
_symmetry_space_group_name_H-M   'P 1'
_cell_length_a   4.23337282
_cell_length_b   6.53092219
_cell_length_c   8.27919818
_cell_angle_alpha   90.72343961
_cell_angle_beta   104.81288377
_cell_angle_gamma   89.99999721
_symmetry_Int_Tables_number   1
_chemical_formula_structural   Nd2CdGa7Co2
_chemical_formula_sum   'Nd2 Cd1 Ga7 Co2'
_cell_volume   221.27563657
_cell_formula_units_Z   1
loop_
 _symmetry_equiv_pos_site_id
 _symmetry_equiv_pos_as_xyz
  1  'x, y, z'
loop_
 _atom_site_type_symbol
 _atom_site_label
 _atom_site_symmetry_multiplicity
 _atom_site_fract_x
 _atom_site_fract_y
 _atom_site_fract_z
 _atom_site_occupancy
  Nd  Nd0  1  0.879860  0.759245  0.759719  1
  Nd  Nd1  1  0.120140  0.240755  0.240281  1
  Cd  Cd2  1  0.500000  0.500000  0.000000  1
  Ga  Ga3  1  0.500000  0.000000  0.000000  1
  Ga  Ga4  1  0.075500  0.752142  0.151001  1
  Ga  Ga5  1  0.924500  0.247858  0.848999  1
  Ga  Ga6  1  0.691941  0.548977  0.383883  1
  Ga  Ga7  1  0.308059  0.451023  0.616117  1
  Ga  Ga8  1  0.690749  0.944662  0.381498  1
  Ga  Ga9  1  0.309251  0.055338  0.618502  1
  Co  Co10  1  0.221374  0.751757  0.442747  1
  Co  Co11  1  0.778626  0.248243  0.557253  1
