# generated using pymatgen
data_Ho8MgCd2SnAu8
_symmetry_space_group_name_H-M   'P 1'
_cell_length_a   8.00458900
_cell_length_b   8.00458900
_cell_length_c   7.34217900
_cell_angle_alpha   90.00000000
_cell_angle_beta   90.00000000
_cell_angle_gamma   90.00000000
_symmetry_Int_Tables_number   1
_chemical_formula_structural   Ho8MgCd2SnAu8
_chemical_formula_sum   'Ho8 Mg1 Cd2 Sn1 Au8'
_cell_volume   470.43870277
_cell_formula_units_Z   1
loop_
 _symmetry_equiv_pos_site_id
 _symmetry_equiv_pos_as_xyz
  1  'x, y, z'
loop_
 _atom_site_type_symbol
 _atom_site_label
 _atom_site_symmetry_multiplicity
 _atom_site_fract_x
 _atom_site_fract_y
 _atom_site_fract_z
 _atom_site_occupancy
  Ho  Ho0  1  0.851944  0.172601  0.500049  1
  Ho  Ho1  1  0.148056  0.827399  0.500049  1
  Ho  Ho2  1  0.327399  0.351944  0.999951  1
  Ho  Ho3  1  0.672601  0.648056  0.999951  1
  Ho  Ho4  1  0.688916  0.664988  0.500846  1
  Ho  Ho5  1  0.311084  0.335012  0.500846  1
  Ho  Ho6  1  0.164988  0.811084  0.999154  1
  Ho  Ho7  1  0.835012  0.188916  0.999154  1
  Mg  Mg8  1  0.500000  0.000000  0.250000  1
  Cd  Cd9  1  0.000000  0.500000  0.750000  1
  Cd  Cd10  1  0.500000  0.000000  0.750000  1
  Sn  Sn11  1  0.000000  0.500000  0.250000  1
  Au  Au12  1  0.614143  0.353417  0.266794  1
  Au  Au13  1  0.385857  0.646583  0.266794  1
  Au  Au14  1  0.137062  0.123205  0.766613  1
  Au  Au15  1  0.862938  0.876795  0.766613  1
  Au  Au16  1  0.376795  0.637062  0.733387  1
  Au  Au17  1  0.623205  0.362938  0.733387  1
  Au  Au18  1  0.853417  0.885857  0.233206  1
  Au  Au19  1  0.146583  0.114143  0.233206  1
