# generated using pymatgen
data_TbSmHo6(SiBr6)2
_symmetry_space_group_name_H-M   'P 1'
_cell_length_a   4.05663300
_cell_length_b   13.25439028
_cell_length_c   14.01733936
_cell_angle_alpha   90.31300134
_cell_angle_beta   90.00000000
_cell_angle_gamma   90.00000000
_symmetry_Int_Tables_number   1
_chemical_formula_structural   TbSmHo6(SiBr6)2
_chemical_formula_sum   'Tb1 Sm1 Ho6 Si2 Br12'
_cell_volume   753.67581789
_cell_formula_units_Z   1
loop_
 _symmetry_equiv_pos_site_id
 _symmetry_equiv_pos_as_xyz
  1  'x, y, z'
loop_
 _atom_site_type_symbol
 _atom_site_label
 _atom_site_symmetry_multiplicity
 _atom_site_fract_x
 _atom_site_fract_y
 _atom_site_fract_z
 _atom_site_occupancy
  Tb  Tb0  1  0.000000  0.380537  0.079458  1
  Sm  Sm1  1  0.000000  0.619588  0.920400  1
  Ho  Ho2  1  0.500000  0.117462  0.341907  1
  Ho  Ho3  1  0.500000  0.882749  0.657865  1
  Ho  Ho4  1  0.500000  0.617827  0.158794  1
  Ho  Ho5  1  0.500000  0.381680  0.841514  1
  Ho  Ho6  1  0.000000  0.117152  0.578009  1
  Ho  Ho7  1  0.000000  0.882846  0.421967  1
  Si  Si8  1  0.500000  0.000096  0.499819  1
  Si  Si9  1  0.500000  0.498383  0.001061  1
  Br  Br10  1  0.500000  0.242379  0.165058  1
  Br  Br11  1  0.500000  0.760875  0.833321  1
  Br  Br12  1  0.500000  0.746071  0.337150  1
  Br  Br13  1  0.500000  0.253656  0.663017  1
  Br  Br14  1  0.000000  0.253890  0.411610  1
  Br  Br15  1  0.000000  0.746167  0.588234  1
  Br  Br16  1  0.000000  0.755460  0.093126  1
  Br  Br17  1  0.000000  0.245065  0.909343  1
  Br  Br18  1  0.000000  0.001961  0.244250  1
  Br  Br19  1  0.000000  0.998399  0.755589  1
  Br  Br20  1  0.000000  0.504319  0.257476  1
  Br  Br21  1  0.000000  0.493437  0.741033  1
