# generated using pymatgen
data_Y5Cr3(Co4P3)4
_symmetry_space_group_name_H-M   'P 1'
_cell_length_a   12.00452000
_cell_length_b   12.00452012
_cell_length_c   3.67480800
_cell_angle_alpha   90.00000000
_cell_angle_beta   90.00000000
_cell_angle_gamma   119.99999415
_symmetry_Int_Tables_number   1
_chemical_formula_structural   Y5Cr3(Co4P3)4
_chemical_formula_sum   'Y5 Cr3 Co16 P12'
_cell_volume   458.62203170
_cell_formula_units_Z   1
loop_
 _symmetry_equiv_pos_site_id
 _symmetry_equiv_pos_as_xyz
  1  'x, y, z'
loop_
 _atom_site_type_symbol
 _atom_site_label
 _atom_site_symmetry_multiplicity
 _atom_site_fract_x
 _atom_site_fract_y
 _atom_site_fract_z
 _atom_site_occupancy
  Y  Y0  1  0.666667  0.333333  0.000000  1
  Y  Y1  1  0.333333  0.666667  0.000000  1
  Y  Y2  1  0.187148  0.187148  0.500000  1
  Y  Y3  1  0.812852  0.000000  0.500000  1
  Y  Y4  1  0.000000  0.812852  0.500000  1
  Cr  Cr5  1  0.554541  0.554541  0.000000  1
  Cr  Cr6  1  0.445459  0.000000  0.000000  1
  Cr  Cr7  1  0.000000  0.445459  0.000000  1
  Co  Co8  1  0.823170  0.200485  0.000000  1
  Co  Co9  1  0.799515  0.622685  0.000000  1
  Co  Co10  1  0.377315  0.176830  0.000000  1
  Co  Co11  1  0.200485  0.823170  0.000000  1
  Co  Co12  1  0.622685  0.799515  0.000000  1
  Co  Co13  1  0.176830  0.377315  0.000000  1
  Co  Co14  1  0.643876  0.125844  0.500000  1
  Co  Co15  1  0.874156  0.518032  0.500000  1
  Co  Co16  1  0.481968  0.356124  0.500000  1
  Co  Co17  1  0.125844  0.643876  0.500000  1
  Co  Co18  1  0.518032  0.874156  0.500000  1
  Co  Co19  1  0.356124  0.481968  0.500000  1
  Co  Co20  1  0.717043  0.717043  0.500000  1
  Co  Co21  1  0.282957  0.000000  0.500000  1
  Co  Co22  1  0.000000  0.282957  0.500000  1
  Co  Co23  1  0.000000  0.000000  0.000000  1
  P  P24  1  0.367086  0.367086  0.000000  1
  P  P25  1  0.632914  0.000000  0.000000  1
  P  P26  1  0.000000  0.632914  0.000000  1
  P  P27  1  0.837492  0.317131  0.500000  1
  P  P28  1  0.682869  0.520361  0.500000  1
  P  P29  1  0.479639  0.162508  0.500000  1
  P  P30  1  0.317131  0.837492  0.500000  1
  P  P31  1  0.520361  0.682869  0.500000  1
  P  P32  1  0.162508  0.479639  0.500000  1
  P  P33  1  0.820388  0.820388  0.000000  1
  P  P34  1  0.179612  0.000000  0.000000  1
  P  P35  1  0.000000  0.179612  0.000000  1
