# generated using pymatgen
data_HfSc21Os8
_symmetry_space_group_name_H-M   'P 1'
_cell_length_a   9.42082634
_cell_length_b   9.42082668
_cell_length_c   9.42082619
_cell_angle_alpha   60.63335341
_cell_angle_beta   60.63335247
_cell_angle_gamma   60.63335022
_symmetry_Int_Tables_number   1
_chemical_formula_structural   HfSc21Os8
_chemical_formula_sum   'Hf1 Sc21 Os8'
_cell_volume   599.67912374
_cell_formula_units_Z   1
loop_
 _symmetry_equiv_pos_site_id
 _symmetry_equiv_pos_as_xyz
  1  'x, y, z'
loop_
 _atom_site_type_symbol
 _atom_site_label
 _atom_site_symmetry_multiplicity
 _atom_site_fract_x
 _atom_site_fract_y
 _atom_site_fract_z
 _atom_site_occupancy
  Hf  Hf0  1  0.842744  0.842744  0.842744  1
  Sc  Sc1  1  0.532755  0.155338  0.155338  1
  Sc  Sc2  1  0.155338  0.155338  0.532755  1
  Sc  Sc3  1  0.155338  0.532755  0.155338  1
  Sc  Sc4  1  0.845116  0.845116  0.467333  1
  Sc  Sc5  1  0.845116  0.467333  0.845116  1
  Sc  Sc6  1  0.467333  0.845116  0.845116  1
  Sc  Sc7  1  0.156552  0.156552  0.156552  1
  Sc  Sc8  1  0.198580  0.801409  0.198580  1
  Sc  Sc9  1  0.200057  0.800597  0.800597  1
  Sc  Sc10  1  0.801409  0.198580  0.198580  1
  Sc  Sc11  1  0.800597  0.800597  0.200057  1
  Sc  Sc12  1  0.198580  0.198580  0.801409  1
  Sc  Sc13  1  0.800597  0.200057  0.800597  1
  Sc  Sc14  1  0.381943  0.381943  0.381943  1
  Sc  Sc15  1  0.149892  0.615534  0.615534  1
  Sc  Sc16  1  0.615534  0.149892  0.615534  1
  Sc  Sc17  1  0.615534  0.615534  0.149892  1
  Sc  Sc18  1  0.384270  0.850663  0.384270  1
  Sc  Sc19  1  0.384270  0.384270  0.850663  1
  Sc  Sc20  1  0.850663  0.384270  0.384270  1
  Sc  Sc21  1  0.618182  0.618182  0.618182  1
  Os  Os22  1  0.499720  0.499720  0.999789  1
  Os  Os23  1  0.997531  0.997531  0.505286  1
  Os  Os24  1  0.499720  0.999789  0.499720  1
  Os  Os25  1  0.999789  0.499720  0.499720  1
  Os  Os26  1  0.505286  0.997531  0.997531  1
  Os  Os27  1  0.997531  0.505286  0.997531  1
  Os  Os28  1  0.500247  0.500247  0.500247  1
  Os  Os29  1  0.999778  0.999778  0.999778  1
