# generated using pymatgen
data_Dy3Sc2Al3O12
_symmetry_space_group_name_H-M   'P 1'
_cell_length_a   10.77945451
_cell_length_b   10.77945507
_cell_length_c   10.77945500
_cell_angle_alpha   109.47122238
_cell_angle_beta   109.47122343
_cell_angle_gamma   109.47121944
_symmetry_Int_Tables_number   1
_chemical_formula_structural   Dy3Sc2Al3O12
_chemical_formula_sum   'Dy12 Sc8 Al12 O48'
_cell_volume   964.20301703
_cell_formula_units_Z   4
loop_
 _symmetry_equiv_pos_site_id
 _symmetry_equiv_pos_as_xyz
  1  'x, y, z'
loop_
 _atom_site_type_symbol
 _atom_site_label
 _atom_site_symmetry_multiplicity
 _atom_site_fract_x
 _atom_site_fract_y
 _atom_site_fract_z
 _atom_site_occupancy
  Dy  Dy0  1  0.375000  0.125000  0.250000  1
  Dy  Dy1  1  0.125000  0.375000  0.750000  1
  Dy  Dy2  1  0.375000  0.750000  0.125000  1
  Dy  Dy3  1  0.125000  0.250000  0.375000  1
  Dy  Dy4  1  0.250000  0.375000  0.125000  1
  Dy  Dy5  1  0.750000  0.125000  0.375000  1
  Dy  Dy6  1  0.875000  0.750000  0.625000  1
  Dy  Dy7  1  0.875000  0.625000  0.250000  1
  Dy  Dy8  1  0.625000  0.875000  0.750000  1
  Dy  Dy9  1  0.750000  0.625000  0.875000  1
  Dy  Dy10  1  0.250000  0.875000  0.625000  1
  Dy  Dy11  1  0.625000  0.250000  0.875000  1
  Sc  Sc12  1  0.500000  0.000000  0.000000  1
  Sc  Sc13  1  0.000000  0.500000  0.000000  1
  Sc  Sc14  1  0.000000  0.000000  0.500000  1
  Sc  Sc15  1  0.500000  0.500000  0.000000  1
  Sc  Sc16  1  0.500000  0.500000  0.500000  1
  Sc  Sc17  1  0.000000  0.500000  0.500000  1
  Sc  Sc18  1  0.500000  0.000000  0.500000  1
  Sc  Sc19  1  0.000000  0.000000  0.000000  1
  Al  Al20  1  0.125000  0.750000  0.875000  1
  Al  Al21  1  0.875000  0.250000  0.125000  1
  Al  Al22  1  0.625000  0.375000  0.250000  1
  Al  Al23  1  0.750000  0.875000  0.125000  1
  Al  Al24  1  0.875000  0.125000  0.750000  1
  Al  Al25  1  0.250000  0.625000  0.375000  1
  Al  Al26  1  0.750000  0.375000  0.625000  1
  Al  Al27  1  0.250000  0.125000  0.875000  1
  Al  Al28  1  0.125000  0.875000  0.250000  1
  Al  Al29  1  0.375000  0.250000  0.625000  1
  Al  Al30  1  0.625000  0.750000  0.375000  1
  Al  Al31  1  0.375000  0.625000  0.750000  1
  O  O32  1  0.474302  0.374157  0.286387  1
  O  O33  1  0.312085  0.899854  0.025698  1
  O  O34  1  0.600146  0.912231  0.125843  1
  O  O35  1  0.587769  0.187915  0.213613  1
  O  O36  1  0.125843  0.025698  0.213613  1
  O  O37  1  0.187915  0.213613  0.587769  1
  O  O38  1  0.187915  0.474302  0.600146  1
  O  O39  1  0.213613  0.587769  0.187915  1
  O  O40  1  0.374157  0.587769  0.899854  1
  O  O41  1  0.912231  0.286387  0.312085  1
  O  O42  1  0.286387  0.312085  0.912231  1
  O  O43  1  0.213613  0.125843  0.025698  1
  O  O44  1  0.474302  0.600146  0.187915  1
  O  O45  1  0.899854  0.374157  0.587769  1
  O  O46  1  0.025698  0.213613  0.125843  1
  O  O47  1  0.600146  0.187915  0.474302  1
  O  O48  1  0.587769  0.899854  0.374157  1
  O  O49  1  0.025698  0.312085  0.899854  1
  O  O50  1  0.912231  0.125843  0.600146  1
  O  O51  1  0.625843  0.412231  0.100146  1
  O  O52  1  0.125843  0.600146  0.912231  1
  O  O53  1  0.286387  0.474302  0.374157  1
  O  O54  1  0.899854  0.025698  0.312085  1
  O  O55  1  0.312085  0.912231  0.286387  1
  O  O56  1  0.525698  0.625843  0.713613  1
  O  O57  1  0.687915  0.100146  0.974302  1
  O  O58  1  0.399854  0.087769  0.874157  1
  O  O59  1  0.412231  0.812085  0.786387  1
  O  O60  1  0.874157  0.974302  0.786387  1
  O  O61  1  0.812085  0.786387  0.412231  1
  O  O62  1  0.812085  0.525698  0.399854  1
  O  O63  1  0.786387  0.412231  0.812085  1
  O  O64  1  0.687915  0.087769  0.713613  1
  O  O65  1  0.100146  0.974302  0.687915  1
  O  O66  1  0.713613  0.525698  0.625843  1
  O  O67  1  0.625843  0.713613  0.525698  1
  O  O68  1  0.874157  0.399854  0.087769  1
  O  O69  1  0.087769  0.874157  0.399854  1
  O  O70  1  0.974302  0.687915  0.100146  1
  O  O71  1  0.412231  0.100146  0.625843  1
  O  O72  1  0.399854  0.812085  0.525698  1
  O  O73  1  0.974302  0.786387  0.874157  1
  O  O74  1  0.100146  0.625843  0.412231  1
  O  O75  1  0.525698  0.399854  0.812085  1
  O  O76  1  0.786387  0.874157  0.974302  1
  O  O77  1  0.713613  0.687915  0.087769  1
  O  O78  1  0.087769  0.713613  0.687915  1
  O  O79  1  0.374157  0.286387  0.474302  1
