# generated using pymatgen
data_Pr2ZnCoO6
_symmetry_space_group_name_H-M   'P 1'
_cell_length_a   5.50756685
_cell_length_b   5.55552600
_cell_length_c   7.78422741
_cell_angle_alpha   90.00000000
_cell_angle_beta   90.25642604
_cell_angle_gamma   90.00000000
_symmetry_Int_Tables_number   1
_chemical_formula_structural   Pr2ZnCoO6
_chemical_formula_sum   'Pr4 Zn2 Co2 O12'
_cell_volume   238.17497425
_cell_formula_units_Z   2
loop_
 _symmetry_equiv_pos_site_id
 _symmetry_equiv_pos_as_xyz
  1  'x, y, z'
loop_
 _atom_site_type_symbol
 _atom_site_label
 _atom_site_symmetry_multiplicity
 _atom_site_fract_x
 _atom_site_fract_y
 _atom_site_fract_z
 _atom_site_occupancy
  Pr  Pr0  1  0.011131  0.954986  0.749851  1
  Pr  Pr1  1  0.488869  0.454986  0.750149  1
  Pr  Pr2  1  0.511131  0.545014  0.249851  1
  Pr  Pr3  1  0.988869  0.045014  0.250149  1
  Zn  Zn4  1  0.500000  0.000000  0.500000  1
  Zn  Zn5  1  0.000000  0.500000  0.000000  1
  Co  Co6  1  0.000000  0.500000  0.500000  1
  Co  Co7  1  0.500000  0.000000  0.000000  1
  O  O8  1  0.726339  0.295260  0.455809  1
  O  O9  1  0.773661  0.795260  0.044191  1
  O  O10  1  0.201308  0.226097  0.544076  1
  O  O11  1  0.298692  0.726097  0.955924  1
  O  O12  1  0.273661  0.704740  0.544191  1
  O  O13  1  0.226339  0.204740  0.955809  1
  O  O14  1  0.798692  0.773903  0.455924  1
  O  O15  1  0.701308  0.273903  0.044076  1
  O  O16  1  0.081287  0.482747  0.261128  1
  O  O17  1  0.418713  0.982747  0.238872  1
  O  O18  1  0.581287  0.017253  0.761128  1
  O  O19  1  0.918713  0.517253  0.738872  1
