# generated using pymatgen
data_Tm5Lu5Ru3Rh
_symmetry_space_group_name_H-M   'P 1'
_cell_length_a   6.21287985
_cell_length_b   7.23053361
_cell_length_c   8.28657709
_cell_angle_alpha   96.85302507
_cell_angle_beta   112.04950563
_cell_angle_gamma   90.10691838
_symmetry_Int_Tables_number   1
_chemical_formula_structural   Tm5Lu5Ru3Rh
_chemical_formula_sum   'Tm5 Lu5 Ru3 Rh1'
_cell_volume   342.12088214
_cell_formula_units_Z   1
loop_
 _symmetry_equiv_pos_site_id
 _symmetry_equiv_pos_as_xyz
  1  'x, y, z'
loop_
 _atom_site_type_symbol
 _atom_site_label
 _atom_site_symmetry_multiplicity
 _atom_site_fract_x
 _atom_site_fract_y
 _atom_site_fract_z
 _atom_site_occupancy
  Tm  Tm0  1  0.525080  0.084253  0.814834  1
  Tm  Tm1  1  0.475786  0.917711  0.183713  1
  Tm  Tm2  1  0.710166  0.415597  0.183873  1
  Tm  Tm3  1  0.288897  0.583484  0.810615  1
  Tm  Tm4  1  0.293025  0.313518  0.436876  1
  Lu  Lu5  1  0.708671  0.684016  0.566481  1
  Lu  Lu6  1  0.855354  0.182618  0.563887  1
  Lu  Lu7  1  0.141447  0.819766  0.437709  1
  Lu  Lu8  1  0.080426  0.248107  0.998079  1
  Lu  Lu9  1  0.918343  0.750869  0.999826  1
  Ru  Ru10  1  0.678048  0.424608  0.780834  1
  Ru  Ru11  1  0.105296  0.922242  0.781123  1
  Ru  Ru12  1  0.897322  0.076665  0.219478  1
  Rh  Rh13  1  0.322139  0.576545  0.222674  1
