# generated using pymatgen
data_YHo(HfPt)2
_symmetry_space_group_name_H-M   'P 1'
_cell_length_a   4.65023300
_cell_length_b   7.06354100
_cell_length_c   8.21542600
_cell_angle_alpha   90.00000000
_cell_angle_beta   90.00000000
_cell_angle_gamma   90.00000000
_symmetry_Int_Tables_number   1
_chemical_formula_structural   YHo(HfPt)2
_chemical_formula_sum   'Y2 Ho2 Hf4 Pt4'
_cell_volume   269.85301347
_cell_formula_units_Z   2
loop_
 _symmetry_equiv_pos_site_id
 _symmetry_equiv_pos_as_xyz
  1  'x, y, z'
loop_
 _atom_site_type_symbol
 _atom_site_label
 _atom_site_symmetry_multiplicity
 _atom_site_fract_x
 _atom_site_fract_y
 _atom_site_fract_z
 _atom_site_occupancy
  Y  Y0  1  0.750000  0.015612  0.678703  1
  Y  Y1  1  0.750000  0.515612  0.821297  1
  Ho  Ho2  1  0.250000  0.983186  0.321596  1
  Ho  Ho3  1  0.250000  0.483186  0.178404  1
  Hf  Hf4  1  0.250000  0.854279  0.924017  1
  Hf  Hf5  1  0.250000  0.354279  0.575983  1
  Hf  Hf6  1  0.750000  0.146174  0.078400  1
  Hf  Hf7  1  0.750000  0.646174  0.421600  1
  Pt  Pt8  1  0.250000  0.229336  0.905616  1
  Pt  Pt9  1  0.250000  0.729336  0.594384  1
  Pt  Pt10  1  0.750000  0.771413  0.096838  1
  Pt  Pt11  1  0.750000  0.271413  0.403162  1
