# generated using pymatgen
data_Ta2Nb3Ga2P
_symmetry_space_group_name_H-M   'P 1'
_cell_length_a   6.65819100
_cell_length_b   7.61024770
_cell_length_c   6.65190756
_cell_angle_alpha   115.87392833
_cell_angle_beta   90.00000000
_cell_angle_gamma   115.94122817
_symmetry_Int_Tables_number   1
_chemical_formula_structural   Ta2Nb3Ga2P
_chemical_formula_sum   'Ta4 Nb6 Ga4 P2'
_cell_volume   265.01214043
_cell_formula_units_Z   2
loop_
 _symmetry_equiv_pos_site_id
 _symmetry_equiv_pos_as_xyz
  1  'x, y, z'
loop_
 _atom_site_type_symbol
 _atom_site_label
 _atom_site_symmetry_multiplicity
 _atom_site_fract_x
 _atom_site_fract_y
 _atom_site_fract_z
 _atom_site_occupancy
  Ta  Ta0  1  0.497892  0.305685  0.315395  1
  Ta  Ta1  1  0.816199  0.295142  0.985874  1
  Ta  Ta2  1  0.307793  0.305685  0.815395  1
  Ta  Ta3  1  0.978944  0.295142  0.485874  1
  Nb  Nb4  1  0.990667  0.000441  0.997329  1
  Nb  Nb5  1  0.509773  0.000441  0.497329  1
  Nb  Nb6  1  0.521168  0.704435  0.689960  1
  Nb  Nb7  1  0.191104  0.694320  0.010141  1
  Nb  Nb8  1  0.683266  0.704435  0.189960  1
  Nb  Nb9  1  0.003215  0.694320  0.510141  1
  Ga  Ga10  1  0.749813  0.499154  0.756503  1
  Ga  Ga11  1  0.249341  0.499154  0.256503  1
  Ga  Ga12  1  0.138569  0.999476  0.362796  1
  Ga  Ga13  1  0.360907  0.999476  0.862796  1
  P  P14  1  0.872044  0.001348  0.632002  1
  P  P15  1  0.629304  0.001348  0.132002  1
