# generated using pymatgen
data_KRb(FeI4)2
_symmetry_space_group_name_H-M   'P 1'
_cell_length_a   12.31749882
_cell_length_b   7.58299441
_cell_length_c   13.06265400
_cell_angle_alpha   83.32495705
_cell_angle_beta   91.11989632
_cell_angle_gamma   90.98807582
_symmetry_Int_Tables_number   1
_chemical_formula_structural   KRb(FeI4)2
_chemical_formula_sum   'K2 Rb2 Fe4 I16'
_cell_volume   1211.45813763
_cell_formula_units_Z   2
loop_
 _symmetry_equiv_pos_site_id
 _symmetry_equiv_pos_as_xyz
  1  'x, y, z'
loop_
 _atom_site_type_symbol
 _atom_site_label
 _atom_site_symmetry_multiplicity
 _atom_site_fract_x
 _atom_site_fract_y
 _atom_site_fract_z
 _atom_site_occupancy
  K  K0  1  0.982534  0.409383  0.283684  1
  K  K1  1  0.017466  0.590617  0.716316  1
  Rb  Rb2  1  0.489668  0.588933  0.707049  1
  Rb  Rb3  1  0.510332  0.411067  0.292951  1
  Fe  Fe4  1  0.752984  0.225163  0.553947  1
  Fe  Fe5  1  0.247016  0.774837  0.446053  1
  Fe  Fe6  1  0.754268  0.429562  0.026976  1
  Fe  Fe7  1  0.245732  0.570438  0.973024  1
  I  I8  1  0.754988  0.105638  0.377666  1
  I  I9  1  0.918600  0.229052  0.050502  1
  I  I10  1  0.747997  0.565788  0.516464  1
  I  I11  1  0.419722  0.882802  0.350638  1
  I  I12  1  0.759293  0.612286  0.847464  1
  I  I13  1  0.757116  0.650751  0.163838  1
  I  I14  1  0.582510  0.237984  0.042141  1
  I  I15  1  0.081400  0.770948  0.949498  1
  I  I16  1  0.245012  0.894362  0.622334  1
  I  I17  1  0.580278  0.117198  0.649362  1
  I  I18  1  0.075140  0.865330  0.342310  1
  I  I19  1  0.252003  0.434212  0.483536  1
  I  I20  1  0.240707  0.387714  0.152536  1
  I  I21  1  0.924860  0.134670  0.657690  1
  I  I22  1  0.417490  0.762016  0.957859  1
  I  I23  1  0.242884  0.349249  0.836162  1
