# generated using pymatgen
data_TaNb3Ni4P4W
_symmetry_space_group_name_H-M   'P 1'
_cell_length_a   7.22933965
_cell_length_b   7.22933977
_cell_length_c   7.22569852
_cell_angle_alpha   93.31060970
_cell_angle_beta   93.57421119
_cell_angle_gamma   151.63879605
_symmetry_Int_Tables_number   1
_chemical_formula_structural   TaNb3Ni4P4W
_chemical_formula_sum   'Ta1 Nb3 Ni4 P4 W1'
_cell_volume   173.91696694
_cell_formula_units_Z   1
loop_
 _symmetry_equiv_pos_site_id
 _symmetry_equiv_pos_as_xyz
  1  'x, y, z'
loop_
 _atom_site_type_symbol
 _atom_site_label
 _atom_site_symmetry_multiplicity
 _atom_site_fract_x
 _atom_site_fract_y
 _atom_site_fract_z
 _atom_site_occupancy
  Ta  Ta0  1  0.805000  0.129484  0.934484  1
  Nb  Nb1  1  0.129237  0.195212  0.324450  1
  Nb  Nb2  1  0.870588  0.804826  0.675413  1
  Nb  Nb3  1  0.194280  0.870330  0.064611  1
  Ni  Ni4  1  0.913135  0.389596  0.302731  1
  Ni  Ni5  1  0.087839  0.609543  0.697382  1
  Ni  Ni6  1  0.609907  0.915500  0.525407  1
  Ni  Ni7  1  0.390912  0.084871  0.475783  1
  P  P8  1  0.556040  0.242339  0.798380  1
  P  P9  1  0.242837  0.443495  0.686332  1
  P  P10  1  0.757263  0.556371  0.313635  1
  P  P11  1  0.443883  0.757977  0.201860  1
  W  W12  1  0.499078  0.500456  0.999534  1
