# generated using pymatgen
data_TbDy2Ga8Ag3
_symmetry_space_group_name_H-M   'P 1'
_cell_length_a   4.33794550
_cell_length_b   8.35440148
_cell_length_c   8.35440115
_cell_angle_alpha   69.71332441
_cell_angle_beta   74.95245516
_cell_angle_gamma   74.95246295
_symmetry_Int_Tables_number   1
_chemical_formula_structural   TbDy2Ga8Ag3
_chemical_formula_sum   'Tb1 Dy2 Ga8 Ag3'
_cell_volume   269.40199152
_cell_formula_units_Z   1
loop_
 _symmetry_equiv_pos_site_id
 _symmetry_equiv_pos_as_xyz
  1  'x, y, z'
loop_
 _atom_site_type_symbol
 _atom_site_label
 _atom_site_symmetry_multiplicity
 _atom_site_fract_x
 _atom_site_fract_y
 _atom_site_fract_z
 _atom_site_occupancy
  Tb  Tb0  1  0.500000  0.500000  0.500000  1
  Dy  Dy1  1  0.799770  0.200230  0.200230  1
  Dy  Dy2  1  0.200230  0.799770  0.799770  1
  Ga  Ga3  1  0.643663  0.073573  0.639100  1
  Ga  Ga4  1  0.356337  0.926427  0.360900  1
  Ga  Ga5  1  0.643663  0.639100  0.073573  1
  Ga  Ga6  1  0.356337  0.360900  0.926427  1
  Ga  Ga7  1  0.841548  0.789155  0.527749  1
  Ga  Ga8  1  0.158452  0.210845  0.472251  1
  Ga  Ga9  1  0.841548  0.527749  0.789155  1
  Ga  Ga10  1  0.158452  0.472251  0.210845  1
  Ag  Ag11  1  0.500000  0.000000  0.000000  1
  Ag  Ag12  1  0.000000  0.805891  0.194109  1
  Ag  Ag13  1  0.000000  0.194109  0.805891  1
