# generated using pymatgen
data_Er9Tm(GaSb)4
_symmetry_space_group_name_H-M   'P 1'
_cell_length_a   8.58036875
_cell_length_b   8.58036800
_cell_length_c   7.87022519
_cell_angle_alpha   90.00960513
_cell_angle_beta   90.00961057
_cell_angle_gamma   125.42034965
_symmetry_Int_Tables_number   1
_chemical_formula_structural   Er9Tm(GaSb)4
_chemical_formula_sum   'Er9 Tm1 Ga4 Sb4'
_cell_volume   472.18810295
_cell_formula_units_Z   1
loop_
 _symmetry_equiv_pos_site_id
 _symmetry_equiv_pos_as_xyz
  1  'x, y, z'
loop_
 _atom_site_type_symbol
 _atom_site_label
 _atom_site_symmetry_multiplicity
 _atom_site_fract_x
 _atom_site_fract_y
 _atom_site_fract_z
 _atom_site_occupancy
  Er  Er0  1  0.538830  0.797522  0.166579  1
  Er  Er1  1  0.297119  0.038629  0.333271  1
  Er  Er2  1  0.202478  0.461170  0.833421  1
  Er  Er3  1  0.961371  0.702881  0.666729  1
  Er  Er4  1  0.702881  0.961371  0.666729  1
  Er  Er5  1  0.461170  0.202478  0.833421  1
  Er  Er6  1  0.797522  0.538830  0.166579  1
  Er  Er7  1  0.038629  0.297119  0.333271  1
  Er  Er8  1  0.500000  0.500000  0.500000  1
  Tm  Tm9  1  0.000000  0.000000  0.000000  1
  Ga  Ga10  1  0.627914  0.627914  0.873091  1
  Ga  Ga11  1  0.127355  0.127355  0.627559  1
  Ga  Ga12  1  0.872645  0.872645  0.372441  1
  Ga  Ga13  1  0.372086  0.372086  0.126909  1
  Sb  Sb14  1  0.294378  0.705622  0.500000  1
  Sb  Sb15  1  0.205332  0.794668  0.000000  1
  Sb  Sb16  1  0.705622  0.294378  0.500000  1
  Sb  Sb17  1  0.794668  0.205332  0.000000  1
