# generated using pymatgen
data_Ac2ZnSn4Au3
_symmetry_space_group_name_H-M   'P 1'
_cell_length_a   4.71558200
_cell_length_b   4.71558200
_cell_length_c   11.29414000
_cell_angle_alpha   90.00000000
_cell_angle_beta   90.00000000
_cell_angle_gamma   90.00000000
_symmetry_Int_Tables_number   1
_chemical_formula_structural   Ac2ZnSn4Au3
_chemical_formula_sum   'Ac2 Zn1 Sn4 Au3'
_cell_volume   251.14455652
_cell_formula_units_Z   1
loop_
 _symmetry_equiv_pos_site_id
 _symmetry_equiv_pos_as_xyz
  1  'x, y, z'
loop_
 _atom_site_type_symbol
 _atom_site_label
 _atom_site_symmetry_multiplicity
 _atom_site_fract_x
 _atom_site_fract_y
 _atom_site_fract_z
 _atom_site_occupancy
  Ac  Ac0  1  0.000000  0.500000  0.243309  1
  Ac  Ac1  1  0.500000  0.000000  0.756691  1
  Zn  Zn2  1  0.000000  0.000000  0.000000  1
  Sn  Sn3  1  0.000000  0.000000  0.500000  1
  Sn  Sn4  1  0.500000  0.500000  0.500000  1
  Sn  Sn5  1  0.000000  0.500000  0.873375  1
  Sn  Sn6  1  0.500000  0.000000  0.126625  1
  Au  Au7  1  0.500000  0.500000  0.000000  1
  Au  Au8  1  0.000000  0.500000  0.635967  1
  Au  Au9  1  0.500000  0.000000  0.364033  1
