# generated using pymatgen
data_YHo3Al16(SiIr3)2
_symmetry_space_group_name_H-M   'P 1'
_cell_length_a   7.53728201
_cell_length_b   7.53790097
_cell_length_c   9.34131500
_cell_angle_alpha   90.00000000
_cell_angle_beta   90.00000000
_cell_angle_gamma   119.66440917
_symmetry_Int_Tables_number   1
_chemical_formula_structural   YHo3Al16(SiIr3)2
_chemical_formula_sum   'Y1 Ho3 Al16 Si2 Ir6'
_cell_volume   461.17160218
_cell_formula_units_Z   1
loop_
 _symmetry_equiv_pos_site_id
 _symmetry_equiv_pos_as_xyz
  1  'x, y, z'
loop_
 _atom_site_type_symbol
 _atom_site_label
 _atom_site_symmetry_multiplicity
 _atom_site_fract_x
 _atom_site_fract_y
 _atom_site_fract_z
 _atom_site_occupancy
  Y  Y0  1  0.994824  0.674552  0.250000  1
  Ho  Ho1  1  0.005113  0.325155  0.750000  1
  Ho  Ho2  1  0.674787  0.994895  0.250000  1
  Ho  Ho3  1  0.325204  0.005107  0.750000  1
  Al  Al4  1  0.001144  0.336030  0.076477  1
  Al  Al5  1  0.998894  0.663731  0.923057  1
  Al  Al6  1  0.998894  0.663731  0.576943  1
  Al  Al7  1  0.336529  0.001391  0.423542  1
  Al  Al8  1  0.001144  0.336030  0.423523  1
  Al  Al9  1  0.663727  0.998877  0.576702  1
  Al  Al10  1  0.663727  0.998877  0.923298  1
  Al  Al11  1  0.336529  0.001391  0.076458  1
  Al  Al12  1  0.335549  0.335554  0.557913  1
  Al  Al13  1  0.664185  0.664430  0.442360  1
  Al  Al14  1  0.664185  0.664430  0.057640  1
  Al  Al15  1  0.335549  0.335554  0.942087  1
  Al  Al16  1  0.335662  0.548577  0.250000  1
  Al  Al17  1  0.664564  0.451387  0.750000  1
  Al  Al18  1  0.548254  0.335095  0.250000  1
  Al  Al19  1  0.451368  0.664578  0.750000  1
  Si  Si20  1  0.128709  0.128968  0.250000  1
  Si  Si21  1  0.871404  0.871376  0.750000  1
  Ir  Ir22  1  0.671730  0.328005  0.999851  1
  Ir  Ir23  1  0.328285  0.671866  0.999862  1
  Ir  Ir24  1  0.328285  0.671866  0.500138  1
  Ir  Ir25  1  0.671730  0.328005  0.500149  1
  Ir  Ir26  1  0.000011  0.000272  0.999814  1
  Ir  Ir27  1  0.000011  0.000272  0.500186  1
