# generated using pymatgen
data_Y5Ho14Sc(Cd3Ru)2
_symmetry_space_group_name_H-M   'P 1'
_cell_length_a   9.54698889
_cell_length_b   9.54956531
_cell_length_c   9.77708400
_cell_angle_alpha   89.99853956
_cell_angle_beta   90.00079210
_cell_angle_gamma   119.95670251
_symmetry_Int_Tables_number   1
_chemical_formula_structural   Y5Ho14Sc(Cd3Ru)2
_chemical_formula_sum   'Y5 Ho14 Sc1 Cd6 Ru2'
_cell_volume   772.28804729
_cell_formula_units_Z   1
loop_
 _symmetry_equiv_pos_site_id
 _symmetry_equiv_pos_as_xyz
  1  'x, y, z'
loop_
 _atom_site_type_symbol
 _atom_site_label
 _atom_site_symmetry_multiplicity
 _atom_site_fract_x
 _atom_site_fract_y
 _atom_site_fract_z
 _atom_site_occupancy
  Y  Y0  1  0.540870  0.081991  0.251096  1
  Y  Y1  1  0.917999  0.459121  0.251098  1
  Y  Y2  1  0.459282  0.540729  0.748942  1
  Y  Y3  1  0.459297  0.918864  0.748908  1
  Y  Y4  1  0.081145  0.540709  0.748907  1
  Ho  Ho5  1  0.000127  0.999876  0.999982  1
  Ho  Ho6  1  0.208727  0.791273  0.439763  1
  Ho  Ho7  1  0.208943  0.417209  0.439690  1
  Ho  Ho8  1  0.582766  0.791043  0.439697  1
  Ho  Ho9  1  0.791432  0.208569  0.560166  1
  Ho  Ho10  1  0.790889  0.582454  0.559793  1
  Ho  Ho11  1  0.417572  0.209124  0.559789  1
  Ho  Ho12  1  0.790100  0.209890  0.941166  1
  Ho  Ho13  1  0.789630  0.579958  0.941515  1
  Ho  Ho14  1  0.420070  0.210382  0.941524  1
  Ho  Ho15  1  0.210034  0.789977  0.058933  1
  Ho  Ho16  1  0.210223  0.419731  0.059083  1
  Ho  Ho17  1  0.580244  0.789769  0.059073  1
  Ho  Ho18  1  0.540323  0.459664  0.251098  1
  Sc  Sc19  1  0.000119  0.999893  0.499962  1
  Cd  Cd20  1  0.887645  0.112371  0.255802  1
  Cd  Cd21  1  0.886846  0.774723  0.255776  1
  Cd  Cd22  1  0.225261  0.113152  0.255774  1
  Cd  Cd23  1  0.112391  0.887589  0.744129  1
  Cd  Cd24  1  0.112537  0.224833  0.744141  1
  Cd  Cd25  1  0.775177  0.887457  0.744140  1
  Ru  Ru26  1  0.333647  0.666402  0.249468  1
  Ru  Ru27  1  0.666707  0.333243  0.750587  1
