# generated using pymatgen
data_Rb3CrRhBr9
_symmetry_space_group_name_H-M   'P 1'
_cell_length_a   7.55206200
_cell_length_b   7.55206190
_cell_length_c   19.16217000
_cell_angle_alpha   90.00000000
_cell_angle_beta   90.00000000
_cell_angle_gamma   119.99999170
_symmetry_Int_Tables_number   1
_chemical_formula_structural   Rb3CrRhBr9
_chemical_formula_sum   'Rb6 Cr2 Rh2 Br18'
_cell_volume   946.46910961
_cell_formula_units_Z   2
loop_
 _symmetry_equiv_pos_site_id
 _symmetry_equiv_pos_as_xyz
  1  'x, y, z'
loop_
 _atom_site_type_symbol
 _atom_site_label
 _atom_site_symmetry_multiplicity
 _atom_site_fract_x
 _atom_site_fract_y
 _atom_site_fract_z
 _atom_site_occupancy
  Rb  Rb0  1  0.666667  0.333333  0.935332  1
  Rb  Rb1  1  0.333333  0.666667  0.435332  1
  Rb  Rb2  1  0.666667  0.333333  0.567068  1
  Rb  Rb3  1  0.333333  0.666667  0.067068  1
  Rb  Rb4  1  0.000000  0.000000  0.748818  1
  Rb  Rb5  1  0.000000  0.000000  0.248818  1
  Cr  Cr6  1  0.666667  0.333333  0.336582  1
  Cr  Cr7  1  0.333333  0.666667  0.836582  1
  Rh  Rh8  1  0.333333  0.666667  0.666652  1
  Rh  Rh9  1  0.666667  0.333333  0.166652  1
  Br  Br10  1  0.824913  0.649825  0.406831  1
  Br  Br11  1  0.175087  0.350175  0.906831  1
  Br  Br12  1  0.175087  0.824913  0.906831  1
  Br  Br13  1  0.177314  0.354628  0.592353  1
  Br  Br14  1  0.649825  0.824913  0.906831  1
  Br  Br15  1  0.350175  0.175087  0.406831  1
  Br  Br16  1  0.028358  0.514179  0.749331  1
  Br  Br17  1  0.824913  0.175087  0.406831  1
  Br  Br18  1  0.514179  0.028358  0.249331  1
  Br  Br19  1  0.485821  0.514179  0.749331  1
  Br  Br20  1  0.514179  0.485821  0.249331  1
  Br  Br21  1  0.971642  0.485821  0.249331  1
  Br  Br22  1  0.354628  0.177314  0.092353  1
  Br  Br23  1  0.485821  0.971642  0.749331  1
  Br  Br24  1  0.822686  0.645372  0.092353  1
  Br  Br25  1  0.177314  0.822686  0.592353  1
  Br  Br26  1  0.645372  0.822686  0.592353  1
  Br  Br27  1  0.822686  0.177314  0.092353  1
