# generated using pymatgen
data_Er6Zn22AsRu
_symmetry_space_group_name_H-M   'P 1'
_cell_length_a   9.06221680
_cell_length_b   9.06221741
_cell_length_c   8.96493200
_cell_angle_alpha   60.35448921
_cell_angle_beta   60.35448702
_cell_angle_gamma   59.78457504
_symmetry_Int_Tables_number   1
_chemical_formula_structural   Er6Zn22AsRu
_chemical_formula_sum   'Er6 Zn22 As1 Ru1'
_cell_volume   522.50176056
_cell_formula_units_Z   1
loop_
 _symmetry_equiv_pos_site_id
 _symmetry_equiv_pos_as_xyz
  1  'x, y, z'
loop_
 _atom_site_type_symbol
 _atom_site_label
 _atom_site_symmetry_multiplicity
 _atom_site_fract_x
 _atom_site_fract_y
 _atom_site_fract_z
 _atom_site_occupancy
  Er  Er0  1  0.723067  0.276933  0.288165  1
  Er  Er1  1  0.723067  0.276933  0.711835  1
  Er  Er2  1  0.718404  0.718404  0.281596  1
  Er  Er3  1  0.276933  0.723067  0.711835  1
  Er  Er4  1  0.276933  0.723067  0.288165  1
  Er  Er5  1  0.281596  0.281596  0.718404  1
  Zn  Zn6  1  0.623261  0.123184  0.126778  1
  Zn  Zn7  1  0.123184  0.623261  0.126778  1
  Zn  Zn8  1  0.123396  0.123396  0.621547  1
  Zn  Zn9  1  0.123396  0.123396  0.131663  1
  Zn  Zn10  1  0.376739  0.876816  0.873222  1
  Zn  Zn11  1  0.876816  0.376739  0.873222  1
  Zn  Zn12  1  0.876604  0.876604  0.378453  1
  Zn  Zn13  1  0.876604  0.876604  0.868337  1
  Zn  Zn14  1  0.500000  0.000000  0.000000  1
  Zn  Zn15  1  0.500000  0.000000  0.500000  1
  Zn  Zn16  1  0.500000  0.500000  0.000000  1
  Zn  Zn17  1  0.000000  0.500000  0.500000  1
  Zn  Zn18  1  0.000000  0.500000  0.000000  1
  Zn  Zn19  1  0.000000  0.000000  0.000000  1
  Zn  Zn20  1  0.007665  0.328898  0.331717  1
  Zn  Zn21  1  0.328898  0.007665  0.331717  1
  Zn  Zn22  1  0.332674  0.332674  0.004077  1
  Zn  Zn23  1  0.332674  0.332674  0.330574  1
  Zn  Zn24  1  0.992335  0.671102  0.668283  1
  Zn  Zn25  1  0.671102  0.992335  0.668283  1
  Zn  Zn26  1  0.667326  0.667326  0.995923  1
  Zn  Zn27  1  0.667326  0.667326  0.669426  1
  As  As28  1  0.500000  0.500000  0.500000  1
  Ru  Ru29  1  0.000000  0.000000  0.500000  1
