# generated using pymatgen
data_Tm7Hf12Si16Rh
_symmetry_space_group_name_H-M   'P 1'
_cell_length_a   7.20389891
_cell_length_b   7.20176084
_cell_length_c   13.11403042
_cell_angle_alpha   89.87266289
_cell_angle_beta   89.81996543
_cell_angle_gamma   90.00780659
_symmetry_Int_Tables_number   1
_chemical_formula_structural   Tm7Hf12Si16Rh
_chemical_formula_sum   'Tm7 Hf12 Si16 Rh1'
_cell_volume   680.36078069
_cell_formula_units_Z   1
loop_
 _symmetry_equiv_pos_site_id
 _symmetry_equiv_pos_as_xyz
  1  'x, y, z'
loop_
 _atom_site_type_symbol
 _atom_site_label
 _atom_site_symmetry_multiplicity
 _atom_site_fract_x
 _atom_site_fract_y
 _atom_site_fract_z
 _atom_site_occupancy
  Tm  Tm0  1  0.496585  0.153483  0.537338  1
  Tm  Tm1  1  0.505361  0.848274  0.034150  1
  Tm  Tm2  1  0.655610  0.007150  0.282833  1
  Tm  Tm3  1  0.349041  0.998301  0.783743  1
  Tm  Tm4  1  0.846270  0.503664  0.962627  1
  Tm  Tm5  1  0.151993  0.493933  0.467107  1
  Tm  Tm6  1  0.002023  0.651723  0.716910  1
  Hf  Hf7  1  0.323141  0.674620  0.249854  1
  Hf  Hf8  1  0.822206  0.822536  0.500983  1
  Hf  Hf9  1  0.175211  0.178880  0.999568  1
  Hf  Hf10  1  0.998654  0.350284  0.213006  1
  Hf  Hf11  1  0.498914  0.355310  0.124391  1
  Hf  Hf12  1  0.502274  0.645960  0.628359  1
  Hf  Hf13  1  0.854792  0.002492  0.875517  1
  Hf  Hf14  1  0.142836  0.996573  0.374064  1
  Hf  Hf15  1  0.645079  0.498532  0.374736  1
  Hf  Hf16  1  0.354524  0.497581  0.872696  1
  Hf  Hf17  1  0.002450  0.855393  0.124584  1
  Hf  Hf18  1  0.997609  0.144800  0.625821  1
  Si  Si19  1  0.799080  0.147922  0.070501  1
  Si  Si20  1  0.205219  0.857049  0.568904  1
  Si  Si21  1  0.638788  0.710681  0.819364  1
  Si  Si22  1  0.353418  0.293973  0.317502  1
  Si  Si23  1  0.856687  0.205957  0.430745  1
  Si  Si24  1  0.142452  0.793902  0.931051  1
  Si  Si25  1  0.712571  0.636768  0.180338  1
  Si  Si26  1  0.290284  0.360411  0.681132  1
  Si  Si27  1  0.557793  0.208022  0.932684  1
  Si  Si28  1  0.450272  0.796817  0.435615  1
  Si  Si29  1  0.706707  0.947556  0.687160  1
  Si  Si30  1  0.295938  0.053073  0.185003  1
  Si  Si31  1  0.792249  0.442336  0.568260  1
  Si  Si32  1  0.199708  0.547649  0.065839  1
  Si  Si33  1  0.950718  0.696811  0.314353  1
  Si  Si34  1  0.053033  0.293354  0.813168  1
  Rh  Rh35  1  0.670512  0.328233  0.750088  1
