# generated using pymatgen
data_Tb20Ir9PdAu2
_symmetry_space_group_name_H-M   'P 1'
_cell_length_a   11.10825746
_cell_length_b   11.11741525
_cell_length_c   6.34857753
_cell_angle_alpha   89.91952617
_cell_angle_beta   90.03573641
_cell_angle_gamma   90.29483430
_symmetry_Int_Tables_number   1
_chemical_formula_structural   Tb20Ir9PdAu2
_chemical_formula_sum   'Tb20 Ir9 Pd1 Au2'
_cell_volume   784.00698270
_cell_formula_units_Z   1
loop_
 _symmetry_equiv_pos_site_id
 _symmetry_equiv_pos_as_xyz
  1  'x, y, z'
loop_
 _atom_site_type_symbol
 _atom_site_label
 _atom_site_symmetry_multiplicity
 _atom_site_fract_x
 _atom_site_fract_y
 _atom_site_fract_z
 _atom_site_occupancy
  Tb  Tb0  1  0.296460  0.083821  0.360472  1
  Tb  Tb1  1  0.295414  0.904128  0.876163  1
  Tb  Tb2  1  0.701270  0.090491  0.863939  1
  Tb  Tb3  1  0.698805  0.905816  0.367373  1
  Tb  Tb4  1  0.581948  0.789228  0.877507  1
  Tb  Tb5  1  0.580995  0.210606  0.378699  1
  Tb  Tb6  1  0.408528  0.790359  0.378948  1
  Tb  Tb7  1  0.417509  0.210868  0.877408  1
  Tb  Tb8  1  0.211116  0.420512  0.621624  1
  Tb  Tb9  1  0.209830  0.591267  0.121020  1
  Tb  Tb10  1  0.789480  0.419141  0.121424  1
  Tb  Tb11  1  0.789451  0.584946  0.623504  1
  Tb  Tb12  1  0.914727  0.704590  0.135930  1
  Tb  Tb13  1  0.908218  0.300020  0.635190  1
  Tb  Tb14  1  0.094763  0.705339  0.624558  1
  Tb  Tb15  1  0.092948  0.302527  0.136416  1
  Tb  Tb16  1  0.001757  0.992192  0.500690  1
  Tb  Tb17  1  0.003954  0.994437  0.999320  1
  Tb  Tb18  1  0.499059  0.499553  0.001358  1
  Tb  Tb19  1  0.500545  0.501090  0.498555  1
  Ir  Ir20  1  0.152223  0.847698  0.250127  1
  Ir  Ir21  1  0.653717  0.346419  0.750189  1
  Ir  Ir22  1  0.655961  0.653681  0.247581  1
  Ir  Ir23  1  0.346540  0.343962  0.252384  1
  Ir  Ir24  1  0.347524  0.652537  0.749789  1
  Ir  Ir25  1  0.500686  0.000275  0.116520  1
  Ir  Ir26  1  0.499527  0.000248  0.619695  1
  Ir  Ir27  1  0.999850  0.500462  0.880487  1
  Ir  Ir28  1  0.999928  0.499566  0.383429  1
  Pd  Pd29  1  0.843244  0.842889  0.750476  1
  Au  Au30  1  0.846454  0.153811  0.249828  1
  Au  Au31  1  0.157573  0.157519  0.749396  1
