# generated using pymatgen
data_Ca12Tm3Ge12Mo5O48
_symmetry_space_group_name_H-M   'P 1'
_cell_length_a   11.07450798
_cell_length_b   11.07288462
_cell_length_c   11.07375202
_cell_angle_alpha   109.47886354
_cell_angle_beta   109.46475147
_cell_angle_gamma   109.47182644
_symmetry_Int_Tables_number   1
_chemical_formula_structural   Ca12Tm3Ge12Mo5O48
_chemical_formula_sum   'Ca12 Tm3 Ge12 Mo5 O48'
_cell_volume   1045.31835113
_cell_formula_units_Z   1
loop_
 _symmetry_equiv_pos_site_id
 _symmetry_equiv_pos_as_xyz
  1  'x, y, z'
loop_
 _atom_site_type_symbol
 _atom_site_label
 _atom_site_symmetry_multiplicity
 _atom_site_fract_x
 _atom_site_fract_y
 _atom_site_fract_z
 _atom_site_occupancy
  Ca  Ca0  1  0.250440  0.872664  0.627672  1
  Ca  Ca1  1  0.752303  0.625371  0.877927  1
  Ca  Ca2  1  0.627676  0.877255  0.754805  1
  Ca  Ca3  1  0.875235  0.622880  0.249127  1
  Ca  Ca4  1  0.625080  0.251692  0.877414  1
  Ca  Ca5  1  0.875935  0.750115  0.626343  1
  Ca  Ca6  1  0.749560  0.127336  0.372328  1
  Ca  Ca7  1  0.247697  0.374629  0.122073  1
  Ca  Ca8  1  0.372324  0.122745  0.245195  1
  Ca  Ca9  1  0.124765  0.377120  0.750873  1
  Ca  Ca10  1  0.374920  0.748308  0.122586  1
  Ca  Ca11  1  0.124065  0.249885  0.373657  1
  Tm  Tm12  1  0.500000  0.500000  0.500000  1
  Tm  Tm13  1  0.500000  0.000000  0.500000  1
  Tm  Tm14  1  0.000000  0.000000  0.500000  1
  Ge  Ge15  1  0.125008  0.750109  0.875050  1
  Ge  Ge16  1  0.874992  0.249891  0.124950  1
  Ge  Ge17  1  0.624705  0.373219  0.247442  1
  Ge  Ge18  1  0.748498  0.875429  0.122660  1
  Ge  Ge19  1  0.876378  0.127566  0.754071  1
  Ge  Ge20  1  0.245748  0.622265  0.373561  1
  Ge  Ge21  1  0.754252  0.377735  0.626439  1
  Ge  Ge22  1  0.251502  0.124571  0.877340  1
  Ge  Ge23  1  0.123622  0.872434  0.245929  1
  Ge  Ge24  1  0.375295  0.626781  0.752558  1
  Ge  Ge25  1  0.625417  0.748571  0.372676  1
  Ge  Ge26  1  0.374583  0.251429  0.627324  1
  Mo  Mo27  1  0.000000  0.500000  0.500000  1
  Mo  Mo28  1  0.500000  0.500000  0.000000  1
  Mo  Mo29  1  0.000000  0.500000  0.000000  1
  Mo  Mo30  1  0.500000  0.000000  0.000000  1
  Mo  Mo31  1  0.000000  0.000000  0.000000  1
  O  O32  1  0.411033  0.809344  0.789751  1
  O  O33  1  0.877738  0.396362  0.088139  1
  O  O34  1  0.105640  0.980294  0.695154  1
  O  O35  1  0.519041  0.624584  0.714454  1
  O  O36  1  0.693970  0.089766  0.715975  1
  O  O37  1  0.623869  0.714540  0.519154  1
  O  O38  1  0.623877  0.412016  0.102377  1
  O  O39  1  0.716107  0.522195  0.626207  1
  O  O40  1  0.807364  0.516738  0.395373  1
  O  O41  1  0.982006  0.790248  0.878347  1
  O  O42  1  0.788733  0.876643  0.978937  1
  O  O43  1  0.709993  0.692802  0.088075  1
  O  O44  1  0.410182  0.105140  0.625884  1
  O  O45  1  0.393205  0.803787  0.518187  1
  O  O46  1  0.087679  0.710081  0.691513  1
  O  O47  1  0.100251  0.622162  0.410790  1
  O  O48  1  0.521066  0.398684  0.809449  1
  O  O49  1  0.089907  0.875754  0.393518  1
  O  O50  1  0.977564  0.689541  0.100294  1
  O  O51  1  0.192636  0.483262  0.604627  1
  O  O52  1  0.691635  0.103513  0.981804  1
  O  O53  1  0.789855  0.410622  0.808004  1
  O  O54  1  0.398485  0.089402  0.879481  1
  O  O55  1  0.879105  0.981854  0.790179  1
  O  O56  1  0.588967  0.190656  0.210249  1
  O  O57  1  0.122262  0.603638  0.911861  1
  O  O58  1  0.894360  0.019706  0.304846  1
  O  O59  1  0.480959  0.375416  0.285546  1
  O  O60  1  0.306030  0.910234  0.284025  1
  O  O61  1  0.376131  0.285460  0.480846  1
  O  O62  1  0.376123  0.587984  0.897623  1
  O  O63  1  0.283893  0.477805  0.373793  1
  O  O64  1  0.120895  0.018146  0.209821  1
  O  O65  1  0.601515  0.910598  0.120519  1
  O  O66  1  0.210145  0.589378  0.191996  1
  O  O67  1  0.193155  0.216115  0.591040  1
  O  O68  1  0.308365  0.896487  0.018196  1
  O  O69  1  0.022436  0.310459  0.899706  1
  O  O70  1  0.910093  0.124246  0.606482  1
  O  O71  1  0.478934  0.601316  0.190551  1
  O  O72  1  0.899749  0.377838  0.589210  1
  O  O73  1  0.912321  0.289919  0.308487  1
  O  O74  1  0.606795  0.196213  0.481813  1
  O  O75  1  0.589818  0.894860  0.374116  1
  O  O76  1  0.290007  0.307198  0.911925  1
  O  O77  1  0.211267  0.123357  0.021063  1
  O  O78  1  0.017994  0.209752  0.121653  1
  O  O79  1  0.806845  0.783885  0.408960  1
