# generated using pymatgen
data_ZrIn2CoNi19P6
_symmetry_space_group_name_H-M   'P 1'
_cell_length_a   7.88589713
_cell_length_b   7.90912967
_cell_length_c   7.88589700
_cell_angle_alpha   60.09711841
_cell_angle_beta   59.99999637
_cell_angle_gamma   60.09712203
_symmetry_Int_Tables_number   1
_chemical_formula_structural   ZrIn2CoNi19P6
_chemical_formula_sum   'Zr1 In2 Co1 Ni19 P6'
_cell_volume   348.29871242
_cell_formula_units_Z   1
loop_
 _symmetry_equiv_pos_site_id
 _symmetry_equiv_pos_as_xyz
  1  'x, y, z'
loop_
 _atom_site_type_symbol
 _atom_site_label
 _atom_site_symmetry_multiplicity
 _atom_site_fract_x
 _atom_site_fract_y
 _atom_site_fract_z
 _atom_site_occupancy
  Zr  Zr0  1  0.000006  0.999981  0.000006  1
  In  In1  1  0.749140  0.752579  0.749140  1
  In  In2  1  0.252289  0.243132  0.252289  1
  Co  Co3  1  0.386336  0.840989  0.386336  1
  Ni  Ni4  1  0.383712  0.385017  0.847556  1
  Ni  Ni5  1  0.348624  0.000455  0.650972  1
  Ni  Ni6  1  0.999381  0.350840  0.650397  1
  Ni  Ni7  1  0.151929  0.614182  0.616946  1
  Ni  Ni8  1  0.650972  0.000455  0.999949  1
  Ni  Ni9  1  0.847556  0.385017  0.383712  1
  Ni  Ni10  1  0.650397  0.350840  0.999381  1
  Ni  Ni11  1  0.999381  0.350840  0.999381  1
  Ni  Ni12  1  0.347334  0.651606  0.000530  1
  Ni  Ni13  1  0.999949  0.000455  0.348624  1
  Ni  Ni14  1  0.614705  0.155886  0.614705  1
  Ni  Ni15  1  0.650972  0.000455  0.348624  1
  Ni  Ni16  1  0.000530  0.651606  0.000530  1
  Ni  Ni17  1  0.616946  0.614182  0.151929  1
  Ni  Ni18  1  0.000530  0.651606  0.347334  1
  Ni  Ni19  1  0.348624  0.000455  0.999949  1
  Ni  Ni20  1  0.999949  0.000455  0.650972  1
  Ni  Ni21  1  0.383712  0.385017  0.383712  1
  Ni  Ni22  1  0.616946  0.614182  0.616946  1
  P  P23  1  0.264411  0.264301  0.735644  1
  P  P24  1  0.266416  0.735621  0.266416  1
  P  P25  1  0.735644  0.264301  0.264411  1
  P  P26  1  0.266416  0.735621  0.731547  1
  P  P27  1  0.735644  0.264301  0.735644  1
  P  P28  1  0.731547  0.735621  0.266416  1
