# generated using pymatgen
data_PuSc7(B6Ru)4
_symmetry_space_group_name_H-M   'P 1'
_cell_length_a   8.90087296
_cell_length_b   11.25052216
_cell_length_c   3.50497900
_cell_angle_alpha   90.00000000
_cell_angle_beta   90.00000000
_cell_angle_gamma   90.05267714
_symmetry_Int_Tables_number   1
_chemical_formula_structural   PuSc7(B6Ru)4
_chemical_formula_sum   'Pu1 Sc7 B24 Ru4'
_cell_volume   350.98658589
_cell_formula_units_Z   1
loop_
 _symmetry_equiv_pos_site_id
 _symmetry_equiv_pos_as_xyz
  1  'x, y, z'
loop_
 _atom_site_type_symbol
 _atom_site_label
 _atom_site_symmetry_multiplicity
 _atom_site_fract_x
 _atom_site_fract_y
 _atom_site_fract_z
 _atom_site_occupancy
  Pu  Pu0  1  0.321876  0.086376  0.000000  1
  Sc  Sc1  1  0.943309  0.126855  0.000000  1
  Sc  Sc2  1  0.444423  0.374402  0.000000  1
  Sc  Sc3  1  0.817804  0.415017  0.000000  1
  Sc  Sc4  1  0.181081  0.585685  0.000000  1
  Sc  Sc5  1  0.556628  0.626065  0.000000  1
  Sc  Sc6  1  0.054453  0.871998  0.000000  1
  Sc  Sc7  1  0.681917  0.913714  0.000000  1
  B  B8  1  0.098591  0.026917  0.500000  1
  B  B9  1  0.555790  0.065046  0.500000  1
  B  B10  1  0.752407  0.078486  0.500000  1
  B  B11  1  0.128188  0.183523  0.500000  1
  B  B12  1  0.481636  0.214816  0.500000  1
  B  B13  1  0.794420  0.236520  0.500000  1
  B  B14  1  0.293007  0.266860  0.500000  1
  B  B15  1  0.978741  0.287871  0.500000  1
  B  B16  1  0.630560  0.318619  0.500000  1
  B  B17  1  0.251932  0.422342  0.500000  1
  B  B18  1  0.053035  0.435891  0.500000  1
  B  B19  1  0.602905  0.472238  0.500000  1
  B  B20  1  0.397660  0.528242  0.500000  1
  B  B21  1  0.946332  0.564949  0.500000  1
  B  B22  1  0.748352  0.578448  0.500000  1
  B  B23  1  0.370208  0.681463  0.500000  1
  B  B24  1  0.020030  0.712471  0.500000  1
  B  B25  1  0.706085  0.735259  0.500000  1
  B  B26  1  0.205624  0.762833  0.500000  1
  B  B27  1  0.521001  0.786134  0.500000  1
  B  B28  1  0.869568  0.817318  0.500000  1
  B  B29  1  0.247292  0.918783  0.500000  1
  B  B30  1  0.447902  0.932642  0.500000  1
  B  B31  1  0.897237  0.971731  0.500000  1
  Ru  Ru32  1  0.641225  0.180960  0.000000  1
  Ru  Ru33  1  0.136890  0.322050  0.000000  1
  Ru  Ru34  1  0.860904  0.679694  0.000000  1
  Ru  Ru35  1  0.360980  0.817787  0.000000  1
