# generated using pymatgen
data_Er16Lu4(Ir3Ru)3
_symmetry_space_group_name_H-M   'P 1'
_cell_length_a   10.72880600
_cell_length_b   10.72880600
_cell_length_c   6.35826200
_cell_angle_alpha   90.00000000
_cell_angle_beta   90.00000000
_cell_angle_gamma   90.00000000
_symmetry_Int_Tables_number   1
_chemical_formula_structural   Er16Lu4(Ir3Ru)3
_chemical_formula_sum   'Er16 Lu4 Ir9 Ru3'
_cell_volume   731.88223281
_cell_formula_units_Z   1
loop_
 _symmetry_equiv_pos_site_id
 _symmetry_equiv_pos_as_xyz
  1  'x, y, z'
loop_
 _atom_site_type_symbol
 _atom_site_label
 _atom_site_symmetry_multiplicity
 _atom_site_fract_x
 _atom_site_fract_y
 _atom_site_fract_z
 _atom_site_occupancy
  Er  Er0  1  0.293127  0.086299  0.377068  1
  Er  Er1  1  0.293152  0.913974  0.877434  1
  Er  Er2  1  0.706848  0.086026  0.877434  1
  Er  Er3  1  0.706873  0.913701  0.377068  1
  Er  Er4  1  0.586026  0.793152  0.877434  1
  Er  Er5  1  0.586299  0.206873  0.377068  1
  Er  Er6  1  0.413701  0.793127  0.377068  1
  Er  Er7  1  0.413974  0.206848  0.877434  1
  Er  Er8  1  0.208547  0.412979  0.624270  1
  Er  Er9  1  0.208301  0.587049  0.121286  1
  Er  Er10  1  0.791699  0.412951  0.121286  1
  Er  Er11  1  0.791453  0.587021  0.624270  1
  Er  Er12  1  0.912951  0.708301  0.121286  1
  Er  Er13  1  0.912979  0.291453  0.624270  1
  Er  Er14  1  0.087021  0.708547  0.624270  1
  Er  Er15  1  0.087049  0.291699  0.121286  1
  Lu  Lu16  1  0.000000  0.000000  0.499619  1
  Lu  Lu17  1  0.000000  0.000000  0.999562  1
  Lu  Lu18  1  0.500000  0.500000  0.999562  1
  Lu  Lu19  1  0.500000  0.500000  0.499619  1
  Ir  Ir20  1  0.848500  0.152004  0.250030  1
  Ir  Ir21  1  0.848199  0.848059  0.749642  1
  Ir  Ir22  1  0.151801  0.151941  0.749642  1
  Ir  Ir23  1  0.151500  0.847996  0.250030  1
  Ir  Ir24  1  0.651941  0.348199  0.749642  1
  Ir  Ir25  1  0.652004  0.651500  0.250030  1
  Ir  Ir26  1  0.347996  0.348500  0.250030  1
  Ir  Ir27  1  0.348059  0.651801  0.749642  1
  Ir  Ir28  1  0.000000  0.500000  0.378612  1
  Ru  Ru29  1  0.500000  0.000000  0.122836  1
  Ru  Ru30  1  0.500000  0.000000  0.622894  1
  Ru  Ru31  1  0.000000  0.500000  0.878372  1
