# generated using pymatgen
data_Ce4Ho13(TmIr4)3
_symmetry_space_group_name_H-M   'P 1'
_cell_length_a   10.94657610
_cell_length_b   10.91452910
_cell_length_c   6.29034600
_cell_angle_alpha   90.00000000
_cell_angle_beta   90.00000000
_cell_angle_gamma   90.01519599
_symmetry_Int_Tables_number   1
_chemical_formula_structural   Ce4Ho13(TmIr4)3
_chemical_formula_sum   'Ce4 Ho13 Tm3 Ir12'
_cell_volume   751.54990209
_cell_formula_units_Z   1
loop_
 _symmetry_equiv_pos_site_id
 _symmetry_equiv_pos_as_xyz
  1  'x, y, z'
loop_
 _atom_site_type_symbol
 _atom_site_label
 _atom_site_symmetry_multiplicity
 _atom_site_fract_x
 _atom_site_fract_y
 _atom_site_fract_z
 _atom_site_occupancy
  Ce  Ce0  1  0.292615  0.092690  0.381558  1
  Ce  Ce1  1  0.292908  0.907127  0.881523  1
  Ce  Ce2  1  0.707092  0.092873  0.881523  1
  Ce  Ce3  1  0.707385  0.907310  0.381558  1
  Ho  Ho4  1  0.588708  0.785298  0.879030  1
  Ho  Ho5  1  0.588739  0.214724  0.378888  1
  Ho  Ho6  1  0.411261  0.785276  0.378888  1
  Ho  Ho7  1  0.411292  0.214702  0.879030  1
  Ho  Ho8  1  0.207783  0.413272  0.621462  1
  Ho  Ho9  1  0.207787  0.586627  0.121395  1
  Ho  Ho10  1  0.792213  0.413373  0.121395  1
  Ho  Ho11  1  0.792217  0.586728  0.621462  1
  Ho  Ho12  1  0.912950  0.708498  0.117292  1
  Ho  Ho13  1  0.913028  0.291239  0.617100  1
  Ho  Ho14  1  0.086972  0.708761  0.617100  1
  Ho  Ho15  1  0.087050  0.291502  0.117292  1
  Ho  Ho16  1  0.000000  0.000000  0.995680  1
  Tm  Tm17  1  0.000000  0.000000  0.495789  1
  Tm  Tm18  1  0.500000  0.500000  0.010617  1
  Tm  Tm19  1  0.500000  0.500000  0.510688  1
  Ir  Ir20  1  0.845236  0.153161  0.244173  1
  Ir  Ir21  1  0.845212  0.846854  0.742547  1
  Ir  Ir22  1  0.154788  0.153146  0.742547  1
  Ir  Ir23  1  0.154764  0.846839  0.244173  1
  Ir  Ir24  1  0.652292  0.347630  0.756599  1
  Ir  Ir25  1  0.652266  0.652282  0.256582  1
  Ir  Ir26  1  0.347734  0.347718  0.256582  1
  Ir  Ir27  1  0.347708  0.652370  0.756599  1
  Ir  Ir28  1  0.500000  0.000000  0.120175  1
  Ir  Ir29  1  0.500000  0.000000  0.620292  1
  Ir  Ir30  1  0.000000  0.500000  0.875188  1
  Ir  Ir31  1  0.000000  0.500000  0.375274  1
