# generated using pymatgen
data_YHo2Tm(Al3Rh)6
_symmetry_space_group_name_H-M   'P 1'
_cell_length_a   7.55032208
_cell_length_b   7.55409108
_cell_length_c   9.45116700
_cell_angle_alpha   90.00000000
_cell_angle_beta   90.00000000
_cell_angle_gamma   119.29596232
_symmetry_Int_Tables_number   1
_chemical_formula_structural   YHo2Tm(Al3Rh)6
_chemical_formula_sum   'Y1 Ho2 Tm1 Al18 Rh6'
_cell_volume   470.11194912
_cell_formula_units_Z   1
loop_
 _symmetry_equiv_pos_site_id
 _symmetry_equiv_pos_as_xyz
  1  'x, y, z'
loop_
 _atom_site_type_symbol
 _atom_site_label
 _atom_site_symmetry_multiplicity
 _atom_site_fract_x
 _atom_site_fract_y
 _atom_site_fract_z
 _atom_site_occupancy
  Y  Y0  1  0.993975  0.672113  0.250000  1
  Ho  Ho1  1  0.005497  0.327294  0.750000  1
  Ho  Ho2  1  0.672430  0.994176  0.250000  1
  Tm  Tm3  1  0.327474  0.005781  0.750000  1
  Al  Al4  1  0.128748  0.129376  0.250000  1
  Al  Al5  1  0.871468  0.871918  0.750000  1
  Al  Al6  1  0.000734  0.335498  0.074597  1
  Al  Al7  1  0.999743  0.664033  0.923105  1
  Al  Al8  1  0.999743  0.664033  0.576895  1
  Al  Al9  1  0.336276  0.001008  0.425437  1
  Al  Al10  1  0.000734  0.335498  0.425403  1
  Al  Al11  1  0.663700  0.999738  0.575906  1
  Al  Al12  1  0.663700  0.999738  0.924094  1
  Al  Al13  1  0.336276  0.001008  0.074563  1
  Al  Al14  1  0.332512  0.332393  0.550633  1
  Al  Al15  1  0.667199  0.667552  0.452428  1
  Al  Al16  1  0.667199  0.667552  0.047572  1
  Al  Al17  1  0.332512  0.332393  0.949367  1
  Al  Al18  1  0.340964  0.551129  0.250000  1
  Al  Al19  1  0.659319  0.448485  0.750000  1
  Al  Al20  1  0.550429  0.338994  0.250000  1
  Al  Al21  1  0.448682  0.660215  0.750000  1
  Rh  Rh22  1  0.672170  0.327504  0.999477  1
  Rh  Rh23  1  0.327673  0.672250  0.999737  1
  Rh  Rh24  1  0.327673  0.672250  0.500263  1
  Rh  Rh25  1  0.672170  0.327504  0.500523  1
  Rh  Rh26  1  0.000498  0.000283  0.999217  1
  Rh  Rh27  1  0.000498  0.000283  0.500783  1
