# generated using pymatgen
data_Sm2Ho3Bi3C
_symmetry_space_group_name_H-M   'P 1'
_cell_length_a   6.48684300
_cell_length_b   9.26035102
_cell_length_c   9.26007100
_cell_angle_alpha   120.00099268
_cell_angle_beta   90.00000000
_cell_angle_gamma   90.00000000
_symmetry_Int_Tables_number   1
_chemical_formula_structural   Sm2Ho3Bi3C
_chemical_formula_sum   'Sm4 Ho6 Bi6 C2'
_cell_volume   481.72750141
_cell_formula_units_Z   2
loop_
 _symmetry_equiv_pos_site_id
 _symmetry_equiv_pos_as_xyz
  1  'x, y, z'
loop_
 _atom_site_type_symbol
 _atom_site_label
 _atom_site_symmetry_multiplicity
 _atom_site_fract_x
 _atom_site_fract_y
 _atom_site_fract_z
 _atom_site_occupancy
  Sm  Sm0  1  0.500001  0.333336  0.666669  1
  Sm  Sm1  1  0.500001  0.666667  0.333331  1
  Sm  Sm2  1  0.000001  0.666664  0.333331  1
  Sm  Sm3  1  0.000001  0.333333  0.666669  1
  Ho  Ho4  1  0.750003  0.204070  0.000000  1
  Ho  Ho5  1  0.750008  0.795874  0.795876  1
  Ho  Ho6  1  0.750008  0.999998  0.204124  1
  Ho  Ho7  1  0.250003  0.795930  0.000000  1
  Ho  Ho8  1  0.250008  0.204126  0.204124  1
  Ho  Ho9  1  0.250008  0.000002  0.795876  1
  Bi  Bi10  1  0.749999  0.604052  0.000000  1
  Bi  Bi11  1  0.749992  0.395953  0.395939  1
  Bi  Bi12  1  0.749992  0.000013  0.604061  1
  Bi  Bi13  1  0.249999  0.395948  0.000000  1
  Bi  Bi14  1  0.249992  0.604047  0.604061  1
  Bi  Bi15  1  0.249992  0.999987  0.395939  1
  C  C16  1  0.499997  0.999999  0.000000  1
  C  C17  1  0.999997  0.000001  0.000000  1
