# generated using pymatgen
data_Cs5RbTm2Cl12
_symmetry_space_group_name_H-M   'P 1'
_cell_length_a   9.40293000
_cell_length_b   9.39598196
_cell_length_c   7.72643700
_cell_angle_alpha   90.00000000
_cell_angle_beta   90.00000000
_cell_angle_gamma   90.07913250
_symmetry_Int_Tables_number   1
_chemical_formula_structural   Cs5RbTm2Cl12
_chemical_formula_sum   'Cs5 Rb1 Tm2 Cl12'
_cell_volume   682.62820868
_cell_formula_units_Z   1
loop_
 _symmetry_equiv_pos_site_id
 _symmetry_equiv_pos_as_xyz
  1  'x, y, z'
loop_
 _atom_site_type_symbol
 _atom_site_label
 _atom_site_symmetry_multiplicity
 _atom_site_fract_x
 _atom_site_fract_y
 _atom_site_fract_z
 _atom_site_occupancy
  Cs  Cs0  1  0.000011  0.999227  0.500000  1
  Cs  Cs1  1  0.000124  0.999322  0.000000  1
  Cs  Cs2  1  0.237774  0.580618  0.500000  1
  Cs  Cs3  1  0.762169  0.421214  0.500000  1
  Cs  Cs4  1  0.420411  0.237764  0.000000  1
  Rb  Rb5  1  0.578731  0.762978  0.000000  1
  Tm  Tm6  1  0.500202  0.998786  0.500000  1
  Tm  Tm7  1  0.000859  0.501644  0.000000  1
  Cl  Cl8  1  0.688882  0.050868  0.742311  1
  Cl  Cl9  1  0.311650  0.942910  0.740692  1
  Cl  Cl10  1  0.944082  0.690586  0.239284  1
  Cl  Cl11  1  0.054856  0.310505  0.238544  1
  Cl  Cl12  1  0.311650  0.942910  0.259308  1
  Cl  Cl13  1  0.688882  0.050868  0.257689  1
  Cl  Cl14  1  0.054856  0.310505  0.761456  1
  Cl  Cl15  1  0.944082  0.690586  0.760716  1
  Cl  Cl16  1  0.570274  0.730960  0.500000  1
  Cl  Cl17  1  0.430750  0.267240  0.500000  1
  Cl  Cl18  1  0.269848  0.572464  0.000000  1
  Cl  Cl19  1  0.729908  0.438043  0.000000  1
