# generated using pymatgen
data_Ti12V3Si16Mo5
_symmetry_space_group_name_H-M   'P 1'
_cell_length_a   6.59540945
_cell_length_b   6.59882950
_cell_length_c   12.12544903
_cell_angle_alpha   89.96500372
_cell_angle_beta   89.96841125
_cell_angle_gamma   90.06903201
_symmetry_Int_Tables_number   1
_chemical_formula_structural   Ti12V3Si16Mo5
_chemical_formula_sum   'Ti12 V3 Si16 Mo5'
_cell_volume   527.72301802
_cell_formula_units_Z   1
loop_
 _symmetry_equiv_pos_site_id
 _symmetry_equiv_pos_as_xyz
  1  'x, y, z'
loop_
 _atom_site_type_symbol
 _atom_site_label
 _atom_site_symmetry_multiplicity
 _atom_site_fract_x
 _atom_site_fract_y
 _atom_site_fract_z
 _atom_site_occupancy
  Ti  Ti0  1  0.002672  0.339413  0.218891  1
  Ti  Ti1  1  0.159530  0.505238  0.467501  1
  Ti  Ti2  1  0.839899  0.495336  0.969226  1
  Ti  Ti3  1  0.504212  0.159494  0.531218  1
  Ti  Ti4  1  0.494701  0.840575  0.031718  1
  Ti  Ti5  1  0.997272  0.660973  0.719854  1
  Ti  Ti6  1  0.338848  0.002859  0.781385  1
  Ti  Ti7  1  0.660776  0.996750  0.279969  1
  Ti  Ti8  1  0.167046  0.166146  0.000824  1
  Ti  Ti9  1  0.332706  0.667057  0.249642  1
  Ti  Ti10  1  0.668180  0.333124  0.750527  1
  Ti  Ti11  1  0.832632  0.833210  0.499046  1
  V  V12  1  0.007959  0.844868  0.122164  1
  V  V13  1  0.154833  0.992096  0.377664  1
  V  V14  1  0.845608  0.008127  0.877228  1
  Si  Si15  1  0.039334  0.298560  0.815053  1
  Si  Si16  1  0.194608  0.544045  0.064228  1
  Si  Si17  1  0.803555  0.459480  0.562807  1
  Si  Si18  1  0.544397  0.194410  0.936192  1
  Si  Si19  1  0.456461  0.805674  0.434889  1
  Si  Si20  1  0.961204  0.704559  0.311199  1
  Si  Si21  1  0.295620  0.038726  0.188450  1
  Si  Si22  1  0.699212  0.959155  0.689283  1
  Si  Si23  1  0.292063  0.364016  0.673354  1
  Si  Si24  1  0.128781  0.794381  0.923703  1
  Si  Si25  1  0.869874  0.206362  0.420483  1
  Si  Si26  1  0.794278  0.128603  0.076763  1
  Si  Si27  1  0.207194  0.864734  0.574819  1
  Si  Si28  1  0.712276  0.637942  0.170955  1
  Si  Si29  1  0.361670  0.287590  0.328419  1
  Si  Si30  1  0.638385  0.712140  0.829784  1
  Mo  Mo31  1  0.993276  0.154149  0.622734  1
  Mo  Mo32  1  0.346093  0.493986  0.873341  1
  Mo  Mo33  1  0.654471  0.506812  0.372551  1
  Mo  Mo34  1  0.493414  0.345155  0.127003  1
  Mo  Mo35  1  0.506962  0.654254  0.627132  1
