# generated using pymatgen
data_Tm4GaSi3Pd8
_symmetry_space_group_name_H-M   'P 1'
_cell_length_a   5.51945281
_cell_length_b   7.05791200
_cell_length_c   7.25069301
_cell_angle_alpha   90.00000000
_cell_angle_beta   90.45487042
_cell_angle_gamma   90.00000000
_symmetry_Int_Tables_number   1
_chemical_formula_structural   Tm4GaSi3Pd8
_chemical_formula_sum   'Tm4 Ga1 Si3 Pd8'
_cell_volume   282.44773443
_cell_formula_units_Z   1
loop_
 _symmetry_equiv_pos_site_id
 _symmetry_equiv_pos_as_xyz
  1  'x, y, z'
loop_
 _atom_site_type_symbol
 _atom_site_label
 _atom_site_symmetry_multiplicity
 _atom_site_fract_x
 _atom_site_fract_y
 _atom_site_fract_z
 _atom_site_occupancy
  Tm  Tm0  1  0.358912  0.750000  0.026960  1
  Tm  Tm1  1  0.145614  0.750000  0.528180  1
  Tm  Tm2  1  0.639981  0.250000  0.974121  1
  Tm  Tm3  1  0.856207  0.250000  0.471508  1
  Ga  Ga4  1  0.642569  0.750000  0.381048  1
  Si  Si5  1  0.861380  0.750000  0.878810  1
  Si  Si6  1  0.359748  0.250000  0.620176  1
  Si  Si7  1  0.138597  0.250000  0.118096  1
  Pd  Pd8  1  0.911874  0.549812  0.174949  1
  Pd  Pd9  1  0.592012  0.950498  0.686532  1
  Pd  Pd10  1  0.095755  0.052812  0.818490  1
  Pd  Pd11  1  0.398855  0.444820  0.320579  1
  Pd  Pd12  1  0.095755  0.447188  0.818490  1
  Pd  Pd13  1  0.398855  0.055180  0.320579  1
  Pd  Pd14  1  0.911874  0.950188  0.174949  1
  Pd  Pd15  1  0.592012  0.549502  0.686532  1
