# generated using pymatgen
data_La4PrPt19
_symmetry_space_group_name_H-M   'P 1'
_cell_length_a   5.48485278
_cell_length_b   5.48485154
_cell_length_c   18.14845508
_cell_angle_alpha   81.30869492
_cell_angle_beta   81.30870786
_cell_angle_gamma   60.00000414
_symmetry_Int_Tables_number   1
_chemical_formula_structural   La4PrPt19
_chemical_formula_sum   'La4 Pr1 Pt19'
_cell_volume   465.57127829
_cell_formula_units_Z   1
loop_
 _symmetry_equiv_pos_site_id
 _symmetry_equiv_pos_as_xyz
  1  'x, y, z'
loop_
 _atom_site_type_symbol
 _atom_site_label
 _atom_site_symmetry_multiplicity
 _atom_site_fract_x
 _atom_site_fract_y
 _atom_site_fract_z
 _atom_site_occupancy
  La  La0  1  0.000002  0.000002  0.999995  1
  La  La1  1  0.922715  0.922715  0.231858  1
  La  La2  1  0.077328  0.077328  0.768014  1
  La  La3  1  0.847964  0.847964  0.456107  1
  Pr  Pr4  1  0.152060  0.152060  0.543821  1
  Pt  Pt5  1  0.499943  0.499943  0.500172  1
  Pt  Pt6  1  0.749826  0.749827  0.750522  1
  Pt  Pt7  1  0.250228  0.250228  0.249315  1
  Pt  Pt8  1  0.666732  0.666732  0.999804  1
  Pt  Pt9  1  0.333241  0.333241  0.000275  1
  Pt  Pt10  1  0.583924  0.583924  0.248229  1
  Pt  Pt11  1  0.416093  0.416093  0.751720  1
  Pt  Pt12  1  0.373569  0.373569  0.374890  1
  Pt  Pt13  1  0.877971  0.373569  0.374890  1
  Pt  Pt14  1  0.373569  0.877971  0.374890  1
  Pt  Pt15  1  0.626282  0.626282  0.625180  1
  Pt  Pt16  1  0.122257  0.626282  0.625180  1
  Pt  Pt17  1  0.626282  0.122257  0.625180  1
  Pt  Pt18  1  0.458869  0.458869  0.123412  1
  Pt  Pt19  1  0.958850  0.458869  0.123412  1
  Pt  Pt20  1  0.458869  0.958850  0.123412  1
  Pt  Pt21  1  0.541115  0.541115  0.876574  1
  Pt  Pt22  1  0.041196  0.541115  0.876574  1
  Pt  Pt23  1  0.541115  0.041196  0.876574  1
