# generated using pymatgen
data_Y15Th(NiAg)4
_symmetry_space_group_name_H-M   'P 1'
_cell_length_a   9.52278617
_cell_length_b   9.52291404
_cell_length_c   9.52282501
_cell_angle_alpha   60.06357176
_cell_angle_beta   60.06630376
_cell_angle_gamma   60.06345953
_symmetry_Int_Tables_number   1
_chemical_formula_structural   Y15Th(NiAg)4
_chemical_formula_sum   'Y15 Th1 Ni4 Ag4'
_cell_volume   611.53108993
_cell_formula_units_Z   1
loop_
 _symmetry_equiv_pos_site_id
 _symmetry_equiv_pos_as_xyz
  1  'x, y, z'
loop_
 _atom_site_type_symbol
 _atom_site_label
 _atom_site_symmetry_multiplicity
 _atom_site_fract_x
 _atom_site_fract_y
 _atom_site_fract_z
 _atom_site_occupancy
  Y  Y0  1  0.601542  0.601555  0.195113  1
  Y  Y1  1  0.601547  0.195111  0.601548  1
  Y  Y2  1  0.195116  0.601552  0.601541  1
  Y  Y3  1  0.061678  0.438765  0.438766  1
  Y  Y4  1  0.439547  0.060983  0.060988  1
  Y  Y5  1  0.438765  0.061668  0.438765  1
  Y  Y6  1  0.060990  0.439550  0.060974  1
  Y  Y7  1  0.438765  0.438764  0.061672  1
  Y  Y8  1  0.060990  0.060970  0.439554  1
  Y  Y9  1  0.185178  0.815416  0.815422  1
  Y  Y10  1  0.816569  0.185591  0.185594  1
  Y  Y11  1  0.815415  0.185176  0.815425  1
  Y  Y12  1  0.185595  0.816567  0.185595  1
  Y  Y13  1  0.815420  0.815422  0.185178  1
  Y  Y14  1  0.185597  0.185594  0.816570  1
  Th  Th15  1  0.596496  0.596518  0.596489  1
  Ni  Ni16  1  0.393363  0.393366  0.393368  1
  Ni  Ni17  1  0.393660  0.393662  0.820132  1
  Ni  Ni18  1  0.393653  0.820135  0.393659  1
  Ni  Ni19  1  0.820133  0.393657  0.393661  1
  Ag  Ag20  1  0.831099  0.831102  0.831103  1
  Ag  Ag21  1  0.832362  0.832360  0.504160  1
  Ag  Ag22  1  0.832361  0.504159  0.832363  1
  Ag  Ag23  1  0.504159  0.832360  0.832363  1
