# generated using pymatgen
data_Li2Zn4B6IrRh10
_symmetry_space_group_name_H-M   'P 1'
_cell_length_a   2.87515500
_cell_length_b   8.52452500
_cell_length_c   11.39695200
_cell_angle_alpha   90.00000000
_cell_angle_beta   90.00000000
_cell_angle_gamma   90.00000000
_symmetry_Int_Tables_number   1
_chemical_formula_structural   Li2Zn4B6IrRh10
_chemical_formula_sum   'Li2 Zn4 B6 Ir1 Rh10'
_cell_volume   279.33166527
_cell_formula_units_Z   1
loop_
 _symmetry_equiv_pos_site_id
 _symmetry_equiv_pos_as_xyz
  1  'x, y, z'
loop_
 _atom_site_type_symbol
 _atom_site_label
 _atom_site_symmetry_multiplicity
 _atom_site_fract_x
 _atom_site_fract_y
 _atom_site_fract_z
 _atom_site_occupancy
  Li  Li0  1  0.500000  0.000000  0.197869  1
  Li  Li1  1  0.500000  0.000000  0.802131  1
  Zn  Zn2  1  0.500000  0.000000  0.500000  1
  Zn  Zn3  1  0.500000  0.500000  0.000000  1
  Zn  Zn4  1  0.500000  0.647667  0.500000  1
  Zn  Zn5  1  0.500000  0.352333  0.500000  1
  B  B6  1  0.500000  0.809896  0.000000  1
  B  B7  1  0.500000  0.190104  0.000000  1
  B  B8  1  0.500000  0.689631  0.270328  1
  B  B9  1  0.500000  0.310369  0.270328  1
  B  B10  1  0.500000  0.310369  0.729672  1
  B  B11  1  0.500000  0.689631  0.729672  1
  Ir  Ir12  1  0.000000  0.000000  0.000000  1
  Rh  Rh13  1  0.000000  0.500000  0.318301  1
  Rh  Rh14  1  0.000000  0.500000  0.681699  1
  Rh  Rh15  1  0.000000  0.709134  0.123854  1
  Rh  Rh16  1  0.000000  0.290866  0.123854  1
  Rh  Rh17  1  0.000000  0.290866  0.876146  1
  Rh  Rh18  1  0.000000  0.709134  0.876146  1
  Rh  Rh19  1  0.000000  0.825351  0.359298  1
  Rh  Rh20  1  0.000000  0.174649  0.359298  1
  Rh  Rh21  1  0.000000  0.174649  0.640702  1
  Rh  Rh22  1  0.000000  0.825351  0.640702  1
