# generated using pymatgen
data_TbDy23Ru14
_symmetry_space_group_name_H-M   'P 1'
_cell_length_a   11.32016139
_cell_length_b   8.37388442
_cell_length_c   11.22933501
_cell_angle_alpha   56.39551589
_cell_angle_beta   89.91535852
_cell_angle_gamma   89.99753165
_symmetry_Int_Tables_number   1
_chemical_formula_structural   TbDy23Ru14
_chemical_formula_sum   'Tb1 Dy23 Ru14'
_cell_volume   886.57261218
_cell_formula_units_Z   1
loop_
 _symmetry_equiv_pos_site_id
 _symmetry_equiv_pos_as_xyz
  1  'x, y, z'
loop_
 _atom_site_type_symbol
 _atom_site_label
 _atom_site_symmetry_multiplicity
 _atom_site_fract_x
 _atom_site_fract_y
 _atom_site_fract_z
 _atom_site_occupancy
  Tb  Tb0  1  0.705608  0.240534  0.531988  1
  Dy  Dy1  1  0.205995  0.759327  0.968236  1
  Dy  Dy2  1  0.844958  0.506889  0.655377  1
  Dy  Dy3  1  0.344859  0.493137  0.844675  1
  Dy  Dy4  1  0.155181  0.493230  0.344709  1
  Dy  Dy5  1  0.655004  0.506966  0.155101  1
  Dy  Dy6  1  0.006421  0.852709  0.361015  1
  Dy  Dy7  1  0.506353  0.147340  0.138963  1
  Dy  Dy8  1  0.993789  0.147398  0.638969  1
  Dy  Dy9  1  0.493565  0.852566  0.861130  1
  Dy  Dy10  1  0.793966  0.240548  0.031947  1
  Dy  Dy11  1  0.294007  0.759149  0.468333  1
  Dy  Dy12  1  0.931291  0.776859  0.089694  1
  Dy  Dy13  1  0.430705  0.223206  0.410133  1
  Dy  Dy14  1  0.068708  0.223163  0.910368  1
  Dy  Dy15  1  0.568782  0.776773  0.589631  1
  Dy  Dy16  1  0.301350  0.242927  0.675280  1
  Dy  Dy17  1  0.801574  0.756837  0.825033  1
  Dy  Dy18  1  0.698672  0.757299  0.324695  1
  Dy  Dy19  1  0.198549  0.243009  0.174997  1
  Dy  Dy20  1  0.925668  0.279404  0.293879  1
  Dy  Dy21  1  0.425604  0.720691  0.206024  1
  Dy  Dy22  1  0.074475  0.720683  0.706057  1
  Dy  Dy23  1  0.574319  0.279377  0.794181  1
  Ru  Ru24  1  0.499577  0.500395  0.499965  1
  Ru  Ru25  1  0.000070  0.500021  0.999996  1
  Ru  Ru26  1  0.648621  0.923137  0.033391  1
  Ru  Ru27  1  0.148802  0.077106  0.466293  1
  Ru  Ru28  1  0.351350  0.076896  0.966541  1
  Ru  Ru29  1  0.851457  0.922583  0.533581  1
  Ru  Ru30  1  0.398086  0.485545  0.102508  1
  Ru  Ru31  1  0.898318  0.514543  0.397338  1
  Ru  Ru32  1  0.601841  0.514485  0.897552  1
  Ru  Ru33  1  0.101821  0.485573  0.602642  1
  Ru  Ru34  1  0.820631  0.097545  0.849772  1
  Ru  Ru35  1  0.320265  0.902606  0.650564  1
  Ru  Ru36  1  0.179622  0.902433  0.150472  1
  Ru  Ru37  1  0.680133  0.097114  0.348966  1
