# generated using pymatgen
data_Pm4PtSe7
_symmetry_space_group_name_H-M   'P 1'
_cell_length_a   4.03505284
_cell_length_b   8.27544244
_cell_length_c   8.70173052
_cell_angle_alpha   90.05040654
_cell_angle_beta   89.99993368
_cell_angle_gamma   90.03718221
_symmetry_Int_Tables_number   1
_chemical_formula_structural   Pm4PtSe7
_chemical_formula_sum   'Pm4 Pt1 Se7'
_cell_volume   290.56668467
_cell_formula_units_Z   1
loop_
 _symmetry_equiv_pos_site_id
 _symmetry_equiv_pos_as_xyz
  1  'x, y, z'
loop_
 _atom_site_type_symbol
 _atom_site_label
 _atom_site_symmetry_multiplicity
 _atom_site_fract_x
 _atom_site_fract_y
 _atom_site_fract_z
 _atom_site_occupancy
  Pm  Pm0  1  0.249387  0.126127  0.201860  1
  Pm  Pm1  1  0.750334  0.381266  0.772207  1
  Pm  Pm2  1  0.750285  0.867541  0.771874  1
  Pm  Pm3  1  0.249261  0.626202  0.251016  1
  Pt  Pt4  1  0.750709  0.124320  0.499002  1
  Se  Se5  1  0.250611  0.320729  0.496770  1
  Se  Se6  1  0.250701  0.928164  0.496446  1
  Se  Se7  1  0.749774  0.624181  0.507620  1
  Se  Se8  1  0.250193  0.124644  0.861584  1
  Se  Se9  1  0.749334  0.380685  0.132307  1
  Se  Se10  1  0.749349  0.871355  0.132119  1
  Se  Se11  1  0.250061  0.624786  0.877196  1
