# generated using pymatgen
data_Al2SbSe4
_symmetry_space_group_name_H-M   'P 1'
_cell_length_a   7.88427200
_cell_length_b   7.88427200
_cell_length_c   12.56859400
_cell_angle_alpha   90.00000000
_cell_angle_beta   90.00000000
_cell_angle_gamma   90.00000000
_symmetry_Int_Tables_number   1
_chemical_formula_structural   Al2SbSe4
_chemical_formula_sum   'Al8 Sb4 Se16'
_cell_volume   781.28573486
_cell_formula_units_Z   4
loop_
 _symmetry_equiv_pos_site_id
 _symmetry_equiv_pos_as_xyz
  1  'x, y, z'
loop_
 _atom_site_type_symbol
 _atom_site_label
 _atom_site_symmetry_multiplicity
 _atom_site_fract_x
 _atom_site_fract_y
 _atom_site_fract_z
 _atom_site_occupancy
  Al  Al0  1  0.000000  0.500000  0.750000  1
  Al  Al1  1  0.000000  0.500000  0.000000  1
  Al  Al2  1  0.000000  0.500000  0.250000  1
  Al  Al3  1  0.500000  0.000000  0.500000  1
  Al  Al4  1  0.500000  0.000000  0.250000  1
  Al  Al5  1  0.500000  0.000000  0.750000  1
  Al  Al6  1  0.000000  0.500000  0.500000  1
  Al  Al7  1  0.500000  0.000000  0.000000  1
  Sb  Sb8  1  0.000000  0.000000  0.878727  1
  Sb  Sb9  1  0.500000  0.500000  0.621273  1
  Sb  Sb10  1  0.500000  0.500000  0.378727  1
  Sb  Sb11  1  0.000000  0.000000  0.121273  1
  Se  Se12  1  0.332857  0.164859  0.875596  1
  Se  Se13  1  0.335141  0.167143  0.375596  1
  Se  Se14  1  0.832857  0.335141  0.375596  1
  Se  Se15  1  0.667143  0.835141  0.875596  1
  Se  Se16  1  0.335141  0.832857  0.624404  1
  Se  Se17  1  0.164859  0.332857  0.124404  1
  Se  Se18  1  0.332857  0.835141  0.124404  1
  Se  Se19  1  0.835141  0.332857  0.875596  1
  Se  Se20  1  0.835141  0.667143  0.124404  1
  Se  Se21  1  0.664859  0.167143  0.624404  1
  Se  Se22  1  0.164859  0.667143  0.875596  1
  Se  Se23  1  0.664859  0.832857  0.375596  1
  Se  Se24  1  0.167143  0.664859  0.375596  1
  Se  Se25  1  0.832857  0.664859  0.624404  1
  Se  Se26  1  0.167143  0.335141  0.624404  1
  Se  Se27  1  0.667143  0.164859  0.124404  1
