# generated using pymatgen
data_EuHo4HfH18
_symmetry_space_group_name_H-M   'P 1'
_cell_length_a   6.27295860
_cell_length_b   6.28546421
_cell_length_c   6.55004838
_cell_angle_alpha   89.65237714
_cell_angle_beta   90.22893800
_cell_angle_gamma   119.91665600
_symmetry_Int_Tables_number   1
_chemical_formula_structural   EuHo4HfH18
_chemical_formula_sum   'Eu1 Ho4 Hf1 H18'
_cell_volume   223.84158594
_cell_formula_units_Z   1
loop_
 _symmetry_equiv_pos_site_id
 _symmetry_equiv_pos_as_xyz
  1  'x, y, z'
loop_
 _atom_site_type_symbol
 _atom_site_label
 _atom_site_symmetry_multiplicity
 _atom_site_fract_x
 _atom_site_fract_y
 _atom_site_fract_z
 _atom_site_occupancy
  Eu  Eu0  1  0.333873  0.335403  0.750080  1
  Ho  Ho1  1  0.997606  0.661598  0.749888  1
  Ho  Ho2  1  0.664285  0.665218  0.252729  1
  Ho  Ho3  1  0.999877  0.334507  0.246254  1
  Ho  Ho4  1  0.337397  0.000930  0.251041  1
  Hf  Hf5  1  0.658715  0.999598  0.750126  1
  H  H6  1  0.343432  0.965144  0.903090  1
  H  H7  1  0.652443  0.708719  0.903326  1
  H  H8  1  0.009336  0.345263  0.908804  1
  H  H9  1  0.319145  0.346505  0.400948  1
  H  H10  1  0.028809  0.676511  0.409917  1
  H  H11  1  0.654753  0.974183  0.423427  1
  H  H12  1  0.678916  0.025860  0.076867  1
  H  H13  1  0.351698  0.323247  0.099208  1
  H  H14  1  0.972581  0.655602  0.089670  1
  H  H15  1  0.685608  0.663548  0.591477  1
  H  H16  1  0.940218  0.299232  0.598023  1
  H  H17  1  0.375336  0.020850  0.594952  1
  H  H18  1  0.970445  0.990941  0.750202  1
  H  H19  1  0.001221  0.000013  0.250171  1
  H  H20  1  0.672441  0.311547  0.809632  1
  H  H21  1  0.667458  0.334183  0.304899  1
  H  H22  1  0.332783  0.666462  0.194901  1
  H  H23  1  0.351622  0.694935  0.690367  1
