# generated using pymatgen
data_LiHf6Si12Rh5
_symmetry_space_group_name_H-M   'P 1'
_cell_length_a   9.93178450
_cell_length_b   9.97045465
_cell_length_c   9.95975603
_cell_angle_alpha   148.86121873
_cell_angle_beta   133.45365812
_cell_angle_gamma   57.18683525
_symmetry_Int_Tables_number   1
_chemical_formula_structural   LiHf6Si12Rh5
_chemical_formula_sum   'Li1 Hf6 Si12 Rh5'
_cell_volume   367.34503549
_cell_formula_units_Z   1
loop_
 _symmetry_equiv_pos_site_id
 _symmetry_equiv_pos_as_xyz
  1  'x, y, z'
loop_
 _atom_site_type_symbol
 _atom_site_label
 _atom_site_symmetry_multiplicity
 _atom_site_fract_x
 _atom_site_fract_y
 _atom_site_fract_z
 _atom_site_occupancy
  Li  Li0  1  0.000000  0.000000  0.500000  1
  Hf  Hf1  1  0.848929  0.600943  0.262001  1
  Hf  Hf2  1  0.151071  0.399057  0.737999  1
  Hf  Hf3  1  0.662311  0.409629  0.258216  1
  Hf  Hf4  1  0.337689  0.590371  0.741784  1
  Hf  Hf5  1  0.137107  0.129865  0.989262  1
  Hf  Hf6  1  0.862893  0.870135  0.010738  1
  Si  Si7  1  0.492256  0.140329  0.356262  1
  Si  Si8  1  0.507744  0.859671  0.643738  1
  Si  Si9  1  0.214928  0.870144  0.355022  1
  Si  Si10  1  0.785072  0.129856  0.644978  1
  Si  Si11  1  0.700158  0.692420  0.989850  1
  Si  Si12  1  0.299842  0.307580  0.010150  1
  Si  Si13  1  0.497751  0.716762  0.221728  1
  Si  Si14  1  0.502249  0.283238  0.778272  1
  Si  Si15  1  0.002704  0.272461  0.272958  1
  Si  Si16  1  0.204034  0.698177  0.495427  1
  Si  Si17  1  0.997296  0.727539  0.727042  1
  Si  Si18  1  0.795966  0.301823  0.504573  1
  Rh  Rh19  1  0.742504  0.006246  0.752963  1
  Rh  Rh20  1  0.500000  0.500000  0.500000  1
  Rh  Rh21  1  0.500000  0.000000  0.000000  1
  Rh  Rh22  1  0.257496  0.993754  0.247037  1
  Rh  Rh23  1  0.000000  0.500000  0.000000  1
