# generated using pymatgen
data_Sc12Co4ReBi
_symmetry_space_group_name_H-M   'P 1'
_cell_length_a   7.77404656
_cell_length_b   7.77404685
_cell_length_c   7.77404637
_cell_angle_alpha   112.00743504
_cell_angle_beta   110.48649199
_cell_angle_gamma   105.97909669
_symmetry_Int_Tables_number   1
_chemical_formula_structural   Sc12Co4ReBi
_chemical_formula_sum   'Sc12 Co4 Re1 Bi1'
_cell_volume   360.60819617
_cell_formula_units_Z   1
loop_
 _symmetry_equiv_pos_site_id
 _symmetry_equiv_pos_as_xyz
  1  'x, y, z'
loop_
 _atom_site_type_symbol
 _atom_site_label
 _atom_site_symmetry_multiplicity
 _atom_site_fract_x
 _atom_site_fract_y
 _atom_site_fract_z
 _atom_site_occupancy
  Sc  Sc0  1  0.818498  0.728773  0.547271  1
  Sc  Sc1  1  0.181502  0.271227  0.452729  1
  Sc  Sc2  1  0.181502  0.728773  0.910277  1
  Sc  Sc3  1  0.818498  0.271227  0.089723  1
  Sc  Sc4  1  0.690778  0.384329  0.693552  1
  Sc  Sc5  1  0.309222  0.615671  0.306448  1
  Sc  Sc6  1  0.690778  0.997226  0.306448  1
  Sc  Sc7  1  0.309222  0.002774  0.693552  1
  Sc  Sc8  1  0.574654  0.775830  0.798825  1
  Sc  Sc9  1  0.425346  0.224170  0.201175  1
  Sc  Sc10  1  0.977005  0.775830  0.201175  1
  Sc  Sc11  1  0.022995  0.224170  0.798825  1
  Co  Co12  1  0.631474  0.000000  0.631474  1
  Co  Co13  1  0.368526  0.000000  0.368526  1
  Co  Co14  1  0.116868  0.616868  0.500000  1
  Co  Co15  1  0.883132  0.383132  0.500000  1
  Re  Re16  1  0.000000  0.000000  0.000000  1
  Bi  Bi17  1  0.500000  0.500000  0.000000  1
