# generated using pymatgen
data_Pr4PtSe7
_symmetry_space_group_name_H-M   'P 1'
_cell_length_a   4.08228412
_cell_length_b   8.42071845
_cell_length_c   8.74598535
_cell_angle_alpha   90.03560187
_cell_angle_beta   89.98739619
_cell_angle_gamma   89.99603881
_symmetry_Int_Tables_number   1
_chemical_formula_structural   Pr4PtSe7
_chemical_formula_sum   'Pr4 Pt1 Se7'
_cell_volume   300.64987331
_cell_formula_units_Z   1
loop_
 _symmetry_equiv_pos_site_id
 _symmetry_equiv_pos_as_xyz
  1  'x, y, z'
loop_
 _atom_site_type_symbol
 _atom_site_label
 _atom_site_symmetry_multiplicity
 _atom_site_fract_x
 _atom_site_fract_y
 _atom_site_fract_z
 _atom_site_occupancy
  Pr  Pr0  1  0.250385  0.125497  0.701804  1
  Pr  Pr1  1  0.250992  0.625706  0.749963  1
  Pr  Pr2  1  0.750025  0.867607  0.272046  1
  Pr  Pr3  1  0.749596  0.381546  0.273141  1
  Pt  Pt4  1  0.748859  0.125128  0.000951  1
  Se  Se5  1  0.248974  0.318266  0.997843  1
  Se  Se6  1  0.750554  0.623812  0.006475  1
  Se  Se7  1  0.750781  0.871469  0.632707  1
  Se  Se8  1  0.249983  0.624992  0.374331  1
  Se  Se9  1  0.249340  0.932058  0.997121  1
  Se  Se10  1  0.750556  0.379454  0.633217  1
  Se  Se11  1  0.249956  0.124466  0.360402  1
