# generated using pymatgen
data_Pa2RuPt5
_symmetry_space_group_name_H-M   'P 1'
_cell_length_a   5.86815939
_cell_length_b   5.86815770
_cell_length_c   4.88897500
_cell_angle_alpha   90.00000000
_cell_angle_beta   90.00000000
_cell_angle_gamma   121.64194323
_symmetry_Int_Tables_number   1
_chemical_formula_structural   Pa2RuPt5
_chemical_formula_sum   'Pa2 Ru1 Pt5'
_cell_volume   143.32637823
_cell_formula_units_Z   1
loop_
 _symmetry_equiv_pos_site_id
 _symmetry_equiv_pos_as_xyz
  1  'x, y, z'
loop_
 _atom_site_type_symbol
 _atom_site_label
 _atom_site_symmetry_multiplicity
 _atom_site_fract_x
 _atom_site_fract_y
 _atom_site_fract_z
 _atom_site_occupancy
  Pa  Pa0  1  0.670318  0.329682  0.250000  1
  Pa  Pa1  1  0.332199  0.667801  0.750000  1
  Ru  Ru2  1  0.836394  0.163606  0.750000  1
  Pt  Pt3  1  0.328715  0.166683  0.750000  1
  Pt  Pt4  1  0.833317  0.671285  0.750000  1
  Pt  Pt5  1  0.162605  0.837395  0.250000  1
  Pt  Pt6  1  0.674901  0.838448  0.250000  1
  Pt  Pt7  1  0.161552  0.325099  0.250000  1
