# generated using pymatgen
data_Pr4Er3Tm(B6Ru)4
_symmetry_space_group_name_H-M   'P 1'
_cell_length_a   3.71702100
_cell_length_b   9.21931401
_cell_length_c   11.65822201
_cell_angle_alpha   90.00472554
_cell_angle_beta   90.00000000
_cell_angle_gamma   90.00000000
_symmetry_Int_Tables_number   1
_chemical_formula_structural   Pr4Er3Tm(B6Ru)4
_chemical_formula_sum   'Pr4 Er3 Tm1 B24 Ru4'
_cell_volume   399.50842458
_cell_formula_units_Z   1
loop_
 _symmetry_equiv_pos_site_id
 _symmetry_equiv_pos_as_xyz
  1  'x, y, z'
loop_
 _atom_site_type_symbol
 _atom_site_label
 _atom_site_symmetry_multiplicity
 _atom_site_fract_x
 _atom_site_fract_y
 _atom_site_fract_z
 _atom_site_occupancy
  Pr  Pr0  1  0.000000  0.322837  0.414578  1
  Pr  Pr1  1  0.000000  0.677151  0.585481  1
  Pr  Pr2  1  0.000000  0.822776  0.085381  1
  Pr  Pr3  1  0.000000  0.177239  0.914556  1
  Er  Er4  1  0.000000  0.944319  0.371851  1
  Er  Er5  1  0.000000  0.055646  0.628200  1
  Er  Er6  1  0.000000  0.444406  0.128056  1
  Tm  Tm7  1  0.000000  0.555637  0.871852  1
  B  B8  1  0.500000  0.557154  0.429354  1
  B  B9  1  0.500000  0.442855  0.570660  1
  B  B10  1  0.500000  0.057149  0.070638  1
  B  B11  1  0.500000  0.942819  0.929351  1
  B  B12  1  0.500000  0.750704  0.416657  1
  B  B13  1  0.500000  0.249307  0.583343  1
  B  B14  1  0.500000  0.250710  0.083341  1
  B  B15  1  0.500000  0.749066  0.916654  1
  B  B16  1  0.500000  0.790746  0.266655  1
  B  B17  1  0.500000  0.209287  0.733354  1
  B  B18  1  0.500000  0.290751  0.233339  1
  B  B19  1  0.500000  0.709033  0.766713  1
  B  B20  1  0.500000  0.630380  0.184806  1
  B  B21  1  0.500000  0.369811  0.815293  1
  B  B22  1  0.500000  0.130388  0.315190  1
  B  B23  1  0.500000  0.869604  0.684817  1
  B  B24  1  0.500000  0.986263  0.214409  1
  B  B25  1  0.500000  0.013729  0.785588  1
  B  B26  1  0.500000  0.486259  0.285588  1
  B  B27  1  0.500000  0.513871  0.714565  1
  B  B28  1  0.500000  0.601387  0.027263  1
  B  B29  1  0.500000  0.398793  0.972336  1
  B  B30  1  0.500000  0.101435  0.472500  1
  B  B31  1  0.500000  0.898562  0.527501  1
  Ru  Ru32  1  0.000000  0.640253  0.318604  1
  Ru  Ru33  1  0.000000  0.359906  0.681515  1
  Ru  Ru34  1  0.000000  0.140269  0.181364  1
  Ru  Ru35  1  0.000000  0.859497  0.818646  1
