# generated using pymatgen
data_Cs6MoWS8
_symmetry_space_group_name_H-M   'P 1'
_cell_length_a   9.99205700
_cell_length_b   10.05544500
_cell_length_c   11.84800500
_cell_angle_alpha   90.00000000
_cell_angle_beta   90.00000000
_cell_angle_gamma   90.00000000
_symmetry_Int_Tables_number   1
_chemical_formula_structural   Cs6MoWS8
_chemical_formula_sum   'Cs12 Mo2 W2 S16'
_cell_volume   1190.42332148
_cell_formula_units_Z   2
loop_
 _symmetry_equiv_pos_site_id
 _symmetry_equiv_pos_as_xyz
  1  'x, y, z'
loop_
 _atom_site_type_symbol
 _atom_site_label
 _atom_site_symmetry_multiplicity
 _atom_site_fract_x
 _atom_site_fract_y
 _atom_site_fract_z
 _atom_site_occupancy
  Cs  Cs0  1  0.546211  0.210861  0.048097  1
  Cs  Cs1  1  0.046211  0.289139  0.451903  1
  Cs  Cs2  1  0.453380  0.791513  0.535357  1
  Cs  Cs3  1  0.953380  0.708487  0.964643  1
  Cs  Cs4  1  0.453380  0.791513  0.964643  1
  Cs  Cs5  1  0.953380  0.708487  0.535357  1
  Cs  Cs6  1  0.546211  0.210861  0.451903  1
  Cs  Cs7  1  0.046211  0.289139  0.048097  1
  Cs  Cs8  1  0.649408  0.415160  0.750000  1
  Cs  Cs9  1  0.149408  0.084840  0.750000  1
  Cs  Cs10  1  0.352304  0.584870  0.250000  1
  Cs  Cs11  1  0.852304  0.915130  0.250000  1
  Mo  Mo12  1  0.276062  0.016279  0.250000  1
  Mo  Mo13  1  0.776062  0.483721  0.250000  1
  W  W14  1  0.722828  0.982944  0.750000  1
  W  W15  1  0.222828  0.517056  0.750000  1
  S  S16  1  0.830636  0.048428  0.594059  1
  S  S17  1  0.330636  0.451572  0.905941  1
  S  S18  1  0.168332  0.951695  0.090914  1
  S  S19  1  0.668332  0.548305  0.409086  1
  S  S20  1  0.168332  0.951695  0.409086  1
  S  S21  1  0.668332  0.548305  0.090914  1
  S  S22  1  0.830636  0.048428  0.905941  1
  S  S23  1  0.330636  0.451572  0.594059  1
  S  S24  1  0.515346  0.068973  0.750000  1
  S  S25  1  0.015346  0.431027  0.750000  1
  S  S26  1  0.486543  0.931028  0.250000  1
  S  S27  1  0.986543  0.568972  0.250000  1
  S  S28  1  0.709367  0.760478  0.750000  1
  S  S29  1  0.209367  0.739522  0.750000  1
  S  S30  1  0.291025  0.241551  0.250000  1
  S  S31  1  0.791025  0.258449  0.250000  1
