# generated using pymatgen
data_LuFe(NiP)2
_symmetry_space_group_name_H-M   'P 1'
_cell_length_a   3.74971400
_cell_length_b   10.58921800
_cell_length_c   12.06761000
_cell_angle_alpha   90.00000000
_cell_angle_beta   90.00000000
_cell_angle_gamma   90.00000000
_symmetry_Int_Tables_number   1
_chemical_formula_structural   LuFe(NiP)2
_chemical_formula_sum   'Lu6 Fe6 Ni12 P12'
_cell_volume   479.16302690
_cell_formula_units_Z   6
loop_
 _symmetry_equiv_pos_site_id
 _symmetry_equiv_pos_as_xyz
  1  'x, y, z'
loop_
 _atom_site_type_symbol
 _atom_site_label
 _atom_site_symmetry_multiplicity
 _atom_site_fract_x
 _atom_site_fract_y
 _atom_site_fract_z
 _atom_site_occupancy
  Lu  Lu0  1  0.000000  0.500000  0.521032  1
  Lu  Lu1  1  0.500000  0.000000  0.478968  1
  Lu  Lu2  1  0.500000  0.820043  0.205523  1
  Lu  Lu3  1  0.500000  0.179957  0.205523  1
  Lu  Lu4  1  0.000000  0.679957  0.794477  1
  Lu  Lu5  1  0.000000  0.320043  0.794477  1
  Fe  Fe6  1  0.000000  0.500000  0.989566  1
  Fe  Fe7  1  0.500000  0.000000  0.010434  1
  Fe  Fe8  1  0.500000  0.333542  0.997070  1
  Fe  Fe9  1  0.500000  0.666458  0.997070  1
  Fe  Fe10  1  0.000000  0.166458  0.002930  1
  Fe  Fe11  1  0.000000  0.833542  0.002930  1
  Ni  Ni12  1  0.500000  0.303184  0.428014  1
  Ni  Ni13  1  0.500000  0.696816  0.428014  1
  Ni  Ni14  1  0.000000  0.196816  0.571986  1
  Ni  Ni15  1  0.000000  0.803184  0.571986  1
  Ni  Ni16  1  0.500000  0.877966  0.713316  1
  Ni  Ni17  1  0.500000  0.122034  0.713316  1
  Ni  Ni18  1  0.000000  0.622034  0.286684  1
  Ni  Ni19  1  0.000000  0.377966  0.286684  1
  Ni  Ni20  1  0.500000  0.500000  0.155783  1
  Ni  Ni21  1  0.000000  0.000000  0.844217  1
  Ni  Ni22  1  0.500000  0.500000  0.704484  1
  Ni  Ni23  1  0.000000  0.000000  0.295516  1
  P  P24  1  0.500000  0.314068  0.616628  1
  P  P25  1  0.500000  0.685932  0.616628  1
  P  P26  1  0.000000  0.185932  0.383372  1
  P  P27  1  0.000000  0.814068  0.383372  1
  P  P28  1  0.500000  0.500000  0.888128  1
  P  P29  1  0.000000  0.000000  0.111872  1
  P  P30  1  0.500000  0.840474  0.898216  1
  P  P31  1  0.500000  0.159526  0.898216  1
  P  P32  1  0.000000  0.659526  0.101784  1
  P  P33  1  0.000000  0.340474  0.101784  1
  P  P34  1  0.500000  0.500000  0.344113  1
  P  P35  1  0.000000  0.000000  0.655887  1
