# generated using pymatgen
data_MgZr6Zn22As
_symmetry_space_group_name_H-M   'P 1'
_cell_length_a   8.83455780
_cell_length_b   8.83455740
_cell_length_c   8.83455900
_cell_angle_alpha   60.00000523
_cell_angle_beta   60.00000672
_cell_angle_gamma   59.99999867
_symmetry_Int_Tables_number   1
_chemical_formula_structural   MgZr6Zn22As
_chemical_formula_sum   'Mg1 Zr6 Zn22 As1'
_cell_volume   487.57286237
_cell_formula_units_Z   1
loop_
 _symmetry_equiv_pos_site_id
 _symmetry_equiv_pos_as_xyz
  1  'x, y, z'
loop_
 _atom_site_type_symbol
 _atom_site_label
 _atom_site_symmetry_multiplicity
 _atom_site_fract_x
 _atom_site_fract_y
 _atom_site_fract_z
 _atom_site_occupancy
  Mg  Mg0  1  0.000000  0.000000  0.000000  1
  Zr  Zr1  1  0.713184  0.286816  0.286816  1
  Zr  Zr2  1  0.286816  0.713184  0.713184  1
  Zr  Zr3  1  0.286816  0.713184  0.286816  1
  Zr  Zr4  1  0.713184  0.286816  0.713184  1
  Zr  Zr5  1  0.286816  0.286816  0.713184  1
  Zr  Zr6  1  0.713184  0.713184  0.286816  1
  Zn  Zn7  1  0.125982  0.125982  0.125982  1
  Zn  Zn8  1  0.874018  0.874018  0.874018  1
  Zn  Zn9  1  0.125982  0.125982  0.622055  1
  Zn  Zn10  1  0.125982  0.622055  0.125982  1
  Zn  Zn11  1  0.874018  0.874018  0.377945  1
  Zn  Zn12  1  0.874018  0.377945  0.874018  1
  Zn  Zn13  1  0.622055  0.125982  0.125982  1
  Zn  Zn14  1  0.377945  0.874018  0.874018  1
  Zn  Zn15  1  0.500000  0.000000  0.000000  1
  Zn  Zn16  1  0.000000  0.500000  0.500000  1
  Zn  Zn17  1  0.000000  0.500000  0.000000  1
  Zn  Zn18  1  0.500000  0.000000  0.500000  1
  Zn  Zn19  1  0.000000  0.000000  0.500000  1
  Zn  Zn20  1  0.500000  0.500000  0.000000  1
  Zn  Zn21  1  0.335778  0.335778  0.335778  1
  Zn  Zn22  1  0.664222  0.664222  0.664222  1
  Zn  Zn23  1  0.335778  0.335778  0.992668  1
  Zn  Zn24  1  0.335778  0.992668  0.335778  1
  Zn  Zn25  1  0.664222  0.664222  0.007332  1
  Zn  Zn26  1  0.664222  0.007332  0.664222  1
  Zn  Zn27  1  0.992668  0.335778  0.335778  1
  Zn  Zn28  1  0.007332  0.664222  0.664222  1
  As  As29  1  0.500000  0.500000  0.500000  1
