# generated using pymatgen
data_Nd7SmSc12Si15Se
_symmetry_space_group_name_H-M   'P 1'
_cell_length_a   7.29522027
_cell_length_b   7.49172168
_cell_length_c   14.18482637
_cell_angle_alpha   90.06064038
_cell_angle_beta   88.67477088
_cell_angle_gamma   90.26209034
_symmetry_Int_Tables_number   1
_chemical_formula_structural   Nd7SmSc12Si15Se
_chemical_formula_sum   'Nd7 Sm1 Sc12 Si15 Se1'
_cell_volume   775.03827084
_cell_formula_units_Z   1
loop_
 _symmetry_equiv_pos_site_id
 _symmetry_equiv_pos_as_xyz
  1  'x, y, z'
loop_
 _atom_site_type_symbol
 _atom_site_label
 _atom_site_symmetry_multiplicity
 _atom_site_fract_x
 _atom_site_fract_y
 _atom_site_fract_z
 _atom_site_occupancy
  Nd  Nd0  1  0.011197  0.173677  0.098003  1
  Nd  Nd1  1  0.989392  0.828090  0.901332  1
  Nd  Nd2  1  0.489513  0.672656  0.902537  1
  Nd  Nd3  1  0.996664  0.823530  0.596470  1
  Nd  Nd4  1  0.511192  0.328199  0.097825  1
  Nd  Nd5  1  0.002011  0.176060  0.402578  1
  Nd  Nd6  1  0.501490  0.320792  0.400748  1
  Sm  Sm7  1  0.505502  0.678439  0.599353  1
  Sc  Sc8  1  0.165953  0.498524  0.752273  1
  Sc  Sc9  1  0.833940  0.502107  0.253935  1
  Sc  Sc10  1  0.333442  0.996824  0.251350  1
  Sc  Sc11  1  0.667368  0.001996  0.748914  1
  Sc  Sc12  1  0.347126  0.166383  0.627830  1
  Sc  Sc13  1  0.655283  0.829495  0.373417  1
  Sc  Sc14  1  0.154190  0.670851  0.377391  1
  Sc  Sc15  1  0.666987  0.824945  0.125787  1
  Sc  Sc16  1  0.838742  0.331143  0.620973  1
  Sc  Sc17  1  0.332481  0.174711  0.872987  1
  Sc  Sc18  1  0.833274  0.323934  0.873891  1
  Sc  Sc19  1  0.166212  0.676662  0.125300  1
  Si  Si20  1  0.039642  0.126004  0.747532  1
  Si  Si21  1  0.959321  0.876027  0.250545  1
  Si  Si22  1  0.455347  0.623644  0.249037  1
  Si  Si23  1  0.542509  0.377731  0.749814  1
  Si  Si24  1  0.293831  0.875952  0.749695  1
  Si  Si25  1  0.708032  0.120083  0.248935  1
  Si  Si26  1  0.206282  0.382267  0.249685  1
  Si  Si27  1  0.795090  0.619546  0.749562  1
  Si  Si28  1  0.806637  0.544388  0.455153  1
  Si  Si29  1  0.331252  0.957734  0.460829  1
  Si  Si30  1  0.847479  0.536980  0.039302  1
  Si  Si31  1  0.667962  0.038694  0.541555  1
  Si  Si32  1  0.151735  0.464499  0.959830  1
  Si  Si33  1  0.651710  0.036635  0.959191  1
  Si  Si34  1  0.347656  0.964909  0.040161  1
  Se  Se35  1  0.193561  0.455890  0.546278  1
