# generated using pymatgen
data_Sc6NiB4Ir2Rh7
_symmetry_space_group_name_H-M   'P 1'
_cell_length_a   3.11685300
_cell_length_b   9.46260631
_cell_length_c   9.42435007
_cell_angle_alpha   89.17323607
_cell_angle_beta   90.00000000
_cell_angle_gamma   90.00000000
_symmetry_Int_Tables_number   1
_chemical_formula_structural   Sc6NiB4Ir2Rh7
_chemical_formula_sum   'Sc6 Ni1 B4 Ir2 Rh7'
_cell_volume   277.92862974
_cell_formula_units_Z   1
loop_
 _symmetry_equiv_pos_site_id
 _symmetry_equiv_pos_as_xyz
  1  'x, y, z'
loop_
 _atom_site_type_symbol
 _atom_site_label
 _atom_site_symmetry_multiplicity
 _atom_site_fract_x
 _atom_site_fract_y
 _atom_site_fract_z
 _atom_site_occupancy
  Sc  Sc0  1  0.000000  0.174969  0.674603  1
  Sc  Sc1  1  0.000000  0.825031  0.325397  1
  Sc  Sc2  1  0.000000  0.321887  0.178342  1
  Sc  Sc3  1  0.000000  0.678113  0.821658  1
  Sc  Sc4  1  0.000000  0.000000  0.000000  1
  Sc  Sc5  1  0.000000  0.500000  0.500000  1
  Ni  Ni6  1  0.500000  0.000000  0.500000  1
  B  B7  1  0.000000  0.620967  0.119703  1
  B  B8  1  0.000000  0.379033  0.880297  1
  B  B9  1  0.000000  0.887341  0.612916  1
  B  B10  1  0.000000  0.112659  0.387084  1
  Ir  Ir11  1  0.500000  0.730570  0.566229  1
  Ir  Ir12  1  0.500000  0.269430  0.433771  1
  Rh  Rh13  1  0.500000  0.064394  0.228647  1
  Rh  Rh14  1  0.500000  0.935606  0.771353  1
  Rh  Rh15  1  0.500000  0.777079  0.070478  1
  Rh  Rh16  1  0.500000  0.430779  0.722374  1
  Rh  Rh17  1  0.500000  0.222921  0.929522  1
  Rh  Rh18  1  0.500000  0.569221  0.277626  1
  Rh  Rh19  1  0.500000  0.500000  0.000000  1
