# generated using pymatgen
data_Tb3Ho3Th2(MgRu)2
_symmetry_space_group_name_H-M   'P 1'
_cell_length_a   9.76144495
_cell_length_b   9.76144503
_cell_length_c   9.76144400
_cell_angle_alpha   59.99999670
_cell_angle_beta   59.99999644
_cell_angle_gamma   59.99999398
_symmetry_Int_Tables_number   1
_chemical_formula_structural   Tb3Ho3Th2(MgRu)2
_chemical_formula_sum   'Tb6 Ho6 Th4 Mg4 Ru4'
_cell_volume   657.69910253
_cell_formula_units_Z   2
loop_
 _symmetry_equiv_pos_site_id
 _symmetry_equiv_pos_as_xyz
  1  'x, y, z'
loop_
 _atom_site_type_symbol
 _atom_site_label
 _atom_site_symmetry_multiplicity
 _atom_site_fract_x
 _atom_site_fract_y
 _atom_site_fract_z
 _atom_site_occupancy
  Tb  Tb0  1  0.186037  0.813963  0.813963  1
  Tb  Tb1  1  0.813963  0.186037  0.186037  1
  Tb  Tb2  1  0.813963  0.186037  0.813963  1
  Tb  Tb3  1  0.186037  0.813963  0.186037  1
  Tb  Tb4  1  0.813963  0.813963  0.186037  1
  Tb  Tb5  1  0.186037  0.186037  0.813963  1
  Ho  Ho6  1  0.063531  0.436469  0.436469  1
  Ho  Ho7  1  0.436469  0.063531  0.063531  1
  Ho  Ho8  1  0.436469  0.063531  0.436469  1
  Ho  Ho9  1  0.063531  0.436469  0.063531  1
  Ho  Ho10  1  0.436469  0.436469  0.063531  1
  Ho  Ho11  1  0.063531  0.063531  0.436469  1
  Th  Th12  1  0.595963  0.595963  0.595963  1
  Th  Th13  1  0.595963  0.595963  0.212112  1
  Th  Th14  1  0.595963  0.212112  0.595963  1
  Th  Th15  1  0.212112  0.595963  0.595963  1
  Mg  Mg16  1  0.829822  0.829822  0.829822  1
  Mg  Mg17  1  0.829822  0.829822  0.510534  1
  Mg  Mg18  1  0.829822  0.510534  0.829822  1
  Mg  Mg19  1  0.510534  0.829822  0.829822  1
  Ru  Ru20  1  0.393559  0.393559  0.393559  1
  Ru  Ru21  1  0.393559  0.393559  0.819322  1
  Ru  Ru22  1  0.393559  0.819322  0.393559  1
  Ru  Ru23  1  0.819322  0.393559  0.393559  1
