# generated using pymatgen
data_Tm12AlInNi4
_symmetry_space_group_name_H-M   'P 1'
_cell_length_a   8.26130576
_cell_length_b   8.26130617
_cell_length_c   8.26130642
_cell_angle_alpha   112.74278053
_cell_angle_beta   110.00764397
_cell_angle_gamma   105.73923619
_symmetry_Int_Tables_number   1
_chemical_formula_structural   Tm12AlInNi4
_chemical_formula_sum   'Tm12 Al1 In1 Ni4'
_cell_volume   432.40053184
_cell_formula_units_Z   1
loop_
 _symmetry_equiv_pos_site_id
 _symmetry_equiv_pos_as_xyz
  1  'x, y, z'
loop_
 _atom_site_type_symbol
 _atom_site_label
 _atom_site_symmetry_multiplicity
 _atom_site_fract_x
 _atom_site_fract_y
 _atom_site_fract_z
 _atom_site_occupancy
  Tm  Tm0  1  0.432965  0.234603  0.198362  1
  Tm  Tm1  1  0.567035  0.765397  0.801638  1
  Tm  Tm2  1  0.036242  0.234603  0.801638  1
  Tm  Tm3  1  0.963758  0.765397  0.198362  1
  Tm  Tm4  1  0.181127  0.286039  0.467164  1
  Tm  Tm5  1  0.818873  0.713961  0.532836  1
  Tm  Tm6  1  0.181127  0.713961  0.895088  1
  Tm  Tm7  1  0.818873  0.286039  0.104912  1
  Tm  Tm8  1  0.324274  0.632595  0.308321  1
  Tm  Tm9  1  0.675726  0.367405  0.691679  1
  Tm  Tm10  1  0.324274  0.015953  0.691679  1
  Tm  Tm11  1  0.675726  0.984047  0.308321  1
  Al  Al12  1  0.000000  0.000000  0.000000  1
  In  In13  1  0.500000  0.500000  0.000000  1
  Ni  Ni14  1  0.342429  0.000000  0.342429  1
  Ni  Ni15  1  0.657571  0.000000  0.657571  1
  Ni  Ni16  1  0.122480  0.622480  0.500000  1
  Ni  Ni17  1  0.877520  0.377520  0.500000  1
