# generated using pymatgen
data_Cs6LuUBr12
_symmetry_space_group_name_H-M   'P 1'
_cell_length_a   10.08353400
_cell_length_b   10.09347083
_cell_length_c   8.40004400
_cell_angle_alpha   90.00000000
_cell_angle_beta   90.00000000
_cell_angle_gamma   89.86305385
_symmetry_Int_Tables_number   1
_chemical_formula_structural   Cs6LuUBr12
_chemical_formula_sum   'Cs6 Lu1 U1 Br12'
_cell_volume   854.93602912
_cell_formula_units_Z   1
loop_
 _symmetry_equiv_pos_site_id
 _symmetry_equiv_pos_as_xyz
  1  'x, y, z'
loop_
 _atom_site_type_symbol
 _atom_site_label
 _atom_site_symmetry_multiplicity
 _atom_site_fract_x
 _atom_site_fract_y
 _atom_site_fract_z
 _atom_site_occupancy
  Cs  Cs0  1  0.000000  0.000000  0.500000  1
  Cs  Cs1  1  0.000000  0.000000  0.000000  1
  Cs  Cs2  1  0.232952  0.579619  0.500000  1
  Cs  Cs3  1  0.767048  0.420381  0.500000  1
  Cs  Cs4  1  0.419930  0.238179  0.000000  1
  Cs  Cs5  1  0.580070  0.761821  0.000000  1
  Lu  Lu6  1  0.000000  0.500000  0.000000  1
  U  U7  1  0.500000  0.000000  0.500000  1
  Br  Br8  1  0.697581  0.055846  0.746015  1
  Br  Br9  1  0.302419  0.944154  0.746015  1
  Br  Br10  1  0.946563  0.687972  0.234734  1
  Br  Br11  1  0.053437  0.312028  0.234734  1
  Br  Br12  1  0.302419  0.944154  0.253985  1
  Br  Br13  1  0.697581  0.055846  0.253985  1
  Br  Br14  1  0.053437  0.312028  0.765266  1
  Br  Br15  1  0.946563  0.687972  0.765266  1
  Br  Br16  1  0.569472  0.720672  0.500000  1
  Br  Br17  1  0.430528  0.279328  0.500000  1
  Br  Br18  1  0.265724  0.567215  0.000000  1
  Br  Br19  1  0.734276  0.432785  0.000000  1
