# generated using pymatgen
data_Dy7Y3(Bi2Pt)2
_symmetry_space_group_name_H-M   'P 1'
_cell_length_a   8.08010371
_cell_length_b   9.03897600
_cell_length_c   12.45966463
_cell_angle_alpha   90.00000000
_cell_angle_beta   90.07449291
_cell_angle_gamma   90.00000000
_symmetry_Int_Tables_number   1
_chemical_formula_structural   Dy7Y3(Bi2Pt)2
_chemical_formula_sum   'Dy14 Y6 Bi8 Pt4'
_cell_volume   910.00159609
_cell_formula_units_Z   2
loop_
 _symmetry_equiv_pos_site_id
 _symmetry_equiv_pos_as_xyz
  1  'x, y, z'
loop_
 _atom_site_type_symbol
 _atom_site_label
 _atom_site_symmetry_multiplicity
 _atom_site_fract_x
 _atom_site_fract_y
 _atom_site_fract_z
 _atom_site_occupancy
  Dy  Dy0  1  0.871222  0.250000  0.802702  1
  Dy  Dy1  1  0.128778  0.750000  0.197298  1
  Dy  Dy2  1  0.949875  0.750000  0.500011  1
  Dy  Dy3  1  0.050125  0.250000  0.499989  1
  Dy  Dy4  1  0.449879  0.250000  0.000016  1
  Dy  Dy5  1  0.550121  0.750000  0.999984  1
  Dy  Dy6  1  0.679281  0.045678  0.566773  1
  Dy  Dy7  1  0.320719  0.954322  0.433227  1
  Dy  Dy8  1  0.179287  0.954269  0.933269  1
  Dy  Dy9  1  0.320719  0.545678  0.433227  1
  Dy  Dy10  1  0.820713  0.045731  0.066731  1
  Dy  Dy11  1  0.679281  0.454322  0.566773  1
  Dy  Dy12  1  0.820713  0.454269  0.066731  1
  Dy  Dy13  1  0.179287  0.545731  0.933269  1
  Y  Y14  1  0.838556  0.750000  0.789967  1
  Y  Y15  1  0.161444  0.250000  0.210033  1
  Y  Y16  1  0.338467  0.250000  0.710028  1
  Y  Y17  1  0.661533  0.750000  0.289972  1
  Y  Y18  1  0.370779  0.750000  0.697716  1
  Y  Y19  1  0.629221  0.250000  0.302284  1
  Bi  Bi20  1  0.568887  0.491153  0.827375  1
  Bi  Bi21  1  0.431113  0.508847  0.172625  1
  Bi  Bi22  1  0.068798  0.508768  0.672667  1
  Bi  Bi23  1  0.431113  0.991153  0.172625  1
  Bi  Bi24  1  0.931202  0.491232  0.327333  1
  Bi  Bi25  1  0.568887  0.008847  0.827375  1
  Bi  Bi26  1  0.931202  0.008768  0.327333  1
  Bi  Bi27  1  0.068798  0.991232  0.672667  1
  Pt  Pt28  1  0.575084  0.750000  0.511521  1
  Pt  Pt29  1  0.424916  0.250000  0.488479  1
  Pt  Pt30  1  0.074731  0.250000  0.988095  1
  Pt  Pt31  1  0.925269  0.750000  0.011905  1
