# generated using pymatgen
data_Zr2Ta2NbSi4
_symmetry_space_group_name_H-M   'P 1'
_cell_length_a   6.87990486
_cell_length_b   6.87978501
_cell_length_c   12.77437821
_cell_angle_alpha   89.97745279
_cell_angle_beta   89.97831599
_cell_angle_gamma   89.99981850
_symmetry_Int_Tables_number   1
_chemical_formula_structural   Zr2Ta2NbSi4
_chemical_formula_sum   'Zr8 Ta8 Nb4 Si16'
_cell_volume   604.64018174
_cell_formula_units_Z   4
loop_
 _symmetry_equiv_pos_site_id
 _symmetry_equiv_pos_as_xyz
  1  'x, y, z'
loop_
 _atom_site_type_symbol
 _atom_site_label
 _atom_site_symmetry_multiplicity
 _atom_site_fract_x
 _atom_site_fract_y
 _atom_site_fract_z
 _atom_site_occupancy
  Zr  Zr0  1  0.001289  0.339144  0.218581  1
  Zr  Zr1  1  0.999809  0.660945  0.719090  1
  Zr  Zr2  1  0.161040  0.500620  0.468979  1
  Zr  Zr3  1  0.498780  0.839253  0.030931  1
  Zr  Zr4  1  0.839106  0.499870  0.968652  1
  Zr  Zr5  1  0.500814  0.160510  0.531260  1
  Zr  Zr6  1  0.339330  0.000051  0.780890  1
  Zr  Zr7  1  0.660674  0.998832  0.281353  1
  Ta  Ta8  1  0.169193  0.169414  0.999567  1
  Ta  Ta9  1  0.830722  0.830651  0.500168  1
  Ta  Ta10  1  0.330146  0.669573  0.250325  1
  Ta  Ta11  1  0.669083  0.331203  0.750320  1
  Ta  Ta12  1  0.152872  0.994682  0.375832  1
  Ta  Ta13  1  0.846954  0.005068  0.875649  1
  Ta  Ta14  1  0.505032  0.653631  0.625982  1
  Ta  Ta15  1  0.346846  0.494976  0.874060  1
  Nb  Nb16  1  0.495249  0.346801  0.125654  1
  Nb  Nb17  1  0.652691  0.504740  0.374362  1
  Nb  Nb18  1  0.995572  0.153556  0.624239  1
  Nb  Nb19  1  0.004686  0.846654  0.124020  1
  Si  Si20  1  0.298996  0.043562  0.186561  1
  Si  Si21  1  0.701185  0.956561  0.686619  1
  Si  Si22  1  0.456162  0.799041  0.436732  1
  Si  Si23  1  0.200813  0.543406  0.063428  1
  Si  Si24  1  0.543829  0.200659  0.936383  1
  Si  Si25  1  0.799482  0.456667  0.563779  1
  Si  Si26  1  0.043683  0.299494  0.813621  1
  Si  Si27  1  0.956209  0.700331  0.313657  1
  Si  Si28  1  0.365962  0.291261  0.322284  1
  Si  Si29  1  0.634002  0.708796  0.822462  1
  Si  Si30  1  0.208446  0.866154  0.572218  1
  Si  Si31  1  0.133858  0.791468  0.927340  1
  Si  Si32  1  0.791670  0.134116  0.072026  1
  Si  Si33  1  0.865864  0.208318  0.427555  1
  Si  Si34  1  0.291985  0.365995  0.677638  1
  Si  Si35  1  0.707966  0.633998  0.177784  1
