# generated using pymatgen
data_Ce(DyCo)2
_symmetry_space_group_name_H-M   'P 1'
_cell_length_a   5.96824910
_cell_length_b   5.96824793
_cell_length_c   5.96824856
_cell_angle_alpha   144.05913482
_cell_angle_beta   118.80674036
_cell_angle_gamma   73.05342096
_symmetry_Int_Tables_number   1
_chemical_formula_structural   Ce(DyCo)2
_chemical_formula_sum   'Ce1 Dy2 Co2'
_cell_volume   107.30783742
_cell_formula_units_Z   1
loop_
 _symmetry_equiv_pos_site_id
 _symmetry_equiv_pos_as_xyz
  1  'x, y, z'
loop_
 _atom_site_type_symbol
 _atom_site_label
 _atom_site_symmetry_multiplicity
 _atom_site_fract_x
 _atom_site_fract_y
 _atom_site_fract_z
 _atom_site_occupancy
  Ce  Ce0  1  0.000000  0.000000  0.000000  1
  Dy  Dy1  1  0.310502  0.810502  0.500000  1
  Dy  Dy2  1  0.689498  0.189498  0.500000  1
  Co  Co3  1  0.293041  0.500000  0.793041  1
  Co  Co4  1  0.706959  0.500000  0.206959  1
