# generated using pymatgen
data_Dy2Zn14Ir3
_symmetry_space_group_name_H-M   'P 1'
_cell_length_a   6.82571394
_cell_length_b   6.82571366
_cell_length_c   6.82571381
_cell_angle_alpha   97.84054425
_cell_angle_beta   82.15945763
_cell_angle_gamma   97.84054394
_symmetry_Int_Tables_number   1
_chemical_formula_structural   Dy2Zn14Ir3
_chemical_formula_sum   'Dy2 Zn14 Ir3'
_cell_volume   309.83769676
_cell_formula_units_Z   1
loop_
 _symmetry_equiv_pos_site_id
 _symmetry_equiv_pos_as_xyz
  1  'x, y, z'
loop_
 _atom_site_type_symbol
 _atom_site_label
 _atom_site_symmetry_multiplicity
 _atom_site_fract_x
 _atom_site_fract_y
 _atom_site_fract_z
 _atom_site_occupancy
  Dy  Dy0  1  0.321155  0.678845  0.321154  1
  Dy  Dy1  1  0.678846  0.321154  0.678845  1
  Zn  Zn2  1  0.296150  0.296149  0.000000  1
  Zn  Zn3  1  0.703849  0.703849  0.000000  1
  Zn  Zn4  1  0.098478  0.901523  0.098477  1
  Zn  Zn5  1  0.645369  0.354632  0.160134  1
  Zn  Zn6  1  0.000000  0.296150  0.296150  1
  Zn  Zn7  1  0.703851  0.000000  0.296149  1
  Zn  Zn8  1  0.354632  0.160134  0.354632  1
  Zn  Zn9  1  0.839865  0.645367  0.354632  1
  Zn  Zn10  1  0.160134  0.354632  0.645368  1
  Zn  Zn11  1  0.645369  0.839866  0.645368  1
  Zn  Zn12  1  0.000000  0.703850  0.703850  1
  Zn  Zn13  1  0.296150  0.000000  0.703849  1
  Zn  Zn14  1  0.354632  0.645369  0.839866  1
  Zn  Zn15  1  0.901523  0.098478  0.901522  1
  Ir  Ir16  1  0.500000  0.999999  0.000000  1
  Ir  Ir17  1  0.999999  0.500000  0.000001  1
  Ir  Ir18  1  0.000000  0.000001  0.500000  1
