# generated using pymatgen
data_La2Sm2PI5
_symmetry_space_group_name_H-M   'P 1'
_cell_length_a   9.97492843
_cell_length_b   9.97492764
_cell_length_c   9.24048353
_cell_angle_alpha   77.38424624
_cell_angle_beta   77.38424621
_cell_angle_gamma   24.40188786
_symmetry_Int_Tables_number   1
_chemical_formula_structural   La2Sm2PI5
_chemical_formula_sum   'La2 Sm2 P1 I5'
_cell_volume   370.23932417
_cell_formula_units_Z   1
loop_
 _symmetry_equiv_pos_site_id
 _symmetry_equiv_pos_as_xyz
  1  'x, y, z'
loop_
 _atom_site_type_symbol
 _atom_site_label
 _atom_site_symmetry_multiplicity
 _atom_site_fract_x
 _atom_site_fract_y
 _atom_site_fract_z
 _atom_site_occupancy
  La  La0  1  0.501026  0.501026  0.212600  1
  La  La1  1  0.498974  0.498974  0.787400  1
  Sm  Sm2  1  0.855574  0.855574  0.073112  1
  Sm  Sm3  1  0.144426  0.144426  0.926888  1
  P  P4  1  0.000000  0.000000  0.000000  1
  I  I5  1  0.674153  0.674153  0.165566  1
  I  I6  1  0.325847  0.325847  0.834434  1
  I  I7  1  0.668308  0.668308  0.666063  1
  I  I8  1  0.331692  0.331692  0.333937  1
  I  I9  1  0.000000  0.000000  0.500000  1
