# generated using pymatgen
data_LiEr3Cd2C
_symmetry_space_group_name_H-M   'P 1'
_cell_length_a   9.45684601
_cell_length_b   9.45656132
_cell_length_c   9.45672201
_cell_angle_alpha   119.99446769
_cell_angle_beta   90.00147842
_cell_angle_gamma   120.00454154
_symmetry_Int_Tables_number   1
_chemical_formula_structural   LiEr3Cd2C
_chemical_formula_sum   'Li4 Er12 Cd8 C4'
_cell_volume   598.00674511
_cell_formula_units_Z   4
loop_
 _symmetry_equiv_pos_site_id
 _symmetry_equiv_pos_as_xyz
  1  'x, y, z'
loop_
 _atom_site_type_symbol
 _atom_site_label
 _atom_site_symmetry_multiplicity
 _atom_site_fract_x
 _atom_site_fract_y
 _atom_site_fract_z
 _atom_site_occupancy
  Li  Li0  1  0.000015  0.000011  0.000001  1
  Li  Li1  1  0.500001  0.999998  0.999995  1
  Li  Li2  1  0.499996  0.499996  0.999999  1
  Li  Li3  1  0.499993  0.499999  0.500008  1
  Er  Er4  1  0.937977  0.375942  0.187971  1
  Er  Er5  1  0.937972  0.750013  0.187978  1
  Er  Er6  1  0.312035  0.749983  0.187946  1
  Er  Er7  1  0.687956  0.250005  0.437955  1
  Er  Er8  1  0.687973  0.875905  0.437954  1
  Er  Er9  1  0.062058  0.250013  0.437945  1
  Er  Er10  1  0.312008  0.124074  0.562043  1
  Er  Er11  1  0.312036  0.749983  0.562031  1
  Er  Er12  1  0.937962  0.750005  0.562052  1
  Er  Er13  1  0.687945  0.250006  0.812050  1
  Er  Er14  1  0.062033  0.624071  0.812032  1
  Er  Er15  1  0.062039  0.249992  0.812023  1
  Cd  Cd16  1  0.704995  0.909996  0.115027  1
  Cd  Cd17  1  0.295045  0.089986  0.205043  1
  Cd  Cd18  1  0.295030  0.410083  0.205030  1
  Cd  Cd19  1  0.615047  0.410054  0.205030  1
  Cd  Cd20  1  0.384944  0.589943  0.794958  1
  Cd  Cd21  1  0.704970  0.589914  0.794969  1
  Cd  Cd22  1  0.704961  0.910024  0.794975  1
  Cd  Cd23  1  0.294993  0.089986  0.884964  1
  C  C24  1  0.000003  0.500011  0.000012  1
  C  C25  1  0.000006  0.000006  0.499996  1
  C  C26  1  0.500008  0.000009  0.500025  1
  C  C27  1  0.000008  0.500003  0.499994  1
