# generated using pymatgen
data_Pa4Ga3Ge3Os7
_symmetry_space_group_name_H-M   'P 1'
_cell_length_a   7.28462682
_cell_length_b   7.28462601
_cell_length_c   7.29679100
_cell_angle_alpha   109.50505539
_cell_angle_beta   109.50505315
_cell_angle_gamma   109.43735737
_symmetry_Int_Tables_number   1
_chemical_formula_structural   Pa4Ga3Ge3Os7
_chemical_formula_sum   'Pa4 Ga3 Ge3 Os7'
_cell_volume   297.94981426
_cell_formula_units_Z   1
loop_
 _symmetry_equiv_pos_site_id
 _symmetry_equiv_pos_as_xyz
  1  'x, y, z'
loop_
 _atom_site_type_symbol
 _atom_site_label
 _atom_site_symmetry_multiplicity
 _atom_site_fract_x
 _atom_site_fract_y
 _atom_site_fract_z
 _atom_site_occupancy
  Pa  Pa0  1  0.000000  0.000000  0.507337  1
  Pa  Pa1  1  0.000000  0.498410  0.002935  1
  Pa  Pa2  1  0.498410  0.000000  0.002935  1
  Pa  Pa3  1  0.501590  0.501590  0.504525  1
  Ga  Ga4  1  0.697287  0.697287  0.004154  1
  Ga  Ga5  1  0.302713  0.000000  0.306867  1
  Ga  Ga6  1  0.000000  0.302713  0.306867  1
  Ge  Ge7  1  0.315769  0.315769  0.003545  1
  Ge  Ge8  1  0.684231  0.000000  0.687776  1
  Ge  Ge9  1  0.000000  0.684231  0.687776  1
  Os  Os10  1  0.748705  0.248652  0.499128  1
  Os  Os11  1  0.751348  0.500053  0.250476  1
  Os  Os12  1  0.499947  0.251295  0.750423  1
  Os  Os13  1  0.251295  0.499947  0.750423  1
  Os  Os14  1  0.248652  0.748705  0.499128  1
  Os  Os15  1  0.500053  0.751348  0.250476  1
  Os  Os16  1  0.000000  0.000000  0.985229  1
