# generated using pymatgen
data_Li4DyNi9As3P4
_symmetry_space_group_name_H-M   'P 1'
_cell_length_a   9.22964206
_cell_length_b   9.29231486
_cell_length_c   3.69341000
_cell_angle_alpha   90.00000000
_cell_angle_beta   90.00000000
_cell_angle_gamma   119.76367074
_symmetry_Int_Tables_number   1
_chemical_formula_structural   Li4DyNi9As3P4
_chemical_formula_sum   'Li4 Dy1 Ni9 As3 P4'
_cell_volume   274.97692025
_cell_formula_units_Z   1
loop_
 _symmetry_equiv_pos_site_id
 _symmetry_equiv_pos_as_xyz
  1  'x, y, z'
loop_
 _atom_site_type_symbol
 _atom_site_label
 _atom_site_symmetry_multiplicity
 _atom_site_fract_x
 _atom_site_fract_y
 _atom_site_fract_z
 _atom_site_occupancy
  Li  Li0  1  0.775362  0.557044  0.500000  1
  Li  Li1  1  0.447006  0.217870  0.500000  1
  Li  Li2  1  0.781180  0.228096  0.500000  1
  Li  Li3  1  0.996750  0.980477  0.500000  1
  Dy  Dy4  1  0.334079  0.668593  0.000000  1
  Ni  Ni5  1  0.276632  0.390172  0.500000  1
  Ni  Ni6  1  0.612726  0.888073  0.500000  1
  Ni  Ni7  1  0.104022  0.726573  0.500000  1
  Ni  Ni8  1  0.499332  0.459408  0.000000  1
  Ni  Ni9  1  0.540181  0.040617  0.000000  1
  Ni  Ni10  1  0.959481  0.509136  0.000000  1
  Ni  Ni11  1  0.725862  0.757495  0.000000  1
  Ni  Ni12  1  0.234234  0.950083  0.000000  1
  Ni  Ni13  1  0.044219  0.292530  0.000000  1
  As  As14  1  0.241628  0.209081  0.000000  1
  As  As15  1  0.792926  0.033949  0.000000  1
  As  As16  1  0.666233  0.333308  0.000000  1
  P  P17  1  0.968319  0.753459  0.000000  1
  P  P18  1  0.545260  0.620484  0.500000  1
  P  P19  1  0.378654  0.922823  0.500000  1
  P  P20  1  0.075914  0.460728  0.500000  1
