# generated using pymatgen
data_KSr3(BeAs)8
_symmetry_space_group_name_H-M   'P 1'
_cell_length_a   7.16280653
_cell_length_b   8.47141207
_cell_length_c   7.45260937
_cell_angle_alpha   63.87739713
_cell_angle_beta   74.96583678
_cell_angle_gamma   97.10424444
_symmetry_Int_Tables_number   1
_chemical_formula_structural   KSr3(BeAs)8
_chemical_formula_sum   'K1 Sr3 Be8 As8'
_cell_volume   377.08289583
_cell_formula_units_Z   1
loop_
 _symmetry_equiv_pos_site_id
 _symmetry_equiv_pos_as_xyz
  1  'x, y, z'
loop_
 _atom_site_type_symbol
 _atom_site_label
 _atom_site_symmetry_multiplicity
 _atom_site_fract_x
 _atom_site_fract_y
 _atom_site_fract_z
 _atom_site_occupancy
  K  K0  1  0.000000  0.000000  0.000000  1
  Sr  Sr1  1  0.999233  0.488537  0.756249  1
  Sr  Sr2  1  0.000000  0.000000  0.500000  1
  Sr  Sr3  1  0.000767  0.511463  0.243751  1
  Be  Be4  1  0.503115  0.625070  0.311126  1
  Be  Be5  1  0.494681  0.619130  0.816573  1
  Be  Be6  1  0.494024  0.124477  0.065789  1
  Be  Be7  1  0.484596  0.125703  0.563907  1
  Be  Be8  1  0.496885  0.374930  0.688874  1
  Be  Be9  1  0.505319  0.380870  0.183427  1
  Be  Be10  1  0.515404  0.874297  0.436093  1
  Be  Be11  1  0.505976  0.875523  0.934211  1
  As  As12  1  0.290017  0.329433  0.508799  1
  As  As13  1  0.290190  0.322616  0.020596  1
  As  As14  1  0.301463  0.822338  0.267853  1
  As  As15  1  0.295679  0.820627  0.761138  1
  As  As16  1  0.709983  0.670567  0.491201  1
  As  As17  1  0.709810  0.677384  0.979404  1
  As  As18  1  0.704321  0.179373  0.238862  1
  As  As19  1  0.698537  0.177662  0.732147  1
