# generated using pymatgen
data_Nd2YTm3CoI10
_symmetry_space_group_name_H-M   'P 1'
_cell_length_a   7.74374226
_cell_length_b   9.73005624
_cell_length_c   9.73973198
_cell_angle_alpha   106.82065536
_cell_angle_beta   96.24367464
_cell_angle_gamma   105.26452396
_symmetry_Int_Tables_number   1
_chemical_formula_structural   Nd2YTm3CoI10
_chemical_formula_sum   'Nd2 Y1 Tm3 Co1 I10'
_cell_volume   663.94961047
_cell_formula_units_Z   1
loop_
 _symmetry_equiv_pos_site_id
 _symmetry_equiv_pos_as_xyz
  1  'x, y, z'
loop_
 _atom_site_type_symbol
 _atom_site_label
 _atom_site_symmetry_multiplicity
 _atom_site_fract_x
 _atom_site_fract_y
 _atom_site_fract_z
 _atom_site_occupancy
  Nd  Nd0  1  0.885370  0.956884  0.230566  1
  Nd  Nd1  1  0.111733  0.041616  0.767992  1
  Y  Y2  1  0.344080  0.122989  0.162059  1
  Tm  Tm3  1  0.027758  0.721858  0.916008  1
  Tm  Tm4  1  0.971078  0.277762  0.083018  1
  Tm  Tm5  1  0.662520  0.879042  0.840649  1
  Co  Co6  1  0.999471  0.999662  0.999790  1
  I  I7  1  0.652084  0.553840  0.730768  1
  I  I8  1  0.345418  0.449258  0.269217  1
  I  I9  1  0.730836  0.909597  0.542697  1
  I  I10  1  0.265583  0.089056  0.458905  1
  I  I11  1  0.082547  0.379161  0.825854  1
  I  I12  1  0.917235  0.620839  0.173871  1
  I  I13  1  0.446987  0.813621  0.087295  1
  I  I14  1  0.552984  0.182983  0.908779  1
  I  I15  1  0.227105  0.738644  0.660713  1
  I  I16  1  0.777209  0.263187  0.341821  1
