# generated using pymatgen
data_NaCe2Tl(CuS3)2
_symmetry_space_group_name_H-M   'P 1'
_cell_length_a   7.04373085
_cell_length_b   7.04372957
_cell_length_c   10.44099600
_cell_angle_alpha   90.00000000
_cell_angle_beta   90.00000000
_cell_angle_gamma   146.95181811
_symmetry_Int_Tables_number   1
_chemical_formula_structural   NaCe2Tl(CuS3)2
_chemical_formula_sum   'Na1 Ce2 Tl1 Cu2 S6'
_cell_volume   282.49969345
_cell_formula_units_Z   1
loop_
 _symmetry_equiv_pos_site_id
 _symmetry_equiv_pos_as_xyz
  1  'x, y, z'
loop_
 _atom_site_type_symbol
 _atom_site_label
 _atom_site_symmetry_multiplicity
 _atom_site_fract_x
 _atom_site_fract_y
 _atom_site_fract_z
 _atom_site_occupancy
  Na  Na0  1  0.749093  0.250907  0.750000  1
  Ce  Ce1  1  0.997109  0.002891  0.997362  1
  Ce  Ce2  1  0.997109  0.002891  0.502638  1
  Tl  Tl3  1  0.251691  0.748309  0.250000  1
  Cu  Cu4  1  0.533138  0.466862  0.250000  1
  Cu  Cu5  1  0.473431  0.526569  0.750000  1
  S  S6  1  0.624007  0.375994  0.063517  1
  S  S7  1  0.937438  0.062562  0.250000  1
  S  S8  1  0.624007  0.375994  0.436483  1
  S  S9  1  0.370735  0.629266  0.574393  1
  S  S10  1  0.071510  0.928490  0.750000  1
  S  S11  1  0.370735  0.629266  0.925607  1
