# generated using pymatgen
data_Nd8Ho3Lu9Pb16
_symmetry_space_group_name_H-M   'P 1'
_cell_length_a   8.22266271
_cell_length_b   8.32393172
_cell_length_c   15.66378712
_cell_angle_alpha   89.98962882
_cell_angle_beta   90.00965840
_cell_angle_gamma   89.95330246
_symmetry_Int_Tables_number   1
_chemical_formula_structural   Nd8Ho3Lu9Pb16
_chemical_formula_sum   'Nd8 Ho3 Lu9 Pb16'
_cell_volume   1072.10568808
_cell_formula_units_Z   1
loop_
 _symmetry_equiv_pos_site_id
 _symmetry_equiv_pos_as_xyz
  1  'x, y, z'
loop_
 _atom_site_type_symbol
 _atom_site_label
 _atom_site_symmetry_multiplicity
 _atom_site_fract_x
 _atom_site_fract_y
 _atom_site_fract_z
 _atom_site_occupancy
  Nd  Nd0  1  0.472271  0.677473  0.597544  1
  Nd  Nd1  1  0.972447  0.822626  0.902478  1
  Nd  Nd2  1  0.527642  0.322702  0.097560  1
  Nd  Nd3  1  0.027623  0.177519  0.402484  1
  Nd  Nd4  1  0.527672  0.322578  0.402257  1
  Nd  Nd5  1  0.027470  0.177595  0.097759  1
  Nd  Nd6  1  0.472500  0.677543  0.902303  1
  Nd  Nd7  1  0.972391  0.822335  0.597481  1
  Ho  Ho8  1  0.632363  0.158078  0.622573  1
  Ho  Ho9  1  0.132331  0.341973  0.877360  1
  Ho  Ho10  1  0.367570  0.841899  0.122729  1
  Lu  Lu11  1  0.867615  0.657941  0.377238  1
  Lu  Lu12  1  0.367608  0.842195  0.377385  1
  Lu  Lu13  1  0.867509  0.657924  0.122691  1
  Lu  Lu14  1  0.632431  0.157926  0.877339  1
  Lu  Lu15  1  0.132493  0.342058  0.622688  1
  Lu  Lu16  1  0.799078  0.493819  0.750014  1
  Lu  Lu17  1  0.299081  0.006289  0.749953  1
  Lu  Lu18  1  0.200696  0.506314  0.250179  1
  Lu  Lu19  1  0.701111  0.993395  0.250113  1
  Pb  Pb20  1  0.706380  0.958566  0.455953  1
  Pb  Pb21  1  0.205913  0.540558  0.043893  1
  Pb  Pb22  1  0.294165  0.040493  0.956167  1
  Pb  Pb23  1  0.794338  0.459936  0.543415  1
  Pb  Pb24  1  0.292911  0.040728  0.543397  1
  Pb  Pb25  1  0.792967  0.459249  0.956568  1
  Pb  Pb26  1  0.707056  0.959264  0.043429  1
  Pb  Pb27  1  0.206179  0.540998  0.456429  1
  Pb  Pb28  1  0.437195  0.370750  0.750063  1
  Pb  Pb29  1  0.937062  0.129166  0.749900  1
  Pb  Pb30  1  0.563333  0.629165  0.250268  1
  Pb  Pb31  1  0.062477  0.870430  0.250195  1
  Pb  Pb32  1  0.661793  0.848705  0.750171  1
  Pb  Pb33  1  0.161831  0.651261  0.749838  1
  Pb  Pb34  1  0.338272  0.151386  0.250176  1
  Pb  Pb35  1  0.838227  0.349163  0.250011  1
