# generated using pymatgen
data_Tm6CrCo14(NiP4)3
_symmetry_space_group_name_H-M   'P 1'
_cell_length_a   3.67295700
_cell_length_b   10.45800800
_cell_length_c   12.13040700
_cell_angle_alpha   90.00000000
_cell_angle_beta   90.00000000
_cell_angle_gamma   90.00000000
_symmetry_Int_Tables_number   1
_chemical_formula_structural   Tm6CrCo14(NiP4)3
_chemical_formula_sum   'Tm6 Cr1 Co14 Ni3 P12'
_cell_volume   465.95093366
_cell_formula_units_Z   1
loop_
 _symmetry_equiv_pos_site_id
 _symmetry_equiv_pos_as_xyz
  1  'x, y, z'
loop_
 _atom_site_type_symbol
 _atom_site_label
 _atom_site_symmetry_multiplicity
 _atom_site_fract_x
 _atom_site_fract_y
 _atom_site_fract_z
 _atom_site_occupancy
  Tm  Tm0  1  0.000000  0.500000  0.521669  1
  Tm  Tm1  1  0.500000  0.000000  0.478354  1
  Tm  Tm2  1  0.500000  0.815757  0.206262  1
  Tm  Tm3  1  0.500000  0.184243  0.206262  1
  Tm  Tm4  1  0.000000  0.682340  0.795900  1
  Tm  Tm5  1  0.000000  0.317660  0.795900  1
  Cr  Cr6  1  0.500000  0.500000  0.157001  1
  Co  Co7  1  0.000000  0.500000  0.987996  1
  Co  Co8  1  0.500000  0.000000  0.015309  1
  Co  Co9  1  0.500000  0.333443  0.993416  1
  Co  Co10  1  0.500000  0.666557  0.993416  1
  Co  Co11  1  0.000000  0.167164  0.006020  1
  Co  Co12  1  0.000000  0.832836  0.006020  1
  Co  Co13  1  0.500000  0.297809  0.430995  1
  Co  Co14  1  0.500000  0.702191  0.430995  1
  Co  Co15  1  0.000000  0.202014  0.568213  1
  Co  Co16  1  0.000000  0.797986  0.568213  1
  Co  Co17  1  0.500000  0.877205  0.708874  1
  Co  Co18  1  0.500000  0.122795  0.708874  1
  Co  Co19  1  0.000000  0.621199  0.290909  1
  Co  Co20  1  0.000000  0.378801  0.290909  1
  Ni  Ni21  1  0.000000  0.000000  0.838858  1
  Ni  Ni22  1  0.500000  0.500000  0.702266  1
  Ni  Ni23  1  0.000000  0.000000  0.296994  1
  P  P24  1  0.500000  0.500000  0.881913  1
  P  P25  1  0.000000  0.000000  0.117369  1
  P  P26  1  0.500000  0.500000  0.345788  1
  P  P27  1  0.000000  0.000000  0.653465  1
  P  P28  1  0.500000  0.311557  0.616276  1
  P  P29  1  0.500000  0.688443  0.616276  1
  P  P30  1  0.000000  0.188821  0.384143  1
  P  P31  1  0.000000  0.811179  0.384143  1
  P  P32  1  0.500000  0.847264  0.892346  1
  P  P33  1  0.500000  0.152736  0.892346  1
  P  P34  1  0.000000  0.653737  0.108154  1
  P  P35  1  0.000000  0.346263  0.108154  1
