# generated using pymatgen
data_Pa3Rh5
_symmetry_space_group_name_H-M   'P 1'
_cell_length_a   5.85095554
_cell_length_b   5.85095618
_cell_length_c   9.21961200
_cell_angle_alpha   90.00000000
_cell_angle_beta   90.00000000
_cell_angle_gamma   105.28146822
_symmetry_Int_Tables_number   1
_chemical_formula_structural   Pa3Rh5
_chemical_formula_sum   'Pa6 Rh10'
_cell_volume   304.46177646
_cell_formula_units_Z   2
loop_
 _symmetry_equiv_pos_site_id
 _symmetry_equiv_pos_as_xyz
  1  'x, y, z'
loop_
 _atom_site_type_symbol
 _atom_site_label
 _atom_site_symmetry_multiplicity
 _atom_site_fract_x
 _atom_site_fract_y
 _atom_site_fract_z
 _atom_site_occupancy
  Pa  Pa0  1  0.615151  0.615151  0.750000  1
  Pa  Pa1  1  0.384849  0.384849  0.250000  1
  Pa  Pa2  1  0.799961  0.200039  0.500000  1
  Pa  Pa3  1  0.200039  0.799961  0.000000  1
  Pa  Pa4  1  0.200039  0.799961  0.500000  1
  Pa  Pa5  1  0.799961  0.200039  0.000000  1
  Rh  Rh6  1  0.690813  0.690813  0.048724  1
  Rh  Rh7  1  0.690813  0.690813  0.451276  1
  Rh  Rh8  1  0.309187  0.309187  0.951276  1
  Rh  Rh9  1  0.309187  0.309187  0.548724  1
  Rh  Rh10  1  0.499070  0.037147  0.750000  1
  Rh  Rh11  1  0.500930  0.962853  0.250000  1
  Rh  Rh12  1  0.991884  0.991884  0.250000  1
  Rh  Rh13  1  0.008116  0.008116  0.750000  1
  Rh  Rh14  1  0.037147  0.499070  0.750000  1
  Rh  Rh15  1  0.962853  0.500930  0.250000  1
