# generated using pymatgen
data_SmHoMn2Co10P7
_symmetry_space_group_name_H-M   'P 1'
_cell_length_a   9.07803120
_cell_length_b   9.06233298
_cell_length_c   3.61635600
_cell_angle_alpha   90.00000000
_cell_angle_beta   90.00000000
_cell_angle_gamma   120.08909929
_symmetry_Int_Tables_number   1
_chemical_formula_structural   SmHoMn2Co10P7
_chemical_formula_sum   'Sm1 Ho1 Mn2 Co10 P7'
_cell_volume   257.42034880
_cell_formula_units_Z   1
loop_
 _symmetry_equiv_pos_site_id
 _symmetry_equiv_pos_as_xyz
  1  'x, y, z'
loop_
 _atom_site_type_symbol
 _atom_site_label
 _atom_site_symmetry_multiplicity
 _atom_site_fract_x
 _atom_site_fract_y
 _atom_site_fract_z
 _atom_site_occupancy
  Sm  Sm0  1  0.334848  0.668602  0.500000  1
  Ho  Ho1  1  0.666525  0.333815  0.000000  1
  Mn  Mn2  1  0.899880  0.119660  0.000000  1
  Mn  Mn3  1  0.880986  0.779392  0.000000  1
  Co  Co4  1  0.428420  0.061936  0.500000  1
  Co  Co5  1  0.938122  0.368737  0.500000  1
  Co  Co6  1  0.630994  0.569120  0.500000  1
  Co  Co7  1  0.157537  0.273664  0.500000  1
  Co  Co8  1  0.726396  0.884500  0.500000  1
  Co  Co9  1  0.118007  0.843818  0.500000  1
  Co  Co10  1  0.386580  0.432526  0.000000  1
  Co  Co11  1  0.564794  0.953190  0.000000  1
  Co  Co12  1  0.048885  0.614092  0.000000  1
  Co  Co13  1  0.217057  0.093422  0.000000  1
  P  P14  1  0.114376  0.404157  0.000000  1
  P  P15  1  0.599992  0.710877  0.000000  1
  P  P16  1  0.288275  0.889469  0.000000  1
  P  P17  1  0.001252  0.999547  0.500000  1
  P  P18  1  0.410589  0.299035  0.500000  1
  P  P19  1  0.698209  0.112236  0.500000  1
  P  P20  1  0.888275  0.588205  0.500000  1
