# generated using pymatgen
data_LaNd4Pb3Se
_symmetry_space_group_name_H-M   'P 1'
_cell_length_a   9.60922444
_cell_length_b   9.60922463
_cell_length_c   7.02680500
_cell_angle_alpha   90.00000000
_cell_angle_beta   90.00000000
_cell_angle_gamma   119.91829506
_symmetry_Int_Tables_number   1
_chemical_formula_structural   LaNd4Pb3Se
_chemical_formula_sum   'La2 Nd8 Pb6 Se2'
_cell_volume   562.37005637
_cell_formula_units_Z   2
loop_
 _symmetry_equiv_pos_site_id
 _symmetry_equiv_pos_as_xyz
  1  'x, y, z'
loop_
 _atom_site_type_symbol
 _atom_site_label
 _atom_site_symmetry_multiplicity
 _atom_site_fract_x
 _atom_site_fract_y
 _atom_site_fract_z
 _atom_site_occupancy
  La  La0  1  0.749457  0.000222  0.250000  1
  La  La1  1  0.000222  0.749457  0.250000  1
  Nd  Nd2  1  0.750403  0.750403  0.750000  1
  Nd  Nd3  1  0.250679  0.000578  0.750000  1
  Nd  Nd4  1  0.000578  0.250679  0.750000  1
  Nd  Nd5  1  0.249472  0.249472  0.250000  1
  Nd  Nd6  1  0.665999  0.333451  0.999106  1
  Nd  Nd7  1  0.333451  0.665999  0.999106  1
  Nd  Nd8  1  0.333451  0.665999  0.500894  1
  Nd  Nd9  1  0.665999  0.333451  0.500894  1
  Pb  Pb10  1  0.394420  0.394420  0.750000  1
  Pb  Pb11  1  0.604942  0.999782  0.750000  1
  Pb  Pb12  1  0.999782  0.604942  0.750000  1
  Pb  Pb13  1  0.602129  0.602129  0.250000  1
  Pb  Pb14  1  0.394963  0.002209  0.250000  1
  Pb  Pb15  1  0.002209  0.394963  0.250000  1
  Se  Se16  1  0.000922  0.000922  0.997870  1
  Se  Se17  1  0.000922  0.000922  0.502130  1
