# generated using pymatgen
data_Mn2AlIr3S8
_symmetry_space_group_name_H-M   'P 1'
_cell_length_a   7.07886864
_cell_length_b   7.21026944
_cell_length_c   7.21027000
_cell_angle_alpha   59.99999744
_cell_angle_beta   59.38403462
_cell_angle_gamma   59.38402688
_symmetry_Int_Tables_number   1
_chemical_formula_structural   Mn2AlIr3S8
_chemical_formula_sum   'Mn2 Al1 Ir3 S8'
_cell_volume   257.77752503
_cell_formula_units_Z   1
loop_
 _symmetry_equiv_pos_site_id
 _symmetry_equiv_pos_as_xyz
  1  'x, y, z'
loop_
 _atom_site_type_symbol
 _atom_site_label
 _atom_site_symmetry_multiplicity
 _atom_site_fract_x
 _atom_site_fract_y
 _atom_site_fract_z
 _atom_site_occupancy
  Mn  Mn0  1  0.254154  0.248615  0.248615  1
  Mn  Mn1  1  0.995846  0.001385  0.001385  1
  Al  Al2  1  0.125000  0.625000  0.625000  1
  Ir  Ir3  1  0.625000  0.125000  0.625000  1
  Ir  Ir4  1  0.625000  0.625000  0.125000  1
  Ir  Ir5  1  0.625000  0.625000  0.625000  1
  S  S6  1  0.829961  0.390013  0.390013  1
  S  S7  1  0.391260  0.836564  0.386087  1
  S  S8  1  0.391260  0.386087  0.836564  1
  S  S9  1  0.391260  0.386087  0.386087  1
  S  S10  1  0.420039  0.859987  0.859987  1
  S  S11  1  0.858740  0.413436  0.863913  1
  S  S12  1  0.858740  0.863913  0.413436  1
  S  S13  1  0.858740  0.863913  0.863913  1
