# generated using pymatgen
data_Ho7LuTi5Si16Mo7
_symmetry_space_group_name_H-M   'P 1'
_cell_length_a   6.92271779
_cell_length_b   6.91587529
_cell_length_c   12.80481005
_cell_angle_alpha   89.87741859
_cell_angle_beta   90.02186990
_cell_angle_gamma   90.04900247
_symmetry_Int_Tables_number   1
_chemical_formula_structural   Ho7LuTi5Si16Mo7
_chemical_formula_sum   'Ho7 Lu1 Ti5 Si16 Mo7'
_cell_volume   613.04977462
_cell_formula_units_Z   1
loop_
 _symmetry_equiv_pos_site_id
 _symmetry_equiv_pos_as_xyz
  1  'x, y, z'
loop_
 _atom_site_type_symbol
 _atom_site_label
 _atom_site_symmetry_multiplicity
 _atom_site_fract_x
 _atom_site_fract_y
 _atom_site_fract_z
 _atom_site_occupancy
  Ho  Ho0  1  0.497895  0.840833  0.718434  1
  Ho  Ho1  1  0.501443  0.159705  0.218863  1
  Ho  Ho2  1  0.840062  0.496821  0.281219  1
  Ho  Ho3  1  0.159683  0.501761  0.782454  1
  Ho  Ho4  1  0.659806  0.997837  0.968353  1
  Ho  Ho5  1  0.002415  0.339731  0.531650  1
  Ho  Ho6  1  0.996719  0.661241  0.031234  1
  Lu  Lu7  1  0.341406  0.001426  0.467546  1
  Ti  Ti8  1  0.329968  0.330540  0.999520  1
  Ti  Ti9  1  0.169531  0.829528  0.250365  1
  Ti  Ti10  1  0.828341  0.171673  0.750102  1
  Ti  Ti11  1  0.669395  0.667426  0.499154  1
  Ti  Ti12  1  0.993920  0.841879  0.625483  1
  Si  Si13  1  0.202509  0.129700  0.682929  1
  Si  Si14  1  0.371288  0.701821  0.933655  1
  Si  Si15  1  0.629597  0.297986  0.433524  1
  Si  Si16  1  0.699799  0.370562  0.066774  1
  Si  Si17  1  0.300588  0.630810  0.565366  1
  Si  Si18  1  0.798311  0.870996  0.183727  1
  Si  Si19  1  0.129007  0.199878  0.317659  1
  Si  Si20  1  0.872349  0.799657  0.815952  1
  Si  Si21  1  0.289462  0.959222  0.062889  1
  Si  Si22  1  0.539922  0.789594  0.313409  1
  Si  Si23  1  0.458769  0.210912  0.812444  1
  Si  Si24  1  0.789475  0.542244  0.687306  1
  Si  Si25  1  0.210372  0.458571  0.187170  1
  Si  Si26  1  0.708738  0.041490  0.562780  1
  Si  Si27  1  0.958805  0.290087  0.937466  1
  Si  Si28  1  0.043617  0.710644  0.437251  1
  Mo  Mo29  1  0.160549  0.009171  0.874947  1
  Mo  Mo30  1  0.492082  0.659466  0.124469  1
  Mo  Mo31  1  0.506754  0.340380  0.622801  1
  Mo  Mo32  1  0.658303  0.491917  0.877634  1
  Mo  Mo33  1  0.342144  0.504524  0.375049  1
  Mo  Mo34  1  0.839839  0.990853  0.373480  1
  Mo  Mo35  1  0.007137  0.159112  0.126940  1
