# generated using pymatgen
data_Rb2Hf(Te2Au)2
_symmetry_space_group_name_H-M   'P 1'
_cell_length_a   8.19979482
_cell_length_b   8.19979515
_cell_length_c   6.45731500
_cell_angle_alpha   90.00000000
_cell_angle_beta   90.00000000
_cell_angle_gamma   133.54375321
_symmetry_Int_Tables_number   1
_chemical_formula_structural   Rb2Hf(Te2Au)2
_chemical_formula_sum   'Rb2 Hf1 Te4 Au2'
_cell_volume   314.70613499
_cell_formula_units_Z   1
loop_
 _symmetry_equiv_pos_site_id
 _symmetry_equiv_pos_as_xyz
  1  'x, y, z'
loop_
 _atom_site_type_symbol
 _atom_site_label
 _atom_site_symmetry_multiplicity
 _atom_site_fract_x
 _atom_site_fract_y
 _atom_site_fract_z
 _atom_site_occupancy
  Rb  Rb0  1  0.500000  0.000000  0.255363  1
  Rb  Rb1  1  0.000000  0.500000  0.744637  1
  Hf  Hf2  1  0.000000  0.000000  0.000000  1
  Te  Te3  1  0.863966  0.647206  0.243718  1
  Te  Te4  1  0.136034  0.352794  0.243718  1
  Te  Te5  1  0.647206  0.863966  0.756282  1
  Te  Te6  1  0.352794  0.136034  0.756282  1
  Au  Au7  1  0.000000  0.000000  0.500000  1
  Au  Au8  1  0.500000  0.500000  0.000000  1
