# generated using pymatgen
data_La2SmEr3Ta2O14
_symmetry_space_group_name_H-M   'P 1'
_cell_length_a   6.53045026
_cell_length_b   6.53417229
_cell_length_c   7.64443500
_cell_angle_alpha   90.00000000
_cell_angle_beta   90.00000000
_cell_angle_gamma   109.00418777
_symmetry_Int_Tables_number   1
_chemical_formula_structural   La2SmEr3Ta2O14
_chemical_formula_sum   'La2 Sm1 Er3 Ta2 O14'
_cell_volume   308.41694677
_cell_formula_units_Z   1
loop_
 _symmetry_equiv_pos_site_id
 _symmetry_equiv_pos_as_xyz
  1  'x, y, z'
loop_
 _atom_site_type_symbol
 _atom_site_label
 _atom_site_symmetry_multiplicity
 _atom_site_fract_x
 _atom_site_fract_y
 _atom_site_fract_z
 _atom_site_occupancy
  La  La0  1  0.504304  0.503629  0.498537  1
  La  La1  1  0.504304  0.503629  0.001463  1
  Sm  Sm2  1  0.000658  0.465391  0.750000  1
  Er  Er3  1  0.530931  0.002276  0.750000  1
  Er  Er4  1  0.001474  0.533229  0.250000  1
  Er  Er5  1  0.467704  0.998873  0.250000  1
  Ta  Ta6  1  0.000249  0.000365  0.498184  1
  Ta  Ta7  1  0.000249  0.000365  0.001816  1
  O  O8  1  0.681292  0.937772  0.466066  1
  O  O9  1  0.927031  0.678602  0.524418  1
  O  O10  1  0.681292  0.937772  0.033934  1
  O  O11  1  0.927031  0.678602  0.975582  1
  O  O12  1  0.315952  0.060881  0.535377  1
  O  O13  1  0.067235  0.316734  0.462159  1
  O  O14  1  0.315952  0.060881  0.964623  1
  O  O15  1  0.067235  0.316734  0.037841  1
  O  O16  1  0.935911  0.059711  0.750000  1
  O  O17  1  0.068722  0.938336  0.250000  1
  O  O18  1  0.371930  0.644543  0.750000  1
  O  O19  1  0.638623  0.359884  0.250000  1
  O  O20  1  0.637894  0.353933  0.750000  1
  O  O21  1  0.354027  0.647858  0.250000  1
