# generated using pymatgen
data_La4HoCdSn2
_symmetry_space_group_name_H-M   'P 1'
_cell_length_a   9.54590035
_cell_length_b   9.54590168
_cell_length_c   9.54590124
_cell_angle_alpha   95.80890103
_cell_angle_beta   95.80889990
_cell_angle_gamma   142.89945329
_symmetry_Int_Tables_number   1
_chemical_formula_structural   La4HoCdSn2
_chemical_formula_sum   'La8 Ho2 Cd2 Sn4'
_cell_volume   497.45326143
_cell_formula_units_Z   2
loop_
 _symmetry_equiv_pos_site_id
 _symmetry_equiv_pos_as_xyz
  1  'x, y, z'
loop_
 _atom_site_type_symbol
 _atom_site_label
 _atom_site_symmetry_multiplicity
 _atom_site_fract_x
 _atom_site_fract_y
 _atom_site_fract_z
 _atom_site_occupancy
  La  La0  1  0.909496  0.227429  0.136925  1
  La  La1  1  0.227429  0.090504  0.317932  1
  La  La2  1  0.772571  0.909496  0.682068  1
  La  La3  1  0.090504  0.772571  0.863075  1
  La  La4  1  0.727429  0.409496  0.136925  1
  La  La5  1  0.272571  0.590504  0.863075  1
  La  La6  1  0.590504  0.727429  0.317932  1
  La  La7  1  0.409496  0.272571  0.682068  1
  Ho  Ho8  1  0.750000  0.250000  0.500000  1
  Ho  Ho9  1  0.250000  0.750000  0.500000  1
  Cd  Cd10  1  0.750000  0.750000  0.000000  1
  Cd  Cd11  1  0.250000  0.250000  0.000000  1
  Sn  Sn12  1  0.846001  0.653999  0.500000  1
  Sn  Sn13  1  0.653999  0.153999  0.807999  1
  Sn  Sn14  1  0.346001  0.846001  0.192001  1
  Sn  Sn15  1  0.153999  0.346001  0.500000  1
