# generated using pymatgen
data_Tb2LuSc2Ga3Si
_symmetry_space_group_name_H-M   'P 1'
_cell_length_a   7.29145308
_cell_length_b   7.59843377
_cell_length_c   14.57024477
_cell_angle_alpha   89.97848743
_cell_angle_beta   90.05239430
_cell_angle_gamma   90.23366289
_symmetry_Int_Tables_number   1
_chemical_formula_structural   Tb2LuSc2Ga3Si
_chemical_formula_sum   'Tb8 Lu4 Sc8 Ga12 Si4'
_cell_volume   807.23724633
_cell_formula_units_Z   4
loop_
 _symmetry_equiv_pos_site_id
 _symmetry_equiv_pos_as_xyz
  1  'x, y, z'
loop_
 _atom_site_type_symbol
 _atom_site_label
 _atom_site_symmetry_multiplicity
 _atom_site_fract_x
 _atom_site_fract_y
 _atom_site_fract_z
 _atom_site_occupancy
  Tb  Tb0  1  0.012637  0.180134  0.094737  1
  Tb  Tb1  1  0.988061  0.819829  0.904067  1
  Tb  Tb2  1  0.487479  0.680048  0.902808  1
  Tb  Tb3  1  0.986343  0.820450  0.599834  1
  Tb  Tb4  1  0.511474  0.319513  0.093963  1
  Tb  Tb5  1  0.012591  0.180895  0.403467  1
  Tb  Tb6  1  0.513150  0.318892  0.401871  1
  Tb  Tb7  1  0.487763  0.679893  0.598811  1
  Lu  Lu8  1  0.328635  0.173782  0.623084  1
  Lu  Lu9  1  0.672787  0.825987  0.378151  1
  Lu  Lu10  1  0.171841  0.670817  0.378000  1
  Lu  Lu11  1  0.671594  0.826043  0.119520  1
  Sc  Sc12  1  0.162267  0.507900  0.751568  1
  Sc  Sc13  1  0.838000  0.489250  0.248420  1
  Sc  Sc14  1  0.339209  0.009744  0.248089  1
  Sc  Sc15  1  0.661919  0.993244  0.751229  1
  Sc  Sc16  1  0.827457  0.328826  0.625889  1
  Sc  Sc17  1  0.329143  0.172244  0.877343  1
  Sc  Sc18  1  0.828847  0.329349  0.877045  1
  Sc  Sc19  1  0.171784  0.671552  0.121653  1
  Ga  Ga20  1  0.029213  0.114759  0.753300  1
  Ga  Ga21  1  0.971695  0.890516  0.247640  1
  Ga  Ga22  1  0.466880  0.606743  0.246759  1
  Ga  Ga23  1  0.533078  0.389133  0.752754  1
  Ga  Ga24  1  0.153251  0.469115  0.545465  1
  Ga  Ga25  1  0.837207  0.528304  0.461968  1
  Ga  Ga26  1  0.340858  0.969298  0.457847  1
  Ga  Ga27  1  0.844805  0.529284  0.040206  1
  Ga  Ga28  1  0.665046  0.037027  0.543865  1
  Ga  Ga29  1  0.161754  0.464366  0.957546  1
  Ga  Ga30  1  0.658878  0.037593  0.954209  1
  Ga  Ga31  1  0.334374  0.965549  0.039042  1
  Si  Si32  1  0.282682  0.875235  0.752210  1
  Si  Si33  1  0.717410  0.127445  0.248516  1
  Si  Si34  1  0.215698  0.372207  0.247697  1
  Si  Si35  1  0.784191  0.625032  0.751427  1
