# generated using pymatgen
data_Na2In(SiPd2)3
_symmetry_space_group_name_H-M   'P 1'
_cell_length_a   6.90033809
_cell_length_b   6.82228161
_cell_length_c   6.90033829
_cell_angle_alpha   129.64490522
_cell_angle_beta   115.66205685
_cell_angle_gamma   86.29591335
_symmetry_Int_Tables_number   1
_chemical_formula_structural   Na2In(SiPd2)3
_chemical_formula_sum   'Na2 In1 Si3 Pd6'
_cell_volume   214.71569301
_cell_formula_units_Z   1
loop_
 _symmetry_equiv_pos_site_id
 _symmetry_equiv_pos_as_xyz
  1  'x, y, z'
loop_
 _atom_site_type_symbol
 _atom_site_label
 _atom_site_symmetry_multiplicity
 _atom_site_fract_x
 _atom_site_fract_y
 _atom_site_fract_z
 _atom_site_occupancy
  Na  Na0  1  0.999629  0.979029  0.979400  1
  Na  Na1  1  0.501631  0.050892  0.549261  1
  In  In2  1  0.354454  0.412708  0.058254  1
  Si  Si3  1  0.810733  0.253168  0.442435  1
  Si  Si4  1  0.650126  0.700816  0.050690  1
  Si  Si5  1  0.194320  0.634608  0.440288  1
  Pd  Pd6  1  0.939224  0.500265  0.949796  1
  Pd  Pd7  1  0.550468  0.500265  0.561041  1
  Pd  Pd8  1  0.023455  0.986169  0.516757  1
  Pd  Pd9  1  0.805971  0.490456  0.289880  1
  Pd  Pd10  1  0.200576  0.490456  0.684485  1
  Pd  Pd11  1  0.469413  0.986169  0.962714  1
