# generated using pymatgen
data_Y2Er2Ga17SiIr6
_symmetry_space_group_name_H-M   'P 1'
_cell_length_a   7.58914729
_cell_length_b   7.56821245
_cell_length_c   9.48707100
_cell_angle_alpha   90.06305142
_cell_angle_beta   89.81485230
_cell_angle_gamma   119.91717064
_symmetry_Int_Tables_number   1
_chemical_formula_structural   Y2Er2Ga17SiIr6
_chemical_formula_sum   'Y2 Er2 Ga17 Si1 Ir6'
_cell_volume   472.28985008
_cell_formula_units_Z   1
loop_
 _symmetry_equiv_pos_site_id
 _symmetry_equiv_pos_as_xyz
  1  'x, y, z'
loop_
 _atom_site_type_symbol
 _atom_site_label
 _atom_site_symmetry_multiplicity
 _atom_site_fract_x
 _atom_site_fract_y
 _atom_site_fract_z
 _atom_site_occupancy
  Y  Y0  1  0.673406  0.001865  0.248341  1
  Y  Y1  1  0.330703  0.002609  0.749844  1
  Er  Er2  1  0.997122  0.664706  0.248159  1
  Er  Er3  1  0.002688  0.331159  0.751415  1
  Ga  Ga4  1  0.129731  0.128498  0.250807  1
  Ga  Ga5  1  0.872812  0.874566  0.750670  1
  Ga  Ga6  1  0.998951  0.670134  0.917706  1
  Ga  Ga7  1  0.000361  0.665223  0.580117  1
  Ga  Ga8  1  0.333159  0.997486  0.419025  1
  Ga  Ga9  1  0.999792  0.335259  0.420660  1
  Ga  Ga10  1  0.666006  0.000834  0.580666  1
  Ga  Ga11  1  0.659532  0.995422  0.917325  1
  Ga  Ga12  1  0.332837  0.997345  0.081818  1
  Ga  Ga13  1  0.331832  0.331814  0.564992  1
  Ga  Ga14  1  0.669171  0.668951  0.434510  1
  Ga  Ga15  1  0.668619  0.669120  0.067649  1
  Ga  Ga16  1  0.337530  0.332647  0.933495  1
  Ga  Ga17  1  0.340601  0.546275  0.251480  1
  Ga  Ga18  1  0.661872  0.452547  0.751027  1
  Ga  Ga19  1  0.547884  0.340097  0.250566  1
  Ga  Ga20  1  0.451263  0.658668  0.750395  1
  Si  Si21  1  0.999609  0.334720  0.073050  1
  Ir  Ir22  1  0.684030  0.329695  0.003286  1
  Ir  Ir23  1  0.313316  0.656637  0.001648  1
  Ir  Ir24  1  0.327825  0.670967  0.500331  1
  Ir  Ir25  1  0.671693  0.328618  0.500036  1
  Ir  Ir26  1  0.998230  0.013971  0.001287  1
  Ir  Ir27  1  0.999424  0.000163  0.499697  1
