# generated using pymatgen
data_Lu12Th4Cd4Ir3Ru
_symmetry_space_group_name_H-M   'P 1'
_cell_length_a   9.63024951
_cell_length_b   9.63024931
_cell_length_c   9.63024925
_cell_angle_alpha   59.60151122
_cell_angle_beta   59.60151036
_cell_angle_gamma   59.60151382
_symmetry_Int_Tables_number   1
_chemical_formula_structural   Lu12Th4Cd4Ir3Ru
_chemical_formula_sum   'Lu12 Th4 Cd4 Ir3 Ru1'
_cell_volume   625.81538355
_cell_formula_units_Z   1
loop_
 _symmetry_equiv_pos_site_id
 _symmetry_equiv_pos_as_xyz
  1  'x, y, z'
loop_
 _atom_site_type_symbol
 _atom_site_label
 _atom_site_symmetry_multiplicity
 _atom_site_fract_x
 _atom_site_fract_y
 _atom_site_fract_z
 _atom_site_occupancy
  Lu  Lu0  1  0.813879  0.187114  0.187114  1
  Lu  Lu1  1  0.184925  0.813292  0.813292  1
  Lu  Lu2  1  0.187114  0.813879  0.187114  1
  Lu  Lu3  1  0.813292  0.184925  0.813292  1
  Lu  Lu4  1  0.187114  0.187114  0.813879  1
  Lu  Lu5  1  0.813292  0.813292  0.184925  1
  Lu  Lu6  1  0.934331  0.566723  0.566723  1
  Lu  Lu7  1  0.566091  0.933703  0.933703  1
  Lu  Lu8  1  0.566723  0.934331  0.566723  1
  Lu  Lu9  1  0.933703  0.566091  0.933703  1
  Lu  Lu10  1  0.566723  0.566723  0.934331  1
  Lu  Lu11  1  0.933703  0.933703  0.566091  1
  Th  Th12  1  0.350461  0.350461  0.350461  1
  Th  Th13  1  0.349646  0.349646  0.949206  1
  Th  Th14  1  0.349646  0.949206  0.349646  1
  Th  Th15  1  0.949206  0.349646  0.349646  1
  Cd  Cd16  1  0.583292  0.583292  0.583292  1
  Cd  Cd17  1  0.582166  0.582166  0.248231  1
  Cd  Cd18  1  0.582166  0.248231  0.582166  1
  Cd  Cd19  1  0.248231  0.582166  0.582166  1
  Ir  Ir20  1  0.142254  0.142254  0.575798  1
  Ir  Ir21  1  0.142254  0.575798  0.142254  1
  Ir  Ir22  1  0.575798  0.142254  0.142254  1
  Ru  Ru23  1  0.143988  0.143988  0.143988  1
