# generated using pymatgen
data_Tm2Zr(ScGa2)2
_symmetry_space_group_name_H-M   'P 1'
_cell_length_a   7.17516408
_cell_length_b   7.55097518
_cell_length_c   14.37572828
_cell_angle_alpha   89.97909600
_cell_angle_beta   90.00892909
_cell_angle_gamma   90.01431577
_symmetry_Int_Tables_number   1
_chemical_formula_structural   Tm2Zr(ScGa2)2
_chemical_formula_sum   'Tm8 Zr4 Sc8 Ga16'
_cell_volume   778.86948215
_cell_formula_units_Z   4
loop_
 _symmetry_equiv_pos_site_id
 _symmetry_equiv_pos_as_xyz
  1  'x, y, z'
loop_
 _atom_site_type_symbol
 _atom_site_label
 _atom_site_symmetry_multiplicity
 _atom_site_fract_x
 _atom_site_fract_y
 _atom_site_fract_z
 _atom_site_occupancy
  Tm  Tm0  1  0.010852  0.179760  0.092388  1
  Tm  Tm1  1  0.989444  0.820124  0.907070  1
  Tm  Tm2  1  0.489629  0.678540  0.906165  1
  Tm  Tm3  1  0.989135  0.821824  0.593279  1
  Tm  Tm4  1  0.509368  0.321492  0.093032  1
  Tm  Tm5  1  0.010028  0.177716  0.407615  1
  Tm  Tm6  1  0.509729  0.323571  0.406651  1
  Tm  Tm7  1  0.490106  0.678350  0.593574  1
  Zr  Zr8  1  0.328884  0.174554  0.624603  1
  Zr  Zr9  1  0.671581  0.824641  0.377084  1
  Zr  Zr10  1  0.171318  0.674284  0.377615  1
  Zr  Zr11  1  0.670510  0.828336  0.122907  1
  Sc  Sc12  1  0.162844  0.505457  0.750705  1
  Sc  Sc13  1  0.838177  0.494184  0.249391  1
  Sc  Sc14  1  0.337744  0.004635  0.249674  1
  Sc  Sc15  1  0.663187  0.995531  0.750630  1
  Sc  Sc16  1  0.827498  0.325750  0.623500  1
  Sc  Sc17  1  0.328435  0.172606  0.875758  1
  Sc  Sc18  1  0.828506  0.328014  0.876425  1
  Sc  Sc19  1  0.171821  0.672053  0.122082  1
  Ga  Ga20  1  0.030979  0.116036  0.748895  1
  Ga  Ga21  1  0.968496  0.881769  0.250696  1
  Ga  Ga22  1  0.469089  0.617874  0.250978  1
  Ga  Ga23  1  0.530489  0.384426  0.749375  1
  Ga  Ga24  1  0.284402  0.870989  0.748714  1
  Ga  Ga25  1  0.716239  0.127459  0.250566  1
  Ga  Ga26  1  0.216022  0.370694  0.251404  1
  Ga  Ga27  1  0.784052  0.630676  0.749438  1
  Ga  Ga28  1  0.163642  0.463405  0.540487  1
  Ga  Ga29  1  0.837856  0.537227  0.458637  1
  Ga  Ga30  1  0.337845  0.963802  0.459451  1
  Ga  Ga31  1  0.836625  0.536445  0.041477  1
  Ga  Ga32  1  0.661602  0.036303  0.540282  1
  Ga  Ga33  1  0.162661  0.463436  0.958803  1
  Ga  Ga34  1  0.662576  0.034721  0.959314  1
  Ga  Ga35  1  0.338629  0.963317  0.041335  1
