# generated using pymatgen
data_AcSc2CoIr8
_symmetry_space_group_name_H-M   'P 1'
_cell_length_a   5.13613400
_cell_length_b   8.82826200
_cell_length_c   8.82826200
_cell_angle_alpha   90.00000000
_cell_angle_beta   90.00000000
_cell_angle_gamma   90.00000000
_symmetry_Int_Tables_number   1
_chemical_formula_structural   AcSc2CoIr8
_chemical_formula_sum   'Ac2 Sc4 Co2 Ir16'
_cell_volume   400.30108998
_cell_formula_units_Z   2
loop_
 _symmetry_equiv_pos_site_id
 _symmetry_equiv_pos_as_xyz
  1  'x, y, z'
loop_
 _atom_site_type_symbol
 _atom_site_label
 _atom_site_symmetry_multiplicity
 _atom_site_fract_x
 _atom_site_fract_y
 _atom_site_fract_z
 _atom_site_occupancy
  Ac  Ac0  1  0.000000  0.500000  0.500000  1
  Ac  Ac1  1  0.000000  0.000000  0.000000  1
  Sc  Sc2  1  0.000000  0.622128  0.122128  1
  Sc  Sc3  1  0.000000  0.377872  0.877872  1
  Sc  Sc4  1  0.000000  0.877872  0.622128  1
  Sc  Sc5  1  0.000000  0.122128  0.377872  1
  Co  Co6  1  0.500000  0.000000  0.500000  1
  Co  Co7  1  0.500000  0.500000  0.000000  1
  Ir  Ir8  1  0.757725  0.173983  0.673983  1
  Ir  Ir9  1  0.757725  0.826017  0.326017  1
  Ir  Ir10  1  0.757725  0.326017  0.173983  1
  Ir  Ir11  1  0.757725  0.673983  0.826017  1
  Ir  Ir12  1  0.242275  0.826017  0.326017  1
  Ir  Ir13  1  0.242275  0.173983  0.673983  1
  Ir  Ir14  1  0.242275  0.673983  0.826017  1
  Ir  Ir15  1  0.242275  0.326017  0.173983  1
  Ir  Ir16  1  0.500000  0.712077  0.562629  1
  Ir  Ir17  1  0.500000  0.287923  0.437371  1
  Ir  Ir18  1  0.500000  0.787923  0.062629  1
  Ir  Ir19  1  0.500000  0.212077  0.937371  1
  Ir  Ir20  1  0.500000  0.562629  0.287923  1
  Ir  Ir21  1  0.500000  0.437371  0.712077  1
  Ir  Ir22  1  0.500000  0.062629  0.212077  1
  Ir  Ir23  1  0.500000  0.937371  0.787923  1
