# generated using pymatgen
data_Mg2Ti(NbRu2)3
_symmetry_space_group_name_H-M   'P 1'
_cell_length_a   4.45497000
_cell_length_b   6.28232700
_cell_length_c   13.31341100
_cell_angle_alpha   90.00000000
_cell_angle_beta   89.99954041
_cell_angle_gamma   90.00000000
_symmetry_Int_Tables_number   1
_chemical_formula_structural   Mg2Ti(NbRu2)3
_chemical_formula_sum   'Mg4 Ti2 Nb6 Ru12'
_cell_volume   372.61013300
_cell_formula_units_Z   2
loop_
 _symmetry_equiv_pos_site_id
 _symmetry_equiv_pos_as_xyz
  1  'x, y, z'
loop_
 _atom_site_type_symbol
 _atom_site_label
 _atom_site_symmetry_multiplicity
 _atom_site_fract_x
 _atom_site_fract_y
 _atom_site_fract_z
 _atom_site_occupancy
  Mg  Mg0  1  0.999994  0.499999  0.333992  1
  Mg  Mg1  1  0.500000  0.000000  0.500412  1
  Mg  Mg2  1  0.000006  0.499999  0.666243  1
  Mg  Mg3  1  0.500001  0.000000  0.832678  1
  Ti  Ti4  1  0.999997  0.499999  0.997769  1
  Ti  Ti5  1  0.499997  0.000000  0.168890  1
  Nb  Nb6  1  0.000000  0.000000  0.995675  1
  Nb  Nb7  1  0.499994  0.499999  0.170987  1
  Nb  Nb8  1  0.999999  0.000000  0.340047  1
  Nb  Nb9  1  0.500000  0.499999  0.501200  1
  Nb  Nb10  1  0.000005  0.000000  0.665468  1
  Nb  Nb11  1  0.500004  0.499999  0.826614  1
  Ru  Ru12  1  0.499999  0.253849  0.003813  1
  Ru  Ru13  1  0.499999  0.746151  0.003813  1
  Ru  Ru14  1  0.999995  0.246162  0.162888  1
  Ru  Ru15  1  0.999995  0.753838  0.162888  1
  Ru  Ru16  1  0.499996  0.245697  0.328016  1
  Ru  Ru17  1  0.499996  0.754303  0.328016  1
  Ru  Ru18  1  0.999999  0.249471  0.499634  1
  Ru  Ru19  1  0.999999  0.750529  0.499634  1
  Ru  Ru20  1  0.500010  0.250521  0.667013  1
  Ru  Ru21  1  0.500010  0.749479  0.667013  1
  Ru  Ru22  1  0.000002  0.254303  0.838647  1
  Ru  Ru23  1  0.000002  0.745697  0.838647  1
