# generated using pymatgen
data_Ti2Tl(AsO4)3
_symmetry_space_group_name_H-M   'P 1'
_cell_length_a   9.49351296
_cell_length_b   9.49351321
_cell_length_c   9.49351400
_cell_angle_alpha   55.72779367
_cell_angle_beta   55.72779261
_cell_angle_gamma   55.72780122
_symmetry_Int_Tables_number   1
_chemical_formula_structural   Ti2Tl(AsO4)3
_chemical_formula_sum   'Ti4 Tl2 As6 O24'
_cell_volume   545.06097107
_cell_formula_units_Z   2
loop_
 _symmetry_equiv_pos_site_id
 _symmetry_equiv_pos_as_xyz
  1  'x, y, z'
loop_
 _atom_site_type_symbol
 _atom_site_label
 _atom_site_symmetry_multiplicity
 _atom_site_fract_x
 _atom_site_fract_y
 _atom_site_fract_z
 _atom_site_occupancy
  Ti  Ti0  1  0.351624  0.351624  0.351624  1
  Ti  Ti1  1  0.851624  0.851624  0.851624  1
  Ti  Ti2  1  0.648376  0.648376  0.648376  1
  Ti  Ti3  1  0.148376  0.148376  0.148376  1
  Tl  Tl4  1  0.500000  0.500000  0.500000  1
  Tl  Tl5  1  0.000000  0.000000  0.000000  1
  As  As6  1  0.972783  0.527217  0.250000  1
  As  As7  1  0.250000  0.972783  0.527217  1
  As  As8  1  0.527217  0.250000  0.972783  1
  As  As9  1  0.750000  0.027217  0.472783  1
  As  As10  1  0.472783  0.750000  0.027217  1
  As  As11  1  0.027217  0.472783  0.750000  1
  O  O12  1  0.164926  0.512411  0.242398  1
  O  O13  1  0.242398  0.164926  0.512411  1
  O  O14  1  0.512411  0.242398  0.164926  1
  O  O15  1  0.742398  0.012411  0.664926  1
  O  O16  1  0.664926  0.742398  0.012411  1
  O  O17  1  0.012411  0.664926  0.742398  1
  O  O18  1  0.835074  0.487589  0.757602  1
  O  O19  1  0.757602  0.835074  0.487589  1
  O  O20  1  0.487589  0.757602  0.835074  1
  O  O21  1  0.257602  0.987589  0.335074  1
  O  O22  1  0.335074  0.257602  0.987589  1
  O  O23  1  0.987589  0.335074  0.257602  1
  O  O24  1  0.209371  0.437637  0.557393  1
  O  O25  1  0.557393  0.209371  0.437637  1
  O  O26  1  0.437637  0.557393  0.209371  1
  O  O27  1  0.057393  0.937637  0.709371  1
  O  O28  1  0.709371  0.057393  0.937637  1
  O  O29  1  0.937637  0.709371  0.057393  1
  O  O30  1  0.790629  0.562363  0.442607  1
  O  O31  1  0.442607  0.790629  0.562363  1
  O  O32  1  0.562363  0.442607  0.790629  1
  O  O33  1  0.942607  0.062363  0.290629  1
  O  O34  1  0.290629  0.942607  0.062363  1
  O  O35  1  0.062363  0.290629  0.942607  1
