# generated using pymatgen
data_La2Tb3Rh2
_symmetry_space_group_name_H-M   'P 1'
_cell_length_a   6.54027817
_cell_length_b   7.22869565
_cell_length_c   8.99776131
_cell_angle_alpha   96.73433282
_cell_angle_beta   111.31156530
_cell_angle_gamma   89.99999733
_symmetry_Int_Tables_number   1
_chemical_formula_structural   La2Tb3Rh2
_chemical_formula_sum   'La4 Tb6 Rh4'
_cell_volume   393.15191755
_cell_formula_units_Z   2
loop_
 _symmetry_equiv_pos_site_id
 _symmetry_equiv_pos_as_xyz
  1  'x, y, z'
loop_
 _atom_site_type_symbol
 _atom_site_label
 _atom_site_symmetry_multiplicity
 _atom_site_fract_x
 _atom_site_fract_y
 _atom_site_fract_z
 _atom_site_occupancy
  La  La0  1  0.981470  0.917503  0.194960  1
  La  La1  1  0.786509  0.582497  0.805040  1
  La  La2  1  0.018530  0.082497  0.805040  1
  La  La3  1  0.213491  0.417503  0.194960  1
  Tb  Tb4  1  0.640698  0.815379  0.432108  1
  Tb  Tb5  1  0.208590  0.684621  0.567892  1
  Tb  Tb6  1  0.359302  0.184621  0.567892  1
  Tb  Tb7  1  0.791410  0.315379  0.432108  1
  Tb  Tb8  1  0.427174  0.750000  0.000000  1
  Tb  Tb9  1  0.572826  0.250000  0.000000  1
  Rh  Rh10  1  0.815235  0.577983  0.226815  1
  Rh  Rh11  1  0.588421  0.922017  0.773185  1
  Rh  Rh12  1  0.184765  0.422017  0.773185  1
  Rh  Rh13  1  0.411579  0.077983  0.226815  1
