# generated using pymatgen
data_Sc8Ga3Si13Ru12
_symmetry_space_group_name_H-M   'P 1'
_cell_length_a   9.97910312
_cell_length_b   9.96745302
_cell_length_c   13.49835194
_cell_angle_alpha   54.07517179
_cell_angle_beta   53.92534404
_cell_angle_gamma   31.09372379
_symmetry_Int_Tables_number   1
_chemical_formula_structural   Sc8Ga3Si13Ru12
_chemical_formula_sum   'Sc8 Ga3 Si13 Ru12'
_cell_volume   549.37887874
_cell_formula_units_Z   1
loop_
 _symmetry_equiv_pos_site_id
 _symmetry_equiv_pos_as_xyz
  1  'x, y, z'
loop_
 _atom_site_type_symbol
 _atom_site_label
 _atom_site_symmetry_multiplicity
 _atom_site_fract_x
 _atom_site_fract_y
 _atom_site_fract_z
 _atom_site_occupancy
  Sc  Sc0  1  0.297297  0.560706  0.642425  1
  Sc  Sc1  1  0.710416  0.963486  0.860469  1
  Sc  Sc2  1  0.289006  0.037970  0.139825  1
  Sc  Sc3  1  0.428679  0.708428  0.860597  1
  Sc  Sc4  1  0.044921  0.282183  0.639019  1
  Sc  Sc5  1  0.567847  0.289989  0.144035  1
  Sc  Sc6  1  0.966371  0.707427  0.359055  1
  Sc  Sc7  1  0.704237  0.440500  0.356383  1
  Ga  Ga8  1  0.037623  0.739021  0.103029  1
  Ga  Ga9  1  0.613765  0.855154  0.601390  1
  Ga  Ga10  1  0.961432  0.263172  0.897036  1
  Si  Si11  1  0.385908  0.614258  0.251179  1
  Si  Si12  1  0.389702  0.136066  0.400233  1
  Si  Si13  1  0.570666  0.082840  0.069877  1
  Si  Si14  1  0.138828  0.386486  0.900564  1
  Si  Si15  1  0.249962  0.975095  0.394289  1
  Si  Si16  1  0.084993  0.571032  0.567415  1
  Si  Si17  1  0.429393  0.917657  0.931007  1
  Si  Si18  1  0.128019  0.870181  0.749634  1
  Si  Si19  1  0.748280  0.025197  0.604369  1
  Si  Si20  1  0.870801  0.131077  0.249716  1
  Si  Si21  1  0.614044  0.387739  0.747086  1
  Si  Si22  1  0.918523  0.425446  0.433751  1
  Si  Si23  1  0.862630  0.612651  0.100747  1
  Ru  Ru24  1  0.155688  0.889560  0.089330  1
  Ru  Ru25  1  0.166165  0.342145  0.223420  1
  Ru  Ru26  1  0.352418  0.177701  0.720223  1
  Ru  Ru27  1  0.834587  0.659624  0.778247  1
  Ru  Ru28  1  0.505201  0.254782  0.428853  1
  Ru  Ru29  1  0.844170  0.113016  0.909303  1
  Ru  Ru30  1  0.645721  0.828173  0.283424  1
  Ru  Ru31  1  0.251871  0.502425  0.930156  1
  Ru  Ru32  1  0.748057  0.498962  0.069875  1
  Ru  Ru33  1  0.102400  0.859145  0.412752  1
  Ru  Ru34  1  0.894875  0.142172  0.586334  1
  Ru  Ru35  1  0.485503  0.748535  0.564953  1
