# generated using pymatgen
data_Hf8Co2Ir2N
_symmetry_space_group_name_H-M   'P 1'
_cell_length_a   8.60053819
_cell_length_b   8.60053961
_cell_length_c   8.60053954
_cell_angle_alpha   120.14570906
_cell_angle_beta   119.82074147
_cell_angle_gamma   90.02928491
_symmetry_Int_Tables_number   1
_chemical_formula_structural   Hf8Co2Ir2N
_chemical_formula_sum   'Hf16 Co4 Ir4 N2'
_cell_volume   449.95358293
_cell_formula_units_Z   2
loop_
 _symmetry_equiv_pos_site_id
 _symmetry_equiv_pos_as_xyz
  1  'x, y, z'
loop_
 _atom_site_type_symbol
 _atom_site_label
 _atom_site_symmetry_multiplicity
 _atom_site_fract_x
 _atom_site_fract_y
 _atom_site_fract_z
 _atom_site_occupancy
  Hf  Hf0  1  0.939273  0.189273  0.750000  1
  Hf  Hf1  1  0.319049  0.569049  0.750000  1
  Hf  Hf2  1  0.935033  0.566849  0.755398  1
  Hf  Hf3  1  0.311450  0.179635  0.744602  1
  Hf  Hf4  1  0.935033  0.179635  0.368185  1
  Hf  Hf5  1  0.311450  0.566849  0.131815  1
  Hf  Hf6  1  0.058655  0.808655  0.250000  1
  Hf  Hf7  1  0.687916  0.437916  0.250000  1
  Hf  Hf8  1  0.060716  0.438280  0.246184  1
  Hf  Hf9  1  0.692096  0.814532  0.253816  1
  Hf  Hf10  1  0.060716  0.814532  0.622436  1
  Hf  Hf11  1  0.692096  0.438280  0.877564  1
  Hf  Hf12  1  0.483860  0.016057  0.032197  1
  Hf  Hf13  1  0.483860  0.451662  0.467803  1
  Hf  Hf14  1  0.484283  0.015650  0.468634  1
  Hf  Hf15  1  0.047016  0.015650  0.031366  1
  Co  Co16  1  0.272388  0.231922  0.459534  1
  Co  Co17  1  0.272388  0.812854  0.040466  1
  Co  Co18  1  0.275201  0.229687  0.045514  1
  Co  Co19  1  0.684173  0.229687  0.454486  1
  Ir  Ir20  1  0.707631  0.785608  0.577979  1
  Ir  Ir21  1  0.707631  0.129652  0.922021  1
  Ir  Ir22  1  0.705566  0.789996  0.915570  1
  Ir  Ir23  1  0.374426  0.789996  0.584430  1
  N  N24  1  0.999048  0.499612  0.000564  1
  N  N25  1  0.999048  0.998483  0.499436  1
