# generated using pymatgen
data_SrPrCrO4
_symmetry_space_group_name_H-M   'P 1'
_cell_length_a   5.56291497
_cell_length_b   5.56282725
_cell_length_c   13.08378900
_cell_angle_alpha   77.73090907
_cell_angle_beta   102.27059146
_cell_angle_gamma   90.01164556
_symmetry_Int_Tables_number   1
_chemical_formula_structural   SrPrCrO4
_chemical_formula_sum   'Sr4 Pr4 Cr4 O16'
_cell_volume   386.17019553
_cell_formula_units_Z   4
loop_
 _symmetry_equiv_pos_site_id
 _symmetry_equiv_pos_as_xyz
  1  'x, y, z'
loop_
 _atom_site_type_symbol
 _atom_site_label
 _atom_site_symmetry_multiplicity
 _atom_site_fract_x
 _atom_site_fract_y
 _atom_site_fract_z
 _atom_site_occupancy
  Sr  Sr0  1  0.821425  0.178618  0.643416  1
  Sr  Sr1  1  0.321475  0.678507  0.643420  1
  Sr  Sr2  1  0.571459  0.928504  0.143423  1
  Sr  Sr3  1  0.071474  0.428580  0.143409  1
  Pr  Pr4  1  0.930648  0.569323  0.860752  1
  Pr  Pr5  1  0.430565  0.069419  0.860773  1
  Pr  Pr6  1  0.680769  0.319480  0.360817  1
  Pr  Pr7  1  0.180580  0.819324  0.360823  1
  Cr  Cr8  1  0.751555  0.748358  0.503231  1
  Cr  Cr9  1  0.501641  0.498375  0.003211  1
  Cr  Cr10  1  0.251601  0.248293  0.503229  1
  Cr  Cr11  1  0.001688  0.998377  0.003217  1
  O  O12  1  0.918751  0.081784  0.836831  1
  O  O13  1  0.418390  0.581319  0.836827  1
  O  O14  1  0.668636  0.831417  0.336841  1
  O  O15  1  0.168278  0.331362  0.336847  1
  O  O16  1  0.835148  0.664660  0.670969  1
  O  O17  1  0.335372  0.164601  0.670991  1
  O  O18  1  0.585230  0.414853  0.170976  1
  O  O19  1  0.085356  0.914803  0.170987  1
  O  O20  1  0.746233  0.753815  0.992259  1
  O  O21  1  0.246368  0.253682  0.992376  1
  O  O22  1  0.495909  0.503995  0.492332  1
  O  O23  1  0.996456  0.003458  0.492410  1
  O  O24  1  0.246233  0.753707  0.992408  1
  O  O25  1  0.746343  0.253782  0.992446  1
  O  O26  1  0.995975  0.503516  0.492435  1
  O  O27  1  0.496445  0.004083  0.492352  1
