# generated using pymatgen
data_Tb13Tm3InHg3Rh4
_symmetry_space_group_name_H-M   'P 1'
_cell_length_a   9.61866866
_cell_length_b   9.61811889
_cell_length_c   9.61434105
_cell_angle_alpha   59.98893788
_cell_angle_beta   59.91034241
_cell_angle_gamma   59.83511922
_symmetry_Int_Tables_number   1
_chemical_formula_structural   Tb13Tm3InHg3Rh4
_chemical_formula_sum   'Tb13 Tm3 In1 Hg3 Rh4'
_cell_volume   627.67517449
_cell_formula_units_Z   1
loop_
 _symmetry_equiv_pos_site_id
 _symmetry_equiv_pos_as_xyz
  1  'x, y, z'
loop_
 _atom_site_type_symbol
 _atom_site_label
 _atom_site_symmetry_multiplicity
 _atom_site_fract_x
 _atom_site_fract_y
 _atom_site_fract_z
 _atom_site_occupancy
  Tb  Tb0  1  0.647973  0.053672  0.648921  1
  Tb  Tb1  1  0.064594  0.060879  0.438044  1
  Tb  Tb2  1  0.439264  0.436287  0.060643  1
  Tb  Tb3  1  0.651036  0.648507  0.648877  1
  Tb  Tb4  1  0.812920  0.189207  0.188479  1
  Tb  Tb5  1  0.187851  0.812971  0.811447  1
  Tb  Tb6  1  0.053911  0.646559  0.648562  1
  Tb  Tb7  1  0.439656  0.062357  0.061386  1
  Tb  Tb8  1  0.438453  0.061158  0.437286  1
  Tb  Tb9  1  0.065040  0.437226  0.060723  1
  Tb  Tb10  1  0.649270  0.648591  0.052980  1
  Tb  Tb11  1  0.188359  0.813269  0.188590  1
  Tb  Tb12  1  0.064241  0.435736  0.436949  1
  Tm  Tm13  1  0.810889  0.809716  0.190213  1
  Tm  Tm14  1  0.812050  0.189935  0.809727  1
  Tm  Tm15  1  0.187847  0.189182  0.812584  1
  In  In16  1  0.743025  0.419852  0.419968  1
  Hg  Hg17  1  0.414756  0.415895  0.416150  1
  Hg  Hg18  1  0.414814  0.414488  0.755710  1
  Hg  Hg19  1  0.415295  0.755580  0.414430  1
  Rh  Rh20  1  0.858355  0.425306  0.856412  1
  Rh  Rh21  1  0.856420  0.858586  0.858814  1
  Rh  Rh22  1  0.856308  0.856613  0.426544  1
  Rh  Rh23  1  0.427676  0.858427  0.856561  1
