# generated using pymatgen
data_Ba3ErTlO6
_symmetry_space_group_name_H-M   'P 1'
_cell_length_a   7.33773710
_cell_length_b   7.33750997
_cell_length_c   7.33768000
_cell_angle_alpha   93.41727114
_cell_angle_beta   93.41293339
_cell_angle_gamma   93.41379885
_symmetry_Int_Tables_number   1
_chemical_formula_structural   Ba3ErTlO6
_chemical_formula_sum   'Ba6 Er2 Tl2 O12'
_cell_volume   392.87409059
_cell_formula_units_Z   2
loop_
 _symmetry_equiv_pos_site_id
 _symmetry_equiv_pos_as_xyz
  1  'x, y, z'
loop_
 _atom_site_type_symbol
 _atom_site_label
 _atom_site_symmetry_multiplicity
 _atom_site_fract_x
 _atom_site_fract_y
 _atom_site_fract_z
 _atom_site_occupancy
  Ba  Ba0  1  0.613434  0.886560  0.249999  1
  Ba  Ba1  1  0.250026  0.613426  0.886580  1
  Ba  Ba2  1  0.886594  0.249991  0.613419  1
  Ba  Ba3  1  0.386598  0.113412  0.749994  1
  Ba  Ba4  1  0.750006  0.386558  0.113414  1
  Ba  Ba5  1  0.113426  0.749970  0.386570  1
  Er  Er6  1  0.249801  0.250192  0.249996  1
  Er  Er7  1  0.750012  0.750017  0.750065  1
  Tl  Tl8  1  0.000038  0.999982  0.999990  1
  Tl  Tl9  1  0.500004  0.499959  0.499984  1
  O  O10  1  0.299468  0.972103  0.102226  1
  O  O11  1  0.102263  0.299495  0.972126  1
  O  O12  1  0.972129  0.102254  0.299488  1
  O  O13  1  0.527867  0.200511  0.397734  1
  O  O14  1  0.397733  0.527885  0.200510  1
  O  O15  1  0.200517  0.397752  0.527877  1
  O  O16  1  0.700540  0.027877  0.897764  1
  O  O17  1  0.897742  0.700503  0.027882  1
  O  O18  1  0.027887  0.897738  0.700507  1
  O  O19  1  0.472153  0.799479  0.602270  1
  O  O20  1  0.602269  0.472104  0.799490  1
  O  O21  1  0.799496  0.602226  0.472113  1
