# generated using pymatgen
data_CaEr3Tm4(B6Ru)4
_symmetry_space_group_name_H-M   'P 1'
_cell_length_a   3.62678900
_cell_length_b   9.08616770
_cell_length_c   11.47250200
_cell_angle_alpha   89.91153086
_cell_angle_beta   90.00000000
_cell_angle_gamma   90.00000000
_symmetry_Int_Tables_number   1
_chemical_formula_structural   CaEr3Tm4(B6Ru)4
_chemical_formula_sum   'Ca1 Er3 Tm4 B24 Ru4'
_cell_volume   378.05994119
_cell_formula_units_Z   1
loop_
 _symmetry_equiv_pos_site_id
 _symmetry_equiv_pos_as_xyz
  1  'x, y, z'
loop_
 _atom_site_type_symbol
 _atom_site_label
 _atom_site_symmetry_multiplicity
 _atom_site_fract_x
 _atom_site_fract_y
 _atom_site_fract_z
 _atom_site_occupancy
  Ca  Ca0  1  0.000000  0.322282  0.413940  1
  Er  Er1  1  0.000000  0.676363  0.585032  1
  Er  Er2  1  0.000000  0.822129  0.086152  1
  Er  Er3  1  0.000000  0.178423  0.914651  1
  Tm  Tm4  1  0.000000  0.943889  0.371222  1
  Tm  Tm5  1  0.000000  0.057607  0.628232  1
  Tm  Tm6  1  0.000000  0.443159  0.129117  1
  Tm  Tm7  1  0.000000  0.556196  0.872444  1
  B  B8  1  0.500000  0.554880  0.432874  1
  B  B9  1  0.500000  0.446448  0.567914  1
  B  B10  1  0.500000  0.053153  0.066068  1
  B  B11  1  0.500000  0.945819  0.932773  1
  B  B12  1  0.500000  0.749170  0.419404  1
  B  B13  1  0.500000  0.251466  0.581765  1
  B  B14  1  0.500000  0.248110  0.079949  1
  B  B15  1  0.500000  0.751275  0.919795  1
  B  B16  1  0.500000  0.792061  0.265501  1
  B  B17  1  0.500000  0.209066  0.734977  1
  B  B18  1  0.500000  0.290153  0.233037  1
  B  B19  1  0.500000  0.708776  0.766078  1
  B  B20  1  0.500000  0.631947  0.185101  1
  B  B21  1  0.500000  0.368887  0.815867  1
  B  B22  1  0.500000  0.130158  0.313820  1
  B  B23  1  0.500000  0.868782  0.684807  1
  B  B24  1  0.500000  0.982386  0.211661  1
  B  B25  1  0.500000  0.017170  0.787330  1
  B  B26  1  0.500000  0.483946  0.287032  1
  B  B27  1  0.500000  0.517329  0.713200  1
  B  B28  1  0.500000  0.606905  0.029595  1
  B  B29  1  0.500000  0.393471  0.970954  1
  B  B30  1  0.500000  0.102334  0.471690  1
  B  B31  1  0.500000  0.895564  0.528846  1
  Ru  Ru32  1  0.000000  0.640411  0.319848  1
  Ru  Ru33  1  0.000000  0.361939  0.681344  1
  Ru  Ru34  1  0.000000  0.136349  0.177155  1
  Ru  Ru35  1  0.000000  0.861998  0.820823  1
