# generated using pymatgen
data_Ca3Lu3(Si3Ru)8
_symmetry_space_group_name_H-M   'P 1'
_cell_length_a   10.14120142
_cell_length_b   10.14120237
_cell_length_c   8.11896148
_cell_angle_alpha   90.00702568
_cell_angle_beta   90.00702266
_cell_angle_gamma   132.77496401
_symmetry_Int_Tables_number   1
_chemical_formula_structural   Ca3Lu3(Si3Ru)8
_chemical_formula_sum   'Ca3 Lu3 Si24 Ru8'
_cell_volume   612.90217944
_cell_formula_units_Z   1
loop_
 _symmetry_equiv_pos_site_id
 _symmetry_equiv_pos_as_xyz
  1  'x, y, z'
loop_
 _atom_site_type_symbol
 _atom_site_label
 _atom_site_symmetry_multiplicity
 _atom_site_fract_x
 _atom_site_fract_y
 _atom_site_fract_z
 _atom_site_occupancy
  Ca  Ca0  1  0.500009  0.499991  0.500000  1
  Ca  Ca1  1  0.998765  0.498771  0.749963  1
  Ca  Ca2  1  0.501229  0.001235  0.250037  1
  Lu  Lu3  1  0.000034  0.999966  0.000000  1
  Lu  Lu4  1  0.001847  0.501773  0.250192  1
  Lu  Lu5  1  0.498227  0.998153  0.749808  1
  Si  Si6  1  0.294194  0.705806  0.000000  1
  Si  Si7  1  0.795047  0.204953  0.500000  1
  Si  Si8  1  0.705476  0.294524  0.000000  1
  Si  Si9  1  0.205324  0.794676  0.500000  1
  Si  Si10  1  0.833603  0.831223  0.333844  1
  Si  Si11  1  0.168777  0.166397  0.666156  1
  Si  Si12  1  0.664837  0.667264  0.832199  1
  Si  Si13  1  0.332736  0.335163  0.167801  1
  Si  Si14  1  0.625115  0.391561  0.229622  1
  Si  Si15  1  0.608439  0.374885  0.770378  1
  Si  Si16  1  0.111204  0.878379  0.728272  1
  Si  Si17  1  0.121621  0.888796  0.271728  1
  Si  Si18  1  0.378952  0.612183  0.770983  1
  Si  Si19  1  0.387817  0.621048  0.229017  1
  Si  Si20  1  0.892704  0.125956  0.270921  1
  Si  Si21  1  0.874044  0.107296  0.729079  1
  Si  Si22  1  0.845325  0.612037  0.008138  1
  Si  Si23  1  0.387963  0.154675  0.991862  1
  Si  Si24  1  0.887526  0.654231  0.503682  1
  Si  Si25  1  0.345769  0.112474  0.496318  1
  Si  Si26  1  0.155673  0.388915  0.996861  1
  Si  Si27  1  0.611085  0.844327  0.003139  1
  Si  Si28  1  0.113463  0.346783  0.491548  1
  Si  Si29  1  0.653217  0.886537  0.508452  1
  Ru  Ru30  1  0.168899  0.831101  0.000000  1
  Ru  Ru31  1  0.671048  0.328952  0.500000  1
  Ru  Ru32  1  0.830512  0.169488  0.000000  1
  Ru  Ru33  1  0.329474  0.670526  0.500000  1
  Ru  Ru34  1  0.628588  0.628159  0.124760  1
  Ru  Ru35  1  0.371841  0.371412  0.875240  1
  Ru  Ru36  1  0.875147  0.875530  0.628401  1
  Ru  Ru37  1  0.124470  0.124853  0.371599  1
