# generated using pymatgen
data_Er3Pa(ZnRh)4
_symmetry_space_group_name_H-M   'P 1'
_cell_length_a   3.85039700
_cell_length_b   7.05898743
_cell_length_c   8.29598866
_cell_angle_alpha   90.82356524
_cell_angle_beta   90.00000000
_cell_angle_gamma   90.00000000
_symmetry_Int_Tables_number   1
_chemical_formula_structural   Er3Pa(ZnRh)4
_chemical_formula_sum   'Er3 Pa1 Zn4 Rh4'
_cell_volume   225.46088235
_cell_formula_units_Z   1
loop_
 _symmetry_equiv_pos_site_id
 _symmetry_equiv_pos_as_xyz
  1  'x, y, z'
loop_
 _atom_site_type_symbol
 _atom_site_label
 _atom_site_symmetry_multiplicity
 _atom_site_fract_x
 _atom_site_fract_y
 _atom_site_fract_z
 _atom_site_occupancy
  Er  Er0  1  0.750000  0.442464  0.809018  1
  Er  Er1  1  0.750000  0.941353  0.685953  1
  Er  Er2  1  0.250000  0.053195  0.322023  1
  Pa  Pa3  1  0.250000  0.553151  0.178861  1
  Zn  Zn4  1  0.250000  0.622026  0.563303  1
  Zn  Zn5  1  0.750000  0.369376  0.442481  1
  Zn  Zn6  1  0.750000  0.893993  0.062798  1
  Zn  Zn7  1  0.250000  0.126730  0.934829  1
  Rh  Rh8  1  0.250000  0.738140  0.888220  1
  Rh  Rh9  1  0.750000  0.280304  0.129028  1
  Rh  Rh10  1  0.750000  0.743560  0.356812  1
  Rh  Rh11  1  0.250000  0.235709  0.626673  1
