# generated using pymatgen
data_Dy3Y3VFeB14
_symmetry_space_group_name_H-M   'P 1'
_cell_length_a   8.08945802
_cell_length_b   8.08945826
_cell_length_c   9.34018902
_cell_angle_alpha   90.00719788
_cell_angle_beta   89.99280111
_cell_angle_gamma   155.50858841
_symmetry_Int_Tables_number   1
_chemical_formula_structural   Dy3Y3VFeB14
_chemical_formula_sum   'Dy3 Y3 V1 Fe1 B14'
_cell_volume   253.38366243
_cell_formula_units_Z   1
loop_
 _symmetry_equiv_pos_site_id
 _symmetry_equiv_pos_as_xyz
  1  'x, y, z'
loop_
 _atom_site_type_symbol
 _atom_site_label
 _atom_site_symmetry_multiplicity
 _atom_site_fract_x
 _atom_site_fract_y
 _atom_site_fract_z
 _atom_site_occupancy
  Dy  Dy0  1  0.104978  0.895022  0.563018  1
  Dy  Dy1  1  0.893926  0.106074  0.058172  1
  Dy  Dy2  1  0.104971  0.895029  0.936979  1
  Y  Y3  1  0.893923  0.106077  0.441716  1
  Y  Y4  1  0.243620  0.756380  0.249959  1
  Y  Y5  1  0.758419  0.241581  0.749998  1
  V  V6  1  0.052552  0.947448  0.249990  1
  Fe  Fe7  1  0.945443  0.054557  0.750056  1
  B  B8  1  0.727925  0.272075  0.468685  1
  B  B9  1  0.273229  0.726771  0.534487  1
  B  B10  1  0.727944  0.272056  0.031326  1
  B  B11  1  0.273251  0.726749  0.965533  1
  B  B12  1  0.632800  0.367200  0.149012  1
  B  B13  1  0.370671  0.629329  0.846790  1
  B  B14  1  0.632801  0.367199  0.350984  1
  B  B15  1  0.370669  0.629331  0.653262  1
  B  B16  1  0.520548  0.479452  0.093557  1
  B  B17  1  0.478062  0.521938  0.902117  1
  B  B18  1  0.520577  0.479423  0.406466  1
  B  B19  1  0.478093  0.521907  0.597934  1
  B  B20  1  0.457657  0.542343  0.249959  1
  B  B21  1  0.537945  0.462055  0.750000  1
