# generated using pymatgen
data_Y3Hf(P3Rh4)2
_symmetry_space_group_name_H-M   'P 1'
_cell_length_a   3.94698500
_cell_length_b   11.20501700
_cell_length_c   12.92765700
_cell_angle_alpha   90.00000000
_cell_angle_beta   90.00000000
_cell_angle_gamma   90.00000000
_symmetry_Int_Tables_number   1
_chemical_formula_structural   Y3Hf(P3Rh4)2
_chemical_formula_sum   'Y6 Hf2 P12 Rh16'
_cell_volume   571.73899833
_cell_formula_units_Z   2
loop_
 _symmetry_equiv_pos_site_id
 _symmetry_equiv_pos_as_xyz
  1  'x, y, z'
loop_
 _atom_site_type_symbol
 _atom_site_label
 _atom_site_symmetry_multiplicity
 _atom_site_fract_x
 _atom_site_fract_y
 _atom_site_fract_z
 _atom_site_occupancy
  Y  Y0  1  0.000000  0.500000  0.523488  1
  Y  Y1  1  0.500000  0.000000  0.476512  1
  Y  Y2  1  0.500000  0.820197  0.201863  1
  Y  Y3  1  0.500000  0.179803  0.201863  1
  Y  Y4  1  0.000000  0.679803  0.798137  1
  Y  Y5  1  0.000000  0.320197  0.798137  1
  Hf  Hf6  1  0.500000  0.500000  0.158971  1
  Hf  Hf7  1  0.000000  0.000000  0.841029  1
  P  P8  1  0.500000  0.500000  0.878479  1
  P  P9  1  0.000000  0.000000  0.121521  1
  P  P10  1  0.500000  0.500000  0.359732  1
  P  P11  1  0.000000  0.000000  0.640268  1
  P  P12  1  0.500000  0.313636  0.616678  1
  P  P13  1  0.500000  0.686364  0.616678  1
  P  P14  1  0.000000  0.186364  0.383322  1
  P  P15  1  0.000000  0.813636  0.383322  1
  P  P16  1  0.500000  0.842197  0.887856  1
  P  P17  1  0.500000  0.157803  0.887856  1
  P  P18  1  0.000000  0.657803  0.112144  1
  P  P19  1  0.000000  0.342197  0.112144  1
  Rh  Rh20  1  0.500000  0.500000  0.700714  1
  Rh  Rh21  1  0.000000  0.000000  0.299286  1
  Rh  Rh22  1  0.000000  0.500000  0.986151  1
  Rh  Rh23  1  0.500000  0.000000  0.013849  1
  Rh  Rh24  1  0.500000  0.331679  0.990247  1
  Rh  Rh25  1  0.500000  0.668321  0.990247  1
  Rh  Rh26  1  0.000000  0.168321  0.009753  1
  Rh  Rh27  1  0.000000  0.831679  0.009753  1
  Rh  Rh28  1  0.500000  0.293364  0.432764  1
  Rh  Rh29  1  0.500000  0.706636  0.432764  1
  Rh  Rh30  1  0.000000  0.206636  0.567236  1
  Rh  Rh31  1  0.000000  0.793364  0.567236  1
  Rh  Rh32  1  0.500000  0.873390  0.706185  1
  Rh  Rh33  1  0.500000  0.126610  0.706185  1
  Rh  Rh34  1  0.000000  0.626610  0.293815  1
  Rh  Rh35  1  0.000000  0.373390  0.293815  1
