# generated using pymatgen
data_Ca2Yb2TmPt4
_symmetry_space_group_name_H-M   'P 1'
_cell_length_a   7.49477800
_cell_length_b   7.61873100
_cell_length_c   14.47097000
_cell_angle_alpha   90.00000000
_cell_angle_beta   90.00000000
_cell_angle_gamma   90.00000000
_symmetry_Int_Tables_number   1
_chemical_formula_structural   Ca2Yb2TmPt4
_chemical_formula_sum   'Ca8 Yb8 Tm4 Pt16'
_cell_volume   826.30248031
_cell_formula_units_Z   4
loop_
 _symmetry_equiv_pos_site_id
 _symmetry_equiv_pos_as_xyz
  1  'x, y, z'
loop_
 _atom_site_type_symbol
 _atom_site_label
 _atom_site_symmetry_multiplicity
 _atom_site_fract_x
 _atom_site_fract_y
 _atom_site_fract_z
 _atom_site_occupancy
  Ca  Ca0  1  0.499815  0.324109  0.904726  1
  Ca  Ca1  1  0.999815  0.175891  0.595274  1
  Ca  Ca2  1  0.500185  0.675891  0.404726  1
  Ca  Ca3  1  0.000185  0.824109  0.095274  1
  Ca  Ca4  1  0.499561  0.677652  0.095832  1
  Ca  Ca5  1  0.999561  0.822348  0.404168  1
  Ca  Ca6  1  0.500439  0.322348  0.595832  1
  Ca  Ca7  1  0.000439  0.177652  0.904168  1
  Yb  Yb8  1  0.662836  0.165786  0.121513  1
  Yb  Yb9  1  0.162836  0.334214  0.378487  1
  Yb  Yb10  1  0.337164  0.834214  0.621514  1
  Yb  Yb11  1  0.837164  0.665786  0.878486  1
  Yb  Yb12  1  0.178211  0.490753  0.749897  1
  Yb  Yb13  1  0.678211  0.009247  0.750103  1
  Yb  Yb14  1  0.821789  0.509247  0.249897  1
  Yb  Yb15  1  0.321789  0.990753  0.250103  1
  Tm  Tm16  1  0.336647  0.835692  0.876634  1
  Tm  Tm17  1  0.836647  0.664308  0.623366  1
  Tm  Tm18  1  0.663353  0.164308  0.376635  1
  Tm  Tm19  1  0.163353  0.335692  0.123365  1
  Pt  Pt20  1  0.321666  0.040724  0.040103  1
  Pt  Pt21  1  0.821666  0.459276  0.459897  1
  Pt  Pt22  1  0.678334  0.959276  0.540103  1
  Pt  Pt23  1  0.178334  0.540724  0.959897  1
  Pt  Pt24  1  0.661147  0.964394  0.956352  1
  Pt  Pt25  1  0.161147  0.535606  0.543648  1
  Pt  Pt26  1  0.338853  0.035606  0.456352  1
  Pt  Pt27  1  0.838853  0.464394  0.043648  1
  Pt  Pt28  1  0.541451  0.627722  0.751579  1
  Pt  Pt29  1  0.041451  0.872278  0.748421  1
  Pt  Pt30  1  0.458549  0.372278  0.251579  1
  Pt  Pt31  1  0.958549  0.127722  0.248421  1
  Pt  Pt32  1  0.302387  0.129933  0.753166  1
  Pt  Pt33  1  0.802387  0.370067  0.746834  1
  Pt  Pt34  1  0.697613  0.870067  0.253166  1
  Pt  Pt35  1  0.197613  0.629933  0.246834  1
