# generated using pymatgen
data_Ba3WF10
_symmetry_space_group_name_H-M   'P 1'
_cell_length_a   8.77640205
_cell_length_b   8.77640138
_cell_length_c   6.17199100
_cell_angle_alpha   90.00000000
_cell_angle_beta   90.00000000
_cell_angle_gamma   101.15804934
_symmetry_Int_Tables_number   1
_chemical_formula_structural   Ba3WF10
_chemical_formula_sum   'Ba6 W2 F20'
_cell_volume   466.41259149
_cell_formula_units_Z   2
loop_
 _symmetry_equiv_pos_site_id
 _symmetry_equiv_pos_as_xyz
  1  'x, y, z'
loop_
 _atom_site_type_symbol
 _atom_site_label
 _atom_site_symmetry_multiplicity
 _atom_site_fract_x
 _atom_site_fract_y
 _atom_site_fract_z
 _atom_site_occupancy
  Ba  Ba0  1  0.830609  0.602928  0.750000  1
  Ba  Ba1  1  0.169391  0.397072  0.250000  1
  Ba  Ba2  1  0.397072  0.169391  0.750000  1
  Ba  Ba3  1  0.602928  0.830609  0.250000  1
  Ba  Ba4  1  0.887911  0.112089  0.750000  1
  Ba  Ba5  1  0.112089  0.887911  0.250000  1
  W  W6  1  0.326211  0.673789  0.750000  1
  W  W7  1  0.673789  0.326211  0.250000  1
  F  F8  1  0.139299  0.139299  0.500000  1
  F  F9  1  0.860701  0.860701  0.500000  1
  F  F10  1  0.860701  0.860701  0.000000  1
  F  F11  1  0.139299  0.139299  0.000000  1
  F  F12  1  0.113905  0.651997  0.539624  1
  F  F13  1  0.886095  0.348003  0.460376  1
  F  F14  1  0.886095  0.348003  0.039624  1
  F  F15  1  0.348003  0.886095  0.960376  1
  F  F16  1  0.113905  0.651997  0.960376  1
  F  F17  1  0.651997  0.113905  0.039624  1
  F  F18  1  0.651997  0.113905  0.460376  1
  F  F19  1  0.348003  0.886095  0.539624  1
  F  F20  1  0.247131  0.434202  0.750000  1
  F  F21  1  0.752869  0.565798  0.250000  1
  F  F22  1  0.565798  0.752869  0.750000  1
  F  F23  1  0.434202  0.247131  0.250000  1
  F  F24  1  0.602135  0.397865  0.540761  1
  F  F25  1  0.397865  0.602135  0.459239  1
  F  F26  1  0.397865  0.602135  0.040761  1
  F  F27  1  0.602135  0.397865  0.959239  1
