# generated using pymatgen
data_Sc3Ta2Re17Tc7
_symmetry_space_group_name_H-M   'P 1'
_cell_length_a   8.45674224
_cell_length_b   8.45674192
_cell_length_c   8.44301000
_cell_angle_alpha   109.46994170
_cell_angle_beta   109.46994094
_cell_angle_gamma   109.59974998
_symmetry_Int_Tables_number   1
_chemical_formula_structural   Sc3Ta2Re17Tc7
_chemical_formula_sum   'Sc3 Ta2 Re17 Tc7'
_cell_volume   464.09192271
_cell_formula_units_Z   1
loop_
 _symmetry_equiv_pos_site_id
 _symmetry_equiv_pos_as_xyz
  1  'x, y, z'
loop_
 _atom_site_type_symbol
 _atom_site_label
 _atom_site_symmetry_multiplicity
 _atom_site_fract_x
 _atom_site_fract_y
 _atom_site_fract_z
 _atom_site_occupancy
  Sc  Sc0  1  0.997240  0.997240  0.999512  1
  Sc  Sc1  1  0.627781  0.999877  0.999627  1
  Sc  Sc2  1  0.999877  0.627781  0.999627  1
  Ta  Ta3  1  0.001073  0.001073  0.630045  1
  Ta  Ta4  1  0.370075  0.370075  0.371013  1
  Re  Re5  1  0.999039  0.678801  0.397861  1
  Re  Re6  1  0.678801  0.999039  0.397861  1
  Re  Re7  1  0.599993  0.599993  0.278892  1
  Re  Re8  1  0.280161  0.601613  0.602215  1
  Re  Re9  1  0.601613  0.280161  0.602215  1
  Re  Re10  1  0.377159  0.197540  0.000910  1
  Re  Re11  1  0.182119  0.808729  0.806793  1
  Re  Re12  1  0.375377  0.001853  0.193265  1
  Re  Re13  1  0.197540  0.377159  0.000910  1
  Re  Re14  1  0.001853  0.375377  0.193265  1
  Re  Re15  1  0.808729  0.182119  0.806793  1
  Re  Re16  1  0.808056  0.808056  0.183139  1
  Re  Re17  1  0.002183  0.195329  0.378444  1
  Re  Re18  1  0.195329  0.002183  0.378444  1
  Re  Re19  1  0.623226  0.623226  0.814339  1
  Re  Re20  1  0.816293  0.623019  0.621143  1
  Re  Re21  1  0.623019  0.816293  0.621143  1
  Tc  Tc22  1  0.395907  0.677885  0.000503  1
  Tc  Tc23  1  0.720778  0.322608  0.323755  1
  Tc  Tc24  1  0.396617  0.000039  0.676936  1
  Tc  Tc25  1  0.677885  0.395907  0.000503  1
  Tc  Tc26  1  0.000039  0.396617  0.676936  1
  Tc  Tc27  1  0.322608  0.720778  0.323755  1
  Tc  Tc28  1  0.319630  0.319630  0.720162  1
