# generated using pymatgen
data_Er4Tm7ThCo4
_symmetry_space_group_name_H-M   'P 1'
_cell_length_a   6.16492506
_cell_length_b   6.87062845
_cell_length_c   9.34348648
_cell_angle_alpha   90.00241001
_cell_angle_beta   89.96335345
_cell_angle_gamma   91.04291953
_symmetry_Int_Tables_number   1
_chemical_formula_structural   Er4Tm7ThCo4
_chemical_formula_sum   'Er4 Tm7 Th1 Co4'
_cell_volume   395.69556897
_cell_formula_units_Z   1
loop_
 _symmetry_equiv_pos_site_id
 _symmetry_equiv_pos_as_xyz
  1  'x, y, z'
loop_
 _atom_site_type_symbol
 _atom_site_label
 _atom_site_symmetry_multiplicity
 _atom_site_fract_x
 _atom_site_fract_y
 _atom_site_fract_z
 _atom_site_occupancy
  Er  Er0  1  0.174172  0.175396  0.067723  1
  Er  Er1  1  0.638523  0.040807  0.250208  1
  Er  Er2  1  0.142136  0.457562  0.749759  1
  Er  Er3  1  0.358941  0.957447  0.749757  1
  Tm  Tm4  1  0.327743  0.675381  0.066025  1
  Tm  Tm5  1  0.174069  0.174978  0.432795  1
  Tm  Tm6  1  0.675988  0.323634  0.569016  1
  Tm  Tm7  1  0.823143  0.827629  0.930268  1
  Tm  Tm8  1  0.675935  0.323721  0.930770  1
  Tm  Tm9  1  0.823178  0.827615  0.569572  1
  Tm  Tm10  1  0.327510  0.675361  0.433887  1
  Th  Th11  1  0.849165  0.552428  0.250155  1
  Co  Co12  1  0.044440  0.872091  0.250167  1
  Co  Co13  1  0.464658  0.388008  0.250330  1
  Co  Co14  1  0.953202  0.114645  0.749460  1
  Co  Co15  1  0.547197  0.613295  0.750107  1
