# generated using pymatgen
data_Nd3SmTa4(Bi2O11)2
_symmetry_space_group_name_H-M   'P 1'
_cell_length_a   6.69285357
_cell_length_b   7.74662656
_cell_length_c   9.88172231
_cell_angle_alpha   101.28959625
_cell_angle_beta   90.71211559
_cell_angle_gamma   90.09951849
_symmetry_Int_Tables_number   1
_chemical_formula_structural   Nd3SmTa4(Bi2O11)2
_chemical_formula_sum   'Nd3 Sm1 Ta4 Bi4 O22'
_cell_volume   502.38105005
_cell_formula_units_Z   1
loop_
 _symmetry_equiv_pos_site_id
 _symmetry_equiv_pos_as_xyz
  1  'x, y, z'
loop_
 _atom_site_type_symbol
 _atom_site_label
 _atom_site_symmetry_multiplicity
 _atom_site_fract_x
 _atom_site_fract_y
 _atom_site_fract_z
 _atom_site_occupancy
  Nd  Nd0  1  0.251556  0.628510  0.515791  1
  Nd  Nd1  1  0.759942  0.872960  0.493198  1
  Nd  Nd2  1  0.240992  0.128111  0.508050  1
  Sm  Sm3  1  0.749235  0.368388  0.478411  1
  Ta  Ta4  1  0.914417  0.700808  0.807123  1
  Ta  Ta5  1  0.084297  0.297787  0.191091  1
  Ta  Ta6  1  0.914986  0.201179  0.807801  1
  Ta  Ta7  1  0.083410  0.799769  0.191030  1
  Bi  Bi8  1  0.426336  0.955975  0.816380  1
  Bi  Bi9  1  0.569235  0.043510  0.183507  1
  Bi  Bi10  1  0.398338  0.455268  0.825894  1
  Bi  Bi11  1  0.605131  0.544606  0.172889  1
  O  O12  1  0.217239  0.724450  0.760886  1
  O  O13  1  0.781133  0.274363  0.236400  1
  O  O14  1  0.635074  0.666659  0.845396  1
  O  O15  1  0.363884  0.337507  0.159485  1
  O  O16  1  0.633747  0.252626  0.843787  1
  O  O17  1  0.365542  0.746515  0.162124  1
  O  O18  1  0.892034  0.163561  0.594896  1
  O  O19  1  0.103841  0.843379  0.406913  1
  O  O20  1  0.214947  0.153542  0.758643  1
  O  O21  1  0.784062  0.847652  0.239813  1
  O  O22  1  0.895214  0.633737  0.597391  1
  O  O23  1  0.098620  0.359313  0.403158  1
  O  O24  1  0.023198  0.549486  0.193749  1
  O  O25  1  0.975124  0.451850  0.811191  1
  O  O26  1  0.003092  0.787521  0.999772  1
  O  O27  1  0.001508  0.211328  0.999067  1
  O  O28  1  0.574745  0.596876  0.390930  1
  O  O29  1  0.434716  0.401619  0.608234  1
  O  O30  1  0.159426  0.056035  0.221523  1
  O  O31  1  0.843957  0.943203  0.775240  1
  O  O32  1  0.550088  0.102304  0.399246  1
  O  O33  1  0.450933  0.899600  0.600989  1
