# generated using pymatgen
data_Ti19Si16Ru
_symmetry_space_group_name_H-M   'P 1'
_cell_length_a   6.68920033
_cell_length_b   6.68920065
_cell_length_c   12.17896702
_cell_angle_alpha   90.18411392
_cell_angle_beta   89.81588923
_cell_angle_gamma   89.88894645
_symmetry_Int_Tables_number   1
_chemical_formula_structural   Ti19Si16Ru
_chemical_formula_sum   'Ti19 Si16 Ru1'
_cell_volume   544.94612798
_cell_formula_units_Z   1
loop_
 _symmetry_equiv_pos_site_id
 _symmetry_equiv_pos_as_xyz
  1  'x, y, z'
loop_
 _atom_site_type_symbol
 _atom_site_label
 _atom_site_symmetry_multiplicity
 _atom_site_fract_x
 _atom_site_fract_y
 _atom_site_fract_z
 _atom_site_occupancy
  Ti  Ti0  1  0.344337  0.999421  0.468686  1
  Ti  Ti1  1  0.500801  0.843188  0.720262  1
  Ti  Ti2  1  0.499059  0.154089  0.220450  1
  Ti  Ti3  1  0.843188  0.500801  0.279738  1
  Ti  Ti4  1  0.154089  0.499059  0.779550  1
  Ti  Ti5  1  0.660640  0.998253  0.969844  1
  Ti  Ti6  1  0.999421  0.344337  0.531314  1
  Ti  Ti7  1  0.998253  0.660640  0.030156  1
  Ti  Ti8  1  0.171897  0.828913  0.247403  1
  Ti  Ti9  1  0.828913  0.171897  0.752597  1
  Ti  Ti10  1  0.671860  0.671860  0.500000  1
  Ti  Ti11  1  0.146902  0.999037  0.869957  1
  Ti  Ti12  1  0.495207  0.651728  0.121336  1
  Ti  Ti13  1  0.504011  0.352781  0.625011  1
  Ti  Ti14  1  0.651728  0.495207  0.878664  1
  Ti  Ti15  1  0.352781  0.504011  0.374989  1
  Ti  Ti16  1  0.851280  0.996441  0.371819  1
  Ti  Ti17  1  0.999037  0.146902  0.130043  1
  Ti  Ti18  1  0.996441  0.851280  0.628181  1
  Si  Si19  1  0.205735  0.142912  0.673921  1
  Si  Si20  1  0.358581  0.704159  0.922739  1
  Si  Si21  1  0.642233  0.295008  0.424716  1
  Si  Si22  1  0.704159  0.358581  0.077261  1
  Si  Si23  1  0.295008  0.642233  0.575284  1
  Si  Si24  1  0.793674  0.855429  0.173931  1
  Si  Si25  1  0.142912  0.205735  0.326079  1
  Si  Si26  1  0.855429  0.793674  0.826069  1
  Si  Si27  1  0.300974  0.961520  0.061958  1
  Si  Si28  1  0.544064  0.802956  0.314542  1
  Si  Si29  1  0.452793  0.199380  0.817153  1
  Si  Si30  1  0.802956  0.544064  0.685458  1
  Si  Si31  1  0.199380  0.452793  0.182847  1
  Si  Si32  1  0.698151  0.045640  0.564812  1
  Si  Si33  1  0.961520  0.300974  0.938042  1
  Si  Si34  1  0.045640  0.698151  0.435188  1
  Ru  Ru35  1  0.326950  0.326950  0.000000  1
