# generated using pymatgen
data_DyY4Rh5
_symmetry_space_group_name_H-M   'P 1'
_cell_length_a   3.44212100
_cell_length_b   3.44212100
_cell_length_c   17.20186100
_cell_angle_alpha   90.00000000
_cell_angle_beta   90.00000000
_cell_angle_gamma   90.00000000
_symmetry_Int_Tables_number   1
_chemical_formula_structural   DyY4Rh5
_chemical_formula_sum   'Dy1 Y4 Rh5'
_cell_volume   203.81103753
_cell_formula_units_Z   1
loop_
 _symmetry_equiv_pos_site_id
 _symmetry_equiv_pos_as_xyz
  1  'x, y, z'
loop_
 _atom_site_type_symbol
 _atom_site_label
 _atom_site_symmetry_multiplicity
 _atom_site_fract_x
 _atom_site_fract_y
 _atom_site_fract_z
 _atom_site_occupancy
  Dy  Dy0  1  0.000000  0.000000  0.000000  1
  Y  Y1  1  0.000000  0.000000  0.199698  1
  Y  Y2  1  0.000000  0.000000  0.400084  1
  Y  Y3  1  0.000000  0.000000  0.599916  1
  Y  Y4  1  0.000000  0.000000  0.800302  1
  Rh  Rh5  1  0.500000  0.500000  0.099054  1
  Rh  Rh6  1  0.500000  0.500000  0.300194  1
  Rh  Rh7  1  0.500000  0.500000  0.500000  1
  Rh  Rh8  1  0.500000  0.500000  0.699806  1
  Rh  Rh9  1  0.500000  0.500000  0.900946  1
