# generated using pymatgen
data_YbDy2Tm4Co6Sn23
_symmetry_space_group_name_H-M   'P 1'
_cell_length_a   9.70227921
_cell_length_b   9.70474724
_cell_length_c   9.94707315
_cell_angle_alpha   90.00000219
_cell_angle_beta   90.01724440
_cell_angle_gamma   120.00841060
_symmetry_Int_Tables_number   1
_chemical_formula_structural   YbDy2Tm4Co6Sn23
_chemical_formula_sum   'Yb1 Dy2 Tm4 Co6 Sn23'
_cell_volume   811.04901527
_cell_formula_units_Z   1
loop_
 _symmetry_equiv_pos_site_id
 _symmetry_equiv_pos_as_xyz
  1  'x, y, z'
loop_
 _atom_site_type_symbol
 _atom_site_label
 _atom_site_symmetry_multiplicity
 _atom_site_fract_x
 _atom_site_fract_y
 _atom_site_fract_z
 _atom_site_occupancy
  Yb  Yb0  1  0.000000  0.000000  0.000000  1
  Dy  Dy1  1  0.041677  0.520838  0.305731  1
  Dy  Dy2  1  0.958323  0.479162  0.694269  1
  Tm  Tm3  1  0.479654  0.520490  0.305706  1
  Tm  Tm4  1  0.520346  0.479510  0.694294  1
  Tm  Tm5  1  0.479654  0.959162  0.305706  1
  Tm  Tm6  1  0.520346  0.040838  0.694294  1
  Co  Co7  1  0.831130  0.168009  0.198581  1
  Co  Co8  1  0.168870  0.831991  0.801419  1
  Co  Co9  1  0.831130  0.663119  0.198581  1
  Co  Co10  1  0.168870  0.336881  0.801419  1
  Co  Co11  1  0.337262  0.168630  0.198764  1
  Co  Co12  1  0.662738  0.831370  0.801236  1
  Sn  Sn13  1  0.345989  0.000166  0.999980  1
  Sn  Sn14  1  0.654011  0.999834  0.000020  1
  Sn  Sn15  1  0.000000  0.345799  0.000000  1
  Sn  Sn16  1  0.000000  0.654201  0.000000  1
  Sn  Sn17  1  0.654011  0.654178  0.000020  1
  Sn  Sn18  1  0.345989  0.345822  0.999980  1
  Sn  Sn19  1  0.333638  0.666819  0.816102  1
  Sn  Sn20  1  0.666362  0.333181  0.183898  1
  Sn  Sn21  1  0.000000  0.000000  0.500000  1
  Sn  Sn22  1  0.779922  0.218168  0.452281  1
  Sn  Sn23  1  0.220078  0.781832  0.547719  1
  Sn  Sn24  1  0.779922  0.561754  0.452281  1
  Sn  Sn25  1  0.220078  0.438246  0.547719  1
  Sn  Sn26  1  0.438236  0.219118  0.452330  1
  Sn  Sn27  1  0.561764  0.780882  0.547670  1
  Sn  Sn28  1  0.334422  0.667212  0.119602  1
  Sn  Sn29  1  0.665578  0.332788  0.880398  1
  Sn  Sn30  1  0.117816  0.883119  0.273998  1
  Sn  Sn31  1  0.882184  0.116881  0.726002  1
  Sn  Sn32  1  0.117816  0.234697  0.273998  1
  Sn  Sn33  1  0.882184  0.765303  0.726002  1
  Sn  Sn34  1  0.764324  0.882162  0.274161  1
  Sn  Sn35  1  0.235676  0.117838  0.725839  1
