# generated using pymatgen
data_Gd2(BrCl)3
_symmetry_space_group_name_H-M   'P 1'
_cell_length_a   7.21630329
_cell_length_b   7.22014805
_cell_length_c   7.26791643
_cell_angle_alpha   81.23715059
_cell_angle_beta   80.94574893
_cell_angle_gamma   120.00660267
_symmetry_Int_Tables_number   1
_chemical_formula_structural   Gd2(BrCl)3
_chemical_formula_sum   'Gd2 Br3 Cl3'
_cell_volume   311.79460108
_cell_formula_units_Z   1
loop_
 _symmetry_equiv_pos_site_id
 _symmetry_equiv_pos_as_xyz
  1  'x, y, z'
loop_
 _atom_site_type_symbol
 _atom_site_label
 _atom_site_symmetry_multiplicity
 _atom_site_fract_x
 _atom_site_fract_y
 _atom_site_fract_z
 _atom_site_occupancy
  Gd  Gd0  1  0.160590  0.832311  0.003342  1
  Gd  Gd1  1  0.827868  0.165698  0.003212  1
  Br  Br2  1  0.208031  0.212224  0.762950  1
  Br  Br3  1  0.568638  0.933959  0.763611  1
  Br  Br4  1  0.061066  0.425021  0.243244  1
  Cl  Cl5  1  0.938463  0.563940  0.793388  1
  Cl  Cl6  1  0.429006  0.055911  0.214866  1
  Cl  Cl7  1  0.806337  0.810937  0.215388  1
