# generated using pymatgen
data_Tm4Sc4Ir3Pt
_symmetry_space_group_name_H-M   'P 1'
_cell_length_a   4.26251400
_cell_length_b   7.09768388
_cell_length_c   8.63110636
_cell_angle_alpha   88.84221053
_cell_angle_beta   90.00000000
_cell_angle_gamma   90.00000000
_symmetry_Int_Tables_number   1
_chemical_formula_structural   Tm4Sc4Ir3Pt
_chemical_formula_sum   'Tm4 Sc4 Ir3 Pt1'
_cell_volume   261.07198123
_cell_formula_units_Z   1
loop_
 _symmetry_equiv_pos_site_id
 _symmetry_equiv_pos_as_xyz
  1  'x, y, z'
loop_
 _atom_site_type_symbol
 _atom_site_label
 _atom_site_symmetry_multiplicity
 _atom_site_fract_x
 _atom_site_fract_y
 _atom_site_fract_z
 _atom_site_occupancy
  Tm  Tm0  1  0.250000  0.012546  0.668612  1
  Tm  Tm1  1  0.250000  0.526704  0.824521  1
  Tm  Tm2  1  0.750000  0.984130  0.330590  1
  Tm  Tm3  1  0.750000  0.481747  0.175287  1
  Sc  Sc4  1  0.250000  0.139717  0.071211  1
  Sc  Sc5  1  0.250000  0.641148  0.431950  1
  Sc  Sc6  1  0.750000  0.859037  0.934659  1
  Sc  Sc7  1  0.750000  0.356422  0.566664  1
  Ir  Ir8  1  0.250000  0.256856  0.392588  1
  Ir  Ir9  1  0.250000  0.753415  0.101791  1
  Ir  Ir10  1  0.750000  0.740911  0.607888  1
  Pt  Pt11  1  0.750000  0.247366  0.894240  1
