# generated using pymatgen
data_YTh(In2Pd3)2
_symmetry_space_group_name_H-M   'P 1'
_cell_length_a   4.68498300
_cell_length_b   9.88702500
_cell_length_c   10.37794700
_cell_angle_alpha   90.00000000
_cell_angle_beta   90.00000000
_cell_angle_gamma   90.00000000
_symmetry_Int_Tables_number   1
_chemical_formula_structural   YTh(In2Pd3)2
_chemical_formula_sum   'Y2 Th2 In8 Pd12'
_cell_volume   480.71215112
_cell_formula_units_Z   2
loop_
 _symmetry_equiv_pos_site_id
 _symmetry_equiv_pos_as_xyz
  1  'x, y, z'
loop_
 _atom_site_type_symbol
 _atom_site_label
 _atom_site_symmetry_multiplicity
 _atom_site_fract_x
 _atom_site_fract_y
 _atom_site_fract_z
 _atom_site_occupancy
  Y  Y0  1  0.750000  0.556365  0.275644  1
  Y  Y1  1  0.750000  0.943635  0.775644  1
  Th  Th2  1  0.250000  0.445709  0.726401  1
  Th  Th3  1  0.250000  0.054291  0.226401  1
  In  In4  1  0.250000  0.885763  0.515662  1
  In  In5  1  0.250000  0.614237  0.015662  1
  In  In6  1  0.750000  0.113549  0.488031  1
  In  In7  1  0.750000  0.386451  0.988031  1
  In  In8  1  0.250000  0.158968  0.894004  1
  In  In9  1  0.250000  0.341032  0.394004  1
  In  In10  1  0.750000  0.831910  0.100801  1
  In  In11  1  0.750000  0.668090  0.600801  1
  Pd  Pd12  1  0.250000  0.145723  0.623624  1
  Pd  Pd13  1  0.250000  0.354277  0.123624  1
  Pd  Pd14  1  0.750000  0.857019  0.374090  1
  Pd  Pd15  1  0.750000  0.642981  0.874090  1
  Pd  Pd16  1  0.250000  0.742384  0.741982  1
  Pd  Pd17  1  0.250000  0.757616  0.241982  1
  Pd  Pd18  1  0.750000  0.256024  0.258899  1
  Pd  Pd19  1  0.750000  0.243976  0.758899  1
  Pd  Pd20  1  0.250000  0.895491  0.973794  1
  Pd  Pd21  1  0.250000  0.604509  0.473794  1
  Pd  Pd22  1  0.750000  0.102551  0.027069  1
  Pd  Pd23  1  0.750000  0.397449  0.527069  1
