# generated using pymatgen
data_EuAl3Au
_symmetry_space_group_name_H-M   'P 1'
_cell_length_a   6.29583643
_cell_length_b   6.29583652
_cell_length_c   6.29583600
_cell_angle_alpha   138.87247660
_cell_angle_beta   138.87247522
_cell_angle_gamma   59.56935240
_symmetry_Int_Tables_number   1
_chemical_formula_structural   EuAl3Au
_chemical_formula_sum   'Eu1 Al3 Au1'
_cell_volume   106.88596399
_cell_formula_units_Z   1
loop_
 _symmetry_equiv_pos_site_id
 _symmetry_equiv_pos_as_xyz
  1  'x, y, z'
loop_
 _atom_site_type_symbol
 _atom_site_label
 _atom_site_symmetry_multiplicity
 _atom_site_fract_x
 _atom_site_fract_y
 _atom_site_fract_z
 _atom_site_occupancy
  Eu  Eu0  1  0.009629  0.009629  0.000000  1
  Al  Al1  1  0.752704  0.252704  0.500000  1
  Al  Al2  1  0.252704  0.752704  0.500000  1
  Al  Al3  1  0.607850  0.607850  0.000000  1
  Au  Au4  1  0.377113  0.377113  0.000000  1
