# generated using pymatgen
data_DyAg6ClO8
_symmetry_space_group_name_H-M   'P 1'
_cell_length_a   7.10405690
_cell_length_b   7.10405666
_cell_length_c   7.10405600
_cell_angle_alpha   60.00000306
_cell_angle_beta   60.00000417
_cell_angle_gamma   59.99999898
_symmetry_Int_Tables_number   1
_chemical_formula_structural   DyAg6ClO8
_chemical_formula_sum   'Dy1 Ag6 Cl1 O8'
_cell_volume   253.51534174
_cell_formula_units_Z   1
loop_
 _symmetry_equiv_pos_site_id
 _symmetry_equiv_pos_as_xyz
  1  'x, y, z'
loop_
 _atom_site_type_symbol
 _atom_site_label
 _atom_site_symmetry_multiplicity
 _atom_site_fract_x
 _atom_site_fract_y
 _atom_site_fract_z
 _atom_site_occupancy
  Dy  Dy0  1  0.000000  0.000000  0.000000  1
  Ag  Ag1  1  0.000000  0.000000  0.500000  1
  Ag  Ag2  1  0.500000  0.000000  0.500000  1
  Ag  Ag3  1  0.000000  0.500000  0.500000  1
  Ag  Ag4  1  0.500000  0.500000  0.000000  1
  Ag  Ag5  1  0.000000  0.500000  0.000000  1
  Ag  Ag6  1  0.500000  0.000000  0.000000  1
  Cl  Cl7  1  0.500000  0.500000  0.500000  1
  O  O8  1  0.862617  0.862617  0.412149  1
  O  O9  1  0.862617  0.412149  0.862617  1
  O  O10  1  0.412149  0.862617  0.862617  1
  O  O11  1  0.862617  0.862617  0.862617  1
  O  O12  1  0.137383  0.137383  0.587851  1
  O  O13  1  0.137383  0.587851  0.137383  1
  O  O14  1  0.587851  0.137383  0.137383  1
  O  O15  1  0.137383  0.137383  0.137383  1
