# generated using pymatgen
data_Lu2Ga4PdAu
_symmetry_space_group_name_H-M   'P 1'
_cell_length_a   5.52532472
_cell_length_b   5.52532434
_cell_length_c   6.60645700
_cell_angle_alpha   90.00000000
_cell_angle_beta   90.00000000
_cell_angle_gamma   132.74471977
_symmetry_Int_Tables_number   1
_chemical_formula_structural   Lu2Ga4PdAu
_chemical_formula_sum   'Lu2 Ga4 Pd1 Au1'
_cell_volume   148.11806524
_cell_formula_units_Z   1
loop_
 _symmetry_equiv_pos_site_id
 _symmetry_equiv_pos_as_xyz
  1  'x, y, z'
loop_
 _atom_site_type_symbol
 _atom_site_label
 _atom_site_symmetry_multiplicity
 _atom_site_fract_x
 _atom_site_fract_y
 _atom_site_fract_z
 _atom_site_occupancy
  Lu  Lu0  1  0.588546  0.411454  0.250000  1
  Lu  Lu1  1  0.413696  0.586304  0.750000  1
  Ga  Ga2  1  0.874829  0.125171  0.454852  1
  Ga  Ga3  1  0.124347  0.875653  0.553972  1
  Ga  Ga4  1  0.874829  0.125171  0.045148  1
  Ga  Ga5  1  0.124347  0.875653  0.946028  1
  Pd  Pd6  1  0.700567  0.299433  0.750000  1
  Au  Au7  1  0.298838  0.701162  0.250000  1
