# generated using pymatgen
data_Sm8Ti(Pd5Pt3)3
_symmetry_space_group_name_H-M   'P 1'
_cell_length_a   8.48015700
_cell_length_b   8.44166100
_cell_length_c   8.46247400
_cell_angle_alpha   90.00000000
_cell_angle_beta   90.00000000
_cell_angle_gamma   90.00000000
_symmetry_Int_Tables_number   1
_chemical_formula_structural   Sm8Ti(Pd5Pt3)3
_chemical_formula_sum   'Sm8 Ti1 Pd15 Pt9'
_cell_volume   605.79983113
_cell_formula_units_Z   1
loop_
 _symmetry_equiv_pos_site_id
 _symmetry_equiv_pos_as_xyz
  1  'x, y, z'
loop_
 _atom_site_type_symbol
 _atom_site_label
 _atom_site_symmetry_multiplicity
 _atom_site_fract_x
 _atom_site_fract_y
 _atom_site_fract_z
 _atom_site_occupancy
  Sm  Sm0  1  0.250132  0.250798  0.250925  1
  Sm  Sm1  1  0.749252  0.749134  0.749469  1
  Sm  Sm2  1  0.749252  0.749134  0.250531  1
  Sm  Sm3  1  0.749868  0.250798  0.749075  1
  Sm  Sm4  1  0.250132  0.250798  0.749075  1
  Sm  Sm5  1  0.250748  0.749134  0.250531  1
  Sm  Sm6  1  0.250748  0.749134  0.749469  1
  Sm  Sm7  1  0.749868  0.250798  0.250925  1
  Ti  Ti8  1  0.000000  0.000662  0.000000  1
  Pd  Pd9  1  0.500000  0.263959  0.000000  1
  Pd  Pd10  1  0.000000  0.735821  0.500000  1
  Pd  Pd11  1  0.500000  0.736122  0.000000  1
  Pd  Pd12  1  0.500000  0.000020  0.264681  1
  Pd  Pd13  1  0.265377  0.999738  0.500000  1
  Pd  Pd14  1  0.500000  0.000020  0.735319  1
  Pd  Pd15  1  0.734623  0.999738  0.500000  1
  Pd  Pd16  1  0.000000  0.500358  0.265553  1
  Pd  Pd17  1  0.000000  0.500358  0.734447  1
  Pd  Pd18  1  0.255085  0.499919  0.500000  1
  Pd  Pd19  1  0.744915  0.499919  0.500000  1
  Pd  Pd20  1  0.500000  0.254536  0.500000  1
  Pd  Pd21  1  0.500000  0.745140  0.500000  1
  Pd  Pd22  1  0.500000  0.500075  0.254855  1
  Pd  Pd23  1  0.500000  0.500075  0.745145  1
  Pt  Pt24  1  0.264416  0.499981  0.000000  1
  Pt  Pt25  1  0.735584  0.499981  0.000000  1
  Pt  Pt26  1  0.000000  0.263933  0.500000  1
  Pt  Pt27  1  0.299859  0.000082  0.000000  1
  Pt  Pt28  1  0.700141  0.000082  0.000000  1
  Pt  Pt29  1  0.000000  0.300899  0.000000  1
  Pt  Pt30  1  0.000000  0.699670  0.000000  1
  Pt  Pt31  1  0.000000  0.999593  0.300266  1
  Pt  Pt32  1  0.000000  0.999593  0.699734  1
