# generated using pymatgen
data_NdEr3(NiP)4
_symmetry_space_group_name_H-M   'P 1'
_cell_length_a   3.89748900
_cell_length_b   3.89749006
_cell_length_c   15.51367300
_cell_angle_alpha   90.00000000
_cell_angle_beta   90.00000000
_cell_angle_gamma   119.99998250
_symmetry_Int_Tables_number   1
_chemical_formula_structural   NdEr3(NiP)4
_chemical_formula_sum   'Nd1 Er3 Ni4 P4'
_cell_volume   204.08695969
_cell_formula_units_Z   1
loop_
 _symmetry_equiv_pos_site_id
 _symmetry_equiv_pos_as_xyz
  1  'x, y, z'
loop_
 _atom_site_type_symbol
 _atom_site_label
 _atom_site_symmetry_multiplicity
 _atom_site_fract_x
 _atom_site_fract_y
 _atom_site_fract_z
 _atom_site_occupancy
  Nd  Nd0  1  0.000000  0.000000  0.000000  1
  Er  Er1  1  0.000000  0.000000  0.500000  1
  Er  Er2  1  0.000000  0.000000  0.253841  1
  Er  Er3  1  0.000000  0.000000  0.746159  1
  Ni  Ni4  1  0.333333  0.666667  0.372212  1
  Ni  Ni5  1  0.666667  0.333333  0.627788  1
  Ni  Ni6  1  0.666667  0.333333  0.864391  1
  Ni  Ni7  1  0.333333  0.666667  0.135609  1
  P  P8  1  0.333333  0.666667  0.869890  1
  P  P9  1  0.666667  0.333333  0.130110  1
  P  P10  1  0.666667  0.333333  0.379639  1
  P  P11  1  0.333333  0.666667  0.620361  1
