# generated using pymatgen
data_Pr8Si12RuPt3
_symmetry_space_group_name_H-M   'P 1'
_cell_length_a   8.28202600
_cell_length_b   8.28202658
_cell_length_c   8.62131800
_cell_angle_alpha   90.00000000
_cell_angle_beta   90.00000000
_cell_angle_gamma   120.00000568
_symmetry_Int_Tables_number   1
_chemical_formula_structural   Pr8Si12RuPt3
_chemical_formula_sum   'Pr8 Si12 Ru1 Pt3'
_cell_volume   512.12677322
_cell_formula_units_Z   1
loop_
 _symmetry_equiv_pos_site_id
 _symmetry_equiv_pos_as_xyz
  1  'x, y, z'
loop_
 _atom_site_type_symbol
 _atom_site_label
 _atom_site_symmetry_multiplicity
 _atom_site_fract_x
 _atom_site_fract_y
 _atom_site_fract_z
 _atom_site_occupancy
  Pr  Pr0  1  0.501141  0.498859  0.754554  1
  Pr  Pr1  1  0.502144  0.497856  0.245672  1
  Pr  Pr2  1  0.997718  0.498859  0.754554  1
  Pr  Pr3  1  0.995710  0.497856  0.245672  1
  Pr  Pr4  1  0.501141  0.002282  0.754554  1
  Pr  Pr5  1  0.502144  0.004290  0.245672  1
  Pr  Pr6  1  0.000000  0.000000  0.750409  1
  Pr  Pr7  1  0.000000  0.000000  0.249280  1
  Si  Si8  1  0.832109  0.167891  0.000807  1
  Si  Si9  1  0.164778  0.835222  0.999258  1
  Si  Si10  1  0.335780  0.167891  0.000807  1
  Si  Si11  1  0.165511  0.834489  0.501095  1
  Si  Si12  1  0.670445  0.835222  0.999258  1
  Si  Si13  1  0.834324  0.165676  0.498875  1
  Si  Si14  1  0.832109  0.664220  0.000807  1
  Si  Si15  1  0.668979  0.834489  0.501095  1
  Si  Si16  1  0.164778  0.329555  0.999258  1
  Si  Si17  1  0.331351  0.165676  0.498875  1
  Si  Si18  1  0.165511  0.331021  0.501095  1
  Si  Si19  1  0.834324  0.668649  0.498875  1
  Ru  Ru20  1  0.666667  0.333333  0.997201  1
  Pt  Pt21  1  0.333333  0.666667  0.002568  1
  Pt  Pt22  1  0.333333  0.666667  0.497276  1
  Pt  Pt23  1  0.666667  0.333333  0.502481  1
