# generated using pymatgen
data_ErLu4Co19(SiP3)3
_symmetry_space_group_name_H-M   'P 1'
_cell_length_a   11.98000500
_cell_length_b   11.98000417
_cell_length_c   3.65396200
_cell_angle_alpha   90.00000000
_cell_angle_beta   90.00000000
_cell_angle_gamma   119.99999953
_symmetry_Int_Tables_number   1
_chemical_formula_structural   ErLu4Co19(SiP3)3
_chemical_formula_sum   'Er1 Lu4 Co19 Si3 P9'
_cell_volume   454.15973614
_cell_formula_units_Z   1
loop_
 _symmetry_equiv_pos_site_id
 _symmetry_equiv_pos_as_xyz
  1  'x, y, z'
loop_
 _atom_site_type_symbol
 _atom_site_label
 _atom_site_symmetry_multiplicity
 _atom_site_fract_x
 _atom_site_fract_y
 _atom_site_fract_z
 _atom_site_occupancy
  Er  Er0  1  0.333333  0.666667  0.500000  1
  Lu  Lu1  1  0.666667  0.333333  0.500000  1
  Lu  Lu2  1  0.184342  0.999926  0.000000  1
  Lu  Lu3  1  0.000074  0.184416  0.000000  1
  Lu  Lu4  1  0.815584  0.815658  0.000000  1
  Co  Co5  1  0.201305  0.376575  0.500000  1
  Co  Co6  1  0.623425  0.824729  0.500000  1
  Co  Co7  1  0.175271  0.798695  0.500000  1
  Co  Co8  1  0.824365  0.622690  0.500000  1
  Co  Co9  1  0.798324  0.175635  0.500000  1
  Co  Co10  1  0.377310  0.201676  0.500000  1
  Co  Co11  1  0.556223  0.999954  0.500000  1
  Co  Co12  1  0.000046  0.556269  0.500000  1
  Co  Co13  1  0.443731  0.443777  0.500000  1
  Co  Co14  1  0.127211  0.484553  0.000000  1
  Co  Co15  1  0.515447  0.642657  0.000000  1
  Co  Co16  1  0.357343  0.872789  0.000000  1
  Co  Co17  1  0.642663  0.514524  0.000000  1
  Co  Co18  1  0.871860  0.357337  0.000000  1
  Co  Co19  1  0.485476  0.128140  0.000000  1
  Co  Co20  1  0.716558  0.000469  0.000000  1
  Co  Co21  1  0.999531  0.716089  0.000000  1
  Co  Co22  1  0.283911  0.283442  0.000000  1
  Co  Co23  1  0.000000  0.000000  0.500000  1
  Si  Si24  1  0.367533  0.000093  0.500000  1
  Si  Si25  1  0.999907  0.367441  0.500000  1
  Si  Si26  1  0.632559  0.632467  0.500000  1
  P  P27  1  0.314728  0.479917  0.000000  1
  P  P28  1  0.520083  0.834811  0.000000  1
  P  P29  1  0.165189  0.685272  0.000000  1
  P  P30  1  0.833800  0.519077  0.000000  1
  P  P31  1  0.685277  0.166200  0.000000  1
  P  P32  1  0.480923  0.314723  0.000000  1
  P  P33  1  0.819889  0.000220  0.500000  1
  P  P34  1  0.999780  0.819668  0.500000  1
  P  P35  1  0.180332  0.180111  0.500000  1
