# generated using pymatgen
data_Cs3Ag2Br7
_symmetry_space_group_name_H-M   'P 1'
_cell_length_a   8.05407231
_cell_length_b   8.08038600
_cell_length_c   14.63231546
_cell_angle_alpha   90.00000000
_cell_angle_beta   74.02516037
_cell_angle_gamma   90.00000000
_symmetry_Int_Tables_number   1
_chemical_formula_structural   Cs3Ag2Br7
_chemical_formula_sum   'Cs6 Ag4 Br14'
_cell_volume   915.49708299
_cell_formula_units_Z   2
loop_
 _symmetry_equiv_pos_site_id
 _symmetry_equiv_pos_as_xyz
  1  'x, y, z'
loop_
 _atom_site_type_symbol
 _atom_site_label
 _atom_site_symmetry_multiplicity
 _atom_site_fract_x
 _atom_site_fract_y
 _atom_site_fract_z
 _atom_site_occupancy
  Cs  Cs0  1  0.427603  0.249999  0.144792  1
  Cs  Cs1  1  0.927603  0.749999  0.144792  1
  Cs  Cs2  1  0.750000  0.749999  0.499999  1
  Cs  Cs3  1  0.249999  0.249999  0.500001  1
  Cs  Cs4  1  0.072396  0.249999  0.855208  1
  Cs  Cs5  1  0.572396  0.749999  0.855208  1
  Ag  Ag6  1  0.845185  0.249999  0.309628  1
  Ag  Ag7  1  0.345185  0.749999  0.309628  1
  Ag  Ag8  1  0.654814  0.249999  0.690371  1
  Ag  Ag9  1  0.154814  0.749999  0.690372  1
  Br  Br10  1  0.940580  0.249999  0.118839  1
  Br  Br11  1  0.440580  0.749999  0.118840  1
  Br  Br12  1  0.615353  0.024079  0.318518  1
  Br  Br13  1  0.566128  0.524080  0.318518  1
  Br  Br14  1  0.115354  0.975920  0.318518  1
  Br  Br15  1  0.066128  0.475920  0.318518  1
  Br  Br16  1  0.250000  0.749999  0.500000  1
  Br  Br17  1  0.749999  0.249999  0.500000  1
  Br  Br18  1  0.884646  0.024079  0.681481  1
  Br  Br19  1  0.433873  0.475921  0.681481  1
  Br  Br20  1  0.933871  0.524080  0.681481  1
  Br  Br21  1  0.384646  0.975920  0.681481  1
  Br  Br22  1  0.559419  0.249999  0.881160  1
  Br  Br23  1  0.059419  0.749999  0.881160  1
