# generated using pymatgen
data_Zr10Co7Si20Os
_symmetry_space_group_name_H-M   'P 1'
_cell_length_a   12.08372046
_cell_length_b   12.07159149
_cell_length_c   3.95667900
_cell_angle_alpha   90.00000000
_cell_angle_beta   90.00000000
_cell_angle_gamma   90.10757403
_symmetry_Int_Tables_number   1
_chemical_formula_structural   Zr10Co7Si20Os
_chemical_formula_sum   'Zr10 Co7 Si20 Os1'
_cell_volume   577.15870811
_cell_formula_units_Z   1
loop_
 _symmetry_equiv_pos_site_id
 _symmetry_equiv_pos_as_xyz
  1  'x, y, z'
loop_
 _atom_site_type_symbol
 _atom_site_label
 _atom_site_symmetry_multiplicity
 _atom_site_fract_x
 _atom_site_fract_y
 _atom_site_fract_z
 _atom_site_occupancy
  Zr  Zr0  1  0.000115  0.000271  0.000000  1
  Zr  Zr1  1  0.499492  0.505228  0.000000  1
  Zr  Zr2  1  0.683084  0.176386  0.500000  1
  Zr  Zr3  1  0.173111  0.321364  0.500000  1
  Zr  Zr4  1  0.821198  0.678604  0.500000  1
  Zr  Zr5  1  0.321822  0.819159  0.500000  1
  Zr  Zr6  1  0.886804  0.386804  0.500000  1
  Zr  Zr7  1  0.384210  0.109790  0.500000  1
  Zr  Zr8  1  0.615717  0.884824  0.500000  1
  Zr  Zr9  1  0.110593  0.611755  0.500000  1
  Co  Co10  1  0.253033  0.475312  0.000000  1
  Co  Co11  1  0.744256  0.529899  0.000000  1
  Co  Co12  1  0.472533  0.744423  0.000000  1
  Co  Co13  1  0.973868  0.756969  0.000000  1
  Co  Co14  1  0.026093  0.243930  0.000000  1
  Co  Co15  1  0.758882  0.025438  0.000000  1
  Co  Co16  1  0.244273  0.973541  0.000000  1
  Si  Si17  1  0.572292  0.060743  0.000000  1
  Si  Si18  1  0.066770  0.432535  0.000000  1
  Si  Si19  1  0.931669  0.569975  0.000000  1
  Si  Si20  1  0.430965  0.930312  0.000000  1
  Si  Si21  1  0.196297  0.153490  0.000000  1
  Si  Si22  1  0.154421  0.801109  0.000000  1
  Si  Si23  1  0.847453  0.198997  0.000000  1
  Si  Si24  1  0.802006  0.845271  0.000000  1
  Si  Si25  1  0.299241  0.653841  0.000000  1
  Si  Si26  1  0.705009  0.348183  0.000000  1
  Si  Si27  1  0.654181  0.701132  0.000000  1
  Si  Si28  1  0.335585  0.301278  0.000000  1
  Si  Si29  1  0.997096  0.165352  0.500000  1
  Si  Si30  1  0.163734  0.994012  0.500000  1
  Si  Si31  1  0.836977  0.998028  0.500000  1
  Si  Si32  1  0.001023  0.834487  0.500000  1
  Si  Si33  1  0.503663  0.668242  0.500000  1
  Si  Si34  1  0.509111  0.349107  0.500000  1
  Si  Si35  1  0.666380  0.500392  0.500000  1
  Si  Si36  1  0.332867  0.496331  0.500000  1
  Os  Os37  1  0.524176  0.253490  0.000000  1
