# generated using pymatgen
data_Pr4Ga4IrPdRh2
_symmetry_space_group_name_H-M   'P 1'
_cell_length_a   4.46817200
_cell_length_b   7.14096907
_cell_length_c   7.87997842
_cell_angle_alpha   89.98124273
_cell_angle_beta   90.00000000
_cell_angle_gamma   90.00000000
_symmetry_Int_Tables_number   1
_chemical_formula_structural   Pr4Ga4IrPdRh2
_chemical_formula_sum   'Pr4 Ga4 Ir1 Pd1 Rh2'
_cell_volume   251.42707319
_cell_formula_units_Z   1
loop_
 _symmetry_equiv_pos_site_id
 _symmetry_equiv_pos_as_xyz
  1  'x, y, z'
loop_
 _atom_site_type_symbol
 _atom_site_label
 _atom_site_symmetry_multiplicity
 _atom_site_fract_x
 _atom_site_fract_y
 _atom_site_fract_z
 _atom_site_occupancy
  Pr  Pr0  1  0.250000  0.024921  0.685710  1
  Pr  Pr1  1  0.250000  0.532781  0.811289  1
  Pr  Pr2  1  0.750000  0.972279  0.310474  1
  Pr  Pr3  1  0.750000  0.476912  0.193479  1
  Ga  Ga4  1  0.250000  0.154653  0.073861  1
  Ga  Ga5  1  0.250000  0.655677  0.428020  1
  Ga  Ga6  1  0.750000  0.838084  0.928099  1
  Ga  Ga7  1  0.750000  0.346490  0.568618  1
  Ir  Ir8  1  0.750000  0.720838  0.608201  1
  Pd  Pd9  1  0.750000  0.216885  0.892382  1
  Rh  Rh10  1  0.250000  0.279506  0.393130  1
  Rh  Rh11  1  0.250000  0.780973  0.106739  1
