# generated using pymatgen
data_Th14Tc2Ir3Rh
_symmetry_space_group_name_H-M   'P 1'
_cell_length_a   10.02796579
_cell_length_b   10.06547648
_cell_length_c   6.33871177
_cell_angle_alpha   89.99999640
_cell_angle_beta   90.00310193
_cell_angle_gamma   120.12381314
_symmetry_Int_Tables_number   1
_chemical_formula_structural   Th14Tc2Ir3Rh
_chemical_formula_sum   'Th14 Tc2 Ir3 Rh1'
_cell_volume   553.39550546
_cell_formula_units_Z   1
loop_
 _symmetry_equiv_pos_site_id
 _symmetry_equiv_pos_as_xyz
  1  'x, y, z'
loop_
 _atom_site_type_symbol
 _atom_site_label
 _atom_site_symmetry_multiplicity
 _atom_site_fract_x
 _atom_site_fract_y
 _atom_site_fract_z
 _atom_site_occupancy
  Th  Th0  1  0.461285  0.542477  0.294819  1
  Th  Th1  1  0.079708  0.539854  0.296923  1
  Th  Th2  1  0.913924  0.456961  0.798192  1
  Th  Th3  1  0.255560  0.127780  0.500512  1
  Th  Th4  1  0.543567  0.084013  0.796754  1
  Th  Th5  1  0.752847  0.876423  0.000449  1
  Th  Th6  1  0.667662  0.333830  0.290742  1
  Th  Th7  1  0.122413  0.870095  0.000312  1
  Th  Th8  1  0.461285  0.918809  0.294819  1
  Th  Th9  1  0.543567  0.459553  0.796754  1
  Th  Th10  1  0.873433  0.127898  0.499902  1
  Th  Th11  1  0.122413  0.252318  0.000312  1
  Th  Th12  1  0.873433  0.745535  0.499902  1
  Th  Th13  1  0.333877  0.666940  0.804239  1
  Tc  Tc14  1  0.811230  0.629064  0.048378  1
  Tc  Tc15  1  0.811230  0.182164  0.048378  1
  Ir  Ir16  1  0.370797  0.185398  0.052436  1
  Ir  Ir17  1  0.189323  0.377080  0.553654  1
  Ir  Ir18  1  0.189323  0.812243  0.553654  1
  Rh  Rh19  1  0.623128  0.811564  0.552866  1
