# generated using pymatgen
data_Er6Hg9Pb
_symmetry_space_group_name_H-M   'P 1'
_cell_length_a   6.32425864
_cell_length_b   6.32426048
_cell_length_c   10.29800837
_cell_angle_alpha   89.16299182
_cell_angle_beta   89.16298975
_cell_angle_gamma   104.66648100
_symmetry_Int_Tables_number   1
_chemical_formula_structural   Er6Hg9Pb
_chemical_formula_sum   'Er6 Hg9 Pb1'
_cell_volume   398.34719599
_cell_formula_units_Z   1
loop_
 _symmetry_equiv_pos_site_id
 _symmetry_equiv_pos_as_xyz
  1  'x, y, z'
loop_
 _atom_site_type_symbol
 _atom_site_label
 _atom_site_symmetry_multiplicity
 _atom_site_fract_x
 _atom_site_fract_y
 _atom_site_fract_z
 _atom_site_occupancy
  Er  Er0  1  0.592186  0.592186  0.253310  1
  Er  Er1  1  0.412913  0.412913  0.741815  1
  Er  Er2  1  0.214539  0.788092  0.500874  1
  Er  Er3  1  0.202102  0.785692  0.998002  1
  Er  Er4  1  0.788092  0.214539  0.500874  1
  Er  Er5  1  0.785692  0.202102  0.998002  1
  Hg  Hg6  1  0.981906  0.981905  0.254941  1
  Hg  Hg7  1  0.016139  0.016138  0.741416  1
  Hg  Hg8  1  0.699749  0.699749  0.964791  1
  Hg  Hg9  1  0.300130  0.300130  0.468170  1
  Hg  Hg10  1  0.703814  0.703814  0.530850  1
  Hg  Hg11  1  0.490492  0.048082  0.256512  1
  Hg  Hg12  1  0.951701  0.510798  0.749767  1
  Hg  Hg13  1  0.510798  0.951701  0.749767  1
  Hg  Hg14  1  0.048082  0.490492  0.256512  1
  Pb  Pb15  1  0.301667  0.301667  0.034398  1
