# generated using pymatgen
data_Np2Ta3Si4
_symmetry_space_group_name_H-M   'P 1'
_cell_length_a   7.01921430
_cell_length_b   7.03068600
_cell_length_c   6.86425805
_cell_angle_alpha   90.00000000
_cell_angle_beta   109.43717273
_cell_angle_gamma   90.00000000
_symmetry_Int_Tables_number   1
_chemical_formula_structural   Np2Ta3Si4
_chemical_formula_sum   'Np4 Ta6 Si8'
_cell_volume   319.44397625
_cell_formula_units_Z   2
loop_
 _symmetry_equiv_pos_site_id
 _symmetry_equiv_pos_as_xyz
  1  'x, y, z'
loop_
 _atom_site_type_symbol
 _atom_site_label
 _atom_site_symmetry_multiplicity
 _atom_site_fract_x
 _atom_site_fract_y
 _atom_site_fract_z
 _atom_site_occupancy
  Np  Np0  1  0.681267  0.335805  0.060907  1
  Np  Np1  1  0.318733  0.835805  0.439093  1
  Np  Np2  1  0.681268  0.164196  0.560908  1
  Np  Np3  1  0.318733  0.664195  0.939093  1
  Ta  Ta4  1  0.000000  0.000000  0.000000  1
  Ta  Ta5  1  0.248048  0.324004  0.251111  1
  Ta  Ta6  1  0.751952  0.824003  0.248889  1
  Ta  Ta7  1  0.000000  0.500000  0.499999  1
  Ta  Ta8  1  0.248048  0.175997  0.751110  1
  Ta  Ta9  1  0.751953  0.675997  0.748890  1
  Si  Si10  1  0.416210  0.037344  0.132563  1
  Si  Si11  1  0.009330  0.627999  0.130783  1
  Si  Si12  1  0.990670  0.127999  0.369215  1
  Si  Si13  1  0.583790  0.537344  0.367437  1
  Si  Si14  1  0.416210  0.462655  0.632563  1
  Si  Si15  1  0.009330  0.872001  0.630784  1
  Si  Si16  1  0.990669  0.372002  0.869216  1
  Si  Si17  1  0.583789  0.962656  0.867438  1
