# generated using pymatgen
data_DyCd2SbO6
_symmetry_space_group_name_H-M   'P 1'
_cell_length_a   6.56880550
_cell_length_b   6.62984314
_cell_length_c   6.60443122
_cell_angle_alpha   90.83750435
_cell_angle_beta   90.79161544
_cell_angle_gamma   90.95568260
_symmetry_Int_Tables_number   1
_chemical_formula_structural   DyCd2SbO6
_chemical_formula_sum   'Dy2 Cd4 Sb2 O12'
_cell_volume   287.52480202
_cell_formula_units_Z   2
loop_
 _symmetry_equiv_pos_site_id
 _symmetry_equiv_pos_as_xyz
  1  'x, y, z'
loop_
 _atom_site_type_symbol
 _atom_site_label
 _atom_site_symmetry_multiplicity
 _atom_site_fract_x
 _atom_site_fract_y
 _atom_site_fract_z
 _atom_site_occupancy
  Dy  Dy0  1  0.061342  0.750038  0.563210  1
  Dy  Dy1  1  0.748911  0.562585  0.059834  1
  Cd  Cd2  1  0.561948  0.050207  0.747667  1
  Cd  Cd3  1  0.945210  0.246591  0.440317  1
  Cd  Cd4  1  0.251532  0.431208  0.947984  1
  Cd  Cd5  1  0.440698  0.958842  0.251183  1
  Sb  Sb6  1  0.500777  0.501267  0.501755  1
  Sb  Sb7  1  0.999719  0.001765  0.001220  1
  O  O8  1  0.035766  0.704857  0.910674  1
  O  O9  1  0.708876  0.905997  0.040404  1
  O  O10  1  0.922092  0.032336  0.707034  1
  O  O11  1  0.944628  0.288622  0.081137  1
  O  O12  1  0.291166  0.083195  0.958471  1
  O  O13  1  0.075016  0.946202  0.289693  1
  O  O14  1  0.793880  0.580041  0.423657  1
  O  O15  1  0.575592  0.448333  0.792636  1
  O  O16  1  0.415789  0.790214  0.560987  1
  O  O17  1  0.207532  0.436883  0.571363  1
  O  O18  1  0.439310  0.565878  0.209326  1
  O  O19  1  0.580214  0.214942  0.441449  1
