# generated using pymatgen
data_NaEr3P6N13
_symmetry_space_group_name_H-M   'P 1'
_cell_length_a   7.30543881
_cell_length_b   7.30543978
_cell_length_c   7.30544000
_cell_angle_alpha   108.88031949
_cell_angle_beta   108.88032210
_cell_angle_gamma   108.88031184
_symmetry_Int_Tables_number   1
_chemical_formula_structural   NaEr3P6N13
_chemical_formula_sum   'Na1 Er3 P6 N13'
_cell_volume   306.52574622
_cell_formula_units_Z   1
loop_
 _symmetry_equiv_pos_site_id
 _symmetry_equiv_pos_as_xyz
  1  'x, y, z'
loop_
 _atom_site_type_symbol
 _atom_site_label
 _atom_site_symmetry_multiplicity
 _atom_site_fract_x
 _atom_site_fract_y
 _atom_site_fract_z
 _atom_site_occupancy
  Na  Na0  1  0.301467  0.301467  0.301467  1
  Er  Er1  1  0.694037  0.004373  0.004373  1
  Er  Er2  1  0.004373  0.004373  0.694037  1
  Er  Er3  1  0.004373  0.694037  0.004373  1
  P  P4  1  0.248075  0.752568  0.503329  1
  P  P5  1  0.752568  0.248075  0.503329  1
  P  P6  1  0.752568  0.503329  0.248075  1
  P  P7  1  0.248075  0.503329  0.752568  1
  P  P8  1  0.503329  0.752568  0.248075  1
  P  P9  1  0.503329  0.248075  0.752568  1
  N  N10  1  0.969621  0.969621  0.969621  1
  N  N11  1  0.735857  0.297802  0.297802  1
  N  N12  1  0.297802  0.735857  0.297802  1
  N  N13  1  0.282336  0.573625  0.573625  1
  N  N14  1  0.573625  0.573625  0.282336  1
  N  N15  1  0.406963  0.725318  0.996289  1
  N  N16  1  0.996289  0.725318  0.406963  1
  N  N17  1  0.573625  0.282336  0.573625  1
  N  N18  1  0.725318  0.996289  0.406963  1
  N  N19  1  0.406963  0.996289  0.725318  1
  N  N20  1  0.725318  0.406963  0.996289  1
  N  N21  1  0.297802  0.297802  0.735857  1
  N  N22  1  0.996289  0.406963  0.725318  1
