# generated using pymatgen
data_NdZnInRh2
_symmetry_space_group_name_H-M   'P 1'
_cell_length_a   5.47101462
_cell_length_b   5.47101582
_cell_length_c   5.47101510
_cell_angle_alpha   136.78767524
_cell_angle_beta   115.59663880
_cell_angle_gamma   80.74352071
_symmetry_Int_Tables_number   1
_chemical_formula_structural   NdZnInRh2
_chemical_formula_sum   'Nd1 Zn1 In1 Rh2'
_cell_volume   97.92575819
_cell_formula_units_Z   1
loop_
 _symmetry_equiv_pos_site_id
 _symmetry_equiv_pos_as_xyz
  1  'x, y, z'
loop_
 _atom_site_type_symbol
 _atom_site_label
 _atom_site_symmetry_multiplicity
 _atom_site_fract_x
 _atom_site_fract_y
 _atom_site_fract_z
 _atom_site_occupancy
  Nd  Nd0  1  0.301850  0.801851  0.500000  1
  Zn  Zn1  1  0.981944  0.981944  0.000000  1
  In  In2  1  0.703640  0.203640  0.500001  1
  Rh  Rh3  1  0.742900  0.506283  0.236617  1
  Rh  Rh4  1  0.269667  0.506283  0.763384  1
