# generated using pymatgen
data_La4TbY(AlI)4
_symmetry_space_group_name_H-M   'P 1'
_cell_length_a   9.95213948
_cell_length_b   9.95213988
_cell_length_c   12.23268703
_cell_angle_alpha   59.73429313
_cell_angle_beta   59.73429290
_cell_angle_gamma   25.10137327
_symmetry_Int_Tables_number   1
_chemical_formula_structural   La4TbY(AlI)4
_chemical_formula_sum   'La4 Tb1 Y1 Al4 I4'
_cell_volume   440.16205330
_cell_formula_units_Z   1
loop_
 _symmetry_equiv_pos_site_id
 _symmetry_equiv_pos_as_xyz
  1  'x, y, z'
loop_
 _atom_site_type_symbol
 _atom_site_label
 _atom_site_symmetry_multiplicity
 _atom_site_fract_x
 _atom_site_fract_y
 _atom_site_fract_z
 _atom_site_occupancy
  La  La0  1  0.754200  0.754200  0.802020  1
  La  La1  1  0.245862  0.245862  0.197930  1
  La  La2  1  0.535005  0.535005  0.309763  1
  La  La3  1  0.464964  0.464964  0.690138  1
  Tb  Tb4  1  0.169643  0.169643  0.607702  1
  Y  Y5  1  0.830295  0.830295  0.392662  1
  Al  Al6  1  0.925616  0.925616  0.529894  1
  Al  Al7  1  0.074455  0.074455  0.469924  1
  Al  Al8  1  0.336564  0.336564  0.579622  1
  Al  Al9  1  0.663457  0.663457  0.420255  1
  I  I10  1  0.420946  0.420946  0.177644  1
  I  I11  1  0.578949  0.578949  0.822525  1
  I  I12  1  0.860319  0.860319  0.942661  1
  I  I13  1  0.139724  0.139724  0.057261  1
