# generated using pymatgen
data_TbSm5CoBr10
_symmetry_space_group_name_H-M   'P 1'
_cell_length_a   7.46268477
_cell_length_b   9.23345262
_cell_length_c   9.39105299
_cell_angle_alpha   108.55614898
_cell_angle_beta   96.97034374
_cell_angle_gamma   105.47570858
_symmetry_Int_Tables_number   1
_chemical_formula_structural   TbSm5CoBr10
_chemical_formula_sum   'Tb1 Sm5 Co1 Br10'
_cell_volume   575.95533922
_cell_formula_units_Z   1
loop_
 _symmetry_equiv_pos_site_id
 _symmetry_equiv_pos_as_xyz
  1  'x, y, z'
loop_
 _atom_site_type_symbol
 _atom_site_label
 _atom_site_symmetry_multiplicity
 _atom_site_fract_x
 _atom_site_fract_y
 _atom_site_fract_z
 _atom_site_occupancy
  Tb  Tb0  1  0.642616  0.866198  0.322069  1
  Sm  Sm1  1  0.028861  0.711990  0.409323  1
  Sm  Sm2  1  0.969208  0.287249  0.589189  1
  Sm  Sm3  1  0.873502  0.952435  0.744741  1
  Sm  Sm4  1  0.123347  0.045770  0.253928  1
  Sm  Sm5  1  0.361910  0.136111  0.680631  1
  Co  Co6  1  0.999645  0.999693  0.500064  1
  Br  Br7  1  0.452771  0.819709  0.579649  1
  Br  Br8  1  0.548327  0.175234  0.414514  1
  Br  Br9  1  0.914337  0.629716  0.672171  1
  Br  Br10  1  0.085548  0.370161  0.327503  1
  Br  Br11  1  0.252763  0.084800  0.956488  1
  Br  Br12  1  0.742810  0.913338  0.046366  1
  Br  Br13  1  0.354349  0.458071  0.772850  1
  Br  Br14  1  0.642145  0.547096  0.227001  1
  Br  Br15  1  0.791310  0.260159  0.850031  1
  Br  Br16  1  0.216552  0.742270  0.153482  1
