# generated using pymatgen
data_Tm(Ta3N4)3
_symmetry_space_group_name_H-M   'P 1'
_cell_length_a   5.27373700
_cell_length_b   5.27372943
_cell_length_c   10.50246900
_cell_angle_alpha   90.00001905
_cell_angle_beta   89.99997277
_cell_angle_gamma   120.00020993
_symmetry_Int_Tables_number   1
_chemical_formula_structural   Tm(Ta3N4)3
_chemical_formula_sum   'Tm1 Ta9 N12'
_cell_volume   252.96325093
_cell_formula_units_Z   1
loop_
 _symmetry_equiv_pos_site_id
 _symmetry_equiv_pos_as_xyz
  1  'x, y, z'
loop_
 _atom_site_type_symbol
 _atom_site_label
 _atom_site_symmetry_multiplicity
 _atom_site_fract_x
 _atom_site_fract_y
 _atom_site_fract_z
 _atom_site_occupancy
  Tm  Tm0  1  0.333331  0.666670  0.999999  1
  Ta  Ta1  1  0.666667  0.333332  0.499999  1
  Ta  Ta2  1  0.666666  0.333334  0.000001  1
  Ta  Ta3  1  0.333333  0.666666  0.500000  1
  Ta  Ta4  1  0.322186  0.997912  0.254409  1
  Ta  Ta5  1  0.675729  0.997915  0.745590  1
  Ta  Ta6  1  0.002086  0.324273  0.254409  1
  Ta  Ta7  1  0.675726  0.677813  0.254410  1
  Ta  Ta8  1  0.322188  0.324275  0.745590  1
  Ta  Ta9  1  0.002088  0.677813  0.745591  1
  N  N10  1  0.341263  0.000510  0.618089  1
  N  N11  1  0.664090  0.015421  0.129643  1
  N  N12  1  0.999491  0.340753  0.618090  1
  N  N13  1  0.659249  0.658737  0.618090  1
  N  N14  1  0.351333  0.335912  0.129642  1
  N  N15  1  0.984574  0.648665  0.129644  1
  N  N16  1  0.351335  0.015425  0.870356  1
  N  N17  1  0.664090  0.648667  0.870357  1
  N  N18  1  0.984578  0.335909  0.870356  1
  N  N19  1  0.999488  0.658735  0.381910  1
  N  N20  1  0.341262  0.340751  0.381910  1
  N  N21  1  0.659247  0.000509  0.381910  1
