# generated using pymatgen
data_BaFeNi(Sb6Os)2
_symmetry_space_group_name_H-M   'P 1'
_cell_length_a   8.09560767
_cell_length_b   8.13451814
_cell_length_c   8.08591013
_cell_angle_alpha   109.48729692
_cell_angle_beta   109.17708891
_cell_angle_gamma   109.48653399
_symmetry_Int_Tables_number   1
_chemical_formula_structural   BaFeNi(Sb6Os)2
_chemical_formula_sum   'Ba1 Fe1 Ni1 Sb12 Os2'
_cell_volume   411.23059495
_cell_formula_units_Z   1
loop_
 _symmetry_equiv_pos_site_id
 _symmetry_equiv_pos_as_xyz
  1  'x, y, z'
loop_
 _atom_site_type_symbol
 _atom_site_label
 _atom_site_symmetry_multiplicity
 _atom_site_fract_x
 _atom_site_fract_y
 _atom_site_fract_z
 _atom_site_occupancy
  Ba  Ba0  1  0.000000  0.000000  0.000000  1
  Fe  Fe1  1  0.500000  0.500000  0.500000  1
  Ni  Ni2  1  0.000000  0.500000  0.000000  1
  Sb  Sb3  1  0.344793  0.168164  0.500414  1
  Sb  Sb4  1  0.341465  0.839795  0.185280  1
  Sb  Sb5  1  0.658535  0.160205  0.814720  1
  Sb  Sb6  1  0.815127  0.655427  0.156815  1
  Sb  Sb7  1  0.165460  0.500063  0.344132  1
  Sb  Sb8  1  0.499703  0.656682  0.833195  1
  Sb  Sb9  1  0.841305  0.183823  0.343189  1
  Sb  Sb10  1  0.655207  0.831836  0.499586  1
  Sb  Sb11  1  0.184873  0.344573  0.843185  1
  Sb  Sb12  1  0.158695  0.816177  0.656811  1
  Sb  Sb13  1  0.500297  0.343318  0.166805  1
  Sb  Sb14  1  0.834540  0.499937  0.655868  1
  Os  Os15  1  0.500000  0.000000  0.000000  1
  Os  Os16  1  0.000000  0.000000  0.500000  1
