# generated using pymatgen
data_AcCrCo(Sb6Os)2
_symmetry_space_group_name_H-M   'P 1'
_cell_length_a   8.13037405
_cell_length_b   8.19214925
_cell_length_c   8.13303827
_cell_angle_alpha   109.62231291
_cell_angle_beta   109.35977718
_cell_angle_gamma   109.68401904
_symmetry_Int_Tables_number   1
_chemical_formula_structural   AcCrCo(Sb6Os)2
_chemical_formula_sum   'Ac1 Cr1 Co1 Sb12 Os2'
_cell_volume   415.69604894
_cell_formula_units_Z   1
loop_
 _symmetry_equiv_pos_site_id
 _symmetry_equiv_pos_as_xyz
  1  'x, y, z'
loop_
 _atom_site_type_symbol
 _atom_site_label
 _atom_site_symmetry_multiplicity
 _atom_site_fract_x
 _atom_site_fract_y
 _atom_site_fract_z
 _atom_site_occupancy
  Ac  Ac0  1  0.000000  0.000000  0.000000  1
  Cr  Cr1  1  0.500000  0.500000  0.500000  1
  Co  Co2  1  0.000000  0.500000  0.000000  1
  Sb  Sb3  1  0.342518  0.184271  0.843494  1
  Sb  Sb4  1  0.657482  0.815729  0.156506  1
  Sb  Sb5  1  0.669057  0.503368  0.846740  1
  Sb  Sb6  1  0.330943  0.496632  0.153260  1
  Sb  Sb7  1  0.178699  0.836590  0.333904  1
  Sb  Sb8  1  0.821301  0.163410  0.666096  1
  Sb  Sb9  1  0.501467  0.842065  0.659640  1
  Sb  Sb10  1  0.498533  0.157935  0.340360  1
  Sb  Sb11  1  0.845431  0.343334  0.179098  1
  Sb  Sb12  1  0.154569  0.656666  0.820902  1
  Sb  Sb13  1  0.842858  0.660842  0.501917  1
  Sb  Sb14  1  0.157142  0.339158  0.498083  1
  Os  Os15  1  0.000000  0.000000  0.500000  1
  Os  Os16  1  0.500000  0.000000  0.000000  1
