# generated using pymatgen
data_Mg3Al3(Pd2Pt3)2
_symmetry_space_group_name_H-M   'P 1'
_cell_length_a   4.09533400
_cell_length_b   5.51817389
_cell_length_c   10.76295431
_cell_angle_alpha   90.49684957
_cell_angle_beta   90.00000000
_cell_angle_gamma   90.00000000
_symmetry_Int_Tables_number   1
_chemical_formula_structural   Mg3Al3(Pd2Pt3)2
_chemical_formula_sum   'Mg3 Al3 Pd4 Pt6'
_cell_volume   243.22033190
_cell_formula_units_Z   1
loop_
 _symmetry_equiv_pos_site_id
 _symmetry_equiv_pos_as_xyz
  1  'x, y, z'
loop_
 _atom_site_type_symbol
 _atom_site_label
 _atom_site_symmetry_multiplicity
 _atom_site_fract_x
 _atom_site_fract_y
 _atom_site_fract_z
 _atom_site_occupancy
  Mg  Mg0  1  0.500000  0.172469  0.359112  1
  Mg  Mg1  1  0.500000  0.834530  0.638791  1
  Mg  Mg2  1  0.500000  0.670289  0.139701  1
  Al  Al3  1  0.000000  0.984803  0.002980  1
  Al  Al4  1  0.000000  0.499297  0.499507  1
  Al  Al5  1  0.500000  0.333083  0.858155  1
  Pd  Pd6  1  0.000000  0.003371  0.502688  1
  Pd  Pd7  1  0.000000  0.482196  0.992780  1
  Pd  Pd8  1  0.000000  0.422268  0.258857  1
  Pd  Pd9  1  0.000000  0.589611  0.737656  1
  Pt  Pt10  1  0.500000  0.183470  0.100811  1
  Pt  Pt11  1  0.500000  0.804136  0.892066  1
  Pt  Pt12  1  0.500000  0.683769  0.394190  1
  Pt  Pt13  1  0.500000  0.320557  0.611935  1
  Pt  Pt14  1  0.000000  0.922153  0.239543  1
  Pt  Pt15  1  0.000000  0.093999  0.771226  1
