# generated using pymatgen
data_Nd4Y2CoCl10
_symmetry_space_group_name_H-M   'P 1'
_cell_length_a   7.23113247
_cell_length_b   9.02992226
_cell_length_c   9.21761776
_cell_angle_alpha   108.88245680
_cell_angle_beta   94.87983204
_cell_angle_gamma   105.45336137
_symmetry_Int_Tables_number   1
_chemical_formula_structural   Nd4Y2CoCl10
_chemical_formula_sum   'Nd4 Y2 Co1 Cl10'
_cell_volume   539.13030640
_cell_formula_units_Z   1
loop_
 _symmetry_equiv_pos_site_id
 _symmetry_equiv_pos_as_xyz
  1  'x, y, z'
loop_
 _atom_site_type_symbol
 _atom_site_label
 _atom_site_symmetry_multiplicity
 _atom_site_fract_x
 _atom_site_fract_y
 _atom_site_fract_z
 _atom_site_occupancy
  Nd  Nd0  1  0.466506  0.794696  0.595539  1
  Nd  Nd1  1  0.533494  0.205304  0.404461  1
  Nd  Nd2  1  0.358344  0.445039  0.749110  1
  Nd  Nd3  1  0.641656  0.554961  0.250890  1
  Y  Y4  1  0.857649  0.633083  0.678912  1
  Y  Y5  1  0.142351  0.366917  0.321088  1
  Co  Co6  1  0.500000  0.500000  0.500000  1
  Cl  Cl7  1  0.412933  0.131835  0.667052  1
  Cl  Cl8  1  0.587067  0.868165  0.332948  1
  Cl  Cl9  1  0.050502  0.670209  0.424116  1
  Cl  Cl10  1  0.949498  0.329791  0.575884  1
  Cl  Cl11  1  0.258603  0.743108  0.836721  1
  Cl  Cl12  1  0.741397  0.256892  0.163279  1
  Cl  Cl13  1  0.260335  0.422514  0.063033  1
  Cl  Cl14  1  0.739665  0.577486  0.936967  1
  Cl  Cl15  1  0.847898  0.938605  0.764545  1
  Cl  Cl16  1  0.152102  0.061395  0.235455  1
