# generated using pymatgen
data_Tb5Dy2YIn8
_symmetry_space_group_name_H-M   'P 1'
_cell_length_a   6.53023413
_cell_length_b   6.53023485
_cell_length_c   10.43645600
_cell_angle_alpha   90.00000000
_cell_angle_beta   90.00000000
_cell_angle_gamma   104.76070744
_symmetry_Int_Tables_number   1
_chemical_formula_structural   Tb5Dy2YIn8
_chemical_formula_sum   'Tb5 Dy2 Y1 In8'
_cell_volume   430.36438996
_cell_formula_units_Z   1
loop_
 _symmetry_equiv_pos_site_id
 _symmetry_equiv_pos_as_xyz
  1  'x, y, z'
loop_
 _atom_site_type_symbol
 _atom_site_label
 _atom_site_symmetry_multiplicity
 _atom_site_fract_x
 _atom_site_fract_y
 _atom_site_fract_z
 _atom_site_occupancy
  Tb  Tb0  1  0.481597  0.481597  0.750000  1
  Tb  Tb1  1  0.247416  0.752582  0.500031  1
  Tb  Tb2  1  0.247416  0.752582  0.999969  1
  Tb  Tb3  1  0.752582  0.247416  0.500031  1
  Tb  Tb4  1  0.752582  0.247416  0.999969  1
  Dy  Dy5  1  0.986258  0.986258  0.250000  1
  Dy  Dy6  1  0.013807  0.013807  0.750000  1
  Y  Y7  1  0.518223  0.518223  0.250000  1
  In  In8  1  0.252516  0.252516  0.010483  1
  In  In9  1  0.747560  0.747560  0.989847  1
  In  In10  1  0.252516  0.252516  0.489517  1
  In  In11  1  0.747560  0.747560  0.510153  1
  In  In12  1  0.490733  0.011824  0.250000  1
  In  In13  1  0.988137  0.509271  0.750000  1
  In  In14  1  0.509271  0.988137  0.750000  1
  In  In15  1  0.011824  0.490733  0.250000  1
