# generated using pymatgen
data_Ti4Si3AsRh4
_symmetry_space_group_name_H-M   'P 1'
_cell_length_a   3.83328200
_cell_length_b   6.31211941
_cell_length_c   7.33355178
_cell_angle_alpha   89.58134060
_cell_angle_beta   90.00000000
_cell_angle_gamma   90.00000000
_symmetry_Int_Tables_number   1
_chemical_formula_structural   Ti4Si3AsRh4
_chemical_formula_sum   'Ti4 Si3 As1 Rh4'
_cell_volume   177.43886257
_cell_formula_units_Z   1
loop_
 _symmetry_equiv_pos_site_id
 _symmetry_equiv_pos_as_xyz
  1  'x, y, z'
loop_
 _atom_site_type_symbol
 _atom_site_label
 _atom_site_symmetry_multiplicity
 _atom_site_fract_x
 _atom_site_fract_y
 _atom_site_fract_z
 _atom_site_occupancy
  Ti  Ti0  1  0.750000  0.025529  0.681922  1
  Ti  Ti1  1  0.250000  0.969534  0.315541  1
  Ti  Ti2  1  0.250000  0.475347  0.181823  1
  Ti  Ti3  1  0.750000  0.527214  0.819173  1
  Si  Si4  1  0.250000  0.232614  0.879267  1
  Si  Si5  1  0.750000  0.765680  0.119996  1
  Si  Si6  1  0.250000  0.736313  0.623206  1
  As  As7  1  0.750000  0.258488  0.376311  1
  Rh  Rh8  1  0.750000  0.149691  0.053923  1
  Rh  Rh9  1  0.250000  0.847494  0.936520  1
  Rh  Rh10  1  0.250000  0.355305  0.573553  1
  Rh  Rh11  1  0.750000  0.656790  0.438766  1
