# generated using pymatgen
data_Yb2YGa9Cu2
_symmetry_space_group_name_H-M   'P 1'
_cell_length_a   8.09794041
_cell_length_b   8.09793997
_cell_length_c   8.09793982
_cell_angle_alpha   149.06822384
_cell_angle_beta   107.71564403
_cell_angle_gamma   80.67275062
_symmetry_Int_Tables_number   1
_chemical_formula_structural   Yb2YGa9Cu2
_chemical_formula_sum   'Yb2 Y1 Ga9 Cu2'
_cell_volume   254.65307892
_cell_formula_units_Z   1
loop_
 _symmetry_equiv_pos_site_id
 _symmetry_equiv_pos_as_xyz
  1  'x, y, z'
loop_
 _atom_site_type_symbol
 _atom_site_label
 _atom_site_symmetry_multiplicity
 _atom_site_fract_x
 _atom_site_fract_y
 _atom_site_fract_z
 _atom_site_occupancy
  Yb  Yb0  1  0.311166  0.311166  0.000000  1
  Yb  Yb1  1  0.688834  0.688834  0.000000  1
  Y  Y2  1  0.000000  0.000000  0.000000  1
  Ga  Ga3  1  0.706585  0.337991  0.368594  1
  Ga  Ga4  1  0.293415  0.662009  0.631406  1
  Ga  Ga5  1  0.969399  0.337991  0.631406  1
  Ga  Ga6  1  0.030601  0.662009  0.368594  1
  Ga  Ga7  1  0.415492  0.134403  0.281088  1
  Ga  Ga8  1  0.584508  0.865597  0.718912  1
  Ga  Ga9  1  0.853315  0.134403  0.718912  1
  Ga  Ga10  1  0.146685  0.865597  0.281088  1
  Ga  Ga11  1  0.500000  0.000000  0.500000  1
  Cu  Cu12  1  0.709568  0.500000  0.209568  1
  Cu  Cu13  1  0.290432  0.500000  0.790432  1
