# generated using pymatgen
data_Dy2InCuRh
_symmetry_space_group_name_H-M   'P 1'
_cell_length_a   7.58413100
_cell_length_b   7.58905400
_cell_length_c   3.72379900
_cell_angle_alpha   90.00000000
_cell_angle_beta   90.00000000
_cell_angle_gamma   90.00000000
_symmetry_Int_Tables_number   1
_chemical_formula_structural   Dy2InCuRh
_chemical_formula_sum   'Dy4 In2 Cu2 Rh2'
_cell_volume   214.32838918
_cell_formula_units_Z   2
loop_
 _symmetry_equiv_pos_site_id
 _symmetry_equiv_pos_as_xyz
  1  'x, y, z'
loop_
 _atom_site_type_symbol
 _atom_site_label
 _atom_site_symmetry_multiplicity
 _atom_site_fract_x
 _atom_site_fract_y
 _atom_site_fract_z
 _atom_site_occupancy
  Dy  Dy0  1  0.686960  0.171738  0.500000  1
  Dy  Dy1  1  0.339218  0.823831  0.500000  1
  Dy  Dy2  1  0.813040  0.671738  0.500000  1
  Dy  Dy3  1  0.160782  0.323831  0.500000  1
  In  In4  1  0.495199  0.495553  0.000000  1
  In  In5  1  0.004801  0.995553  0.000000  1
  Cu  Cu6  1  0.381670  0.128033  0.000000  1
  Cu  Cu7  1  0.118330  0.628033  0.000000  1
  Rh  Rh8  1  0.881068  0.380845  0.000000  1
  Rh  Rh9  1  0.618932  0.880845  0.000000  1
