# generated using pymatgen
data_TbBiSb4O13
_symmetry_space_group_name_H-M   'P 1'
_cell_length_a   7.44037700
_cell_length_b   7.35794397
_cell_length_c   10.35180625
_cell_angle_alpha   89.02641573
_cell_angle_beta   90.00000000
_cell_angle_gamma   90.00000000
_symmetry_Int_Tables_number   1
_chemical_formula_structural   TbBiSb4O13
_chemical_formula_sum   'Tb2 Bi2 Sb8 O26'
_cell_volume   566.63689837
_cell_formula_units_Z   2
loop_
 _symmetry_equiv_pos_site_id
 _symmetry_equiv_pos_as_xyz
  1  'x, y, z'
loop_
 _atom_site_type_symbol
 _atom_site_label
 _atom_site_symmetry_multiplicity
 _atom_site_fract_x
 _atom_site_fract_y
 _atom_site_fract_z
 _atom_site_occupancy
  Tb  Tb0  1  0.500000  0.500000  0.000000  1
  Tb  Tb1  1  0.000000  0.500000  0.000000  1
  Bi  Bi2  1  0.250000  0.747372  0.735663  1
  Bi  Bi3  1  0.750000  0.252628  0.264337  1
  Sb  Sb4  1  0.500000  0.000000  0.000000  1
  Sb  Sb5  1  0.750000  0.757126  0.745955  1
  Sb  Sb6  1  0.250000  0.747130  0.252863  1
  Sb  Sb7  1  0.500000  0.500000  0.500000  1
  Sb  Sb8  1  0.000000  0.500000  0.500000  1
  Sb  Sb9  1  0.750000  0.252870  0.747137  1
  Sb  Sb10  1  0.250000  0.242874  0.254045  1
  Sb  Sb11  1  0.000000  0.000000  0.000000  1
  O  O12  1  0.449782  0.688586  0.369763  1
  O  O13  1  0.750000  0.458060  0.121257  1
  O  O14  1  0.250000  0.492649  0.163208  1
  O  O15  1  0.453378  0.304443  0.368807  1
  O  O16  1  0.558931  0.213686  0.885773  1
  O  O17  1  0.941069  0.213686  0.885773  1
  O  O18  1  0.447679  0.204813  0.122200  1
  O  O19  1  0.750000  0.002760  0.076178  1
  O  O20  1  0.250000  0.997240  0.923822  1
  O  O21  1  0.750000  0.004781  0.684142  1
  O  O22  1  0.552321  0.795187  0.877800  1
  O  O23  1  0.947679  0.795187  0.877800  1
  O  O24  1  0.441069  0.786314  0.114227  1
  O  O25  1  0.050218  0.688586  0.369763  1
  O  O26  1  0.546622  0.695557  0.631193  1
  O  O27  1  0.953378  0.695557  0.631193  1
  O  O28  1  0.250000  0.517778  0.575651  1
  O  O29  1  0.750000  0.507351  0.836792  1
  O  O30  1  0.750000  0.482222  0.424349  1
  O  O31  1  0.046622  0.304443  0.368807  1
  O  O32  1  0.550218  0.311414  0.630237  1
  O  O33  1  0.949782  0.311414  0.630237  1
  O  O34  1  0.052321  0.204813  0.122200  1
  O  O35  1  0.250000  0.995219  0.315858  1
  O  O36  1  0.058931  0.786314  0.114227  1
  O  O37  1  0.250000  0.541940  0.878743  1
