# generated using pymatgen
data_La4Nd2RuPtBr6
_symmetry_space_group_name_H-M   'P 1'
_cell_length_a   10.53320323
_cell_length_b   10.66605545
_cell_length_c   10.53324401
_cell_angle_alpha   108.91139758
_cell_angle_beta   110.09978215
_cell_angle_gamma   108.90936554
_symmetry_Int_Tables_number   1
_chemical_formula_structural   La4Nd2RuPtBr6
_chemical_formula_sum   'La8 Nd4 Ru2 Pt2 Br12'
_cell_volume   916.37373684
_cell_formula_units_Z   2
loop_
 _symmetry_equiv_pos_site_id
 _symmetry_equiv_pos_as_xyz
  1  'x, y, z'
loop_
 _atom_site_type_symbol
 _atom_site_label
 _atom_site_symmetry_multiplicity
 _atom_site_fract_x
 _atom_site_fract_y
 _atom_site_fract_z
 _atom_site_occupancy
  La  La0  1  0.226986  0.259066  0.733873  1
  La  La1  1  0.015541  0.482873  0.748598  1
  La  La2  1  0.474831  0.240978  0.467954  1
  La  La3  1  0.265728  0.017121  0.032642  1
  La  La4  1  0.766123  0.240954  0.273008  1
  La  La5  1  0.751439  0.017174  0.484537  1
  La  La6  1  0.467383  0.482835  0.234286  1
  La  La7  1  0.032021  0.259040  0.025178  1
  Nd  Nd8  1  0.264817  0.750004  0.235166  1
  Nd  Nd9  1  0.485172  0.750005  0.014805  1
  Nd  Nd10  1  0.234584  0.469164  0.484592  1
  Nd  Nd11  1  0.015400  0.030825  0.265397  1
  Ru  Ru12  1  0.999388  0.250000  0.500610  1
  Ru  Ru13  1  0.250613  0.249999  0.249389  1
  Pt  Pt14  1  0.500414  0.000827  0.250411  1
  Pt  Pt15  1  0.249584  0.499168  0.999584  1
  Br  Br16  1  0.244275  0.988000  0.496773  1
  Br  Br17  1  0.508765  0.511995  0.756269  1
  Br  Br18  1  0.254767  0.753091  0.745971  1
  Br  Br19  1  0.992876  0.746897  0.001666  1
  Br  Br20  1  0.003228  0.511996  0.255728  1
  Br  Br21  1  0.743725  0.988002  0.991230  1
  Br  Br22  1  0.754021  0.746899  0.245217  1
  Br  Br23  1  0.498318  0.753093  0.507120  1
  Br  Br24  1  0.503332  0.249997  0.996675  1
  Br  Br25  1  0.753851  0.507697  0.503840  1
  Br  Br26  1  0.746669  0.249999  0.753332  1
  Br  Br27  1  0.996150  0.992299  0.746150  1
