# generated using pymatgen
data_Nd6TaCo16NiP12
_symmetry_space_group_name_H-M   'P 1'
_cell_length_a   3.78355000
_cell_length_b   10.71434700
_cell_length_c   12.47703900
_cell_angle_alpha   90.00000000
_cell_angle_beta   90.00000000
_cell_angle_gamma   90.00000000
_symmetry_Int_Tables_number   1
_chemical_formula_structural   Nd6TaCo16NiP12
_chemical_formula_sum   'Nd6 Ta1 Co16 Ni1 P12'
_cell_volume   505.79754574
_cell_formula_units_Z   1
loop_
 _symmetry_equiv_pos_site_id
 _symmetry_equiv_pos_as_xyz
  1  'x, y, z'
loop_
 _atom_site_type_symbol
 _atom_site_label
 _atom_site_symmetry_multiplicity
 _atom_site_fract_x
 _atom_site_fract_y
 _atom_site_fract_z
 _atom_site_occupancy
  Nd  Nd0  1  0.000000  0.500000  0.523500  1
  Nd  Nd1  1  0.500000  0.000000  0.478995  1
  Nd  Nd2  1  0.500000  0.819439  0.207254  1
  Nd  Nd3  1  0.500000  0.180561  0.207254  1
  Nd  Nd4  1  0.000000  0.685569  0.796892  1
  Nd  Nd5  1  0.000000  0.314431  0.796892  1
  Ta  Ta6  1  0.500000  0.500000  0.151688  1
  Co  Co7  1  0.000000  0.000000  0.840605  1
  Co  Co8  1  0.000000  0.000000  0.295454  1
  Co  Co9  1  0.000000  0.500000  0.986430  1
  Co  Co10  1  0.500000  0.000000  0.013722  1
  Co  Co11  1  0.500000  0.330428  0.991684  1
  Co  Co12  1  0.500000  0.669572  0.991684  1
  Co  Co13  1  0.000000  0.163853  0.003422  1
  Co  Co14  1  0.000000  0.836147  0.003422  1
  Co  Co15  1  0.500000  0.296026  0.431743  1
  Co  Co16  1  0.500000  0.703974  0.431743  1
  Co  Co17  1  0.000000  0.203080  0.569525  1
  Co  Co18  1  0.000000  0.796920  0.569525  1
  Co  Co19  1  0.500000  0.881738  0.709940  1
  Co  Co20  1  0.500000  0.118262  0.709940  1
  Co  Co21  1  0.000000  0.620123  0.291786  1
  Co  Co22  1  0.000000  0.379877  0.291786  1
  Ni  Ni23  1  0.500000  0.500000  0.703773  1
  P  P24  1  0.500000  0.500000  0.885906  1
  P  P25  1  0.000000  0.000000  0.113755  1
  P  P26  1  0.500000  0.500000  0.349740  1
  P  P27  1  0.000000  0.000000  0.660529  1
  P  P28  1  0.500000  0.304311  0.614744  1
  P  P29  1  0.500000  0.695689  0.614744  1
  P  P30  1  0.000000  0.192783  0.387080  1
  P  P31  1  0.000000  0.807217  0.387080  1
  P  P32  1  0.500000  0.853174  0.893205  1
  P  P33  1  0.500000  0.146826  0.893205  1
  P  P34  1  0.000000  0.659267  0.100674  1
  P  P35  1  0.000000  0.340733  0.100674  1
