# generated using pymatgen
data_Cs5BaTaAs4
_symmetry_space_group_name_H-M   'P 1'
_cell_length_a   11.24261287
_cell_length_b   11.24261301
_cell_length_c   8.59122791
_cell_angle_alpha   88.00275374
_cell_angle_beta   88.00275522
_cell_angle_gamma   120.97365816
_symmetry_Int_Tables_number   1
_chemical_formula_structural   Cs5BaTaAs4
_chemical_formula_sum   'Cs10 Ba2 Ta2 As8'
_cell_volume   928.72191666
_cell_formula_units_Z   2
loop_
 _symmetry_equiv_pos_site_id
 _symmetry_equiv_pos_as_xyz
  1  'x, y, z'
loop_
 _atom_site_type_symbol
 _atom_site_label
 _atom_site_symmetry_multiplicity
 _atom_site_fract_x
 _atom_site_fract_y
 _atom_site_fract_z
 _atom_site_occupancy
  Cs  Cs0  1  0.463063  0.526098  0.493913  1
  Cs  Cs1  1  0.064567  0.529368  0.499559  1
  Cs  Cs2  1  0.526098  0.463063  0.993913  1
  Cs  Cs3  1  0.529368  0.064567  0.999559  1
  Cs  Cs4  1  0.866090  0.143032  0.679776  1
  Cs  Cs5  1  0.290570  0.151017  0.718600  1
  Cs  Cs6  1  0.855067  0.713287  0.656897  1
  Cs  Cs7  1  0.143032  0.866090  0.179776  1
  Cs  Cs8  1  0.713287  0.855067  0.156897  1
  Cs  Cs9  1  0.151017  0.290570  0.218600  1
  Ba  Ba10  1  0.466718  0.939612  0.497465  1
  Ba  Ba11  1  0.939612  0.466718  0.997465  1
  Ta  Ta12  1  0.670624  0.328855  0.392244  1
  Ta  Ta13  1  0.328855  0.670624  0.892244  1
  As  As14  1  0.684937  0.336042  0.683959  1
  As  As15  1  0.336042  0.684937  0.183959  1
  As  As16  1  0.787530  0.203421  0.291485  1
  As  As17  1  0.418256  0.194045  0.330174  1
  As  As18  1  0.795413  0.572387  0.270216  1
  As  As19  1  0.203421  0.787530  0.791485  1
  As  As20  1  0.572387  0.795413  0.770216  1
  As  As21  1  0.194045  0.418256  0.830174  1
