# generated using pymatgen
data_Tm3CdCoSn3Ir
_symmetry_space_group_name_H-M   'P 1'
_cell_length_a   7.68175700
_cell_length_b   7.68175700
_cell_length_c   3.75159800
_cell_angle_alpha   90.00000000
_cell_angle_beta   90.00000000
_cell_angle_gamma   119.99999568
_symmetry_Int_Tables_number   1
_chemical_formula_structural   Tm3CdCoSn3Ir
_chemical_formula_sum   'Tm3 Cd1 Co1 Sn3 Ir1'
_cell_volume   191.72028950
_cell_formula_units_Z   1
loop_
 _symmetry_equiv_pos_site_id
 _symmetry_equiv_pos_as_xyz
  1  'x, y, z'
loop_
 _atom_site_type_symbol
 _atom_site_label
 _atom_site_symmetry_multiplicity
 _atom_site_fract_x
 _atom_site_fract_y
 _atom_site_fract_z
 _atom_site_occupancy
  Tm  Tm0  1  0.970625  0.380068  0.500000  1
  Tm  Tm1  1  0.619932  0.590557  0.500000  1
  Tm  Tm2  1  0.409443  0.029375  0.500000  1
  Cd  Cd3  1  0.333333  0.666667  0.000000  1
  Co  Co4  1  0.000000  0.000000  0.500000  1
  Sn  Sn5  1  0.003327  0.753355  0.000000  1
  Sn  Sn6  1  0.246645  0.249972  0.000000  1
  Sn  Sn7  1  0.750028  0.996673  0.000000  1
  Ir  Ir8  1  0.666667  0.333333  0.000000  1
