# generated using pymatgen
data_DyY11InCo4Cu
_symmetry_space_group_name_H-M   'P 1'
_cell_length_a   8.33117564
_cell_length_b   8.34351397
_cell_length_c   8.33117637
_cell_angle_alpha   111.15246081
_cell_angle_beta   110.70477782
_cell_angle_gamma   106.53735122
_symmetry_Int_Tables_number   1
_chemical_formula_structural   DyY11InCo4Cu
_chemical_formula_sum   'Dy1 Y11 In1 Co4 Cu1'
_cell_volume   445.25223863
_cell_formula_units_Z   1
loop_
 _symmetry_equiv_pos_site_id
 _symmetry_equiv_pos_as_xyz
  1  'x, y, z'
loop_
 _atom_site_type_symbol
 _atom_site_label
 _atom_site_symmetry_multiplicity
 _atom_site_fract_x
 _atom_site_fract_y
 _atom_site_fract_z
 _atom_site_occupancy
  Dy  Dy0  1  0.684847  0.990936  0.306089  1
  Y  Y1  1  0.416847  0.218010  0.198554  1
  Y  Y2  1  0.583486  0.782472  0.802104  1
  Y  Y3  1  0.019456  0.218010  0.801162  1
  Y  Y4  1  0.980368  0.782472  0.198987  1
  Y  Y5  1  0.185872  0.290206  0.476217  1
  Y  Y6  1  0.813914  0.709964  0.523724  1
  Y  Y7  1  0.186239  0.709964  0.896050  1
  Y  Y8  1  0.813990  0.290206  0.104333  1
  Y  Y9  1  0.315076  0.619519  0.304442  1
  Y  Y10  1  0.684932  0.380954  0.696023  1
  Y  Y11  1  0.315168  0.010483  0.695315  1
  In  In12  1  0.499848  0.499700  0.999852  1
  Co  Co13  1  0.379462  0.999515  0.377948  1
  Co  Co14  1  0.621567  0.999515  0.620053  1
  Co  Co15  1  0.110768  0.610999  0.500231  1
  Co  Co16  1  0.887996  0.387251  0.499255  1
  Cu  Cu17  1  0.000164  0.999824  0.999660  1
