# generated using pymatgen
data_Hf4Sc4Co7Si14Rh
_symmetry_space_group_name_H-M   'P 1'
_cell_length_a   9.51070921
_cell_length_b   9.50189788
_cell_length_c   9.52393000
_cell_angle_alpha   94.06934789
_cell_angle_beta   94.12940590
_cell_angle_gamma   148.95563298
_symmetry_Int_Tables_number   1
_chemical_formula_structural   Hf4Sc4Co7Si14Rh
_chemical_formula_sum   'Hf4 Sc4 Co7 Si14 Rh1'
_cell_volume   427.72259920
_cell_formula_units_Z   1
loop_
 _symmetry_equiv_pos_site_id
 _symmetry_equiv_pos_as_xyz
  1  'x, y, z'
loop_
 _atom_site_type_symbol
 _atom_site_label
 _atom_site_symmetry_multiplicity
 _atom_site_fract_x
 _atom_site_fract_y
 _atom_site_fract_z
 _atom_site_occupancy
  Hf  Hf0  1  0.303943  0.499564  0.802438  1
  Hf  Hf1  1  0.695410  0.500240  0.196454  1
  Hf  Hf2  1  0.501049  0.696260  0.196371  1
  Hf  Hf3  1  0.498377  0.302775  0.802321  1
  Sc  Sc4  1  0.138375  0.138332  0.276682  1
  Sc  Sc5  1  0.861084  0.861073  0.722187  1
  Sc  Sc6  1  0.136157  0.859503  0.999405  1
  Sc  Sc7  1  0.863190  0.139824  0.999364  1
  Co  Co8  1  0.395315  0.895291  0.790590  1
  Co  Co9  1  0.900320  0.102022  0.502415  1
  Co  Co10  1  0.602074  0.400347  0.502439  1
  Co  Co11  1  0.602058  0.102060  0.203820  1
  Co  Co12  1  0.898939  0.398925  0.797826  1
  Co  Co13  1  0.102824  0.896321  0.499549  1
  Co  Co14  1  0.396654  0.603298  0.499517  1
  Si  Si15  1  0.289880  0.289947  0.579580  1
  Si  Si16  1  0.709949  0.709978  0.420135  1
  Si  Si17  1  0.300342  0.718657  0.995141  1
  Si  Si18  1  0.694834  0.276474  0.995187  1
  Si  Si19  1  0.086903  0.494762  0.591727  1
  Si  Si20  1  0.888728  0.482874  0.413067  1
  Si  Si21  1  0.524434  0.930274  0.413080  1
  Si  Si22  1  0.504887  0.096939  0.591728  1
  Si  Si23  1  0.252277  0.252540  0.999501  1
  Si  Si24  1  0.747252  0.746979  0.999516  1
  Si  Si25  1  0.306967  0.012808  0.300913  1
  Si  Si26  1  0.702522  0.001953  0.700913  1
  Si  Si27  1  0.998401  0.699025  0.700967  1
  Si  Si28  1  0.993881  0.288046  0.300905  1
  Rh  Rh29  1  0.102975  0.602910  0.206262  1
