# generated using pymatgen
data_Ba4Al5Sn2GeAu20
_symmetry_space_group_name_H-M   'P 1'
_cell_length_a   7.36783400
_cell_length_b   9.33192471
_cell_length_c   10.25105033
_cell_angle_alpha   90.73704477
_cell_angle_beta   90.00000000
_cell_angle_gamma   90.00000000
_symmetry_Int_Tables_number   1
_chemical_formula_structural   Ba4Al5Sn2GeAu20
_chemical_formula_sum   'Ba4 Al5 Sn2 Ge1 Au20'
_cell_volume   704.76364031
_cell_formula_units_Z   1
loop_
 _symmetry_equiv_pos_site_id
 _symmetry_equiv_pos_as_xyz
  1  'x, y, z'
loop_
 _atom_site_type_symbol
 _atom_site_label
 _atom_site_symmetry_multiplicity
 _atom_site_fract_x
 _atom_site_fract_y
 _atom_site_fract_z
 _atom_site_occupancy
  Ba  Ba0  1  0.250000  0.243381  0.119800  1
  Ba  Ba1  1  0.250000  0.746822  0.380914  1
  Ba  Ba2  1  0.750000  0.757779  0.882063  1
  Ba  Ba3  1  0.750000  0.256865  0.619288  1
  Al  Al4  1  0.250000  0.056668  0.618634  1
  Al  Al5  1  0.250000  0.558520  0.878664  1
  Al  Al6  1  0.750000  0.946742  0.381638  1
  Al  Al7  1  0.750000  0.440971  0.120070  1
  Al  Al8  1  0.250000  0.345608  0.479333  1
  Sn  Sn9  1  0.250000  0.853159  0.024955  1
  Sn  Sn10  1  0.750000  0.651836  0.529880  1
  Ge  Ge11  1  0.750000  0.162235  0.967376  1
  Au  Au12  1  0.052633  0.111089  0.399790  1
  Au  Au13  1  0.446752  0.591576  0.103497  1
  Au  Au14  1  0.552859  0.910964  0.600753  1
  Au  Au15  1  0.948357  0.402069  0.896411  1
  Au  Au16  1  0.947141  0.910964  0.600753  1
  Au  Au17  1  0.551643  0.402069  0.896411  1
  Au  Au18  1  0.447367  0.111089  0.399790  1
  Au  Au19  1  0.053248  0.591576  0.103497  1
  Au  Au20  1  0.037083  0.070279  0.848546  1
  Au  Au21  1  0.446880  0.553292  0.645309  1
  Au  Au22  1  0.547830  0.928634  0.163458  1
  Au  Au23  1  0.970804  0.429078  0.352995  1
  Au  Au24  1  0.952170  0.928634  0.163458  1
  Au  Au25  1  0.529196  0.429078  0.352995  1
  Au  Au26  1  0.462917  0.070279  0.848546  1
  Au  Au27  1  0.053120  0.553292  0.645309  1
  Au  Au28  1  0.250000  0.302124  0.730028  1
  Au  Au29  1  0.250000  0.806072  0.758474  1
  Au  Au30  1  0.750000  0.684463  0.265732  1
  Au  Au31  1  0.750000  0.192790  0.221632  1
