# generated using pymatgen
data_TiTlCdSbO7
_symmetry_space_group_name_H-M   'P 1'
_cell_length_a   7.34000900
_cell_length_b   7.34000900
_cell_length_c   10.36022600
_cell_angle_alpha   90.00000000
_cell_angle_beta   90.00000000
_cell_angle_gamma   90.00000000
_symmetry_Int_Tables_number   1
_chemical_formula_structural   TiTlCdSbO7
_chemical_formula_sum   'Ti4 Tl4 Cd4 Sb4 O28'
_cell_volume   558.16476068
_cell_formula_units_Z   4
loop_
 _symmetry_equiv_pos_site_id
 _symmetry_equiv_pos_as_xyz
  1  'x, y, z'
loop_
 _atom_site_type_symbol
 _atom_site_label
 _atom_site_symmetry_multiplicity
 _atom_site_fract_x
 _atom_site_fract_y
 _atom_site_fract_z
 _atom_site_occupancy
  Ti  Ti0  1  0.761316  0.000000  0.250000  1
  Ti  Ti1  1  0.000000  0.761316  0.500000  1
  Ti  Ti2  1  0.238684  0.000000  0.750000  1
  Ti  Ti3  1  0.000000  0.238684  0.000000  1
  Tl  Tl4  1  0.000000  0.729189  0.000000  1
  Tl  Tl5  1  0.000000  0.270811  0.500000  1
  Tl  Tl6  1  0.270811  0.000000  0.250000  1
  Tl  Tl7  1  0.729189  0.000000  0.750000  1
  Cd  Cd8  1  0.500000  0.755640  0.000000  1
  Cd  Cd9  1  0.244360  0.500000  0.250000  1
  Cd  Cd10  1  0.500000  0.244360  0.500000  1
  Cd  Cd11  1  0.755640  0.500000  0.750000  1
  Sb  Sb12  1  0.246509  0.500000  0.750000  1
  Sb  Sb13  1  0.500000  0.753491  0.500000  1
  Sb  Sb14  1  0.500000  0.246509  0.000000  1
  Sb  Sb15  1  0.753491  0.500000  0.250000  1
  O  O16  1  0.239203  0.760797  0.125000  1
  O  O17  1  0.547362  0.951217  0.371924  1
  O  O18  1  0.749985  0.751201  0.174854  1
  O  O19  1  0.760797  0.239203  0.625000  1
  O  O20  1  0.933402  0.933402  0.375000  1
  O  O21  1  0.066598  0.066598  0.875000  1
  O  O22  1  0.048783  0.452638  0.878076  1
  O  O23  1  0.066598  0.933402  0.625000  1
  O  O24  1  0.248799  0.250015  0.075146  1
  O  O25  1  0.250015  0.248799  0.674854  1
  O  O26  1  0.248799  0.749985  0.424854  1
  O  O27  1  0.452638  0.951217  0.628076  1
  O  O28  1  0.452638  0.048783  0.871924  1
  O  O29  1  0.452752  0.452752  0.875000  1
  O  O30  1  0.547248  0.547248  0.375000  1
  O  O31  1  0.547362  0.048783  0.128076  1
  O  O32  1  0.547248  0.452752  0.125000  1
  O  O33  1  0.751201  0.749985  0.575146  1
  O  O34  1  0.749985  0.248799  0.325146  1
  O  O35  1  0.760797  0.760797  0.875000  1
  O  O36  1  0.751201  0.250015  0.924854  1
  O  O37  1  0.951217  0.547362  0.378076  1
  O  O38  1  0.933402  0.066598  0.125000  1
  O  O39  1  0.951217  0.452638  0.121924  1
  O  O40  1  0.048783  0.547362  0.621924  1
  O  O41  1  0.250015  0.751201  0.825146  1
  O  O42  1  0.239203  0.239203  0.375000  1
  O  O43  1  0.452752  0.547248  0.625000  1
