# generated using pymatgen
data_Ba2HoUO6
_symmetry_space_group_name_H-M   'P 1'
_cell_length_a   6.16512250
_cell_length_b   6.19529344
_cell_length_c   8.80725700
_cell_angle_alpha   90.00000000
_cell_angle_beta   90.00000000
_cell_angle_gamma   89.92100110
_symmetry_Int_Tables_number   1
_chemical_formula_structural   Ba2HoUO6
_chemical_formula_sum   'Ba4 Ho2 U2 O12'
_cell_volume   336.39059759
_cell_formula_units_Z   2
loop_
 _symmetry_equiv_pos_site_id
 _symmetry_equiv_pos_as_xyz
  1  'x, y, z'
loop_
 _atom_site_type_symbol
 _atom_site_label
 _atom_site_symmetry_multiplicity
 _atom_site_fract_x
 _atom_site_fract_y
 _atom_site_fract_z
 _atom_site_occupancy
  Ba  Ba0  1  0.011068  0.002423  0.750000  1
  Ba  Ba1  1  0.480564  0.491795  0.250000  1
  Ba  Ba2  1  0.519436  0.508205  0.750000  1
  Ba  Ba3  1  0.988933  0.997577  0.250000  1
  Ho  Ho4  1  0.000000  0.500000  0.000000  1
  Ho  Ho5  1  0.000000  0.500000  0.500000  1
  U  U6  1  0.500000  0.000000  0.500000  1
  U  U7  1  0.500000  0.000000  0.000000  1
  O  O8  1  0.242325  0.224031  0.036584  1
  O  O9  1  0.508453  0.929997  0.250000  1
  O  O10  1  0.724407  0.255874  0.463840  1
  O  O11  1  0.724407  0.255874  0.036160  1
  O  O12  1  0.757675  0.775969  0.536584  1
  O  O13  1  0.013033  0.569451  0.250000  1
  O  O14  1  0.242325  0.224031  0.463416  1
  O  O15  1  0.275593  0.744126  0.963840  1
  O  O16  1  0.275593  0.744126  0.536160  1
  O  O17  1  0.491547  0.070003  0.750000  1
  O  O18  1  0.757675  0.775969  0.963416  1
  O  O19  1  0.986967  0.430549  0.750000  1
