# generated using pymatgen
data_Ca3Sn(GeRh3)2
_symmetry_space_group_name_H-M   'P 1'
_cell_length_a   5.69445400
_cell_length_b   5.69445452
_cell_length_c   15.54576700
_cell_angle_alpha   90.00000000
_cell_angle_beta   90.00000000
_cell_angle_gamma   119.99998537
_symmetry_Int_Tables_number   1
_chemical_formula_structural   Ca3Sn(GeRh3)2
_chemical_formula_sum   'Ca6 Sn2 Ge4 Rh12'
_cell_volume   436.56314307
_cell_formula_units_Z   2
loop_
 _symmetry_equiv_pos_site_id
 _symmetry_equiv_pos_as_xyz
  1  'x, y, z'
loop_
 _atom_site_type_symbol
 _atom_site_label
 _atom_site_symmetry_multiplicity
 _atom_site_fract_x
 _atom_site_fract_y
 _atom_site_fract_z
 _atom_site_occupancy
  Ca  Ca0  1  0.333334  0.666667  0.042225  1
  Ca  Ca1  1  0.333334  0.666667  0.250000  1
  Ca  Ca2  1  0.333334  0.666667  0.457775  1
  Ca  Ca3  1  0.666666  0.333333  0.542225  1
  Ca  Ca4  1  0.666666  0.333333  0.750000  1
  Ca  Ca5  1  0.666666  0.333333  0.957775  1
  Sn  Sn6  1  0.000000  0.000000  0.000000  1
  Sn  Sn7  1  0.000000  0.000000  0.500000  1
  Ge  Ge8  1  0.000000  0.000000  0.250000  1
  Ge  Ge9  1  0.666666  0.333333  0.250000  1
  Ge  Ge10  1  0.000000  0.000000  0.750000  1
  Ge  Ge11  1  0.333334  0.666667  0.750000  1
  Rh  Rh12  1  0.337322  0.168661  0.133540  1
  Rh  Rh13  1  0.831340  0.168661  0.133540  1
  Rh  Rh14  1  0.831340  0.662679  0.133540  1
  Rh  Rh15  1  0.337322  0.168661  0.366460  1
  Rh  Rh16  1  0.831340  0.168661  0.366460  1
  Rh  Rh17  1  0.831340  0.662679  0.366460  1
  Rh  Rh18  1  0.168661  0.337323  0.633540  1
  Rh  Rh19  1  0.168660  0.831339  0.633540  1
  Rh  Rh20  1  0.662678  0.831339  0.633540  1
  Rh  Rh21  1  0.168661  0.337323  0.866460  1
  Rh  Rh22  1  0.168660  0.831339  0.866460  1
  Rh  Rh23  1  0.662678  0.831339  0.866460  1
