# generated using pymatgen
data_Ti2Mn2ZnC3
_symmetry_space_group_name_H-M   'P 1'
_cell_length_a   2.98812900
_cell_length_b   2.98812821
_cell_length_c   22.38218600
_cell_angle_alpha   90.00000000
_cell_angle_beta   90.00000000
_cell_angle_gamma   119.99999768
_symmetry_Int_Tables_number   1
_chemical_formula_structural   Ti2Mn2ZnC3
_chemical_formula_sum   'Ti4 Mn4 Zn2 C6'
_cell_volume   173.07395270
_cell_formula_units_Z   2
loop_
 _symmetry_equiv_pos_site_id
 _symmetry_equiv_pos_as_xyz
  1  'x, y, z'
loop_
 _atom_site_type_symbol
 _atom_site_label
 _atom_site_symmetry_multiplicity
 _atom_site_fract_x
 _atom_site_fract_y
 _atom_site_fract_z
 _atom_site_occupancy
  Ti  Ti0  1  0.333333  0.666667  0.444579  1
  Ti  Ti1  1  0.666667  0.333333  0.555421  1
  Ti  Ti2  1  0.666667  0.333333  0.944579  1
  Ti  Ti3  1  0.333333  0.666667  0.055421  1
  Mn  Mn4  1  0.000000  0.000000  0.343014  1
  Mn  Mn5  1  0.000000  0.000000  0.656986  1
  Mn  Mn6  1  0.000000  0.000000  0.843014  1
  Mn  Mn7  1  0.000000  0.000000  0.156986  1
  Zn  Zn8  1  0.333333  0.666667  0.250000  1
  Zn  Zn9  1  0.666667  0.333333  0.750000  1
  C  C10  1  0.000000  0.000000  0.500000  1
  C  C11  1  0.000000  0.000000  0.000000  1
  C  C12  1  0.666667  0.333333  0.382855  1
  C  C13  1  0.333333  0.666667  0.617145  1
  C  C14  1  0.333333  0.666667  0.882855  1
  C  C15  1  0.666667  0.333333  0.117145  1
