# generated using pymatgen
data_Dy2Si7(Ni3Rh)3
_symmetry_space_group_name_H-M   'P 1'
_cell_length_a   9.29935200
_cell_length_b   9.29935244
_cell_length_c   3.72415500
_cell_angle_alpha   90.00000000
_cell_angle_beta   90.00000000
_cell_angle_gamma   120.00000555
_symmetry_Int_Tables_number   1
_chemical_formula_structural   Dy2Si7(Ni3Rh)3
_chemical_formula_sum   'Dy2 Si7 Ni9 Rh3'
_cell_volume   278.90978439
_cell_formula_units_Z   1
loop_
 _symmetry_equiv_pos_site_id
 _symmetry_equiv_pos_as_xyz
  1  'x, y, z'
loop_
 _atom_site_type_symbol
 _atom_site_label
 _atom_site_symmetry_multiplicity
 _atom_site_fract_x
 _atom_site_fract_y
 _atom_site_fract_z
 _atom_site_occupancy
  Dy  Dy0  1  0.333333  0.666667  0.743119  1
  Dy  Dy1  1  0.666667  0.333333  0.243504  1
  Si  Si2  1  0.000000  0.000000  0.743668  1
  Si  Si3  1  0.887083  0.597403  0.743810  1
  Si  Si4  1  0.402597  0.289679  0.743810  1
  Si  Si5  1  0.710321  0.112917  0.743810  1
  Si  Si6  1  0.111458  0.405034  0.242462  1
  Si  Si7  1  0.594966  0.706425  0.242462  1
  Si  Si8  1  0.293575  0.888542  0.242462  1
  Ni  Ni9  1  0.620315  0.561323  0.742157  1
  Ni  Ni10  1  0.438677  0.058993  0.742157  1
  Ni  Ni11  1  0.941007  0.379685  0.742157  1
  Ni  Ni12  1  0.381419  0.436747  0.243925  1
  Ni  Ni13  1  0.563253  0.944672  0.243925  1
  Ni  Ni14  1  0.055328  0.618581  0.243925  1
  Ni  Ni15  1  0.128760  0.844121  0.742494  1
  Ni  Ni16  1  0.155879  0.284641  0.742494  1
  Ni  Ni17  1  0.715359  0.871240  0.742494  1
  Rh  Rh18  1  0.899914  0.119383  0.243149  1
  Rh  Rh19  1  0.880617  0.780531  0.243149  1
  Rh  Rh20  1  0.219469  0.100086  0.243149  1
