# generated using pymatgen
data_Dy7Tm(InPt)2
_symmetry_space_group_name_H-M   'P 1'
_cell_length_a   9.71267059
_cell_length_b   9.72298414
_cell_length_c   9.72152304
_cell_angle_alpha   59.99502324
_cell_angle_beta   59.96238418
_cell_angle_gamma   59.96486950
_symmetry_Int_Tables_number   1
_chemical_formula_structural   Dy7Tm(InPt)2
_chemical_formula_sum   'Dy14 Tm2 In4 Pt4'
_cell_volume   648.78715638
_cell_formula_units_Z   2
loop_
 _symmetry_equiv_pos_site_id
 _symmetry_equiv_pos_as_xyz
  1  'x, y, z'
loop_
 _atom_site_type_symbol
 _atom_site_label
 _atom_site_symmetry_multiplicity
 _atom_site_fract_x
 _atom_site_fract_y
 _atom_site_fract_z
 _atom_site_occupancy
  Dy  Dy0  1  0.310988  0.689566  0.309881  1
  Dy  Dy1  1  0.937180  0.938098  0.562383  1
  Dy  Dy2  1  0.149248  0.149127  0.552498  1
  Dy  Dy3  1  0.562603  0.937933  0.561531  1
  Dy  Dy4  1  0.148779  0.149161  0.149747  1
  Dy  Dy5  1  0.310209  0.310075  0.689281  1
  Dy  Dy6  1  0.937180  0.562339  0.562383  1
  Dy  Dy7  1  0.562916  0.561684  0.938156  1
  Dy  Dy8  1  0.562916  0.937245  0.938156  1
  Dy  Dy9  1  0.936531  0.562560  0.938349  1
  Dy  Dy10  1  0.148779  0.552312  0.149747  1
  Dy  Dy11  1  0.310209  0.690435  0.689281  1
  Dy  Dy12  1  0.690325  0.310035  0.689606  1
  Dy  Dy13  1  0.553499  0.148380  0.149740  1
  Tm  Tm14  1  0.689847  0.310568  0.309602  1
  Tm  Tm15  1  0.689847  0.689983  0.309602  1
  In  In16  1  0.916839  0.917219  0.248724  1
  In  In17  1  0.248364  0.917201  0.917233  1
  In  In18  1  0.916600  0.249512  0.917085  1
  In  In19  1  0.916600  0.916804  0.917085  1
  Pt  Pt20  1  0.358638  0.356435  0.357061  1
  Pt  Pt21  1  0.925989  0.358488  0.357037  1
  Pt  Pt22  1  0.357279  0.356976  0.928769  1
  Pt  Pt23  1  0.358638  0.927866  0.357061  1
