# generated using pymatgen
data_Ho9Tm(Bi3C)2
_symmetry_space_group_name_H-M   'P 1'
_cell_length_a   6.46263300
_cell_length_b   9.11012372
_cell_length_c   9.11564973
_cell_angle_alpha   119.97994569
_cell_angle_beta   89.99969854
_cell_angle_gamma   90.00061387
_symmetry_Int_Tables_number   1
_chemical_formula_structural   Ho9Tm(Bi3C)2
_chemical_formula_sum   'Ho9 Tm1 Bi6 C2'
_cell_volume   464.87881603
_cell_formula_units_Z   1
loop_
 _symmetry_equiv_pos_site_id
 _symmetry_equiv_pos_as_xyz
  1  'x, y, z'
loop_
 _atom_site_type_symbol
 _atom_site_label
 _atom_site_symmetry_multiplicity
 _atom_site_fract_x
 _atom_site_fract_y
 _atom_site_fract_z
 _atom_site_occupancy
  Ho  Ho0  1  0.499977  0.333319  0.666653  1
  Ho  Ho1  1  0.499977  0.666666  0.333347  1
  Ho  Ho2  1  0.000024  0.666671  0.333348  1
  Ho  Ho3  1  0.000024  0.333322  0.666652  1
  Ho  Ho4  1  0.750002  0.792919  0.792796  1
  Ho  Ho5  1  0.750002  0.000123  0.207204  1
  Ho  Ho6  1  0.250004  0.792821  0.000000  1
  Ho  Ho7  1  0.250001  0.207471  0.207203  1
  Ho  Ho8  1  0.250001  0.000268  0.792797  1
  Tm  Tm9  1  0.750002  0.204786  0.000000  1
  Bi  Bi10  1  0.750001  0.598225  0.000000  1
  Bi  Bi11  1  0.749994  0.401132  0.400642  1
  Bi  Bi12  1  0.749994  0.000491  0.599358  1
  Bi  Bi13  1  0.249998  0.401420  0.000000  1
  Bi  Bi14  1  0.250000  0.598733  0.598812  1
  Bi  Bi15  1  0.250000  0.999921  0.401188  1
  C  C16  1  0.500761  0.000855  0.000000  1
  C  C17  1  0.999238  0.000857  0.000000  1
