# generated using pymatgen
data_Ho10Ga4BiPb
_symmetry_space_group_name_H-M   'P 1'
_cell_length_a   8.17402200
_cell_length_b   8.17402200
_cell_length_c   12.69544300
_cell_angle_alpha   90.00000000
_cell_angle_beta   90.00000000
_cell_angle_gamma   90.00000000
_symmetry_Int_Tables_number   1
_chemical_formula_structural   Ho10Ga4BiPb
_chemical_formula_sum   'Ho20 Ga8 Bi2 Pb2'
_cell_volume   848.24139854
_cell_formula_units_Z   2
loop_
 _symmetry_equiv_pos_site_id
 _symmetry_equiv_pos_as_xyz
  1  'x, y, z'
loop_
 _atom_site_type_symbol
 _atom_site_label
 _atom_site_symmetry_multiplicity
 _atom_site_fract_x
 _atom_site_fract_y
 _atom_site_fract_z
 _atom_site_occupancy
  Ho  Ho0  1  0.000000  0.500000  0.750530  1
  Ho  Ho1  1  0.000000  0.500000  0.250530  1
  Ho  Ho2  1  0.500000  0.000000  0.249774  1
  Ho  Ho3  1  0.500000  0.000000  0.749774  1
  Ho  Ho4  1  0.654663  0.649740  0.607801  1
  Ho  Ho5  1  0.654663  0.350260  0.107801  1
  Ho  Ho6  1  0.849994  0.845565  0.392133  1
  Ho  Ho7  1  0.150006  0.845565  0.892133  1
  Ho  Ho8  1  0.345337  0.350260  0.607801  1
  Ho  Ho9  1  0.345337  0.649740  0.107801  1
  Ho  Ho10  1  0.150006  0.154435  0.392133  1
  Ho  Ho11  1  0.849994  0.154435  0.892133  1
  Ho  Ho12  1  0.654435  0.349994  0.392133  1
  Ho  Ho13  1  0.345565  0.349994  0.892133  1
  Ho  Ho14  1  0.149740  0.845337  0.607801  1
  Ho  Ho15  1  0.850260  0.845337  0.107801  1
  Ho  Ho16  1  0.345565  0.650006  0.392133  1
  Ho  Ho17  1  0.654435  0.650006  0.892133  1
  Ho  Ho18  1  0.850260  0.154663  0.607801  1
  Ho  Ho19  1  0.149740  0.154663  0.107801  1
  Ga  Ga20  1  0.850371  0.852387  0.749951  1
  Ga  Ga21  1  0.850371  0.147613  0.249951  1
  Ga  Ga22  1  0.647613  0.649629  0.249951  1
  Ga  Ga23  1  0.352387  0.649629  0.749951  1
  Ga  Ga24  1  0.149629  0.147613  0.749951  1
  Ga  Ga25  1  0.149629  0.852387  0.249951  1
  Ga  Ga26  1  0.352387  0.350371  0.249951  1
  Ga  Ga27  1  0.647613  0.350371  0.749951  1
  Bi  Bi28  1  0.500000  0.000000  0.499859  1
  Bi  Bi29  1  0.500000  0.000000  0.999859  1
  Pb  Pb30  1  0.000000  0.500000  0.500300  1
  Pb  Pb31  1  0.000000  0.500000  0.000300  1
