# generated using pymatgen
data_YEr3Zr4F28
_symmetry_space_group_name_H-M   'P 1'
_cell_length_a   5.73375407
_cell_length_b   9.06467348
_cell_length_c   12.19057156
_cell_angle_alpha   62.45223798
_cell_angle_beta   89.99867052
_cell_angle_gamma   90.01629519
_symmetry_Int_Tables_number   1
_chemical_formula_structural   YEr3Zr4F28
_chemical_formula_sum   'Y1 Er3 Zr4 F28'
_cell_volume   561.76611778
_cell_formula_units_Z   1
loop_
 _symmetry_equiv_pos_site_id
 _symmetry_equiv_pos_as_xyz
  1  'x, y, z'
loop_
 _atom_site_type_symbol
 _atom_site_label
 _atom_site_symmetry_multiplicity
 _atom_site_fract_x
 _atom_site_fract_y
 _atom_site_fract_z
 _atom_site_occupancy
  Y  Y0  1  0.756454  0.816493  0.766175  1
  Er  Er1  1  0.743751  0.817100  0.266216  1
  Er  Er2  1  0.243750  0.183872  0.233884  1
  Er  Er3  1  0.257200  0.184411  0.733834  1
  Zr  Zr4  1  0.744004  0.275774  0.454002  1
  Zr  Zr5  1  0.244007  0.725723  0.046824  1
  Zr  Zr6  1  0.255040  0.725308  0.543743  1
  Zr  Zr7  1  0.755600  0.272779  0.955394  1
  F  F8  1  0.466664  0.711016  0.922246  1
  F  F9  1  0.968792  0.288785  0.578551  1
  F  F10  1  0.530995  0.288104  0.079133  1
  F  F11  1  0.031668  0.710414  0.419512  1
  F  F12  1  0.452216  0.280183  0.550473  1
  F  F13  1  0.951570  0.719672  0.951880  1
  F  F14  1  0.548143  0.719674  0.448597  1
  F  F15  1  0.047159  0.279163  0.051468  1
  F  F16  1  0.769748  0.525121  0.858425  1
  F  F17  1  0.267810  0.472622  0.641449  1
  F  F18  1  0.233808  0.472892  0.143526  1
  F  F19  1  0.732534  0.528003  0.356438  1
  F  F20  1  0.759219  0.020787  0.059054  1
  F  F21  1  0.259028  0.977553  0.440463  1
  F  F22  1  0.240902  0.977555  0.941503  1
  F  F23  1  0.739659  0.023693  0.557431  1
  F  F24  1  0.982556  0.733606  0.648235  1
  F  F25  1  0.483706  0.266123  0.849528  1
  F  F26  1  0.012989  0.265298  0.347914  1
  F  F27  1  0.513920  0.734997  0.152657  1
  F  F28  1  0.032143  0.747289  0.174877  1
  F  F29  1  0.529986  0.253869  0.326476  1
  F  F30  1  0.968711  0.251497  0.827337  1
  F  F31  1  0.465328  0.745767  0.672657  1
  F  F32  1  0.433385  0.975484  0.235855  1
  F  F33  1  0.933079  0.025356  0.264373  1
  F  F34  1  0.570425  0.029358  0.765131  1
  F  F35  1  0.074048  0.974657  0.734735  1
