# generated using pymatgen
data_Sr4BiAsO
_symmetry_space_group_name_H-M   'P 1'
_cell_length_a   9.42316301
_cell_length_b   9.42316305
_cell_length_c   9.42316356
_cell_angle_alpha   149.56324055
_cell_angle_beta   149.56323836
_cell_angle_gamma   43.58289948
_symmetry_Int_Tables_number   1
_chemical_formula_structural   Sr4BiAsO
_chemical_formula_sum   'Sr4 Bi1 As1 O1'
_cell_volume   214.14392976
_cell_formula_units_Z   1
loop_
 _symmetry_equiv_pos_site_id
 _symmetry_equiv_pos_as_xyz
  1  'x, y, z'
loop_
 _atom_site_type_symbol
 _atom_site_label
 _atom_site_symmetry_multiplicity
 _atom_site_fract_x
 _atom_site_fract_y
 _atom_site_fract_z
 _atom_site_occupancy
  Sr  Sr0  1  0.663718  0.663718  0.000000  1
  Sr  Sr1  1  0.310033  0.310033  0.000000  1
  Sr  Sr2  1  0.505464  0.005464  0.500000  1
  Sr  Sr3  1  0.005464  0.505464  0.500000  1
  Bi  Bi4  1  0.860476  0.860476  0.000000  1
  As  As5  1  0.132212  0.132212  0.000000  1
  O  O6  1  0.522634  0.522634  0.000000  1
