# generated using pymatgen
data_ZrSc2Os2Pt
_symmetry_space_group_name_H-M   'P 1'
_cell_length_a   3.30152900
_cell_length_b   3.30152900
_cell_length_c   9.60837500
_cell_angle_alpha   90.00000000
_cell_angle_beta   90.00000000
_cell_angle_gamma   90.00000000
_symmetry_Int_Tables_number   1
_chemical_formula_structural   ZrSc2Os2Pt
_chemical_formula_sum   'Zr1 Sc2 Os2 Pt1'
_cell_volume   104.73218817
_cell_formula_units_Z   1
loop_
 _symmetry_equiv_pos_site_id
 _symmetry_equiv_pos_as_xyz
  1  'x, y, z'
loop_
 _atom_site_type_symbol
 _atom_site_label
 _atom_site_symmetry_multiplicity
 _atom_site_fract_x
 _atom_site_fract_y
 _atom_site_fract_z
 _atom_site_occupancy
  Zr  Zr0  1  0.499999  0.499999  0.000000  1
  Sc  Sc1  1  0.499999  0.499999  0.330085  1
  Sc  Sc2  1  0.499999  0.499999  0.669915  1
  Os  Os3  1  0.000000  0.000000  0.168922  1
  Os  Os4  1  0.000000  0.000000  0.831078  1
  Pt  Pt5  1  0.000000  0.000000  0.500000  1
