# generated using pymatgen
data_EuFe3As12Rh
_symmetry_space_group_name_H-M   'P 1'
_cell_length_a   7.29810949
_cell_length_b   7.29810915
_cell_length_c   7.29811122
_cell_angle_alpha   109.50462335
_cell_angle_beta   109.50462367
_cell_angle_gamma   109.50462461
_symmetry_Int_Tables_number   1
_chemical_formula_structural   EuFe3As12Rh
_chemical_formula_sum   'Eu1 Fe3 As12 Rh1'
_cell_volume   298.86224140
_cell_formula_units_Z   1
loop_
 _symmetry_equiv_pos_site_id
 _symmetry_equiv_pos_as_xyz
  1  'x, y, z'
loop_
 _atom_site_type_symbol
 _atom_site_label
 _atom_site_symmetry_multiplicity
 _atom_site_fract_x
 _atom_site_fract_y
 _atom_site_fract_z
 _atom_site_occupancy
  Eu  Eu0  1  0.000000  0.000000  0.000000  1
  Fe  Fe1  1  0.500000  0.000000  0.000000  1
  Fe  Fe2  1  0.000000  0.500000  0.000000  1
  Fe  Fe3  1  0.000000  0.000000  0.500000  1
  As  As4  1  0.857382  0.660810  0.500926  1
  As  As5  1  0.142618  0.339190  0.499074  1
  As  As6  1  0.156360  0.658259  0.813807  1
  As  As7  1  0.843640  0.341741  0.186193  1
  As  As8  1  0.660810  0.500926  0.857382  1
  As  As9  1  0.339190  0.499074  0.142618  1
  As  As10  1  0.658259  0.813807  0.156360  1
  As  As11  1  0.341741  0.186193  0.843640  1
  As  As12  1  0.500926  0.857382  0.660810  1
  As  As13  1  0.499074  0.142618  0.339190  1
  As  As14  1  0.186193  0.843640  0.341741  1
  As  As15  1  0.813807  0.156360  0.658259  1
  Rh  Rh16  1  0.500000  0.500000  0.500000  1
