# generated using pymatgen
data_La3Nd4ThTe12
_symmetry_space_group_name_H-M   'P 1'
_cell_length_a   4.45772500
_cell_length_b   12.10308524
_cell_length_c   12.37707487
_cell_angle_alpha   89.83201437
_cell_angle_beta   90.00000000
_cell_angle_gamma   90.00000000
_symmetry_Int_Tables_number   1
_chemical_formula_structural   La3Nd4ThTe12
_chemical_formula_sum   'La3 Nd4 Th1 Te12'
_cell_volume   667.76786613
_cell_formula_units_Z   1
loop_
 _symmetry_equiv_pos_site_id
 _symmetry_equiv_pos_as_xyz
  1  'x, y, z'
loop_
 _atom_site_type_symbol
 _atom_site_label
 _atom_site_symmetry_multiplicity
 _atom_site_fract_x
 _atom_site_fract_y
 _atom_site_fract_z
 _atom_site_occupancy
  La  La0  1  0.750000  0.505759  0.301477  1
  La  La1  1  0.750000  0.007066  0.804782  1
  La  La2  1  0.250000  0.999287  0.195778  1
  Nd  Nd3  1  0.250000  0.185320  0.515189  1
  Nd  Nd4  1  0.750000  0.813465  0.483588  1
  Nd  Nd5  1  0.750000  0.690745  0.982405  1
  Nd  Nd6  1  0.250000  0.310605  0.020563  1
  Th  Th7  1  0.250000  0.489226  0.696337  1
  Te  Te8  1  0.250000  0.875855  0.952259  1
  Te  Te9  1  0.750000  0.125969  0.045350  1
  Te  Te10  1  0.750000  0.375488  0.544465  1
  Te  Te11  1  0.250000  0.623621  0.462029  1
  Te  Te12  1  0.250000  0.210572  0.771658  1
  Te  Te13  1  0.750000  0.796826  0.226804  1
  Te  Te14  1  0.750000  0.686501  0.720086  1
  Te  Te15  1  0.250000  0.302990  0.277295  1
  Te  Te16  1  0.250000  0.556327  0.114447  1
  Te  Te17  1  0.750000  0.445481  0.883346  1
  Te  Te18  1  0.750000  0.056376  0.381186  1
  Te  Te19  1  0.250000  0.942519  0.620956  1
