# generated using pymatgen
data_Tb6Ho4Cd3In5Pd3Pt
_symmetry_space_group_name_H-M   'P 1'
_cell_length_a   3.63074800
_cell_length_b   8.14282343
_cell_length_c   18.34325400
_cell_angle_alpha   90.01859708
_cell_angle_beta   90.00000000
_cell_angle_gamma   90.00000000
_symmetry_Int_Tables_number   1
_chemical_formula_structural   Tb6Ho4Cd3In5Pd3Pt
_chemical_formula_sum   'Tb6 Ho4 Cd3 In5 Pd3 Pt1'
_cell_volume   542.30983583
_cell_formula_units_Z   1
loop_
 _symmetry_equiv_pos_site_id
 _symmetry_equiv_pos_as_xyz
  1  'x, y, z'
loop_
 _atom_site_type_symbol
 _atom_site_label
 _atom_site_symmetry_multiplicity
 _atom_site_fract_x
 _atom_site_fract_y
 _atom_site_fract_z
 _atom_site_occupancy
  Tb  Tb0  1  0.000000  0.499704  0.499417  1
  Tb  Tb1  1  0.000000  0.999692  0.000090  1
  Tb  Tb2  1  0.000000  0.740028  0.280661  1
  Tb  Tb3  1  0.000000  0.260026  0.719570  1
  Tb  Tb4  1  0.000000  0.756874  0.781567  1
  Tb  Tb5  1  0.000000  0.245602  0.218482  1
  Ho  Ho6  1  0.000000  0.612381  0.085160  1
  Ho  Ho7  1  0.000000  0.387540  0.916509  1
  Ho  Ho8  1  0.000000  0.884285  0.584180  1
  Ho  Ho9  1  0.000000  0.113299  0.415435  1
  Cd  Cd10  1  0.500000  0.709275  0.932535  1
  Cd  Cd11  1  0.500000  0.290403  0.066649  1
  Cd  Cd12  1  0.500000  0.790486  0.432590  1
  In  In13  1  0.500000  0.206543  0.567229  1
  In  In14  1  0.500000  0.579011  0.648525  1
  In  In15  1  0.500000  0.422664  0.352011  1
  In  In16  1  0.500000  0.924453  0.147681  1
  In  In17  1  0.500000  0.077318  0.851794  1
  Pd  Pd18  1  0.500000  0.475289  0.804005  1
  Pd  Pd19  1  0.500000  0.976066  0.696044  1
  Pd  Pd20  1  0.500000  0.024947  0.303598  1
  Pt  Pt21  1  0.500000  0.524113  0.196267  1
