# generated using pymatgen
data_Y2HoTm5(Si3Rh)4
_symmetry_space_group_name_H-M   'P 1'
_cell_length_a   8.14534126
_cell_length_b   8.14180082
_cell_length_c   7.81401900
_cell_angle_alpha   90.00000000
_cell_angle_beta   90.00000000
_cell_angle_gamma   119.98562694
_symmetry_Int_Tables_number   1
_chemical_formula_structural   Y2HoTm5(Si3Rh)4
_chemical_formula_sum   'Y2 Ho1 Tm5 Si12 Rh4'
_cell_volume   448.84638739
_cell_formula_units_Z   1
loop_
 _symmetry_equiv_pos_site_id
 _symmetry_equiv_pos_as_xyz
  1  'x, y, z'
loop_
 _atom_site_type_symbol
 _atom_site_label
 _atom_site_symmetry_multiplicity
 _atom_site_fract_x
 _atom_site_fract_y
 _atom_site_fract_z
 _atom_site_occupancy
  Y  Y0  1  0.000172  0.000086  0.250000  1
  Y  Y1  1  0.999837  0.999918  0.750000  1
  Ho  Ho2  1  0.018603  0.509302  0.750000  1
  Tm  Tm3  1  0.509011  0.490903  0.250000  1
  Tm  Tm4  1  0.509011  0.018107  0.250000  1
  Tm  Tm5  1  0.981854  0.490926  0.250000  1
  Tm  Tm6  1  0.491177  0.509125  0.750000  1
  Tm  Tm7  1  0.491177  0.982052  0.750000  1
  Si  Si8  1  0.167585  0.832885  0.499518  1
  Si  Si9  1  0.167585  0.334698  0.499518  1
  Si  Si10  1  0.665089  0.832543  0.500010  1
  Si  Si11  1  0.832495  0.167212  0.499705  1
  Si  Si12  1  0.832495  0.665285  0.499705  1
  Si  Si13  1  0.334744  0.167373  0.499838  1
  Si  Si14  1  0.832495  0.167212  0.000295  1
  Si  Si15  1  0.832495  0.665285  0.000295  1
  Si  Si16  1  0.334744  0.167373  0.000162  1
  Si  Si17  1  0.167585  0.832885  0.000482  1
  Si  Si18  1  0.167585  0.334698  0.000482  1
  Si  Si19  1  0.665089  0.832543  0.999990  1
  Rh  Rh20  1  0.333823  0.666912  0.464782  1
  Rh  Rh21  1  0.665764  0.332882  0.533743  1
  Rh  Rh22  1  0.665764  0.332882  0.966257  1
  Rh  Rh23  1  0.333823  0.666912  0.035218  1
