# generated using pymatgen
data_Hf3Ta3(Fe5B2)2
_symmetry_space_group_name_H-M   'P 1'
_cell_length_a   8.89685241
_cell_length_b   8.89685231
_cell_length_c   2.98506900
_cell_angle_alpha   90.00000000
_cell_angle_beta   90.00000000
_cell_angle_gamma   90.24938298
_symmetry_Int_Tables_number   1
_chemical_formula_structural   Hf3Ta3(Fe5B2)2
_chemical_formula_sum   'Hf3 Ta3 Fe10 B4'
_cell_volume   236.27785947
_cell_formula_units_Z   1
loop_
 _symmetry_equiv_pos_site_id
 _symmetry_equiv_pos_as_xyz
  1  'x, y, z'
loop_
 _atom_site_type_symbol
 _atom_site_label
 _atom_site_symmetry_multiplicity
 _atom_site_fract_x
 _atom_site_fract_y
 _atom_site_fract_z
 _atom_site_occupancy
  Hf  Hf0  1  0.824312  0.675445  0.000000  1
  Hf  Hf1  1  0.175445  0.324312  0.000000  1
  Hf  Hf2  1  0.324772  0.824772  0.000000  1
  Ta  Ta3  1  0.675083  0.175083  0.000000  1
  Ta  Ta4  1  0.499597  0.500993  0.000000  1
  Ta  Ta5  1  0.000993  0.999597  0.000000  1
  Fe  Fe6  1  0.569065  0.724799  0.500000  1
  Fe  Fe7  1  0.436445  0.276968  0.500000  1
  Fe  Fe8  1  0.067788  0.776730  0.500000  1
  Fe  Fe9  1  0.925369  0.220047  0.500000  1
  Fe  Fe10  1  0.276730  0.567788  0.500000  1
  Fe  Fe11  1  0.720047  0.425369  0.500000  1
  Fe  Fe12  1  0.224799  0.069065  0.500000  1
  Fe  Fe13  1  0.776968  0.936445  0.500000  1
  Fe  Fe14  1  0.504325  0.004325  0.500000  1
  Fe  Fe15  1  0.997792  0.497792  0.500000  1
  B  B16  1  0.619805  0.883466  0.000000  1
  B  B17  1  0.383466  0.119805  0.000000  1
  B  B18  1  0.118192  0.618192  0.000000  1
  B  B19  1  0.879007  0.379007  0.000000  1
