# generated using pymatgen
data_LaPN3
_symmetry_space_group_name_H-M   'P 1'
_cell_length_a   7.46006645
_cell_length_b   7.46006783
_cell_length_c   5.00105310
_cell_angle_alpha   89.11667019
_cell_angle_beta   89.11667204
_cell_angle_gamma   104.27973783
_symmetry_Int_Tables_number   1
_chemical_formula_structural   LaPN3
_chemical_formula_sum   'La4 P4 N12'
_cell_volume   269.63721342
_cell_formula_units_Z   4
loop_
 _symmetry_equiv_pos_site_id
 _symmetry_equiv_pos_as_xyz
  1  'x, y, z'
loop_
 _atom_site_type_symbol
 _atom_site_label
 _atom_site_symmetry_multiplicity
 _atom_site_fract_x
 _atom_site_fract_y
 _atom_site_fract_z
 _atom_site_occupancy
  La  La0  1  0.296821  0.703179  0.750000  1
  La  La1  1  0.703179  0.296821  0.250000  1
  La  La2  1  0.096315  0.903685  0.250000  1
  La  La3  1  0.903685  0.096315  0.750000  1
  P  P4  1  0.376354  0.234650  0.804405  1
  P  P5  1  0.623646  0.765350  0.195595  1
  P  P6  1  0.765350  0.623646  0.695595  1
  P  P7  1  0.234650  0.376354  0.304405  1
  N  N8  1  0.967363  0.756336  0.735209  1
  N  N9  1  0.766683  0.397836  0.760928  1
  N  N10  1  0.756336  0.967363  0.235209  1
  N  N11  1  0.233317  0.602164  0.239072  1
  N  N12  1  0.032637  0.243664  0.264791  1
  N  N13  1  0.243664  0.032637  0.764791  1
  N  N14  1  0.602164  0.233317  0.739072  1
  N  N15  1  0.614452  0.698244  0.880184  1
  N  N16  1  0.385548  0.301756  0.119816  1
  N  N17  1  0.397836  0.766683  0.260928  1
  N  N18  1  0.698244  0.614452  0.380184  1
  N  N19  1  0.301756  0.385548  0.619816  1
