# generated using pymatgen
data_KCrNiP2
_symmetry_space_group_name_H-M   'P 1'
_cell_length_a   7.27286735
_cell_length_b   7.27286774
_cell_length_c   7.27286682
_cell_angle_alpha   149.71826658
_cell_angle_beta   149.71827518
_cell_angle_gamma   43.35511143
_symmetry_Int_Tables_number   1
_chemical_formula_structural   KCrNiP2
_chemical_formula_sum   'K1 Cr1 Ni1 P2'
_cell_volume   97.55409908
_cell_formula_units_Z   1
loop_
 _symmetry_equiv_pos_site_id
 _symmetry_equiv_pos_as_xyz
  1  'x, y, z'
loop_
 _atom_site_type_symbol
 _atom_site_label
 _atom_site_symmetry_multiplicity
 _atom_site_fract_x
 _atom_site_fract_y
 _atom_site_fract_z
 _atom_site_occupancy
  K  K0  1  0.000000  0.000000  0.000000  1
  Cr  Cr1  1  0.250000  0.750000  0.500000  1
  Ni  Ni2  1  0.750000  0.250000  0.500000  1
  P  P3  1  0.342313  0.342313  0.000000  1
  P  P4  1  0.657687  0.657687  0.000000  1
