# generated using pymatgen
data_Sr3LiAg11
_symmetry_space_group_name_H-M   'P 1'
_cell_length_a   9.88525100
_cell_length_b   9.88525169
_cell_length_c   8.12966400
_cell_angle_alpha   90.00000000
_cell_angle_beta   90.00000000
_cell_angle_gamma   120.00000103
_symmetry_Int_Tables_number   1
_chemical_formula_structural   Sr3LiAg11
_chemical_formula_sum   'Sr6 Li2 Ag22'
_cell_volume   687.98450398
_cell_formula_units_Z   2
loop_
 _symmetry_equiv_pos_site_id
 _symmetry_equiv_pos_as_xyz
  1  'x, y, z'
loop_
 _atom_site_type_symbol
 _atom_site_label
 _atom_site_symmetry_multiplicity
 _atom_site_fract_x
 _atom_site_fract_y
 _atom_site_fract_z
 _atom_site_occupancy
  Sr  Sr0  1  0.523568  0.047137  0.250000  1
  Sr  Sr1  1  0.476432  0.952863  0.750000  1
  Sr  Sr2  1  0.952863  0.476432  0.250000  1
  Sr  Sr3  1  0.047137  0.523568  0.750000  1
  Sr  Sr4  1  0.523568  0.476432  0.250000  1
  Sr  Sr5  1  0.476432  0.523568  0.750000  1
  Li  Li6  1  0.000000  0.000000  0.000000  1
  Li  Li7  1  0.000000  0.000000  0.500000  1
  Ag  Ag8  1  0.168962  0.337925  0.066416  1
  Ag  Ag9  1  0.831038  0.662075  0.933584  1
  Ag  Ag10  1  0.662075  0.831038  0.066416  1
  Ag  Ag11  1  0.831038  0.662075  0.566416  1
  Ag  Ag12  1  0.337925  0.168962  0.933584  1
  Ag  Ag13  1  0.168962  0.337925  0.433584  1
  Ag  Ag14  1  0.168962  0.831038  0.066416  1
  Ag  Ag15  1  0.337925  0.168962  0.566416  1
  Ag  Ag16  1  0.831038  0.168962  0.933584  1
  Ag  Ag17  1  0.662075  0.831038  0.433584  1
  Ag  Ag18  1  0.831038  0.168962  0.566416  1
  Ag  Ag19  1  0.168962  0.831038  0.433584  1
  Ag  Ag20  1  0.896549  0.793100  0.250000  1
  Ag  Ag21  1  0.103451  0.206900  0.750000  1
  Ag  Ag22  1  0.206900  0.103451  0.250000  1
  Ag  Ag23  1  0.793100  0.896549  0.750000  1
  Ag  Ag24  1  0.896549  0.103451  0.250000  1
  Ag  Ag25  1  0.103451  0.896549  0.750000  1
  Ag  Ag26  1  0.333333  0.666667  0.068999  1
  Ag  Ag27  1  0.666667  0.333333  0.931001  1
  Ag  Ag28  1  0.666667  0.333333  0.568999  1
  Ag  Ag29  1  0.333333  0.666667  0.431001  1
