# generated using pymatgen
data_Er2Zr4Pb5
_symmetry_space_group_name_H-M   'P 1'
_cell_length_a   6.04442100
_cell_length_b   9.14942590
_cell_length_c   11.29173800
_cell_angle_alpha   113.89979501
_cell_angle_beta   105.52435506
_cell_angle_gamma   90.00000029
_symmetry_Int_Tables_number   1
_chemical_formula_structural   Er2Zr4Pb5
_chemical_formula_sum   'Er4 Zr8 Pb10'
_cell_volume   545.90953061
_cell_formula_units_Z   2
loop_
 _symmetry_equiv_pos_site_id
 _symmetry_equiv_pos_as_xyz
  1  'x, y, z'
loop_
 _atom_site_type_symbol
 _atom_site_label
 _atom_site_symmetry_multiplicity
 _atom_site_fract_x
 _atom_site_fract_y
 _atom_site_fract_z
 _atom_site_occupancy
  Er  Er0  1  0.143659  0.254542  0.287318  1
  Er  Er1  1  0.856341  0.745458  0.712682  1
  Er  Er2  1  0.643659  0.032776  0.287318  1
  Er  Er3  1  0.356341  0.967224  0.712682  1
  Zr  Zr4  1  0.561799  0.311799  0.623596  1
  Zr  Zr5  1  0.438201  0.688201  0.376404  1
  Zr  Zr6  1  0.938201  0.688201  0.376404  1
  Zr  Zr7  1  0.061799  0.311799  0.623596  1
  Zr  Zr8  1  0.434876  0.672975  0.869751  1
  Zr  Zr9  1  0.565124  0.327025  0.130249  1
  Zr  Zr10  1  0.934876  0.196775  0.869751  1
  Zr  Zr11  1  0.065124  0.803225  0.130249  1
  Pb  Pb12  1  0.288755  0.589995  0.577509  1
  Pb  Pb13  1  0.711245  0.410005  0.422491  1
  Pb  Pb14  1  0.788755  0.987514  0.577509  1
  Pb  Pb15  1  0.211245  0.012486  0.422491  1
  Pb  Pb16  1  0.250000  0.000000  0.000000  1
  Pb  Pb17  1  0.750000  0.000000  0.000000  1
  Pb  Pb18  1  0.066921  0.462405  0.133842  1
  Pb  Pb19  1  0.933079  0.537595  0.866158  1
  Pb  Pb20  1  0.566921  0.671437  0.133842  1
  Pb  Pb21  1  0.433079  0.328563  0.866158  1
