# generated using pymatgen
data_Tm4Ga4IrPd3
_symmetry_space_group_name_H-M   'P 1'
_cell_length_a   4.43735700
_cell_length_b   6.82572105
_cell_length_c   7.62874105
_cell_angle_alpha   89.98665956
_cell_angle_beta   90.00000000
_cell_angle_gamma   90.00000000
_symmetry_Int_Tables_number   1
_chemical_formula_structural   Tm4Ga4IrPd3
_chemical_formula_sum   'Tm4 Ga4 Ir1 Pd3'
_cell_volume   231.06053143
_cell_formula_units_Z   1
loop_
 _symmetry_equiv_pos_site_id
 _symmetry_equiv_pos_as_xyz
  1  'x, y, z'
loop_
 _atom_site_type_symbol
 _atom_site_label
 _atom_site_symmetry_multiplicity
 _atom_site_fract_x
 _atom_site_fract_y
 _atom_site_fract_z
 _atom_site_occupancy
  Tm  Tm0  1  0.250000  0.983267  0.302488  1
  Tm  Tm1  1  0.250000  0.478885  0.192670  1
  Tm  Tm2  1  0.750000  0.019028  0.701072  1
  Tm  Tm3  1  0.750000  0.508672  0.804047  1
  Ga  Ga4  1  0.250000  0.324231  0.574648  1
  Ga  Ga5  1  0.250000  0.830848  0.926568  1
  Ga  Ga6  1  0.750000  0.674527  0.427907  1
  Ga  Ga7  1  0.750000  0.174888  0.072129  1
  Ir  Ir8  1  0.250000  0.227957  0.899818  1
  Pd  Pd9  1  0.250000  0.723271  0.598730  1
  Pd  Pd10  1  0.750000  0.777318  0.100133  1
  Pd  Pd11  1  0.750000  0.277107  0.399789  1
