# generated using pymatgen
data_Dy7YB2(Os2C3)2
_symmetry_space_group_name_H-M   'P 1'
_cell_length_a   5.14328900
_cell_length_b   6.55990454
_cell_length_c   9.84757548
_cell_angle_alpha   90.30400303
_cell_angle_beta   90.00000000
_cell_angle_gamma   90.00000000
_symmetry_Int_Tables_number   1
_chemical_formula_structural   Dy7YB2(Os2C3)2
_chemical_formula_sum   'Dy7 Y1 B2 Os4 C6'
_cell_volume   332.24744707
_cell_formula_units_Z   1
loop_
 _symmetry_equiv_pos_site_id
 _symmetry_equiv_pos_as_xyz
  1  'x, y, z'
loop_
 _atom_site_type_symbol
 _atom_site_label
 _atom_site_symmetry_multiplicity
 _atom_site_fract_x
 _atom_site_fract_y
 _atom_site_fract_z
 _atom_site_occupancy
  Dy  Dy0  1  0.750000  0.318240  0.450218  1
  Dy  Dy1  1  0.750000  0.823659  0.052313  1
  Dy  Dy2  1  0.250000  0.176422  0.947808  1
  Dy  Dy3  1  0.250000  0.522511  0.211995  1
  Dy  Dy4  1  0.750000  0.477729  0.787645  1
  Dy  Dy5  1  0.750000  0.974894  0.716060  1
  Dy  Dy6  1  0.250000  0.025194  0.283737  1
  Y  Y7  1  0.250000  0.681903  0.549606  1
  B  B8  1  0.250000  0.454870  0.757956  1
  B  B9  1  0.750000  0.544893  0.242362  1
  Os  Os10  1  0.250000  0.729571  0.862781  1
  Os  Os11  1  0.750000  0.270502  0.137264  1
  Os  Os12  1  0.750000  0.784578  0.369481  1
  Os  Os13  1  0.250000  0.215399  0.630515  1
  C  C14  1  0.750000  0.040976  0.260057  1
  C  C15  1  0.250000  0.959323  0.740253  1
  C  C16  1  0.250000  0.821333  0.050227  1
  C  C17  1  0.750000  0.178811  0.949851  1
  C  C18  1  0.750000  0.676536  0.551767  1
  C  C19  1  0.250000  0.322653  0.448106  1
