# generated using pymatgen
data_TbY5(Al3Os)8
_symmetry_space_group_name_H-M   'P 1'
_cell_length_a   8.84151500
_cell_length_b   8.83988442
_cell_length_c   9.56806800
_cell_angle_alpha   90.00000000
_cell_angle_beta   90.00000000
_cell_angle_gamma   120.00609823
_symmetry_Int_Tables_number   1
_chemical_formula_structural   TbY5(Al3Os)8
_chemical_formula_sum   'Tb1 Y5 Al24 Os8'
_cell_volume   647.59199121
_cell_formula_units_Z   1
loop_
 _symmetry_equiv_pos_site_id
 _symmetry_equiv_pos_as_xyz
  1  'x, y, z'
loop_
 _atom_site_type_symbol
 _atom_site_label
 _atom_site_symmetry_multiplicity
 _atom_site_fract_x
 _atom_site_fract_y
 _atom_site_fract_z
 _atom_site_occupancy
  Tb  Tb0  1  0.192927  0.385854  0.250000  1
  Y  Y1  1  0.807082  0.614164  0.750000  1
  Y  Y2  1  0.614082  0.807040  0.250000  1
  Y  Y3  1  0.385860  0.192929  0.750000  1
  Y  Y4  1  0.192958  0.807040  0.250000  1
  Y  Y5  1  0.807070  0.192929  0.750000  1
  Al  Al6  1  0.333345  0.666690  0.014425  1
  Al  Al7  1  0.666667  0.333333  0.985587  1
  Al  Al8  1  0.666667  0.333333  0.514413  1
  Al  Al9  1  0.333345  0.666690  0.485575  1
  Al  Al10  1  0.162774  0.325548  0.575684  1
  Al  Al11  1  0.837215  0.674430  0.424353  1
  Al  Al12  1  0.674453  0.837232  0.575666  1
  Al  Al13  1  0.837215  0.674430  0.075647  1
  Al  Al14  1  0.325556  0.162760  0.424328  1
  Al  Al15  1  0.162774  0.325548  0.924316  1
  Al  Al16  1  0.162779  0.837232  0.575666  1
  Al  Al17  1  0.325556  0.162760  0.075672  1
  Al  Al18  1  0.837204  0.162760  0.424328  1
  Al  Al19  1  0.674453  0.837232  0.924334  1
  Al  Al20  1  0.837204  0.162760  0.075672  1
  Al  Al21  1  0.162779  0.837232  0.924334  1
  Al  Al22  1  0.560018  0.120035  0.250000  1
  Al  Al23  1  0.439980  0.879961  0.750000  1
  Al  Al24  1  0.879899  0.439969  0.250000  1
  Al  Al25  1  0.120023  0.560015  0.750000  1
  Al  Al26  1  0.560070  0.439969  0.250000  1
  Al  Al27  1  0.439991  0.560015  0.750000  1
  Al  Al28  1  0.000011  0.000023  0.250000  1
  Al  Al29  1  0.000001  0.000002  0.750000  1
  Os  Os30  1  0.500013  0.000027  0.999984  1
  Os  Os31  1  0.999992  0.500009  0.999987  1
  Os  Os32  1  0.500013  0.000027  0.500016  1
  Os  Os33  1  0.500017  0.500009  0.999987  1
  Os  Os34  1  0.999992  0.500009  0.500013  1
  Os  Os35  1  0.500017  0.500009  0.500013  1
  Os  Os36  1  0.999998  0.999997  0.999968  1
  Os  Os37  1  0.999998  0.999997  0.500032  1
