# generated using pymatgen
data_Ho3ErSc2(B2Ir5)2
_symmetry_space_group_name_H-M   'P 1'
_cell_length_a   3.16417900
_cell_length_b   9.77653916
_cell_length_c   9.77653916
_cell_angle_alpha   89.97913648
_cell_angle_beta   90.00000000
_cell_angle_gamma   90.00000000
_symmetry_Int_Tables_number   1
_chemical_formula_structural   Ho3ErSc2(B2Ir5)2
_chemical_formula_sum   'Ho3 Er1 Sc2 B4 Ir10'
_cell_volume   302.43448061
_cell_formula_units_Z   1
loop_
 _symmetry_equiv_pos_site_id
 _symmetry_equiv_pos_as_xyz
  1  'x, y, z'
loop_
 _atom_site_type_symbol
 _atom_site_label
 _atom_site_symmetry_multiplicity
 _atom_site_fract_x
 _atom_site_fract_y
 _atom_site_fract_z
 _atom_site_occupancy
  Ho  Ho0  1  0.000000  0.176854  0.676865  1
  Ho  Ho1  1  0.000000  0.823135  0.323146  1
  Ho  Ho2  1  0.000000  0.323171  0.176829  1
  Er  Er3  1  0.000000  0.676798  0.823202  1
  Sc  Sc4  1  0.000000  0.999943  0.999956  1
  Sc  Sc5  1  0.000000  0.500044  0.500057  1
  B  B6  1  0.000000  0.620500  0.120406  1
  B  B7  1  0.000000  0.379594  0.879500  1
  B  B8  1  0.000000  0.879439  0.620561  1
  B  B9  1  0.000000  0.120468  0.379532  1
  Ir  Ir10  1  0.500000  0.069203  0.225313  1
  Ir  Ir11  1  0.500000  0.930488  0.774779  1
  Ir  Ir12  1  0.500000  0.774627  0.068928  1
  Ir  Ir13  1  0.500000  0.431072  0.725373  1
  Ir  Ir14  1  0.500000  0.225342  0.930782  1
  Ir  Ir15  1  0.500000  0.569218  0.274658  1
  Ir  Ir16  1  0.500000  0.725221  0.569512  1
  Ir  Ir17  1  0.500000  0.274687  0.430797  1
  Ir  Ir18  1  0.500000  0.999961  0.500039  1
  Ir  Ir19  1  0.500000  0.500235  0.999765  1
