# generated using pymatgen
data_CsMn3FeO8
_symmetry_space_group_name_H-M   'P 1'
_cell_length_a   5.89443593
_cell_length_b   5.89443541
_cell_length_c   7.65888850
_cell_angle_alpha   68.48340186
_cell_angle_beta   68.48340296
_cell_angle_gamma   59.90852793
_symmetry_Int_Tables_number   1
_chemical_formula_structural   CsMn3FeO8
_chemical_formula_sum   'Cs1 Mn3 Fe1 O8'
_cell_volume   208.59291322
_cell_formula_units_Z   1
loop_
 _symmetry_equiv_pos_site_id
 _symmetry_equiv_pos_as_xyz
  1  'x, y, z'
loop_
 _atom_site_type_symbol
 _atom_site_label
 _atom_site_symmetry_multiplicity
 _atom_site_fract_x
 _atom_site_fract_y
 _atom_site_fract_z
 _atom_site_occupancy
  Cs  Cs0  1  0.500000  0.500000  0.500000  1
  Mn  Mn1  1  0.000000  0.000000  0.000000  1
  Mn  Mn2  1  0.000000  0.500000  0.000000  1
  Mn  Mn3  1  0.500000  0.000000  0.000000  1
  Fe  Fe4  1  0.500000  0.500000  0.000000  1
  O  O5  1  0.718449  0.718449  0.857981  1
  O  O6  1  0.718488  0.198067  0.858046  1
  O  O7  1  0.198067  0.718488  0.858046  1
  O  O8  1  0.211780  0.211780  0.857749  1
  O  O9  1  0.788220  0.788220  0.142251  1
  O  O10  1  0.801933  0.281512  0.141954  1
  O  O11  1  0.281512  0.801933  0.141954  1
  O  O12  1  0.281551  0.281551  0.142019  1
