# generated using pymatgen
data_Ti15V(Si4Mo)4
_symmetry_space_group_name_H-M   'P 1'
_cell_length_a   6.64231480
_cell_length_b   6.64232565
_cell_length_c   12.17640544
_cell_angle_alpha   90.04895361
_cell_angle_beta   90.13538804
_cell_angle_gamma   90.02364199
_symmetry_Int_Tables_number   1
_chemical_formula_structural   Ti15V(Si4Mo)4
_chemical_formula_sum   'Ti15 V1 Si16 Mo4'
_cell_volume   537.22635521
_cell_formula_units_Z   1
loop_
 _symmetry_equiv_pos_site_id
 _symmetry_equiv_pos_as_xyz
  1  'x, y, z'
loop_
 _atom_site_type_symbol
 _atom_site_label
 _atom_site_symmetry_multiplicity
 _atom_site_fract_x
 _atom_site_fract_y
 _atom_site_fract_z
 _atom_site_occupancy
  Ti  Ti0  1  0.349306  0.494809  0.871430  1
  Ti  Ti1  1  0.650449  0.503734  0.372766  1
  Ti  Ti2  1  0.495258  0.350569  0.127678  1
  Ti  Ti3  1  0.504084  0.649854  0.627860  1
  Ti  Ti4  1  0.004202  0.850416  0.122064  1
  Ti  Ti5  1  0.149536  0.996340  0.377724  1
  Ti  Ti6  1  0.850789  0.004193  0.878396  1
  Ti  Ti7  1  0.000904  0.339209  0.222817  1
  Ti  Ti8  1  0.161059  0.500879  0.472188  1
  Ti  Ti9  1  0.839158  0.498765  0.971828  1
  Ti  Ti10  1  0.501683  0.161053  0.528071  1
  Ti  Ti11  1  0.498979  0.839684  0.027475  1
  Ti  Ti12  1  0.999652  0.660773  0.722080  1
  Ti  Ti13  1  0.340434  0.999670  0.777376  1
  Ti  Ti14  1  0.660754  0.998887  0.278497  1
  V  V15  1  0.996032  0.150723  0.621796  1
  Si  Si16  1  0.041121  0.301744  0.812332  1
  Si  Si17  1  0.196317  0.542049  0.064267  1
  Si  Si18  1  0.804441  0.454039  0.565414  1
  Si  Si19  1  0.542525  0.196883  0.935389  1
  Si  Si20  1  0.457020  0.802937  0.436025  1
  Si  Si21  1  0.957741  0.696941  0.314582  1
  Si  Si22  1  0.303404  0.042007  0.185460  1
  Si  Si23  1  0.701764  0.960091  0.685169  1
  Si  Si24  1  0.289160  0.358340  0.671477  1
  Si  Si25  1  0.140695  0.792891  0.922826  1
  Si  Si26  1  0.860468  0.205704  0.424814  1
  Si  Si27  1  0.793107  0.140779  0.077442  1
  Si  Si28  1  0.204544  0.864747  0.577881  1
  Si  Si29  1  0.706499  0.640607  0.173041  1
  Si  Si30  1  0.359779  0.293568  0.326976  1
  Si  Si31  1  0.640001  0.707393  0.826815  1
  Mo  Mo32  1  0.169853  0.169651  0.999376  1
  Mo  Mo33  1  0.330029  0.669889  0.250146  1
  Mo  Mo34  1  0.668741  0.330548  0.749823  1
  Mo  Mo35  1  0.830514  0.829636  0.500701  1
