# generated using pymatgen
data_TbCeNd2In2Ir3
_symmetry_space_group_name_H-M   'P 1'
_cell_length_a   7.58604604
_cell_length_b   7.46141567
_cell_length_c   4.26868800
_cell_angle_alpha   90.00000000
_cell_angle_beta   90.00000000
_cell_angle_gamma   119.45800610
_symmetry_Int_Tables_number   1
_chemical_formula_structural   TbCeNd2In2Ir3
_chemical_formula_sum   'Tb1 Ce1 Nd2 In2 Ir3'
_cell_volume   210.38163917
_cell_formula_units_Z   1
loop_
 _symmetry_equiv_pos_site_id
 _symmetry_equiv_pos_as_xyz
  1  'x, y, z'
loop_
 _atom_site_type_symbol
 _atom_site_label
 _atom_site_symmetry_multiplicity
 _atom_site_fract_x
 _atom_site_fract_y
 _atom_site_fract_z
 _atom_site_occupancy
  Tb  Tb0  1  0.000000  0.621773  0.000000  1
  Ce  Ce1  1  0.000000  0.261969  0.500000  1
  Nd  Nd2  1  0.437052  0.409855  0.000000  1
  Nd  Nd3  1  0.562948  0.972802  0.000000  1
  In  In4  1  0.748995  0.750119  0.500000  1
  In  In5  1  0.251005  0.001125  0.500000  1
  Ir  Ir6  1  0.000000  0.003059  0.000000  1
  Ir  Ir7  1  0.319956  0.649627  0.500000  1
  Ir  Ir8  1  0.680044  0.329670  0.500000  1
