# generated using pymatgen
data_HfZr(PRh)2
_symmetry_space_group_name_H-M   'P 1'
_cell_length_a   3.80566000
_cell_length_b   6.51653600
_cell_length_c   7.45459500
_cell_angle_alpha   90.00000000
_cell_angle_beta   90.00000000
_cell_angle_gamma   90.00000000
_symmetry_Int_Tables_number   1
_chemical_formula_structural   HfZr(PRh)2
_chemical_formula_sum   'Hf2 Zr2 P4 Rh4'
_cell_volume   184.87187165
_cell_formula_units_Z   2
loop_
 _symmetry_equiv_pos_site_id
 _symmetry_equiv_pos_as_xyz
  1  'x, y, z'
loop_
 _atom_site_type_symbol
 _atom_site_label
 _atom_site_symmetry_multiplicity
 _atom_site_fract_x
 _atom_site_fract_y
 _atom_site_fract_z
 _atom_site_occupancy
  Hf  Hf0  1  0.250000  0.027932  0.819993  1
  Hf  Hf1  1  0.250000  0.527932  0.680007  1
  Zr  Zr2  1  0.750000  0.972320  0.179537  1
  Zr  Zr3  1  0.750000  0.472320  0.320463  1
  P  P4  1  0.250000  0.759647  0.376936  1
  P  P5  1  0.250000  0.259647  0.123064  1
  P  P6  1  0.750000  0.241426  0.623476  1
  P  P7  1  0.750000  0.741426  0.876524  1
  Rh  Rh8  1  0.250000  0.144703  0.440767  1
  Rh  Rh9  1  0.250000  0.644703  0.059233  1
  Rh  Rh10  1  0.750000  0.853972  0.565910  1
  Rh  Rh11  1  0.750000  0.353972  0.934090  1
