# generated using pymatgen
data_Tb11TmPb10
_symmetry_space_group_name_H-M   'P 1'
_cell_length_a   11.82247527
_cell_length_b   11.82247626
_cell_length_c   11.81981493
_cell_angle_alpha   146.96074829
_cell_angle_beta   132.74139405
_cell_angle_gamma   58.89244087
_symmetry_Int_Tables_number   1
_chemical_formula_structural   Tb11TmPb10
_chemical_formula_sum   'Tb11 Tm1 Pb10'
_cell_volume   655.85080024
_cell_formula_units_Z   1
loop_
 _symmetry_equiv_pos_site_id
 _symmetry_equiv_pos_as_xyz
  1  'x, y, z'
loop_
 _atom_site_type_symbol
 _atom_site_label
 _atom_site_symmetry_multiplicity
 _atom_site_fract_x
 _atom_site_fract_y
 _atom_site_fract_z
 _atom_site_occupancy
  Tb  Tb0  1  0.249199  0.637144  0.612340  1
  Tb  Tb1  1  0.680429  0.941525  0.738705  1
  Tb  Tb2  1  0.024804  0.136858  0.887660  1
  Tb  Tb3  1  0.974801  0.863014  0.112191  1
  Tb  Tb4  1  0.797124  0.558705  0.238697  1
  Tb  Tb5  1  0.202819  0.441723  0.761295  1
  Tb  Tb6  1  0.303086  0.053086  0.750000  1
  Tb  Tb7  1  0.320007  0.058427  0.261303  1
  Tb  Tb8  1  0.303109  0.553109  0.250000  1
  Tb  Tb9  1  0.750822  0.362610  0.387809  1
  Tb  Tb10  1  0.696893  0.446893  0.750000  1
  Tm  Tm11  1  0.696840  0.946840  0.250000  1
  Pb  Pb12  1  0.481454  0.575903  0.907169  1
  Pb  Pb13  1  0.598521  0.795226  0.805158  1
  Pb  Pb14  1  0.668734  0.074285  0.592831  1
  Pb  Pb15  1  0.999960  0.749960  0.750000  1
  Pb  Pb16  1  0.990068  0.293362  0.694842  1
  Pb  Pb17  1  0.519102  0.425341  0.094078  1
  Pb  Pb18  1  0.008602  0.706101  0.303782  1
  Pb  Pb19  1  0.402318  0.204820  0.196218  1
  Pb  Pb20  1  0.331263  0.925024  0.405922  1
  Pb  Pb21  1  0.000045  0.250045  0.250000  1
