# generated using pymatgen
data_Tb4DySiTe4
_symmetry_space_group_name_H-M   'P 1'
_cell_length_a   7.48413835
_cell_length_b   7.48413855
_cell_length_c   7.48413900
_cell_angle_alpha   99.54834449
_cell_angle_beta   99.54834475
_cell_angle_gamma   131.93142118
_symmetry_Int_Tables_number   1
_chemical_formula_structural   Tb4DySiTe4
_chemical_formula_sum   'Tb4 Dy1 Si1 Te4'
_cell_volume   284.82671964
_cell_formula_units_Z   1
loop_
 _symmetry_equiv_pos_site_id
 _symmetry_equiv_pos_as_xyz
  1  'x, y, z'
loop_
 _atom_site_type_symbol
 _atom_site_label
 _atom_site_symmetry_multiplicity
 _atom_site_fract_x
 _atom_site_fract_y
 _atom_site_fract_z
 _atom_site_occupancy
  Tb  Tb0  1  0.406437  0.772504  0.178941  1
  Tb  Tb1  1  0.593563  0.227496  0.821059  1
  Tb  Tb2  1  0.227496  0.406437  0.633931  1
  Tb  Tb3  1  0.772504  0.593563  0.366069  1
  Dy  Dy4  1  0.000000  0.000000  0.000000  1
  Si  Si5  1  0.500000  0.500000  0.000000  1
  Te  Te6  1  0.091178  0.695378  0.786555  1
  Te  Te7  1  0.695378  0.908822  0.604200  1
  Te  Te8  1  0.304622  0.091178  0.395800  1
  Te  Te9  1  0.908822  0.304622  0.213445  1
