# generated using pymatgen
data_Pr6C2SBr5
_symmetry_space_group_name_H-M   'P 1'
_cell_length_a   4.02263610
_cell_length_b   9.23228900
_cell_length_c   10.99873300
_cell_angle_alpha   86.61287264
_cell_angle_beta   79.45688988
_cell_angle_gamma   77.19854230
_symmetry_Int_Tables_number   1
_chemical_formula_structural   Pr6C2SBr5
_chemical_formula_sum   'Pr6 C2 S1 Br5'
_cell_volume   391.52151435
_cell_formula_units_Z   1
loop_
 _symmetry_equiv_pos_site_id
 _symmetry_equiv_pos_as_xyz
  1  'x, y, z'
loop_
 _atom_site_type_symbol
 _atom_site_label
 _atom_site_symmetry_multiplicity
 _atom_site_fract_x
 _atom_site_fract_y
 _atom_site_fract_z
 _atom_site_occupancy
  Pr  Pr0  1  0.581378  0.066183  0.774971  1
  Pr  Pr1  1  0.967367  0.399220  0.669005  1
  Pr  Pr2  1  0.692276  0.161945  0.455683  1
  Pr  Pr3  1  0.037984  0.598510  0.329521  1
  Pr  Pr4  1  0.313278  0.835717  0.542810  1
  Pr  Pr5  1  0.423763  0.931534  0.223526  1
  C  C6  1  0.127279  0.121778  0.624886  1
  C  C7  1  0.877950  0.875942  0.373620  1
  S  S8  1  0.502693  0.498803  0.499228  1
  Br  Br9  1  0.757464  0.738015  0.751975  1
  Br  Br10  1  0.376896  0.372253  0.877394  1
  Br  Br11  1  0.247796  0.259719  0.246388  1
  Br  Br12  1  0.628552  0.625443  0.121135  1
  Br  Br13  1  0.002544  0.998527  0.999172  1
