# generated using pymatgen
data_Sc4InB4SbRh10
_symmetry_space_group_name_H-M   'P 1'
_cell_length_a   9.39590900
_cell_length_b   9.39590900
_cell_length_c   3.21403900
_cell_angle_alpha   90.00000000
_cell_angle_beta   90.00000000
_cell_angle_gamma   90.00000000
_symmetry_Int_Tables_number   1
_chemical_formula_structural   Sc4InB4SbRh10
_chemical_formula_sum   'Sc4 In1 B4 Sb1 Rh10'
_cell_volume   283.74534552
_cell_formula_units_Z   1
loop_
 _symmetry_equiv_pos_site_id
 _symmetry_equiv_pos_as_xyz
  1  'x, y, z'
loop_
 _atom_site_type_symbol
 _atom_site_label
 _atom_site_symmetry_multiplicity
 _atom_site_fract_x
 _atom_site_fract_y
 _atom_site_fract_z
 _atom_site_occupancy
  Sc  Sc0  1  0.823409  0.327528  0.000000  1
  Sc  Sc1  1  0.327528  0.176591  0.000000  1
  Sc  Sc2  1  0.672472  0.823409  0.000000  1
  Sc  Sc3  1  0.176591  0.672472  0.000000  1
  In  In4  1  0.500000  0.500000  0.000000  1
  B  B5  1  0.619299  0.123405  0.000000  1
  B  B6  1  0.123405  0.380701  0.000000  1
  B  B7  1  0.876595  0.619299  0.000000  1
  B  B8  1  0.380701  0.876595  0.000000  1
  Sb  Sb9  1  0.000000  0.000000  0.000000  1
  Rh  Rh10  1  0.070070  0.220833  0.500000  1
  Rh  Rh11  1  0.220833  0.929930  0.500000  1
  Rh  Rh12  1  0.779167  0.070070  0.500000  1
  Rh  Rh13  1  0.929930  0.779167  0.500000  1
  Rh  Rh14  1  0.425674  0.723984  0.500000  1
  Rh  Rh15  1  0.574326  0.276016  0.500000  1
  Rh  Rh16  1  0.723984  0.574326  0.500000  1
  Rh  Rh17  1  0.276016  0.425674  0.500000  1
  Rh  Rh18  1  0.500000  0.000000  0.500000  1
  Rh  Rh19  1  0.000000  0.500000  0.500000  1
