# generated using pymatgen
data_K2Pu(SiO3)3
_symmetry_space_group_name_H-M   'P 1'
_cell_length_a   7.15363200
_cell_length_b   7.15363294
_cell_length_c   10.63061000
_cell_angle_alpha   90.00000000
_cell_angle_beta   90.00000000
_cell_angle_gamma   119.99998965
_symmetry_Int_Tables_number   1
_chemical_formula_structural   K2Pu(SiO3)3
_chemical_formula_sum   'K4 Pu2 Si6 O18'
_cell_volume   471.13146512
_cell_formula_units_Z   2
loop_
 _symmetry_equiv_pos_site_id
 _symmetry_equiv_pos_as_xyz
  1  'x, y, z'
loop_
 _atom_site_type_symbol
 _atom_site_label
 _atom_site_symmetry_multiplicity
 _atom_site_fract_x
 _atom_site_fract_y
 _atom_site_fract_z
 _atom_site_occupancy
  K  K0  1  0.333333  0.666667  0.057633  1
  K  K1  1  0.666667  0.333333  0.557633  1
  K  K2  1  0.333333  0.666667  0.442367  1
  K  K3  1  0.666667  0.333333  0.942367  1
  Pu  Pu4  1  0.000000  0.000000  0.000000  1
  Pu  Pu5  1  0.000000  0.000000  0.500000  1
  Si  Si6  1  0.606865  0.734439  0.750000  1
  Si  Si7  1  0.872426  0.606865  0.250000  1
  Si  Si8  1  0.734439  0.127574  0.250000  1
  Si  Si9  1  0.265561  0.872426  0.750000  1
  Si  Si10  1  0.127574  0.393135  0.750000  1
  Si  Si11  1  0.393135  0.265561  0.250000  1
  O  O12  1  0.265610  0.244822  0.380190  1
  O  O13  1  0.020788  0.265610  0.880190  1
  O  O14  1  0.244822  0.979212  0.880190  1
  O  O15  1  0.755178  0.020788  0.380190  1
  O  O16  1  0.979212  0.734390  0.380190  1
  O  O17  1  0.734390  0.755178  0.880190  1
  O  O18  1  0.734390  0.755178  0.619810  1
  O  O19  1  0.979212  0.734390  0.119810  1
  O  O20  1  0.755178  0.020788  0.119810  1
  O  O21  1  0.244822  0.979212  0.619810  1
  O  O22  1  0.020788  0.265610  0.619810  1
  O  O23  1  0.265610  0.244822  0.119810  1
  O  O24  1  0.486293  0.094327  0.250000  1
  O  O25  1  0.391966  0.486293  0.750000  1
  O  O26  1  0.094327  0.608034  0.750000  1
  O  O27  1  0.905673  0.391966  0.250000  1
  O  O28  1  0.608034  0.513707  0.250000  1
  O  O29  1  0.513707  0.905673  0.750000  1
