# generated using pymatgen
data_Mg3Zr12Be(Ir2N)4
_symmetry_space_group_name_H-M   'P 1'
_cell_length_a   8.59197924
_cell_length_b   8.59197847
_cell_length_c   8.59197827
_cell_angle_alpha   60.00452396
_cell_angle_beta   60.00453001
_cell_angle_gamma   60.00452491
_symmetry_Int_Tables_number   1
_chemical_formula_structural   Mg3Zr12Be(Ir2N)4
_chemical_formula_sum   'Mg3 Zr12 Be1 Ir8 N4'
_cell_volume   448.54821867
_cell_formula_units_Z   1
loop_
 _symmetry_equiv_pos_site_id
 _symmetry_equiv_pos_as_xyz
  1  'x, y, z'
loop_
 _atom_site_type_symbol
 _atom_site_label
 _atom_site_symmetry_multiplicity
 _atom_site_fract_x
 _atom_site_fract_y
 _atom_site_fract_z
 _atom_site_occupancy
  Mg  Mg0  1  0.125000  0.625000  0.625000  1
  Mg  Mg1  1  0.625000  0.125000  0.625000  1
  Mg  Mg2  1  0.625000  0.625000  0.125000  1
  Zr  Zr3  1  0.807609  0.807609  0.194658  1
  Zr  Zr4  1  0.190560  0.190560  0.809079  1
  Zr  Zr5  1  0.807609  0.194658  0.807609  1
  Zr  Zr6  1  0.190560  0.809079  0.190560  1
  Zr  Zr7  1  0.194658  0.807609  0.807609  1
  Zr  Zr8  1  0.809079  0.190560  0.190560  1
  Zr  Zr9  1  0.442391  0.442391  0.055342  1
  Zr  Zr10  1  0.059440  0.059440  0.440921  1
  Zr  Zr11  1  0.442391  0.055342  0.442391  1
  Zr  Zr12  1  0.059440  0.440921  0.059440  1
  Zr  Zr13  1  0.055342  0.442391  0.442391  1
  Zr  Zr14  1  0.440921  0.059440  0.059440  1
  Be  Be15  1  0.625000  0.625000  0.625000  1
  Ir  Ir16  1  0.752291  0.422171  0.422171  1
  Ir  Ir17  1  0.422171  0.752291  0.422171  1
  Ir  Ir18  1  0.422171  0.422171  0.752291  1
  Ir  Ir19  1  0.414049  0.414049  0.414049  1
  Ir  Ir20  1  0.497709  0.827829  0.827829  1
  Ir  Ir21  1  0.827829  0.497709  0.827829  1
  Ir  Ir22  1  0.827829  0.827829  0.497709  1
  Ir  Ir23  1  0.835951  0.835951  0.835951  1
  N  N24  1  0.625000  0.125000  0.125000  1
  N  N25  1  0.125000  0.625000  0.125000  1
  N  N26  1  0.125000  0.125000  0.625000  1
  N  N27  1  0.125000  0.125000  0.125000  1
