# generated using pymatgen
data_Ho2ErIn3CoAu2
_symmetry_space_group_name_H-M   'P 1'
_cell_length_a   7.73156450
_cell_length_b   7.73639559
_cell_length_c   3.79225900
_cell_angle_alpha   90.00000000
_cell_angle_beta   90.00000000
_cell_angle_gamma   120.02067740
_symmetry_Int_Tables_number   1
_chemical_formula_structural   Ho2ErIn3CoAu2
_chemical_formula_sum   'Ho2 Er1 In3 Co1 Au2'
_cell_volume   196.40120489
_cell_formula_units_Z   1
loop_
 _symmetry_equiv_pos_site_id
 _symmetry_equiv_pos_as_xyz
  1  'x, y, z'
loop_
 _atom_site_type_symbol
 _atom_site_label
 _atom_site_symmetry_multiplicity
 _atom_site_fract_x
 _atom_site_fract_y
 _atom_site_fract_z
 _atom_site_occupancy
  Ho  Ho0  1  0.601156  0.999931  0.500000  1
  Ho  Ho1  1  0.398844  0.398775  0.500000  1
  Er  Er2  1  0.000000  0.601543  0.500000  1
  In  In3  1  0.000000  0.247876  0.000000  1
  In  In4  1  0.752359  0.752088  0.000000  1
  In  In5  1  0.247641  0.999729  0.000000  1
  Co  Co6  1  0.000000  0.999739  0.500000  1
  Au  Au7  1  0.667581  0.333949  0.000000  1
  Au  Au8  1  0.332419  0.666369  0.000000  1
