# generated using pymatgen
data_Tb11HoTcRu3
_symmetry_space_group_name_H-M   'P 1'
_cell_length_a   6.31966459
_cell_length_b   7.35018572
_cell_length_c   9.25969147
_cell_angle_alpha   90.00443859
_cell_angle_beta   89.96387887
_cell_angle_gamma   90.00848455
_symmetry_Int_Tables_number   1
_chemical_formula_structural   Tb11HoTcRu3
_chemical_formula_sum   'Tb11 Ho1 Tc1 Ru3'
_cell_volume   430.11913688
_cell_formula_units_Z   1
loop_
 _symmetry_equiv_pos_site_id
 _symmetry_equiv_pos_as_xyz
  1  'x, y, z'
loop_
 _atom_site_type_symbol
 _atom_site_label
 _atom_site_symmetry_multiplicity
 _atom_site_fract_x
 _atom_site_fract_y
 _atom_site_fract_z
 _atom_site_occupancy
  Tb  Tb0  1  0.168721  0.175966  0.434867  1
  Tb  Tb1  1  0.669427  0.323855  0.565198  1
  Tb  Tb2  1  0.833102  0.824551  0.936372  1
  Tb  Tb3  1  0.669197  0.324103  0.934935  1
  Tb  Tb4  1  0.833087  0.824612  0.563749  1
  Tb  Tb5  1  0.331797  0.675851  0.434389  1
  Tb  Tb6  1  0.168884  0.175994  0.065080  1
  Tb  Tb7  1  0.865793  0.540631  0.249843  1
  Tb  Tb8  1  0.630199  0.042056  0.249877  1
  Tb  Tb9  1  0.136495  0.457270  0.750140  1
  Tb  Tb10  1  0.364345  0.957597  0.750130  1
  Ho  Ho11  1  0.331751  0.675710  0.065495  1
  Tc  Tc12  1  0.039619  0.886339  0.249851  1
  Ru  Ru13  1  0.459145  0.385735  0.249833  1
  Ru  Ru14  1  0.958352  0.115589  0.749978  1
  Ru  Ru15  1  0.540087  0.614140  0.750263  1
