# generated using pymatgen
data_HoTm3(Lu2Os)4
_symmetry_space_group_name_H-M   'P 1'
_cell_length_a   6.19058422
_cell_length_b   7.35133021
_cell_length_c   8.82338100
_cell_angle_alpha   90.00000000
_cell_angle_beta   90.00000000
_cell_angle_gamma   90.07041917
_symmetry_Int_Tables_number   1
_chemical_formula_structural   HoTm3(Lu2Os)4
_chemical_formula_sum   'Ho1 Tm3 Lu8 Os4'
_cell_volume   401.54319642
_cell_formula_units_Z   1
loop_
 _symmetry_equiv_pos_site_id
 _symmetry_equiv_pos_as_xyz
  1  'x, y, z'
loop_
 _atom_site_type_symbol
 _atom_site_label
 _atom_site_symmetry_multiplicity
 _atom_site_fract_x
 _atom_site_fract_y
 _atom_site_fract_z
 _atom_site_occupancy
  Ho  Ho0  1  0.372864  0.960683  0.750000  1
  Tm  Tm1  1  0.872563  0.540151  0.250000  1
  Tm  Tm2  1  0.626650  0.038892  0.250000  1
  Tm  Tm3  1  0.126986  0.460405  0.750000  1
  Lu  Lu4  1  0.335001  0.672894  0.062505  1
  Lu  Lu5  1  0.163896  0.175156  0.437275  1
  Lu  Lu6  1  0.665482  0.326636  0.562030  1
  Lu  Lu7  1  0.836374  0.825637  0.938026  1
  Lu  Lu8  1  0.665482  0.326636  0.937970  1
  Lu  Lu9  1  0.836374  0.825637  0.561974  1
  Lu  Lu10  1  0.335001  0.672894  0.437495  1
  Lu  Lu11  1  0.163896  0.175156  0.062725  1
  Os  Os12  1  0.039632  0.882254  0.250000  1
  Os  Os13  1  0.461112  0.381759  0.250000  1
  Os  Os14  1  0.958295  0.118347  0.750000  1
  Os  Os15  1  0.540388  0.616862  0.750000  1
