# generated using pymatgen
data_Yb(Al3Pt)3
_symmetry_space_group_name_H-M   'P 1'
_cell_length_a   10.47803349
_cell_length_b   10.47803261
_cell_length_c   10.47803207
_cell_angle_alpha   41.93066907
_cell_angle_beta   41.93066950
_cell_angle_gamma   41.93067037
_symmetry_Int_Tables_number   1
_chemical_formula_structural   Yb(Al3Pt)3
_chemical_formula_sum   'Yb2 Al18 Pt6'
_cell_volume   464.59493330
_cell_formula_units_Z   2
loop_
 _symmetry_equiv_pos_site_id
 _symmetry_equiv_pos_as_xyz
  1  'x, y, z'
loop_
 _atom_site_type_symbol
 _atom_site_label
 _atom_site_symmetry_multiplicity
 _atom_site_fract_x
 _atom_site_fract_y
 _atom_site_fract_z
 _atom_site_occupancy
  Yb  Yb0  1  0.166762  0.166762  0.166762  1
  Yb  Yb1  1  0.833238  0.833238  0.833238  1
  Al  Al2  1  0.107236  0.435243  0.763834  1
  Al  Al3  1  0.435243  0.763834  0.107236  1
  Al  Al4  1  0.564757  0.892764  0.236166  1
  Al  Al5  1  0.949386  0.949386  0.949386  1
  Al  Al6  1  0.050614  0.050614  0.050614  1
  Al  Al7  1  0.296695  0.703305  0.500000  1
  Al  Al8  1  0.892764  0.236166  0.564757  1
  Al  Al9  1  0.384941  0.384941  0.384941  1
  Al  Al10  1  0.500000  0.296695  0.703305  1
  Al  Al11  1  0.236166  0.564757  0.892764  1
  Al  Al12  1  0.716961  0.716961  0.716961  1
  Al  Al13  1  0.615059  0.615059  0.615059  1
  Al  Al14  1  0.333615  0.000000  0.666385  1
  Al  Al15  1  0.703305  0.500000  0.296695  1
  Al  Al16  1  0.666385  0.333615  0.000000  1
  Al  Al17  1  0.283039  0.283039  0.283039  1
  Al  Al18  1  0.000000  0.666385  0.333615  1
  Al  Al19  1  0.763834  0.107236  0.435243  1
  Pt  Pt20  1  0.418298  0.077350  0.759007  1
  Pt  Pt21  1  0.581702  0.240993  0.922650  1
  Pt  Pt22  1  0.077350  0.759007  0.418298  1
  Pt  Pt23  1  0.759007  0.418298  0.077350  1
  Pt  Pt24  1  0.922650  0.581702  0.240993  1
  Pt  Pt25  1  0.240993  0.922650  0.581702  1
