# generated using pymatgen
data_Nd2DyHo(Ir2O7)2
_symmetry_space_group_name_H-M   'P 1'
_cell_length_a   7.31451203
_cell_length_b   7.27680554
_cell_length_c   7.31451237
_cell_angle_alpha   60.21108057
_cell_angle_beta   60.37720941
_cell_angle_gamma   60.21108015
_symmetry_Int_Tables_number   1
_chemical_formula_structural   Nd2DyHo(Ir2O7)2
_chemical_formula_sum   'Nd2 Dy1 Ho1 Ir4 O14'
_cell_volume   276.95260761
_cell_formula_units_Z   1
loop_
 _symmetry_equiv_pos_site_id
 _symmetry_equiv_pos_as_xyz
  1  'x, y, z'
loop_
 _atom_site_type_symbol
 _atom_site_label
 _atom_site_symmetry_multiplicity
 _atom_site_fract_x
 _atom_site_fract_y
 _atom_site_fract_z
 _atom_site_occupancy
  Nd  Nd0  1  0.625000  0.125000  0.125000  1
  Nd  Nd1  1  0.125000  0.125000  0.625000  1
  Dy  Dy2  1  0.125000  0.625000  0.125000  1
  Ho  Ho3  1  0.125000  0.125000  0.125000  1
  Ir  Ir4  1  0.125000  0.625000  0.625000  1
  Ir  Ir5  1  0.625000  0.125000  0.625000  1
  Ir  Ir6  1  0.625000  0.625000  0.125000  1
  Ir  Ir7  1  0.625000  0.625000  0.625000  1
  O  O8  1  0.717659  0.702210  0.289664  1
  O  O9  1  0.289444  0.290343  0.718307  1
  O  O10  1  0.709818  0.290228  0.709818  1
  O  O11  1  0.290015  0.710420  0.290015  1
  O  O12  1  0.289664  0.702210  0.717659  1
  O  O13  1  0.718307  0.290343  0.289444  1
  O  O14  1  0.532341  0.547790  0.960336  1
  O  O15  1  0.960556  0.959657  0.531693  1
  O  O16  1  0.540182  0.959772  0.540182  1
  O  O17  1  0.959985  0.539580  0.959985  1
  O  O18  1  0.960336  0.547790  0.532341  1
  O  O19  1  0.531693  0.959657  0.960556  1
  O  O20  1  0.242851  0.256111  0.242851  1
  O  O21  1  0.007149  0.993889  0.007149  1
