# generated using pymatgen
data_Dy2Mn3P7(Ir2W)3
_symmetry_space_group_name_H-M   'P 1'
_cell_length_a   9.43178300
_cell_length_b   9.43178266
_cell_length_c   3.88824800
_cell_angle_alpha   90.00000000
_cell_angle_beta   90.00000000
_cell_angle_gamma   120.00000470
_symmetry_Int_Tables_number   1
_chemical_formula_structural   Dy2Mn3P7(Ir2W)3
_chemical_formula_sum   'Dy2 Mn3 P7 Ir6 W3'
_cell_volume   299.55195152
_cell_formula_units_Z   1
loop_
 _symmetry_equiv_pos_site_id
 _symmetry_equiv_pos_as_xyz
  1  'x, y, z'
loop_
 _atom_site_type_symbol
 _atom_site_label
 _atom_site_symmetry_multiplicity
 _atom_site_fract_x
 _atom_site_fract_y
 _atom_site_fract_z
 _atom_site_occupancy
  Dy  Dy0  1  0.666667  0.333333  0.000000  1
  Dy  Dy1  1  0.333333  0.666667  0.500000  1
  Mn  Mn2  1  0.890355  0.731945  0.000000  1
  Mn  Mn3  1  0.268055  0.158411  0.000000  1
  Mn  Mn4  1  0.841590  0.109645  0.000000  1
  P  P5  1  0.109591  0.702657  0.000000  1
  P  P6  1  0.297343  0.406933  0.000000  1
  P  P7  1  0.593067  0.890409  0.000000  1
  P  P8  1  0.723089  0.602248  0.500000  1
  P  P9  1  0.397752  0.120842  0.500000  1
  P  P10  1  0.879158  0.276911  0.500000  1
  P  P11  1  0.000000  0.000000  0.000000  1
  Ir  Ir12  1  0.363897  0.931401  0.000000  1
  Ir  Ir13  1  0.068599  0.432496  0.000000  1
  Ir  Ir14  1  0.567504  0.636103  0.000000  1
  Ir  Ir15  1  0.941679  0.554575  0.500000  1
  Ir  Ir16  1  0.445425  0.387104  0.500000  1
  Ir  Ir17  1  0.612896  0.058321  0.500000  1
  W  W18  1  0.114051  0.904680  0.500000  1
  W  W19  1  0.095320  0.209371  0.500000  1
  W  W20  1  0.790629  0.885949  0.500000  1
