# generated using pymatgen
data_Zr2Sc4Sn5
_symmetry_space_group_name_H-M   'P 1'
_cell_length_a   11.03072589
_cell_length_b   11.03072518
_cell_length_c   11.03072439
_cell_angle_alpha   148.20852280
_cell_angle_beta   132.43340351
_cell_angle_gamma   58.35168833
_symmetry_Int_Tables_number   1
_chemical_formula_structural   Zr2Sc4Sn5
_chemical_formula_sum   'Zr4 Sc8 Sn10'
_cell_volume   517.75892212
_cell_formula_units_Z   2
loop_
 _symmetry_equiv_pos_site_id
 _symmetry_equiv_pos_as_xyz
  1  'x, y, z'
loop_
 _atom_site_type_symbol
 _atom_site_label
 _atom_site_symmetry_multiplicity
 _atom_site_fract_x
 _atom_site_fract_y
 _atom_site_fract_z
 _atom_site_occupancy
  Zr  Zr0  1  0.308442  0.558442  0.250000  1
  Zr  Zr1  1  0.691558  0.441558  0.750000  1
  Zr  Zr2  1  0.691558  0.941558  0.250000  1
  Zr  Zr3  1  0.308442  0.058442  0.750000  1
  Sc  Sc4  1  0.676178  0.436433  0.239745  1
  Sc  Sc5  1  0.323822  0.563567  0.760255  1
  Sc  Sc6  1  0.196689  0.936433  0.260255  1
  Sc  Sc7  1  0.803311  0.063567  0.739745  1
  Sc  Sc8  1  0.258920  0.143474  0.115446  1
  Sc  Sc9  1  0.741080  0.856526  0.884554  1
  Sc  Sc10  1  0.028026  0.643474  0.384554  1
  Sc  Sc11  1  0.971974  0.356526  0.615446  1
  Sn  Sn12  1  0.594051  0.291096  0.302955  1
  Sn  Sn13  1  0.405949  0.708904  0.697045  1
  Sn  Sn14  1  0.988141  0.791096  0.197045  1
  Sn  Sn15  1  0.011859  0.208904  0.802955  1
  Sn  Sn16  1  0.000000  0.250000  0.250000  1
  Sn  Sn17  1  0.000000  0.750000  0.750000  1
  Sn  Sn18  1  0.469816  0.069609  0.400206  1
  Sn  Sn19  1  0.530184  0.930391  0.599794  1
  Sn  Sn20  1  0.669403  0.569609  0.099794  1
  Sn  Sn21  1  0.330597  0.430391  0.900206  1
