# generated using pymatgen
data_Tb10(IrRu)3
_symmetry_space_group_name_H-M   'P 1'
_cell_length_a   10.89346428
_cell_length_b   10.89082900
_cell_length_c   6.43357416
_cell_angle_alpha   90.00000000
_cell_angle_beta   89.97418840
_cell_angle_gamma   90.00000000
_symmetry_Int_Tables_number   1
_chemical_formula_structural   Tb10(IrRu)3
_chemical_formula_sum   'Tb20 Ir6 Ru6'
_cell_volume   763.27180545
_cell_formula_units_Z   2
loop_
 _symmetry_equiv_pos_site_id
 _symmetry_equiv_pos_as_xyz
  1  'x, y, z'
loop_
 _atom_site_type_symbol
 _atom_site_label
 _atom_site_symmetry_multiplicity
 _atom_site_fract_x
 _atom_site_fract_y
 _atom_site_fract_z
 _atom_site_occupancy
  Tb  Tb0  1  0.292971  0.086818  0.379016  1
  Tb  Tb1  1  0.292971  0.913182  0.879016  1
  Tb  Tb2  1  0.707707  0.086847  0.878679  1
  Tb  Tb3  1  0.707707  0.913153  0.378679  1
  Tb  Tb4  1  0.587713  0.793420  0.879070  1
  Tb  Tb5  1  0.587713  0.206580  0.379070  1
  Tb  Tb6  1  0.412957  0.793635  0.378572  1
  Tb  Tb7  1  0.412957  0.206365  0.878572  1
  Tb  Tb8  1  0.206436  0.413008  0.620919  1
  Tb  Tb9  1  0.206436  0.586992  0.120919  1
  Tb  Tb10  1  0.793498  0.412308  0.121391  1
  Tb  Tb11  1  0.793498  0.587692  0.621391  1
  Tb  Tb12  1  0.912942  0.707350  0.120769  1
  Tb  Tb13  1  0.912942  0.292650  0.620769  1
  Tb  Tb14  1  0.086553  0.707444  0.621614  1
  Tb  Tb15  1  0.086553  0.292556  0.121614  1
  Tb  Tb16  1  0.998542  0.000495  0.499931  1
  Tb  Tb17  1  0.998542  0.999505  0.999931  1
  Tb  Tb18  1  0.500073  0.500258  0.000048  1
  Tb  Tb19  1  0.500073  0.499742  0.500048  1
  Ir  Ir20  1  0.153720  0.153473  0.750142  1
  Ir  Ir21  1  0.153720  0.846527  0.250142  1
  Ir  Ir22  1  0.652335  0.347861  0.749773  1
  Ir  Ir23  1  0.652335  0.652139  0.249773  1
  Ir  Ir24  1  0.347411  0.347137  0.250243  1
  Ir  Ir25  1  0.347411  0.652863  0.750243  1
  Ru  Ru26  1  0.847364  0.152748  0.249826  1
  Ru  Ru27  1  0.847364  0.847252  0.749826  1
  Ru  Ru28  1  0.499942  0.000089  0.121492  1
  Ru  Ru29  1  0.499942  0.999911  0.621492  1
  Ru  Ru30  1  0.999835  0.500324  0.878515  1
  Ru  Ru31  1  0.999835  0.499676  0.378515  1
