# generated using pymatgen
data_La9SnBi4O5
_symmetry_space_group_name_H-M   'P 1'
_cell_length_a   10.60085703
_cell_length_b   10.59512182
_cell_length_c   9.47945421
_cell_angle_alpha   89.99397640
_cell_angle_beta   89.97651452
_cell_angle_gamma   90.04473641
_symmetry_Int_Tables_number   1
_chemical_formula_structural   La9SnBi4O5
_chemical_formula_sum   'La18 Sn2 Bi8 O10'
_cell_volume   1064.70696195
_cell_formula_units_Z   2
loop_
 _symmetry_equiv_pos_site_id
 _symmetry_equiv_pos_as_xyz
  1  'x, y, z'
loop_
 _atom_site_type_symbol
 _atom_site_label
 _atom_site_symmetry_multiplicity
 _atom_site_fract_x
 _atom_site_fract_y
 _atom_site_fract_z
 _atom_site_occupancy
  La  La0  1  0.996051  0.498531  0.326409  1
  La  La1  1  0.500034  0.000160  0.677604  1
  La  La2  1  0.794464  0.108516  0.337374  1
  La  La3  1  0.605309  0.700079  0.337441  1
  La  La4  1  0.399355  0.297866  0.337566  1
  La  La5  1  0.203975  0.895618  0.337704  1
  La  La6  1  0.708027  0.397158  0.658361  1
  La  La7  1  0.897002  0.791654  0.662198  1
  La  La8  1  0.103019  0.208318  0.662279  1
  La  La9  1  0.291635  0.602900  0.661755  1
  La  La10  1  0.080384  0.725591  0.996380  1
  La  La11  1  0.225952  0.418977  0.996381  1
  La  La12  1  0.772410  0.578980  0.998800  1
  La  La13  1  0.918163  0.274229  0.997209  1
  La  La14  1  0.418539  0.772287  0.002719  1
  La  La15  1  0.272733  0.081875  0.002592  1
  La  La16  1  0.727817  0.918162  0.002345  1
  La  La17  1  0.582694  0.230228  0.004782  1
  Sn  Sn18  1  0.000922  0.500243  0.690108  1
  Sn  Sn19  1  0.696261  0.402434  0.298486  1
  Bi  Bi20  1  0.499897  0.999194  0.310578  1
  Bi  Bi21  1  0.902802  0.804790  0.298732  1
  Bi  Bi22  1  0.097992  0.195611  0.298806  1
  Bi  Bi23  1  0.303438  0.597396  0.298808  1
  Bi  Bi24  1  0.803602  0.095874  0.700899  1
  Bi  Bi25  1  0.596113  0.697152  0.701206  1
  Bi  Bi26  1  0.403240  0.303352  0.701099  1
  Bi  Bi27  1  0.196541  0.903708  0.700630  1
  O  O28  1  0.001994  0.500983  0.074109  1
  O  O29  1  0.499361  0.999046  0.926226  1
  O  O30  1  0.879154  0.777119  0.911167  1
  O  O31  1  0.277215  0.621371  0.911160  1
  O  O32  1  0.723502  0.378528  0.909460  1
  O  O33  1  0.121292  0.223187  0.911566  1
  O  O34  1  0.620766  0.725905  0.089420  1
  O  O35  1  0.224905  0.878931  0.089549  1
  O  O36  1  0.775616  0.119570  0.088829  1
  O  O37  1  0.377823  0.274476  0.089265  1
