# generated using pymatgen
data_Na5Hf3(Ni4As3)4
_symmetry_space_group_name_H-M   'P 1'
_cell_length_a   12.72827400
_cell_length_b   12.72827259
_cell_length_c   3.86451700
_cell_angle_alpha   90.00000000
_cell_angle_beta   90.00000000
_cell_angle_gamma   120.00000367
_symmetry_Int_Tables_number   1
_chemical_formula_structural   Na5Hf3(Ni4As3)4
_chemical_formula_sum   'Na5 Hf3 Ni16 As12'
_cell_volume   542.20662663
_cell_formula_units_Z   1
loop_
 _symmetry_equiv_pos_site_id
 _symmetry_equiv_pos_as_xyz
  1  'x, y, z'
loop_
 _atom_site_type_symbol
 _atom_site_label
 _atom_site_symmetry_multiplicity
 _atom_site_fract_x
 _atom_site_fract_y
 _atom_site_fract_z
 _atom_site_occupancy
  Na  Na0  1  0.179210  0.179210  0.500000  1
  Na  Na1  1  0.820790  0.000000  0.500000  1
  Na  Na2  1  0.000000  0.820790  0.500000  1
  Na  Na3  1  0.333333  0.666667  0.000000  1
  Na  Na4  1  0.666667  0.333333  0.000000  1
  Hf  Hf5  1  0.558219  0.558219  0.000000  1
  Hf  Hf6  1  0.441781  0.000000  0.000000  1
  Hf  Hf7  1  0.000000  0.441781  0.000000  1
  Ni  Ni8  1  0.721079  0.721079  0.500000  1
  Ni  Ni9  1  0.278921  0.000000  0.500000  1
  Ni  Ni10  1  0.000000  0.278921  0.500000  1
  Ni  Ni11  1  0.180672  0.377537  0.000000  1
  Ni  Ni12  1  0.622463  0.803135  0.000000  1
  Ni  Ni13  1  0.196865  0.819328  0.000000  1
  Ni  Ni14  1  0.803135  0.622463  0.000000  1
  Ni  Ni15  1  0.819328  0.196865  0.000000  1
  Ni  Ni16  1  0.377537  0.180672  0.000000  1
  Ni  Ni17  1  0.357736  0.478748  0.500000  1
  Ni  Ni18  1  0.521252  0.878988  0.500000  1
  Ni  Ni19  1  0.121012  0.642264  0.500000  1
  Ni  Ni20  1  0.878988  0.521252  0.500000  1
  Ni  Ni21  1  0.642264  0.121012  0.500000  1
  Ni  Ni22  1  0.478748  0.357736  0.500000  1
  Ni  Ni23  1  0.000000  0.000000  0.000000  1
  As  As24  1  0.822786  0.822786  0.000000  1
  As  As25  1  0.177214  0.000000  0.000000  1
  As  As26  1  0.000000  0.177214  0.000000  1
  As  As27  1  0.172016  0.482861  0.500000  1
  As  As28  1  0.517139  0.689154  0.500000  1
  As  As29  1  0.310846  0.827984  0.500000  1
  As  As30  1  0.689154  0.517139  0.500000  1
  As  As31  1  0.827984  0.310846  0.500000  1
  As  As32  1  0.482861  0.172016  0.500000  1
  As  As33  1  0.349894  0.349894  0.000000  1
  As  As34  1  0.650106  0.000000  0.000000  1
  As  As35  1  0.000000  0.650106  0.000000  1
