# generated using pymatgen
data_LaCdHg2(Ru2O7)2
_symmetry_space_group_name_H-M   'P 1'
_cell_length_a   7.35541192
_cell_length_b   7.40422653
_cell_length_c   7.35541158
_cell_angle_alpha   59.38716755
_cell_angle_beta   59.33075742
_cell_angle_gamma   59.38717127
_symmetry_Int_Tables_number   1
_chemical_formula_structural   LaCdHg2(Ru2O7)2
_chemical_formula_sum   'La1 Cd1 Hg2 Ru4 O14'
_cell_volume   279.18330807
_cell_formula_units_Z   1
loop_
 _symmetry_equiv_pos_site_id
 _symmetry_equiv_pos_as_xyz
  1  'x, y, z'
loop_
 _atom_site_type_symbol
 _atom_site_label
 _atom_site_symmetry_multiplicity
 _atom_site_fract_x
 _atom_site_fract_y
 _atom_site_fract_z
 _atom_site_occupancy
  La  La0  1  0.125000  0.125000  0.125000  1
  Cd  Cd1  1  0.125000  0.625000  0.125000  1
  Hg  Hg2  1  0.125000  0.125000  0.625000  1
  Hg  Hg3  1  0.625000  0.125000  0.125000  1
  Ru  Ru4  1  0.625000  0.125000  0.625000  1
  Ru  Ru5  1  0.625000  0.625000  0.125000  1
  Ru  Ru6  1  0.125000  0.625000  0.625000  1
  Ru  Ru7  1  0.625000  0.625000  0.625000  1
  O  O8  1  0.688430  0.689802  0.308887  1
  O  O9  1  0.941113  0.560198  0.561570  1
  O  O10  1  0.552411  0.945553  0.947007  1
  O  O11  1  0.947007  0.945553  0.552411  1
  O  O12  1  0.955714  0.545820  0.955714  1
  O  O13  1  0.562386  0.938652  0.562386  1
  O  O14  1  0.294286  0.704180  0.294286  1
  O  O15  1  0.308887  0.689802  0.688430  1
  O  O16  1  0.697589  0.304447  0.302993  1
  O  O17  1  0.687614  0.311348  0.687614  1
  O  O18  1  0.561570  0.560198  0.941113  1
  O  O19  1  0.302993  0.304447  0.697589  1
  O  O20  1  0.259152  0.255216  0.259152  1
  O  O21  1  0.990848  0.994784  0.990848  1
