# generated using pymatgen
data_Y16InAg3Pt4
_symmetry_space_group_name_H-M   'P 1'
_cell_length_a   9.63461615
_cell_length_b   9.64726701
_cell_length_c   9.64723100
_cell_angle_alpha   60.27969856
_cell_angle_beta   60.16286551
_cell_angle_gamma   60.16281843
_symmetry_Int_Tables_number   1
_chemical_formula_structural   Y16InAg3Pt4
_chemical_formula_sum   'Y16 In1 Ag3 Pt4'
_cell_volume   636.94965826
_cell_formula_units_Z   1
loop_
 _symmetry_equiv_pos_site_id
 _symmetry_equiv_pos_as_xyz
  1  'x, y, z'
loop_
 _atom_site_type_symbol
 _atom_site_label
 _atom_site_symmetry_multiplicity
 _atom_site_fract_x
 _atom_site_fract_y
 _atom_site_fract_z
 _atom_site_occupancy
  Y  Y0  1  0.809705  0.805975  0.191371  1
  Y  Y1  1  0.809726  0.191322  0.806059  1
  Y  Y2  1  0.190132  0.189151  0.810415  1
  Y  Y3  1  0.643336  0.065565  0.643805  1
  Y  Y4  1  0.066708  0.060335  0.436988  1
  Y  Y5  1  0.436291  0.435167  0.063277  1
  Y  Y6  1  0.648151  0.648027  0.648035  1
  Y  Y7  1  0.809669  0.191148  0.191139  1
  Y  Y8  1  0.188367  0.809866  0.809771  1
  Y  Y9  1  0.067792  0.643022  0.642979  1
  Y  Y10  1  0.436681  0.064475  0.064452  1
  Y  Y11  1  0.436341  0.063247  0.435200  1
  Y  Y12  1  0.066759  0.436927  0.060370  1
  Y  Y13  1  0.643302  0.643792  0.065628  1
  Y  Y14  1  0.190134  0.810458  0.189114  1
  Y  Y15  1  0.068640  0.434339  0.434358  1
  In  In16  1  0.740945  0.421213  0.421045  1
  Ag  Ag17  1  0.416227  0.417104  0.417221  1
  Ag  Ag18  1  0.415356  0.415539  0.752713  1
  Ag  Ag19  1  0.415292  0.752885  0.415535  1
  Pt  Pt20  1  0.857353  0.430478  0.857663  1
  Pt  Pt21  1  0.855663  0.854274  0.854300  1
  Pt  Pt22  1  0.857276  0.857660  0.430500  1
  Pt  Pt23  1  0.430155  0.858034  0.858061  1
