# generated using pymatgen
data_Yb2Ga9IrRu4
_symmetry_space_group_name_H-M   'P 1'
_cell_length_a   8.02630217
_cell_length_b   8.02630215
_cell_length_c   8.02630251
_cell_angle_alpha   134.74409317
_cell_angle_beta   134.74408275
_cell_angle_gamma   65.92808648
_symmetry_Int_Tables_number   1
_chemical_formula_structural   Yb2Ga9IrRu4
_chemical_formula_sum   'Yb2 Ga9 Ir1 Ru4'
_cell_volume   256.87534800
_cell_formula_units_Z   1
loop_
 _symmetry_equiv_pos_site_id
 _symmetry_equiv_pos_as_xyz
  1  'x, y, z'
loop_
 _atom_site_type_symbol
 _atom_site_label
 _atom_site_symmetry_multiplicity
 _atom_site_fract_x
 _atom_site_fract_y
 _atom_site_fract_z
 _atom_site_occupancy
  Yb  Yb0  1  0.000000  0.500000  0.500000  1
  Yb  Yb1  1  0.500000  0.000000  0.500000  1
  Ga  Ga2  1  0.434915  0.858541  0.000000  1
  Ga  Ga3  1  0.141459  0.141459  0.576375  1
  Ga  Ga4  1  0.858541  0.434915  0.000000  1
  Ga  Ga5  1  0.858541  0.858541  0.423625  1
  Ga  Ga6  1  0.565085  0.141459  0.000000  1
  Ga  Ga7  1  0.141459  0.565085  0.000000  1
  Ga  Ga8  1  0.565085  0.565085  0.423625  1
  Ga  Ga9  1  0.000000  0.000000  0.000000  1
  Ga  Ga10  1  0.434915  0.434915  0.576375  1
  Ir  Ir11  1  0.500000  0.500000  0.000000  1
  Ru  Ru12  1  0.180890  0.180890  0.000000  1
  Ru  Ru13  1  0.819110  0.819110  0.000000  1
  Ru  Ru14  1  0.250000  0.750000  0.500000  1
  Ru  Ru15  1  0.750000  0.250000  0.500000  1
