# generated using pymatgen
data_Pr17Lu3Si15Os
_symmetry_space_group_name_H-M   'P 1'
_cell_length_a   7.89304625
_cell_length_b   7.85437027
_cell_length_c   15.14371600
_cell_angle_alpha   90.22247628
_cell_angle_beta   89.83122028
_cell_angle_gamma   90.14539760
_symmetry_Int_Tables_number   1
_chemical_formula_structural   Pr17Lu3Si15Os
_chemical_formula_sum   'Pr17 Lu3 Si15 Os1'
_cell_volume   938.81913066
_cell_formula_units_Z   1
loop_
 _symmetry_equiv_pos_site_id
 _symmetry_equiv_pos_as_xyz
  1  'x, y, z'
loop_
 _atom_site_type_symbol
 _atom_site_label
 _atom_site_symmetry_multiplicity
 _atom_site_fract_x
 _atom_site_fract_y
 _atom_site_fract_z
 _atom_site_occupancy
  Pr  Pr0  1  0.698215  0.689167  0.501492  1
  Pr  Pr1  1  0.373808  0.012254  0.448780  1
  Pr  Pr2  1  0.485306  0.881796  0.699118  1
  Pr  Pr3  1  0.512518  0.123584  0.197508  1
  Pr  Pr4  1  0.877225  0.486410  0.299847  1
  Pr  Pr5  1  0.125662  0.501710  0.799408  1
  Pr  Pr6  1  0.624274  0.988231  0.947664  1
  Pr  Pr7  1  0.006550  0.375974  0.553683  1
  Pr  Pr8  1  0.987985  0.624551  0.051401  1
  Pr  Pr9  1  0.131767  0.983370  0.873309  1
  Pr  Pr10  1  0.519991  0.630397  0.126258  1
  Pr  Pr11  1  0.469422  0.362491  0.631522  1
  Pr  Pr12  1  0.627720  0.516218  0.874353  1
  Pr  Pr13  1  0.374672  0.480549  0.371210  1
  Pr  Pr14  1  0.874809  0.023131  0.377069  1
  Pr  Pr15  1  0.980497  0.125762  0.122126  1
  Pr  Pr16  1  0.027912  0.884057  0.625941  1
  Lu  Lu17  1  0.310472  0.308653  0.999516  1
  Lu  Lu18  1  0.189082  0.810434  0.249948  1
  Lu  Lu19  1  0.825555  0.189947  0.748652  1
  Si  Si20  1  0.329754  0.688931  0.954138  1
  Si  Si21  1  0.663872  0.303901  0.454372  1
  Si  Si22  1  0.691100  0.329413  0.046953  1
  Si  Si23  1  0.306940  0.670611  0.544714  1
  Si  Si24  1  0.812075  0.829597  0.205492  1
  Si  Si25  1  0.171245  0.190269  0.293464  1
  Si  Si26  1  0.828780  0.807462  0.797245  1
  Si  Si27  1  0.286673  0.921764  0.062556  1
  Si  Si28  1  0.575495  0.788224  0.310054  1
  Si  Si29  1  0.423163  0.210530  0.816678  1
  Si  Si30  1  0.779805  0.579081  0.691401  1
  Si  Si31  1  0.213405  0.423021  0.185149  1
  Si  Si32  1  0.706007  0.077129  0.563339  1
  Si  Si33  1  0.920112  0.284239  0.937958  1
  Si  Si34  1  0.085549  0.719176  0.434934  1
  Os  Os35  1  0.182583  0.177967  0.702748  1
