# generated using pymatgen
data_Sc3Nb2Si3H
_symmetry_space_group_name_H-M   'P 1'
_cell_length_a   5.41664700
_cell_length_b   7.81596299
_cell_length_c   7.81598000
_cell_angle_alpha   119.99985348
_cell_angle_beta   90.00063988
_cell_angle_gamma   89.99977718
_symmetry_Int_Tables_number   1
_chemical_formula_structural   Sc3Nb2Si3H
_chemical_formula_sum   'Sc6 Nb4 Si6 H2'
_cell_volume   286.56803151
_cell_formula_units_Z   2
loop_
 _symmetry_equiv_pos_site_id
 _symmetry_equiv_pos_as_xyz
  1  'x, y, z'
loop_
 _atom_site_type_symbol
 _atom_site_label
 _atom_site_symmetry_multiplicity
 _atom_site_fract_x
 _atom_site_fract_y
 _atom_site_fract_z
 _atom_site_occupancy
  Sc  Sc0  1  0.250001  0.251553  0.000015  1
  Sc  Sc1  1  0.749997  0.748462  0.000016  1
  Sc  Sc2  1  0.250004  0.999982  0.251537  1
  Sc  Sc3  1  0.749997  0.251554  0.251536  1
  Sc  Sc4  1  0.250002  0.748462  0.748446  1
  Sc  Sc5  1  0.749996  0.999983  0.748442  1
  Nb  Nb6  1  0.000000  0.666667  0.333334  1
  Nb  Nb7  1  0.500000  0.666668  0.333335  1
  Nb  Nb8  1  0.000000  0.333333  0.666666  1
  Nb  Nb9  1  0.499999  0.333332  0.666666  1
  Si  Si10  1  0.750002  0.396283  0.000000  1
  Si  Si11  1  0.249999  0.603715  0.999999  1
  Si  Si12  1  0.750000  0.000001  0.396283  1
  Si  Si13  1  0.249999  0.396284  0.396283  1
  Si  Si14  1  0.750001  0.603717  0.603718  1
  Si  Si15  1  0.249998  0.000000  0.603717  1
  H  H16  1  0.000000  0.000000  0.000000  1
  H  H17  1  0.499999  0.000000  0.000000  1
