# generated using pymatgen
data_Ho3PaGa6Ir7
_symmetry_space_group_name_H-M   'P 1'
_cell_length_a   7.26245200
_cell_length_b   7.26245179
_cell_length_c   7.26245269
_cell_angle_alpha   109.12798149
_cell_angle_beta   109.12798263
_cell_angle_gamma   109.12799757
_symmetry_Int_Tables_number   1
_chemical_formula_structural   Ho3PaGa6Ir7
_chemical_formula_sum   'Ho3 Pa1 Ga6 Ir7'
_cell_volume   298.55656927
_cell_formula_units_Z   1
loop_
 _symmetry_equiv_pos_site_id
 _symmetry_equiv_pos_as_xyz
  1  'x, y, z'
loop_
 _atom_site_type_symbol
 _atom_site_label
 _atom_site_symmetry_multiplicity
 _atom_site_fract_x
 _atom_site_fract_y
 _atom_site_fract_z
 _atom_site_occupancy
  Ho  Ho0  1  0.000000  0.000000  0.500000  1
  Ho  Ho1  1  0.000000  0.500000  0.000000  1
  Ho  Ho2  1  0.500000  0.000000  0.000000  1
  Pa  Pa3  1  0.500000  0.500000  0.500000  1
  Ga  Ga4  1  0.688767  0.688767  0.004782  1
  Ga  Ga5  1  0.311233  0.995218  0.311233  1
  Ga  Ga6  1  0.995218  0.311233  0.311233  1
  Ga  Ga7  1  0.311233  0.311233  0.995218  1
  Ga  Ga8  1  0.688767  0.004782  0.688767  1
  Ga  Ga9  1  0.004782  0.688767  0.688767  1
  Ir  Ir10  1  0.744332  0.255668  0.500000  1
  Ir  Ir11  1  0.744332  0.500000  0.255668  1
  Ir  Ir12  1  0.500000  0.255668  0.744332  1
  Ir  Ir13  1  0.255668  0.500000  0.744332  1
  Ir  Ir14  1  0.255668  0.744332  0.500000  1
  Ir  Ir15  1  0.500000  0.744332  0.255668  1
  Ir  Ir16  1  0.000000  0.000000  0.000000  1
