# generated using pymatgen
data_Hf14Cu15IrAu4
_symmetry_space_group_name_H-M   'P 1'
_cell_length_a   7.92940492
_cell_length_b   7.90009714
_cell_length_c   9.46728214
_cell_angle_alpha   90.10005049
_cell_angle_beta   89.79900089
_cell_angle_gamma   106.91891553
_symmetry_Int_Tables_number   1
_chemical_formula_structural   Hf14Cu15IrAu4
_chemical_formula_sum   'Hf14 Cu15 Ir1 Au4'
_cell_volume   567.38688826
_cell_formula_units_Z   1
loop_
 _symmetry_equiv_pos_site_id
 _symmetry_equiv_pos_as_xyz
  1  'x, y, z'
loop_
 _atom_site_type_symbol
 _atom_site_label
 _atom_site_symmetry_multiplicity
 _atom_site_fract_x
 _atom_site_fract_y
 _atom_site_fract_z
 _atom_site_occupancy
  Hf  Hf0  1  0.696253  0.301148  0.003834  1
  Hf  Hf1  1  0.306269  0.695598  0.999357  1
  Hf  Hf2  1  0.808554  0.193035  0.493215  1
  Hf  Hf3  1  0.194066  0.804375  0.500260  1
  Hf  Hf4  1  0.998512  0.000475  0.998921  1
  Hf  Hf5  1  0.499170  0.500348  0.502393  1
  Hf  Hf6  1  0.007411  0.506506  0.250154  1
  Hf  Hf7  1  0.989950  0.491324  0.748514  1
  Hf  Hf8  1  0.491535  0.993324  0.748897  1
  Hf  Hf9  1  0.506343  0.010501  0.250510  1
  Hf  Hf10  1  0.313829  0.314809  0.185600  1
  Hf  Hf11  1  0.685633  0.684881  0.812643  1
  Hf  Hf12  1  0.186048  0.187111  0.689336  1
  Hf  Hf13  1  0.815720  0.821610  0.310131  1
  Cu  Cu14  1  0.138666  0.839276  0.797458  1
  Cu  Cu15  1  0.638954  0.341000  0.700991  1
  Cu  Cu16  1  0.654189  0.368659  0.299699  1
  Cu  Cu17  1  0.361291  0.658727  0.297825  1
  Cu  Cu18  1  0.339140  0.638168  0.702724  1
  Cu  Cu19  1  0.839735  0.138191  0.796295  1
  Cu  Cu20  1  0.159082  0.859638  0.201570  1
  Cu  Cu21  1  0.947966  0.647998  0.003484  1
  Cu  Cu22  1  0.054960  0.353602  0.990833  1
  Cu  Cu23  1  0.549132  0.848403  0.506630  1
  Cu  Cu24  1  0.150091  0.448886  0.497019  1
  Cu  Cu25  1  0.452227  0.148952  0.498579  1
  Cu  Cu26  1  0.850087  0.552796  0.504622  1
  Cu  Cu27  1  0.348877  0.051140  0.995180  1
  Cu  Cu28  1  0.643586  0.944107  0.998950  1
  Ir  Ir29  1  0.856277  0.153179  0.207462  1
  Au  Au30  1  0.125637  0.111748  0.397353  1
  Au  Au31  1  0.888524  0.888942  0.609126  1
  Au  Au32  1  0.390507  0.388824  0.891188  1
  Au  Au33  1  0.611778  0.612719  0.109248  1
