# generated using pymatgen
data_SmZr2TcF15
_symmetry_space_group_name_H-M   'P 1'
_cell_length_a   8.24940372
_cell_length_b   8.24940558
_cell_length_c   8.21379105
_cell_angle_alpha   79.26942834
_cell_angle_beta   79.26942753
_cell_angle_gamma   98.87941223
_symmetry_Int_Tables_number   1
_chemical_formula_structural   SmZr2TcF15
_chemical_formula_sum   'Sm2 Zr4 Tc2 F30'
_cell_volume   529.14703521
_cell_formula_units_Z   2
loop_
 _symmetry_equiv_pos_site_id
 _symmetry_equiv_pos_as_xyz
  1  'x, y, z'
loop_
 _atom_site_type_symbol
 _atom_site_label
 _atom_site_symmetry_multiplicity
 _atom_site_fract_x
 _atom_site_fract_y
 _atom_site_fract_z
 _atom_site_occupancy
  Sm  Sm0  1  0.178476  0.821524  0.250000  1
  Sm  Sm1  1  0.821524  0.178476  0.750000  1
  Zr  Zr2  1  0.739272  0.678804  0.670219  1
  Zr  Zr3  1  0.321196  0.260728  0.829781  1
  Zr  Zr4  1  0.260728  0.321196  0.329781  1
  Zr  Zr5  1  0.678804  0.739272  0.170219  1
  Tc  Tc6  1  0.750242  0.249758  0.250000  1
  Tc  Tc7  1  0.249758  0.750242  0.750000  1
  F  F8  1  0.469398  0.530602  0.250000  1
  F  F9  1  0.747072  0.949372  0.974471  1
  F  F10  1  0.050628  0.252928  0.525529  1
  F  F11  1  0.252928  0.050628  0.025529  1
  F  F12  1  0.949372  0.747072  0.474471  1
  F  F13  1  0.530602  0.469398  0.750000  1
  F  F14  1  0.223528  0.499638  0.777451  1
  F  F15  1  0.231306  0.719978  0.995432  1
  F  F16  1  0.007174  0.727840  0.783718  1
  F  F17  1  0.727840  0.007174  0.283718  1
  F  F18  1  0.719978  0.231306  0.495432  1
  F  F19  1  0.499638  0.223528  0.277451  1
  F  F20  1  0.776473  0.500362  0.222549  1
  F  F21  1  0.768694  0.280022  0.004568  1
  F  F22  1  0.992826  0.272160  0.216282  1
  F  F23  1  0.272160  0.992826  0.716282  1
  F  F24  1  0.280022  0.768694  0.504568  1
  F  F25  1  0.500362  0.776472  0.722549  1
  F  F26  1  0.533166  0.158511  0.811837  1
  F  F27  1  0.194601  0.068905  0.346376  1
  F  F28  1  0.648207  0.687327  0.441519  1
  F  F29  1  0.687327  0.648207  0.941519  1
  F  F30  1  0.068905  0.194601  0.846376  1
  F  F31  1  0.158511  0.533166  0.311837  1
  F  F32  1  0.466834  0.841489  0.188163  1
  F  F33  1  0.805399  0.931095  0.653624  1
  F  F34  1  0.351793  0.312673  0.558481  1
  F  F35  1  0.312673  0.351793  0.058481  1
  F  F36  1  0.931095  0.805399  0.153624  1
  F  F37  1  0.841489  0.466834  0.688163  1
