# generated using pymatgen
data_BeAl2BW2
_symmetry_space_group_name_H-M   'P 1'
_cell_length_a   7.24572413
_cell_length_b   7.24572386
_cell_length_c   3.24819800
_cell_angle_alpha   90.00000000
_cell_angle_beta   90.00000000
_cell_angle_gamma   154.57874047
_symmetry_Int_Tables_number   1
_chemical_formula_structural   BeAl2BW2
_chemical_formula_sum   'Be1 Al2 B1 W2'
_cell_volume   73.20435107
_cell_formula_units_Z   1
loop_
 _symmetry_equiv_pos_site_id
 _symmetry_equiv_pos_as_xyz
  1  'x, y, z'
loop_
 _atom_site_type_symbol
 _atom_site_label
 _atom_site_symmetry_multiplicity
 _atom_site_fract_x
 _atom_site_fract_y
 _atom_site_fract_z
 _atom_site_occupancy
  Be  Be0  1  0.536706  0.463294  0.250000  1
  Al  Al1  1  0.700290  0.299710  0.250000  1
  Al  Al2  1  0.299818  0.700182  0.750000  1
  B  B3  1  0.464359  0.535641  0.750000  1
  W  W4  1  0.089352  0.910648  0.750000  1
  W  W5  1  0.909474  0.090526  0.250000  1
