# generated using pymatgen
data_Hf4Sc4Co11Si16Ni
_symmetry_space_group_name_H-M   'P 1'
_cell_length_a   5.20088722
_cell_length_b   6.78065136
_cell_length_c   13.68810165
_cell_angle_alpha   89.90867117
_cell_angle_beta   89.95461439
_cell_angle_gamma   90.00190719
_symmetry_Int_Tables_number   1
_chemical_formula_structural   Hf4Sc4Co11Si16Ni
_chemical_formula_sum   'Hf4 Sc4 Co11 Si16 Ni1'
_cell_volume   482.71565640
_cell_formula_units_Z   1
loop_
 _symmetry_equiv_pos_site_id
 _symmetry_equiv_pos_as_xyz
  1  'x, y, z'
loop_
 _atom_site_type_symbol
 _atom_site_label
 _atom_site_symmetry_multiplicity
 _atom_site_fract_x
 _atom_site_fract_y
 _atom_site_fract_z
 _atom_site_occupancy
  Hf  Hf0  1  0.230527  0.599840  0.354781  1
  Hf  Hf1  1  0.730632  0.900656  0.354845  1
  Hf  Hf2  1  0.268092  0.898259  0.853386  1
  Hf  Hf3  1  0.768433  0.598669  0.853515  1
  Sc  Sc4  1  0.232313  0.400946  0.145229  1
  Sc  Sc5  1  0.730578  0.101398  0.144764  1
  Sc  Sc6  1  0.270640  0.099579  0.643235  1
  Sc  Sc7  1  0.769563  0.399184  0.643477  1
  Co  Co8  1  0.505341  0.224929  0.481788  1
  Co  Co9  1  0.776154  0.997837  0.750990  1
  Co  Co10  1  0.494512  0.224872  0.982703  1
  Co  Co11  1  0.724977  0.500902  0.250480  1
  Co  Co12  1  0.493847  0.774381  0.518230  1
  Co  Co13  1  0.004779  0.274904  0.481846  1
  Co  Co14  1  0.005133  0.730195  0.017650  1
  Co  Co15  1  0.224281  0.999649  0.251314  1
  Co  Co16  1  0.275023  0.500611  0.751663  1
  Co  Co17  1  0.505577  0.775060  0.018315  1
  Co  Co18  1  0.994095  0.725349  0.518221  1
  Si  Si19  1  0.221785  0.016541  0.071075  1
  Si  Si20  1  0.716935  0.519426  0.432631  1
  Si  Si21  1  0.784284  0.018031  0.567416  1
  Si  Si22  1  0.480091  0.753604  0.187710  1
  Si  Si23  1  0.020783  0.252008  0.811426  1
  Si  Si24  1  0.520267  0.245784  0.812750  1
  Si  Si25  1  0.216708  0.980887  0.432837  1
  Si  Si26  1  0.283976  0.521361  0.932815  1
  Si  Si27  1  0.980172  0.747565  0.187213  1
  Si  Si28  1  0.715786  0.485652  0.069039  1
  Si  Si29  1  0.283658  0.481159  0.567554  1
  Si  Si30  1  0.479026  0.247398  0.312952  1
  Si  Si31  1  0.020734  0.746264  0.686779  1
  Si  Si32  1  0.777307  0.978218  0.930077  1
  Si  Si33  1  0.520929  0.752195  0.686878  1
  Si  Si34  1  0.979418  0.253756  0.312791  1
  Ni  Ni35  1  0.993642  0.272933  0.981624  1
