# generated using pymatgen
data_Hf8Ti11Si15MoP
_symmetry_space_group_name_H-M   'P 1'
_cell_length_a   6.58944920
_cell_length_b   6.74431034
_cell_length_c   12.91298000
_cell_angle_alpha   90.00000000
_cell_angle_beta   90.00000000
_cell_angle_gamma   89.99596888
_symmetry_Int_Tables_number   1
_chemical_formula_structural   Hf8Ti11Si15MoP
_chemical_formula_sum   'Hf8 Ti11 Si15 Mo1 P1'
_cell_volume   573.86949293
_cell_formula_units_Z   1
loop_
 _symmetry_equiv_pos_site_id
 _symmetry_equiv_pos_as_xyz
  1  'x, y, z'
loop_
 _atom_site_type_symbol
 _atom_site_label
 _atom_site_symmetry_multiplicity
 _atom_site_fract_x
 _atom_site_fract_y
 _atom_site_fract_z
 _atom_site_occupancy
  Hf  Hf0  1  0.998054  0.171454  0.095849  1
  Hf  Hf1  1  0.003262  0.827647  0.905266  1
  Hf  Hf2  1  0.502482  0.674424  0.905811  1
  Hf  Hf3  1  0.003262  0.827647  0.594734  1
  Hf  Hf4  1  0.499094  0.326114  0.094188  1
  Hf  Hf5  1  0.998054  0.171454  0.404151  1
  Hf  Hf6  1  0.499094  0.326114  0.405812  1
  Hf  Hf7  1  0.502482  0.674424  0.594189  1
  Ti  Ti8  1  0.164715  0.493353  0.750000  1
  Ti  Ti9  1  0.836222  0.507284  0.250000  1
  Ti  Ti10  1  0.331807  0.994732  0.250000  1
  Ti  Ti11  1  0.336015  0.171556  0.624666  1
  Ti  Ti12  1  0.667798  0.828626  0.373807  1
  Ti  Ti13  1  0.160674  0.675154  0.374066  1
  Ti  Ti14  1  0.667798  0.828626  0.126193  1
  Ti  Ti15  1  0.835768  0.327183  0.624697  1
  Ti  Ti16  1  0.336015  0.171556  0.875334  1
  Ti  Ti17  1  0.835768  0.327183  0.875303  1
  Ti  Ti18  1  0.160674  0.675154  0.125934  1
  Si  Si19  1  0.038242  0.117446  0.750000  1
  Si  Si20  1  0.460891  0.619403  0.250000  1
  Si  Si21  1  0.537565  0.382204  0.750000  1
  Si  Si22  1  0.297188  0.861119  0.750000  1
  Si  Si23  1  0.699078  0.138598  0.250000  1
  Si  Si24  1  0.202852  0.365307  0.250000  1
  Si  Si25  1  0.799169  0.635065  0.750000  1
  Si  Si26  1  0.170342  0.462554  0.537732  1
  Si  Si27  1  0.829404  0.537816  0.461500  1
  Si  Si28  1  0.330763  0.961322  0.461500  1
  Si  Si29  1  0.829404  0.537816  0.038500  1
  Si  Si30  1  0.670542  0.037504  0.537901  1
  Si  Si31  1  0.170342  0.462554  0.962268  1
  Si  Si32  1  0.670542  0.037504  0.962099  1
  Si  Si33  1  0.330763  0.961322  0.038500  1
  Mo  Mo34  1  0.664083  0.003868  0.750000  1
  P  P35  1  0.959785  0.878913  0.250000  1
