# generated using pymatgen
data_Li5MgU4V2O16
_symmetry_space_group_name_H-M   'P 1'
_cell_length_a   5.13199031
_cell_length_b   6.16356191
_cell_length_c   10.73781560
_cell_angle_alpha   89.60360223
_cell_angle_beta   89.68733521
_cell_angle_gamma   90.70456265
_symmetry_Int_Tables_number   1
_chemical_formula_structural   Li5MgU4V2O16
_chemical_formula_sum   'Li5 Mg1 U4 V2 O16'
_cell_volume   339.61247123
_cell_formula_units_Z   1
loop_
 _symmetry_equiv_pos_site_id
 _symmetry_equiv_pos_as_xyz
  1  'x, y, z'
loop_
 _atom_site_type_symbol
 _atom_site_label
 _atom_site_symmetry_multiplicity
 _atom_site_fract_x
 _atom_site_fract_y
 _atom_site_fract_z
 _atom_site_occupancy
  Li  Li0  1  0.544528  0.741846  0.923255  1
  Li  Li1  1  0.047165  0.246897  0.577720  1
  Li  Li2  1  0.455472  0.258154  0.076745  1
  Li  Li3  1  0.952835  0.753103  0.422280  1
  Li  Li4  1  0.000000  0.500000  0.000000  1
  Mg  Mg5  1  0.500000  0.000000  0.500000  1
  U  U6  1  0.985266  0.745251  0.733057  1
  U  U7  1  0.486603  0.245317  0.767779  1
  U  U8  1  0.014734  0.254749  0.266943  1
  U  U9  1  0.513397  0.754683  0.232221  1
  V  V10  1  0.000000  0.000000  0.000000  1
  V  V11  1  0.500000  0.500000  0.500000  1
  O  O12  1  0.179372  0.758843  0.906229  1
  O  O13  1  0.251242  0.247714  0.423756  1
  O  O14  1  0.248855  0.230650  0.925142  1
  O  O15  1  0.751145  0.769350  0.074858  1
  O  O16  1  0.249226  0.012020  0.159410  1
  O  O17  1  0.756957  0.991360  0.339100  1
  O  O18  1  0.728520  0.512806  0.832361  1
  O  O19  1  0.240908  0.485126  0.662035  1
  O  O20  1  0.750774  0.987980  0.840590  1
  O  O21  1  0.243043  0.008640  0.660900  1
  O  O22  1  0.271480  0.487194  0.167639  1
  O  O23  1  0.759092  0.514874  0.337965  1
  O  O24  1  0.820628  0.241157  0.093771  1
  O  O25  1  0.313494  0.755707  0.403511  1
  O  O26  1  0.748758  0.752286  0.576244  1
  O  O27  1  0.686506  0.244293  0.596489  1
