# generated using pymatgen
data_DyHo3B16Mo3W
_symmetry_space_group_name_H-M   'P 1'
_cell_length_a   3.62016600
_cell_length_b   6.03169700
_cell_length_c   11.65317432
_cell_angle_alpha   89.98428497
_cell_angle_beta   90.00000000
_cell_angle_gamma   90.00000000
_symmetry_Int_Tables_number   1
_chemical_formula_structural   DyHo3B16Mo3W
_chemical_formula_sum   'Dy1 Ho3 B16 Mo3 W1'
_cell_volume   254.45572662
_cell_formula_units_Z   1
loop_
 _symmetry_equiv_pos_site_id
 _symmetry_equiv_pos_as_xyz
  1  'x, y, z'
loop_
 _atom_site_type_symbol
 _atom_site_label
 _atom_site_symmetry_multiplicity
 _atom_site_fract_x
 _atom_site_fract_y
 _atom_site_fract_z
 _atom_site_occupancy
  Dy  Dy0  1  0.000000  0.626929  0.350411  1
  Ho  Ho1  1  0.000000  0.372986  0.649836  1
  Ho  Ho2  1  0.000000  0.127153  0.149651  1
  Ho  Ho3  1  0.000000  0.873223  0.850177  1
  B  B4  1  0.500000  0.787547  0.186627  1
  B  B5  1  0.500000  0.213082  0.813634  1
  B  B6  1  0.500000  0.286658  0.313654  1
  B  B7  1  0.500000  0.713029  0.686489  1
  B  B8  1  0.500000  0.867248  0.031791  1
  B  B9  1  0.500000  0.133312  0.967834  1
  B  B10  1  0.500000  0.366858  0.468099  1
  B  B11  1  0.500000  0.632956  0.532079  1
  B  B12  1  0.500000  0.885802  0.452525  1
  B  B13  1  0.500000  0.114446  0.547626  1
  B  B14  1  0.500000  0.385333  0.047355  1
  B  B15  1  0.500000  0.614129  0.952254  1
  B  B16  1  0.500000  0.976349  0.306387  1
  B  B17  1  0.500000  0.024032  0.693732  1
  B  B18  1  0.500000  0.475544  0.193575  1
  B  B19  1  0.500000  0.523718  0.806375  1
  Mo  Mo20  1  0.000000  0.369321  0.915757  1
  Mo  Mo21  1  0.000000  0.129874  0.416267  1
  Mo  Mo22  1  0.000000  0.870099  0.583765  1
  W  W23  1  0.000000  0.630373  0.084101  1
