# generated using pymatgen
data_LuTaTcB6
_symmetry_space_group_name_H-M   'P 1'
_cell_length_a   3.55215800
_cell_length_b   8.96133600
_cell_length_c   11.29944000
_cell_angle_alpha   90.00000000
_cell_angle_beta   90.00000000
_cell_angle_gamma   90.00000000
_symmetry_Int_Tables_number   1
_chemical_formula_structural   LuTaTcB6
_chemical_formula_sum   'Lu4 Ta4 Tc4 B24'
_cell_volume   359.68469344
_cell_formula_units_Z   4
loop_
 _symmetry_equiv_pos_site_id
 _symmetry_equiv_pos_as_xyz
  1  'x, y, z'
loop_
 _atom_site_type_symbol
 _atom_site_label
 _atom_site_symmetry_multiplicity
 _atom_site_fract_x
 _atom_site_fract_y
 _atom_site_fract_z
 _atom_site_occupancy
  Lu  Lu0  1  0.500000  0.323321  0.413303  1
  Lu  Lu1  1  0.500000  0.676679  0.586697  1
  Lu  Lu2  1  0.500000  0.176679  0.913303  1
  Lu  Lu3  1  0.500000  0.823321  0.086697  1
  Ta  Ta4  1  0.500000  0.446236  0.125582  1
  Ta  Ta5  1  0.500000  0.553764  0.874418  1
  Ta  Ta6  1  0.500000  0.053764  0.625582  1
  Ta  Ta7  1  0.500000  0.946236  0.374418  1
  Tc  Tc8  1  0.500000  0.144463  0.182377  1
  Tc  Tc9  1  0.500000  0.855537  0.817623  1
  Tc  Tc10  1  0.500000  0.355537  0.682377  1
  Tc  Tc11  1  0.500000  0.644463  0.317623  1
  B  B12  1  0.000000  0.099934  0.473472  1
  B  B13  1  0.000000  0.900066  0.526528  1
  B  B14  1  0.000000  0.400066  0.973472  1
  B  B15  1  0.000000  0.599934  0.026528  1
  B  B16  1  0.000000  0.130461  0.319000  1
  B  B17  1  0.000000  0.869539  0.681000  1
  B  B18  1  0.000000  0.369539  0.819000  1
  B  B19  1  0.000000  0.630461  0.181000  1
  B  B20  1  0.000000  0.054655  0.065763  1
  B  B21  1  0.000000  0.945345  0.934237  1
  B  B22  1  0.000000  0.445345  0.565763  1
  B  B23  1  0.000000  0.554655  0.434237  1
  B  B24  1  0.000000  0.482059  0.286742  1
  B  B25  1  0.000000  0.517941  0.713258  1
  B  B26  1  0.000000  0.017941  0.786742  1
  B  B27  1  0.000000  0.982059  0.213258  1
  B  B28  1  0.000000  0.254622  0.081320  1
  B  B29  1  0.000000  0.745378  0.918680  1
  B  B30  1  0.000000  0.245378  0.581320  1
  B  B31  1  0.000000  0.754622  0.418680  1
  B  B32  1  0.000000  0.298242  0.237456  1
  B  B33  1  0.000000  0.701758  0.762544  1
  B  B34  1  0.000000  0.201758  0.737456  1
  B  B35  1  0.000000  0.798242  0.262544  1
