# generated using pymatgen
data_CaTb6RhBr12
_symmetry_space_group_name_H-M   'P 1'
_cell_length_a   9.31052462
_cell_length_b   9.31052477
_cell_length_c   9.31052439
_cell_angle_alpha   107.10032730
_cell_angle_beta   107.10033044
_cell_angle_gamma   107.10033008
_symmetry_Int_Tables_number   1
_chemical_formula_structural   CaTb6RhBr12
_chemical_formula_sum   'Ca1 Tb6 Rh1 Br12'
_cell_volume   670.30492993
_cell_formula_units_Z   1
loop_
 _symmetry_equiv_pos_site_id
 _symmetry_equiv_pos_as_xyz
  1  'x, y, z'
loop_
 _atom_site_type_symbol
 _atom_site_label
 _atom_site_symmetry_multiplicity
 _atom_site_fract_x
 _atom_site_fract_y
 _atom_site_fract_z
 _atom_site_occupancy
  Ca  Ca0  1  0.500000  0.500000  0.500000  1
  Tb  Tb1  1  0.311552  0.102467  0.021658  1
  Tb  Tb2  1  0.021658  0.311552  0.102467  1
  Tb  Tb3  1  0.102467  0.021658  0.311552  1
  Tb  Tb4  1  0.688448  0.897533  0.978342  1
  Tb  Tb5  1  0.978342  0.688448  0.897533  1
  Tb  Tb6  1  0.897533  0.978342  0.688448  1
  Rh  Rh7  1  0.000000  0.000000  0.000000  1
  Br  Br8  1  0.678984  0.219684  0.072299  1
  Br  Br9  1  0.072299  0.678984  0.219684  1
  Br  Br10  1  0.219684  0.072299  0.678984  1
  Br  Br11  1  0.321016  0.780316  0.927701  1
  Br  Br12  1  0.927701  0.321016  0.780316  1
  Br  Br13  1  0.780316  0.927701  0.321016  1
  Br  Br14  1  0.454940  0.158299  0.374831  1
  Br  Br15  1  0.374831  0.454940  0.158299  1
  Br  Br16  1  0.158299  0.374831  0.454940  1
  Br  Br17  1  0.545060  0.841701  0.625169  1
  Br  Br18  1  0.625169  0.545060  0.841701  1
  Br  Br19  1  0.841701  0.625169  0.545060  1
