# generated using pymatgen
data_La5Ge6P6Ir19
_symmetry_space_group_name_H-M   'P 1'
_cell_length_a   13.08598800
_cell_length_b   13.08598833
_cell_length_c   4.06087200
_cell_angle_alpha   90.00000000
_cell_angle_beta   90.00000000
_cell_angle_gamma   119.99999849
_symmetry_Int_Tables_number   1
_chemical_formula_structural   La5Ge6P6Ir19
_chemical_formula_sum   'La5 Ge6 P6 Ir19'
_cell_volume   602.23083097
_cell_formula_units_Z   1
loop_
 _symmetry_equiv_pos_site_id
 _symmetry_equiv_pos_as_xyz
  1  'x, y, z'
loop_
 _atom_site_type_symbol
 _atom_site_label
 _atom_site_symmetry_multiplicity
 _atom_site_fract_x
 _atom_site_fract_y
 _atom_site_fract_z
 _atom_site_occupancy
  La  La0  1  0.333333  0.666667  0.500000  1
  La  La1  1  0.666667  0.333333  0.500000  1
  La  La2  1  0.001310  0.818737  0.000000  1
  La  La3  1  0.181263  0.182573  0.000000  1
  La  La4  1  0.817427  0.998690  0.000000  1
  Ge  Ge5  1  0.998744  0.635759  0.500000  1
  Ge  Ge6  1  0.364241  0.362984  0.500000  1
  Ge  Ge7  1  0.637016  0.001256  0.500000  1
  Ge  Ge8  1  0.519690  0.678067  0.000000  1
  Ge  Ge9  1  0.321933  0.841623  0.000000  1
  Ge  Ge10  1  0.158377  0.480310  0.000000  1
  P  P11  1  0.481350  0.178097  0.000000  1
  P  P12  1  0.696746  0.518650  0.000000  1
  P  P13  1  0.821903  0.303254  0.000000  1
  P  P14  1  0.996088  0.180061  0.500000  1
  P  P15  1  0.819939  0.816027  0.500000  1
  P  P16  1  0.183973  0.003912  0.500000  1
  Ir  Ir17  1  0.521776  0.872198  0.000000  1
  Ir  Ir18  1  0.127802  0.649579  0.000000  1
  Ir  Ir19  1  0.350421  0.478224  0.000000  1
  Ir  Ir20  1  0.498533  0.369823  0.000000  1
  Ir  Ir21  1  0.871291  0.501467  0.000000  1
  Ir  Ir22  1  0.630177  0.128709  0.000000  1
  Ir  Ir23  1  0.007586  0.452824  0.500000  1
  Ir  Ir24  1  0.547176  0.554762  0.500000  1
  Ir  Ir25  1  0.445238  0.992414  0.500000  1
  Ir  Ir26  1  0.990032  0.275646  0.000000  1
  Ir  Ir27  1  0.724354  0.714386  0.000000  1
  Ir  Ir28  1  0.285614  0.009968  0.000000  1
  Ir  Ir29  1  0.635234  0.806125  0.500000  1
  Ir  Ir30  1  0.193875  0.829109  0.500000  1
  Ir  Ir31  1  0.170891  0.364766  0.500000  1
  Ir  Ir32  1  0.385227  0.178469  0.500000  1
  Ir  Ir33  1  0.793243  0.614773  0.500000  1
  Ir  Ir34  1  0.821531  0.206757  0.500000  1
  Ir  Ir35  1  0.000000  0.000000  0.500000  1
