# generated using pymatgen
data_K2Rb2HfSe4
_symmetry_space_group_name_H-M   'P 1'
_cell_length_a   8.52443400
_cell_length_b   10.50237600
_cell_length_c   15.75386300
_cell_angle_alpha   90.00000000
_cell_angle_beta   90.00000000
_cell_angle_gamma   90.00000000
_symmetry_Int_Tables_number   1
_chemical_formula_structural   K2Rb2HfSe4
_chemical_formula_sum   'K8 Rb8 Hf4 Se16'
_cell_volume   1410.39311619
_cell_formula_units_Z   4
loop_
 _symmetry_equiv_pos_site_id
 _symmetry_equiv_pos_as_xyz
  1  'x, y, z'
loop_
 _atom_site_type_symbol
 _atom_site_label
 _atom_site_symmetry_multiplicity
 _atom_site_fract_x
 _atom_site_fract_y
 _atom_site_fract_z
 _atom_site_occupancy
  K  K0  1  0.845403  0.055354  0.272620  1
  K  K1  1  0.345403  0.944646  0.227380  1
  K  K2  1  0.154597  0.555354  0.727380  1
  K  K3  1  0.654597  0.444646  0.772620  1
  K  K4  1  0.154597  0.944646  0.727380  1
  K  K5  1  0.654597  0.055354  0.772620  1
  K  K6  1  0.845403  0.444646  0.272620  1
  K  K7  1  0.345403  0.555354  0.227380  1
  Rb  Rb8  1  0.000000  0.000000  0.000000  1
  Rb  Rb9  1  0.500000  0.000000  0.500000  1
  Rb  Rb10  1  0.000000  0.500000  0.000000  1
  Rb  Rb11  1  0.500000  0.500000  0.500000  1
  Rb  Rb12  1  0.988494  0.750000  0.430722  1
  Rb  Rb13  1  0.488494  0.250000  0.069278  1
  Rb  Rb14  1  0.011506  0.250000  0.569278  1
  Rb  Rb15  1  0.511506  0.750000  0.930722  1
  Hf  Hf16  1  0.754865  0.750000  0.671610  1
  Hf  Hf17  1  0.245135  0.250000  0.328390  1
  Hf  Hf18  1  0.745135  0.750000  0.171610  1
  Hf  Hf19  1  0.254865  0.250000  0.828390  1
  Se  Se20  1  0.958474  0.250000  0.822734  1
  Se  Se21  1  0.541526  0.250000  0.322734  1
  Se  Se22  1  0.458474  0.750000  0.677266  1
  Se  Se23  1  0.041526  0.750000  0.177266  1
  Se  Se24  1  0.650446  0.552487  0.097522  1
  Se  Se25  1  0.150446  0.447513  0.402478  1
  Se  Se26  1  0.349554  0.052487  0.902478  1
  Se  Se27  1  0.849554  0.947513  0.597522  1
  Se  Se28  1  0.349554  0.447513  0.902478  1
  Se  Se29  1  0.849554  0.552487  0.597522  1
  Se  Se30  1  0.650446  0.947513  0.097522  1
  Se  Se31  1  0.150446  0.052487  0.402478  1
  Se  Se32  1  0.628051  0.750000  0.319835  1
  Se  Se33  1  0.128051  0.250000  0.180165  1
  Se  Se34  1  0.371949  0.250000  0.680165  1
  Se  Se35  1  0.871949  0.750000  0.819835  1
