# generated using pymatgen
data_Dy4MnNiC8
_symmetry_space_group_name_H-M   'P 1'
_cell_length_a   6.61040038
_cell_length_b   6.61040009
_cell_length_c   6.61039997
_cell_angle_alpha   134.84166428
_cell_angle_beta   110.66336354
_cell_angle_gamma   86.67345289
_symmetry_Int_Tables_number   1
_chemical_formula_structural   Dy4MnNiC8
_chemical_formula_sum   'Dy4 Mn1 Ni1 C8'
_cell_volume   183.54418949
_cell_formula_units_Z   1
loop_
 _symmetry_equiv_pos_site_id
 _symmetry_equiv_pos_as_xyz
  1  'x, y, z'
loop_
 _atom_site_type_symbol
 _atom_site_label
 _atom_site_symmetry_multiplicity
 _atom_site_fract_x
 _atom_site_fract_y
 _atom_site_fract_z
 _atom_site_occupancy
  Dy  Dy0  1  0.513439  0.355727  0.158496  1
  Dy  Dy1  1  0.486561  0.645056  0.842287  1
  Dy  Dy2  1  0.197229  0.854944  0.341504  1
  Dy  Dy3  1  0.802771  0.144273  0.657713  1
  Mn  Mn4  1  0.000000  0.750000  0.750000  1
  Ni  Ni5  1  0.000000  0.250000  0.250000  1
  C  C6  1  0.251575  0.050387  0.141581  1
  C  C7  1  0.748425  0.890007  0.798813  1
  C  C8  1  0.908807  0.609993  0.358419  1
  C  C9  1  0.091193  0.449613  0.701187  1
  C  C10  1  0.467981  0.132552  0.344870  1
  C  C11  1  0.532019  0.876888  0.664570  1
  C  C12  1  0.787682  0.623112  0.155130  1
  C  C13  1  0.212318  0.367448  0.835430  1
