# generated using pymatgen
data_Ho4Lu6Ir3Ru
_symmetry_space_group_name_H-M   'P 1'
_cell_length_a   6.32245648
_cell_length_b   7.21197898
_cell_length_c   8.37247207
_cell_angle_alpha   97.16497570
_cell_angle_beta   112.41448606
_cell_angle_gamma   89.97045513
_symmetry_Int_Tables_number   1
_chemical_formula_structural   Ho4Lu6Ir3Ru
_chemical_formula_sum   'Ho4 Lu6 Ir3 Ru1'
_cell_volume   349.70404853
_cell_formula_units_Z   1
loop_
 _symmetry_equiv_pos_site_id
 _symmetry_equiv_pos_as_xyz
  1  'x, y, z'
loop_
 _atom_site_type_symbol
 _atom_site_label
 _atom_site_symmetry_multiplicity
 _atom_site_fract_x
 _atom_site_fract_y
 _atom_site_fract_z
 _atom_site_occupancy
  Ho  Ho0  1  0.524147  0.081416  0.812469  1
  Ho  Ho1  1  0.478214  0.919007  0.189444  1
  Ho  Ho2  1  0.713687  0.416230  0.189437  1
  Ho  Ho3  1  0.288034  0.581838  0.811376  1
  Lu  Lu4  1  0.296780  0.314131  0.435941  1
  Lu  Lu5  1  0.701617  0.685285  0.563197  1
  Lu  Lu6  1  0.862202  0.185574  0.563589  1
  Lu  Lu7  1  0.136499  0.815788  0.434902  1
  Lu  Lu8  1  0.077198  0.249820  0.000044  1
  Lu  Lu9  1  0.922994  0.751086  0.000870  1
  Ir  Ir10  1  0.319168  0.576497  0.222479  1
  Ir  Ir11  1  0.682659  0.424224  0.777697  1
  Ir  Ir12  1  0.095597  0.922732  0.778309  1
  Ru  Ru13  1  0.901204  0.076375  0.220245  1
