# generated using pymatgen
data_Ba12Lu(ScAs4)3
_symmetry_space_group_name_H-M   'P 1'
_cell_length_a   4.71438300
_cell_length_b   13.90792744
_cell_length_c   15.03413237
_cell_angle_alpha   89.94237950
_cell_angle_beta   90.00000000
_cell_angle_gamma   90.00000000
_symmetry_Int_Tables_number   1
_chemical_formula_structural   Ba12Lu(ScAs4)3
_chemical_formula_sum   'Ba12 Lu1 Sc3 As12'
_cell_volume   985.74691913
_cell_formula_units_Z   1
loop_
 _symmetry_equiv_pos_site_id
 _symmetry_equiv_pos_as_xyz
  1  'x, y, z'
loop_
 _atom_site_type_symbol
 _atom_site_label
 _atom_site_symmetry_multiplicity
 _atom_site_fract_x
 _atom_site_fract_y
 _atom_site_fract_z
 _atom_site_occupancy
  Ba  Ba0  1  0.250000  0.418919  0.101625  1
  Ba  Ba1  1  0.250000  0.142529  0.002127  1
  Ba  Ba2  1  0.250000  0.226373  0.296680  1
  Ba  Ba3  1  0.750000  0.276081  0.795938  1
  Ba  Ba4  1  0.750000  0.360068  0.501103  1
  Ba  Ba5  1  0.250000  0.918676  0.397254  1
  Ba  Ba6  1  0.750000  0.769859  0.702467  1
  Ba  Ba7  1  0.750000  0.860325  0.999861  1
  Ba  Ba8  1  0.250000  0.725362  0.202683  1
  Ba  Ba9  1  0.750000  0.080425  0.599774  1
  Ba  Ba10  1  0.750000  0.581500  0.900573  1
  Ba  Ba11  1  0.250000  0.640521  0.497679  1
  Lu  Lu12  1  0.250000  0.951868  0.794832  1
  Sc  Sc13  1  0.750000  0.548339  0.294899  1
  Sc  Sc14  1  0.750000  0.048701  0.205709  1
  Sc  Sc15  1  0.250000  0.452101  0.705501  1
  As  As16  1  0.750000  0.225089  0.133121  1
  As  As17  1  0.750000  0.725119  0.366741  1
  As  As18  1  0.750000  0.586144  0.121770  1
  As  As19  1  0.250000  0.275362  0.632314  1
  As  As20  1  0.250000  0.769971  0.869963  1
  As  As21  1  0.750000  0.087717  0.378850  1
  As  As22  1  0.250000  0.909129  0.616749  1
  As  As23  1  0.250000  0.413763  0.878948  1
  As  As24  1  0.750000  0.041701  0.850639  1
  As  As25  1  0.250000  0.464806  0.346713  1
  As  As26  1  0.250000  0.965081  0.152793  1
  As  As27  1  0.750000  0.534469  0.652696  1
