# generated using pymatgen
data_Pr6Er10Cd4Ir3Pd
_symmetry_space_group_name_H-M   'P 1'
_cell_length_a   9.72882920
_cell_length_b   9.72882792
_cell_length_c   9.72882797
_cell_angle_alpha   60.09562937
_cell_angle_beta   60.09563309
_cell_angle_gamma   60.09563175
_symmetry_Int_Tables_number   1
_chemical_formula_structural   Pr6Er10Cd4Ir3Pd
_chemical_formula_sum   'Pr6 Er10 Cd4 Ir3 Pd1'
_cell_volume   652.53930797
_cell_formula_units_Z   1
loop_
 _symmetry_equiv_pos_site_id
 _symmetry_equiv_pos_as_xyz
  1  'x, y, z'
loop_
 _atom_site_type_symbol
 _atom_site_label
 _atom_site_symmetry_multiplicity
 _atom_site_fract_x
 _atom_site_fract_y
 _atom_site_fract_z
 _atom_site_occupancy
  Pr  Pr0  1  0.940788  0.560179  0.560179  1
  Pr  Pr1  1  0.561312  0.940313  0.940313  1
  Pr  Pr2  1  0.560179  0.940788  0.560179  1
  Pr  Pr3  1  0.940313  0.561312  0.940313  1
  Pr  Pr4  1  0.560179  0.560179  0.940788  1
  Pr  Pr5  1  0.940313  0.940313  0.561312  1
  Er  Er6  1  0.346105  0.346105  0.346105  1
  Er  Er7  1  0.351686  0.351686  0.953609  1
  Er  Er8  1  0.351686  0.953609  0.351686  1
  Er  Er9  1  0.953609  0.351686  0.351686  1
  Er  Er10  1  0.806304  0.188059  0.188059  1
  Er  Er11  1  0.185670  0.812634  0.812634  1
  Er  Er12  1  0.188059  0.806304  0.188059  1
  Er  Er13  1  0.812634  0.185670  0.812634  1
  Er  Er14  1  0.188059  0.188059  0.806304  1
  Er  Er15  1  0.812634  0.812634  0.185670  1
  Cd  Cd16  1  0.579551  0.579551  0.579551  1
  Cd  Cd17  1  0.579119  0.579119  0.262351  1
  Cd  Cd18  1  0.579119  0.262351  0.579119  1
  Cd  Cd19  1  0.262351  0.579119  0.579119  1
  Ir  Ir20  1  0.141225  0.141225  0.575495  1
  Ir  Ir21  1  0.141225  0.575495  0.141225  1
  Ir  Ir22  1  0.575495  0.141225  0.141225  1
  Pd  Pd23  1  0.142383  0.142383  0.142383  1
