# generated using pymatgen
data_NaDyPa2(Si5Pt3)2
_symmetry_space_group_name_H-M   'P 1'
_cell_length_a   8.14496322
_cell_length_b   8.19008830
_cell_length_c   8.19008826
_cell_angle_alpha   136.59293019
_cell_angle_beta   104.27883020
_cell_angle_gamma   91.62652755
_symmetry_Int_Tables_number   1
_chemical_formula_structural   NaDyPa2(Si5Pt3)2
_chemical_formula_sum   'Na1 Dy1 Pa2 Si10 Pt6'
_cell_volume   345.71241236
_cell_formula_units_Z   1
loop_
 _symmetry_equiv_pos_site_id
 _symmetry_equiv_pos_as_xyz
  1  'x, y, z'
loop_
 _atom_site_type_symbol
 _atom_site_label
 _atom_site_symmetry_multiplicity
 _atom_site_fract_x
 _atom_site_fract_y
 _atom_site_fract_z
 _atom_site_occupancy
  Na  Na0  1  0.864289  0.627991  0.236298  1
  Dy  Dy1  1  0.140486  0.369989  0.770497  1
  Pa  Pa2  1  0.401356  0.128991  0.272365  1
  Pa  Pa3  1  0.599917  0.873490  0.726427  1
  Si  Si4  1  0.502442  0.746294  0.247938  1
  Si  Si5  1  0.502442  0.254503  0.756147  1
  Si  Si6  1  0.225793  0.975741  0.745314  1
  Si  Si7  1  0.772698  0.522766  0.751906  1
  Si  Si8  1  0.772698  0.020791  0.249932  1
  Si  Si9  1  0.225793  0.480478  0.250052  1
  Si  Si10  1  0.035456  0.884594  0.150862  1
  Si  Si11  1  0.962588  0.114594  0.847993  1
  Si  Si12  1  0.737960  0.386899  0.351062  1
  Si  Si13  1  0.260337  0.613360  0.646979  1
  Pt  Pt14  1  0.000365  0.756710  0.758323  1
  Pt  Pt15  1  0.000365  0.242042  0.243656  1
  Pt  Pt16  1  0.251131  0.864419  0.386712  1
  Pt  Pt17  1  0.748584  0.137525  0.611058  1
  Pt  Pt18  1  0.475285  0.361227  0.114057  1
  Pt  Pt19  1  0.520017  0.637595  0.882422  1
