# generated using pymatgen
data_Er9LuTlPb5
_symmetry_space_group_name_H-M   'P 1'
_cell_length_a   8.96096108
_cell_length_b   8.96078405
_cell_length_c   6.59897200
_cell_angle_alpha   89.99520446
_cell_angle_beta   90.00742975
_cell_angle_gamma   120.07227143
_symmetry_Int_Tables_number   1
_chemical_formula_structural   Er9LuTlPb5
_chemical_formula_sum   'Er9 Lu1 Tl1 Pb5'
_cell_volume   458.55430777
_cell_formula_units_Z   1
loop_
 _symmetry_equiv_pos_site_id
 _symmetry_equiv_pos_as_xyz
  1  'x, y, z'
loop_
 _atom_site_type_symbol
 _atom_site_label
 _atom_site_symmetry_multiplicity
 _atom_site_fract_x
 _atom_site_fract_y
 _atom_site_fract_z
 _atom_site_occupancy
  Er  Er0  1  0.333668  0.663667  0.998198  1
  Er  Er1  1  0.333816  0.663516  0.501778  1
  Er  Er2  1  0.663538  0.333718  0.502032  1
  Er  Er3  1  0.760994  0.760929  0.750019  1
  Er  Er4  1  0.239020  0.005147  0.750077  1
  Er  Er5  1  0.004827  0.238840  0.750041  1
  Er  Er6  1  0.237272  0.237214  0.249914  1
  Er  Er7  1  0.762603  0.999493  0.249958  1
  Er  Er8  1  0.999443  0.762612  0.249983  1
  Lu  Lu9  1  0.663518  0.333773  0.998182  1
  Tl  Tl10  1  0.396856  0.396481  0.750752  1
  Pb  Pb11  1  0.606593  0.001210  0.750824  1
  Pb  Pb12  1  0.000142  0.605977  0.750720  1
  Pb  Pb13  1  0.605192  0.604400  0.248869  1
  Pb  Pb14  1  0.394861  0.998705  0.249305  1
  Pb  Pb15  1  0.997655  0.394318  0.249348  1
