# generated using pymatgen
data_Fe3Si3W6C
_symmetry_space_group_name_H-M   'P 1'
_cell_length_a   7.75916070
_cell_length_b   7.75915996
_cell_length_c   7.72344200
_cell_angle_alpha   60.15215190
_cell_angle_beta   60.15215500
_cell_angle_gamma   60.29380502
_symmetry_Int_Tables_number   1
_chemical_formula_structural   Fe3Si3W6C
_chemical_formula_sum   'Fe6 Si6 W12 C2'
_cell_volume   330.27811671
_cell_formula_units_Z   2
loop_
 _symmetry_equiv_pos_site_id
 _symmetry_equiv_pos_as_xyz
  1  'x, y, z'
loop_
 _atom_site_type_symbol
 _atom_site_label
 _atom_site_symmetry_multiplicity
 _atom_site_fract_x
 _atom_site_fract_y
 _atom_site_fract_z
 _atom_site_occupancy
  Fe  Fe0  1  0.335948  0.335948  0.994751  1
  Fe  Fe1  1  0.130531  0.130531  0.614173  1
  Fe  Fe2  1  0.914052  0.914052  0.916648  1
  Fe  Fe3  1  0.125000  0.625000  0.135443  1
  Fe  Fe4  1  0.119469  0.119469  0.125235  1
  Fe  Fe5  1  0.625000  0.125000  0.135443  1
  Si  Si6  1  0.916309  0.241080  0.915671  1
  Si  Si7  1  0.333691  0.008920  0.323059  1
  Si  Si8  1  0.334033  0.334033  0.330396  1
  Si  Si9  1  0.008920  0.333691  0.323059  1
  Si  Si10  1  0.915967  0.915967  0.248463  1
  Si  Si11  1  0.241080  0.916309  0.915671  1
  W  W12  1  0.303024  0.695728  0.697263  1
  W  W13  1  0.307530  0.307530  0.695793  1
  W  W14  1  0.553854  0.942893  0.557139  1
  W  W15  1  0.942893  0.553854  0.557139  1
  W  W16  1  0.554272  0.946976  0.946015  1
  W  W17  1  0.696146  0.307107  0.303886  1
  W  W18  1  0.946976  0.554272  0.946015  1
  W  W19  1  0.307107  0.696146  0.303886  1
  W  W20  1  0.551478  0.551478  0.949344  1
  W  W21  1  0.695728  0.303024  0.697263  1
  W  W22  1  0.698522  0.698522  0.302301  1
  W  W23  1  0.942470  0.942470  0.560852  1
  C  C24  1  0.746999  0.746999  0.755548  1
  C  C25  1  0.503001  0.503001  0.499545  1
