# generated using pymatgen
data_CaNd(NbSe2)6
_symmetry_space_group_name_H-M   'P 1'
_cell_length_a   6.10360300
_cell_length_b   6.10360303
_cell_length_c   15.00576000
_cell_angle_alpha   90.00000000
_cell_angle_beta   90.00000000
_cell_angle_gamma   120.00000525
_symmetry_Int_Tables_number   1
_chemical_formula_structural   CaNd(NbSe2)6
_chemical_formula_sum   'Ca1 Nd1 Nb6 Se12'
_cell_volume   484.12907182
_cell_formula_units_Z   1
loop_
 _symmetry_equiv_pos_site_id
 _symmetry_equiv_pos_as_xyz
  1  'x, y, z'
loop_
 _atom_site_type_symbol
 _atom_site_label
 _atom_site_symmetry_multiplicity
 _atom_site_fract_x
 _atom_site_fract_y
 _atom_site_fract_z
 _atom_site_occupancy
  Ca  Ca0  1  0.666667  0.333333  0.750000  1
  Nd  Nd1  1  0.333333  0.666667  0.250000  1
  Nb  Nb2  1  0.333333  0.666667  0.001546  1
  Nb  Nb3  1  0.000000  0.000000  0.999596  1
  Nb  Nb4  1  0.666667  0.333333  0.998743  1
  Nb  Nb5  1  0.333333  0.666667  0.498454  1
  Nb  Nb6  1  0.000000  0.000000  0.500404  1
  Nb  Nb7  1  0.666667  0.333333  0.501257  1
  Se  Se8  1  0.673558  0.665952  0.388521  1
  Se  Se9  1  0.665710  0.671481  0.611229  1
  Se  Se10  1  0.005771  0.671481  0.888771  1
  Se  Se11  1  0.665710  0.994229  0.888771  1
  Se  Se12  1  0.673558  0.007606  0.111479  1
  Se  Se13  1  0.334048  0.007606  0.388521  1
  Se  Se14  1  0.005771  0.334290  0.611229  1
  Se  Se15  1  0.328519  0.994229  0.611229  1
  Se  Se16  1  0.992394  0.665952  0.111479  1
  Se  Se17  1  0.328519  0.334290  0.888771  1
  Se  Se18  1  0.992394  0.326442  0.388521  1
  Se  Se19  1  0.334048  0.326442  0.111479  1
