# generated using pymatgen
data_Nd20Co3TcBi8
_symmetry_space_group_name_H-M   'P 1'
_cell_length_a   8.29648214
_cell_length_b   9.13523900
_cell_length_c   12.80848707
_cell_angle_alpha   90.00003404
_cell_angle_beta   90.16302503
_cell_angle_gamma   90.00005954
_symmetry_Int_Tables_number   1
_chemical_formula_structural   Nd20Co3TcBi8
_chemical_formula_sum   'Nd20 Co3 Tc1 Bi8'
_cell_volume   970.75575317
_cell_formula_units_Z   1
loop_
 _symmetry_equiv_pos_site_id
 _symmetry_equiv_pos_as_xyz
  1  'x, y, z'
loop_
 _atom_site_type_symbol
 _atom_site_label
 _atom_site_symmetry_multiplicity
 _atom_site_fract_x
 _atom_site_fract_y
 _atom_site_fract_z
 _atom_site_occupancy
  Nd  Nd0  1  0.847961  0.750001  0.795120  1
  Nd  Nd1  1  0.150004  0.250000  0.201029  1
  Nd  Nd2  1  0.349318  0.250000  0.699859  1
  Nd  Nd3  1  0.648717  0.750000  0.293484  1
  Nd  Nd4  1  0.380920  0.750001  0.694395  1
  Nd  Nd5  1  0.619202  0.250001  0.307099  1
  Nd  Nd6  1  0.878553  0.250000  0.808463  1
  Nd  Nd7  1  0.118754  0.750000  0.190418  1
  Nd  Nd8  1  0.946105  0.750000  0.502957  1
  Nd  Nd9  1  0.049027  0.250000  0.495127  1
  Nd  Nd10  1  0.449559  0.250000  0.997146  1
  Nd  Nd11  1  0.554088  0.750000  0.003731  1
  Nd  Nd12  1  0.682989  0.041917  0.567198  1
  Nd  Nd13  1  0.322698  0.967181  0.438609  1
  Nd  Nd14  1  0.177905  0.967308  0.936655  1
  Nd  Nd15  1  0.322698  0.532817  0.438610  1
  Nd  Nd16  1  0.818889  0.036279  0.063851  1
  Nd  Nd17  1  0.682987  0.458084  0.567200  1
  Nd  Nd18  1  0.818891  0.463720  0.063852  1
  Nd  Nd19  1  0.177907  0.532691  0.936653  1
  Co  Co20  1  0.423592  0.250000  0.487903  1
  Co  Co21  1  0.065363  0.250000  0.991396  1
  Co  Co22  1  0.933308  0.750000  0.006647  1
  Tc  Tc23  1  0.583271  0.750002  0.512775  1
  Bi  Bi24  1  0.573416  0.492736  0.827077  1
  Bi  Bi25  1  0.423817  0.507052  0.173448  1
  Bi  Bi26  1  0.075566  0.506797  0.673858  1
  Bi  Bi27  1  0.423818  0.992948  0.173448  1
  Bi  Bi28  1  0.925846  0.493477  0.325526  1
  Bi  Bi29  1  0.573417  0.007264  0.827076  1
  Bi  Bi30  1  0.925846  0.006523  0.325526  1
  Bi  Bi31  1  0.075566  0.993203  0.673858  1
