# generated using pymatgen
data_HfRe6HgO24
_symmetry_space_group_name_H-M   'P 1'
_cell_length_a   10.28870100
_cell_length_b   10.28870124
_cell_length_c   6.05479700
_cell_angle_alpha   90.00000000
_cell_angle_beta   90.00000000
_cell_angle_gamma   119.99999045
_symmetry_Int_Tables_number   1
_chemical_formula_structural   HfRe6HgO24
_chemical_formula_sum   'Hf1 Re6 Hg1 O24'
_cell_volume   555.07461104
_cell_formula_units_Z   1
loop_
 _symmetry_equiv_pos_site_id
 _symmetry_equiv_pos_as_xyz
  1  'x, y, z'
loop_
 _atom_site_type_symbol
 _atom_site_label
 _atom_site_symmetry_multiplicity
 _atom_site_fract_x
 _atom_site_fract_y
 _atom_site_fract_z
 _atom_site_occupancy
  Hf  Hf0  1  0.666667  0.333333  0.750000  1
  Re  Re1  1  0.074655  0.389775  0.750000  1
  Re  Re2  1  0.406735  0.297015  0.250000  1
  Re  Re3  1  0.610225  0.684879  0.750000  1
  Re  Re4  1  0.890279  0.593265  0.250000  1
  Re  Re5  1  0.315121  0.925345  0.750000  1
  Re  Re6  1  0.702985  0.109721  0.250000  1
  Hg  Hg7  1  0.333333  0.666667  0.250000  1
  O  O8  1  0.495797  0.643778  0.515913  1
  O  O9  1  0.356222  0.852019  0.515913  1
  O  O10  1  0.817716  0.712282  0.250000  1
  O  O11  1  0.126940  0.871542  0.750000  1
  O  O12  1  0.287718  0.105434  0.250000  1
  O  O13  1  0.128458  0.255398  0.750000  1
  O  O14  1  0.522621  0.350455  0.010028  1
  O  O15  1  0.894566  0.182284  0.250000  1
  O  O16  1  0.083684  0.702562  0.250000  1
  O  O17  1  0.147981  0.504203  0.984087  1
  O  O18  1  0.147981  0.504203  0.515913  1
  O  O19  1  0.875500  0.305272  0.750000  1
  O  O20  1  0.297438  0.381122  0.250000  1
  O  O21  1  0.694728  0.570228  0.750000  1
  O  O22  1  0.827834  0.477379  0.489972  1
  O  O23  1  0.429772  0.124500  0.750000  1
  O  O24  1  0.649545  0.172166  0.010028  1
  O  O25  1  0.495797  0.643778  0.984087  1
  O  O26  1  0.356222  0.852019  0.984087  1
  O  O27  1  0.649545  0.172166  0.489972  1
  O  O28  1  0.522621  0.350455  0.489972  1
  O  O29  1  0.827834  0.477379  0.010028  1
  O  O30  1  0.744602  0.873060  0.750000  1
  O  O31  1  0.618878  0.916316  0.250000  1
