# generated using pymatgen
data_Er3Sc5Ti3Si16Mo9
_symmetry_space_group_name_H-M   'P 1'
_cell_length_a   6.80445250
_cell_length_b   6.80360866
_cell_length_c   12.58181956
_cell_angle_alpha   90.00681035
_cell_angle_beta   90.08087827
_cell_angle_gamma   89.64524345
_symmetry_Int_Tables_number   1
_chemical_formula_structural   Er3Sc5Ti3Si16Mo9
_chemical_formula_sum   'Er3 Sc5 Ti3 Si16 Mo9'
_cell_volume   582.46147392
_cell_formula_units_Z   1
loop_
 _symmetry_equiv_pos_site_id
 _symmetry_equiv_pos_as_xyz
  1  'x, y, z'
loop_
 _atom_site_type_symbol
 _atom_site_label
 _atom_site_symmetry_multiplicity
 _atom_site_fract_x
 _atom_site_fract_y
 _atom_site_fract_z
 _atom_site_occupancy
  Er  Er0  1  0.658903  0.998414  0.968836  1
  Er  Er1  1  0.004603  0.338630  0.530496  1
  Er  Er2  1  0.998760  0.658779  0.031562  1
  Sc  Sc3  1  0.342424  0.998815  0.468302  1
  Sc  Sc4  1  0.499989  0.839743  0.719627  1
  Sc  Sc5  1  0.496454  0.161083  0.218550  1
  Sc  Sc6  1  0.839996  0.499349  0.281132  1
  Sc  Sc7  1  0.160761  0.495899  0.781331  1
  Ti  Ti8  1  0.170058  0.832076  0.249610  1
  Ti  Ti9  1  0.831885  0.169152  0.750232  1
  Ti  Ti10  1  0.668671  0.669930  0.499745  1
  Si  Si11  1  0.205876  0.129603  0.681330  1
  Si  Si12  1  0.369150  0.695841  0.929437  1
  Si  Si13  1  0.629947  0.297864  0.428864  1
  Si  Si14  1  0.696393  0.369443  0.070882  1
  Si  Si15  1  0.300076  0.637868  0.570101  1
  Si  Si16  1  0.793552  0.869826  0.184803  1
  Si  Si17  1  0.135921  0.200809  0.319336  1
  Si  Si18  1  0.870490  0.793490  0.815457  1
  Si  Si19  1  0.290087  0.964085  0.063530  1
  Si  Si20  1  0.539168  0.797934  0.314530  1
  Si  Si21  1  0.456872  0.208168  0.813183  1
  Si  Si22  1  0.794704  0.540151  0.686586  1
  Si  Si23  1  0.207945  0.455723  0.187188  1
  Si  Si24  1  0.701149  0.040294  0.563917  1
  Si  Si25  1  0.964185  0.289799  0.936819  1
  Si  Si26  1  0.042057  0.709521  0.435046  1
  Mo  Mo27  1  0.330926  0.330483  0.000087  1
  Mo  Mo28  1  0.156426  0.999864  0.871655  1
  Mo  Mo29  1  0.495096  0.664740  0.125203  1
  Mo  Mo30  1  0.503929  0.343792  0.623329  1
  Mo  Mo31  1  0.664730  0.495702  0.875528  1
  Mo  Mo32  1  0.343561  0.507928  0.375879  1
  Mo  Mo33  1  0.841402  0.996471  0.374174  1
  Mo  Mo34  1  0.000016  0.155743  0.128798  1
  Mo  Mo35  1  0.993837  0.842988  0.624915  1
