# generated using pymatgen
data_Ce3Ho(SnRu)4
_symmetry_space_group_name_H-M   'P 1'
_cell_length_a   6.30701656
_cell_length_b   6.30701627
_cell_length_c   10.07160735
_cell_angle_alpha   77.50474212
_cell_angle_beta   77.50474199
_cell_angle_gamma   44.73191567
_symmetry_Int_Tables_number   1
_chemical_formula_structural   Ce3Ho(SnRu)4
_chemical_formula_sum   'Ce3 Ho1 Sn4 Ru4'
_cell_volume   274.13627044
_cell_formula_units_Z   1
loop_
 _symmetry_equiv_pos_site_id
 _symmetry_equiv_pos_as_xyz
  1  'x, y, z'
loop_
 _atom_site_type_symbol
 _atom_site_label
 _atom_site_symmetry_multiplicity
 _atom_site_fract_x
 _atom_site_fract_y
 _atom_site_fract_z
 _atom_site_occupancy
  Ce  Ce0  1  0.861969  0.861969  0.416618  1
  Ce  Ce1  1  0.864816  0.864816  0.915341  1
  Ce  Ce2  1  0.140001  0.140001  0.088954  1
  Ho  Ho3  1  0.120075  0.120075  0.595343  1
  Sn  Sn4  1  0.425478  0.425478  0.157053  1
  Sn  Sn5  1  0.409169  0.409169  0.656019  1
  Sn  Sn6  1  0.583138  0.583138  0.839782  1
  Sn  Sn7  1  0.587788  0.587788  0.358610  1
  Ru  Ru8  1  0.816820  0.816820  0.156059  1
  Ru  Ru9  1  0.194557  0.194557  0.308061  1
  Ru  Ru10  1  0.189127  0.189127  0.846111  1
  Ru  Ru11  1  0.807061  0.807061  0.662048  1
