# generated using pymatgen
data_Tb3YbSe4
_symmetry_space_group_name_H-M   'P 1'
_cell_length_a   13.49272517
_cell_length_b   13.49272514
_cell_length_c   13.49272518
_cell_angle_alpha   17.61823091
_cell_angle_beta   17.61823230
_cell_angle_gamma   17.61822590
_symmetry_Int_Tables_number   1
_chemical_formula_structural   Tb3YbSe4
_chemical_formula_sum   'Tb3 Yb1 Se4'
_cell_volume   196.41990369
_cell_formula_units_Z   1
loop_
 _symmetry_equiv_pos_site_id
 _symmetry_equiv_pos_as_xyz
  1  'x, y, z'
loop_
 _atom_site_type_symbol
 _atom_site_label
 _atom_site_symmetry_multiplicity
 _atom_site_fract_x
 _atom_site_fract_y
 _atom_site_fract_z
 _atom_site_occupancy
  Tb  Tb0  1  0.248594  0.248594  0.248594  1
  Tb  Tb1  1  0.500000  0.500000  0.500000  1
  Tb  Tb2  1  0.751406  0.751406  0.751406  1
  Yb  Yb3  1  0.000000  0.000000  0.000000  1
  Se  Se4  1  0.375667  0.375667  0.375667  1
  Se  Se5  1  0.125456  0.125456  0.125456  1
  Se  Se6  1  0.624333  0.624333  0.624333  1
  Se  Se7  1  0.874544  0.874544  0.874544  1
