# generated using pymatgen
data_KNb8AlSe16
_symmetry_space_group_name_H-M   'P 1'
_cell_length_a   7.00155600
_cell_length_b   7.00155705
_cell_length_c   14.98150100
_cell_angle_alpha   90.00000000
_cell_angle_beta   90.00000000
_cell_angle_gamma   120.00000448
_symmetry_Int_Tables_number   1
_chemical_formula_structural   KNb8AlSe16
_chemical_formula_sum   'K1 Nb8 Al1 Se16'
_cell_volume   636.02639399
_cell_formula_units_Z   1
loop_
 _symmetry_equiv_pos_site_id
 _symmetry_equiv_pos_as_xyz
  1  'x, y, z'
loop_
 _atom_site_type_symbol
 _atom_site_label
 _atom_site_symmetry_multiplicity
 _atom_site_fract_x
 _atom_site_fract_y
 _atom_site_fract_z
 _atom_site_occupancy
  K  K0  1  0.000000  0.000000  0.000000  1
  Nb  Nb1  1  0.000000  0.000000  0.282357  1
  Nb  Nb2  1  0.000000  0.000000  0.717643  1
  Nb  Nb3  1  0.508214  0.016427  0.284461  1
  Nb  Nb4  1  0.491786  0.983573  0.715539  1
  Nb  Nb5  1  0.983573  0.491786  0.284461  1
  Nb  Nb6  1  0.016427  0.508214  0.715539  1
  Nb  Nb7  1  0.508214  0.491786  0.284461  1
  Nb  Nb8  1  0.491786  0.508214  0.715539  1
  Al  Al9  1  0.000000  0.000000  0.500000  1
  Se  Se10  1  0.333333  0.666667  0.600363  1
  Se  Se11  1  0.666667  0.333333  0.399637  1
  Se  Se12  1  0.666667  0.333333  0.167267  1
  Se  Se13  1  0.333333  0.666667  0.832733  1
  Se  Se14  1  0.168782  0.337564  0.173804  1
  Se  Se15  1  0.831218  0.662436  0.826196  1
  Se  Se16  1  0.662436  0.831218  0.173804  1
  Se  Se17  1  0.831866  0.663730  0.604688  1
  Se  Se18  1  0.337564  0.168782  0.826196  1
  Se  Se19  1  0.168134  0.336270  0.395312  1
  Se  Se20  1  0.168782  0.831218  0.173804  1
  Se  Se21  1  0.336270  0.168134  0.604688  1
  Se  Se22  1  0.831218  0.168782  0.826196  1
  Se  Se23  1  0.663730  0.831866  0.395312  1
  Se  Se24  1  0.831866  0.168134  0.604688  1
  Se  Se25  1  0.168134  0.831866  0.395312  1
