# generated using pymatgen
data_Th2Ti3Co9P7
_symmetry_space_group_name_H-M   'P 1'
_cell_length_a   9.26458400
_cell_length_b   9.26458391
_cell_length_c   3.72800800
_cell_angle_alpha   90.00000000
_cell_angle_beta   90.00000000
_cell_angle_gamma   120.00000031
_symmetry_Int_Tables_number   1
_chemical_formula_structural   Th2Ti3Co9P7
_chemical_formula_sum   'Th2 Ti3 Co9 P7'
_cell_volume   277.11453688
_cell_formula_units_Z   1
loop_
 _symmetry_equiv_pos_site_id
 _symmetry_equiv_pos_as_xyz
  1  'x, y, z'
loop_
 _atom_site_type_symbol
 _atom_site_label
 _atom_site_symmetry_multiplicity
 _atom_site_fract_x
 _atom_site_fract_y
 _atom_site_fract_z
 _atom_site_occupancy
  Th  Th0  1  0.333333  0.666667  0.000000  1
  Th  Th1  1  0.000000  0.000000  0.500000  1
  Ti  Ti2  1  0.778693  0.225457  0.500000  1
  Ti  Ti3  1  0.774543  0.553236  0.500000  1
  Ti  Ti4  1  0.446764  0.221307  0.500000  1
  Co  Co5  1  0.034939  0.269355  0.000000  1
  Co  Co6  1  0.730645  0.765583  0.000000  1
  Co  Co7  1  0.234417  0.965061  0.000000  1
  Co  Co8  1  0.542942  0.053066  0.000000  1
  Co  Co9  1  0.946934  0.489876  0.000000  1
  Co  Co10  1  0.510124  0.457058  0.000000  1
  Co  Co11  1  0.613567  0.894420  0.500000  1
  Co  Co12  1  0.105580  0.719145  0.500000  1
  Co  Co13  1  0.280855  0.386433  0.500000  1
  P  P14  1  0.767439  0.025692  0.000000  1
  P  P15  1  0.974308  0.741748  0.000000  1
  P  P16  1  0.258252  0.232561  0.000000  1
  P  P17  1  0.375987  0.931044  0.500000  1
  P  P18  1  0.068956  0.444943  0.500000  1
  P  P19  1  0.555057  0.624013  0.500000  1
  P  P20  1  0.666667  0.333333  0.000000  1
