# generated using pymatgen
data_Sm12Ga2SiGeBr12
_symmetry_space_group_name_H-M   'P 1'
_cell_length_a   10.29170329
_cell_length_b   10.28081000
_cell_length_c   10.29129800
_cell_angle_alpha   109.44817079
_cell_angle_beta   109.49141801
_cell_angle_gamma   109.45426184
_symmetry_Int_Tables_number   1
_chemical_formula_structural   Sm12Ga2SiGeBr12
_chemical_formula_sum   'Sm12 Ga2 Si1 Ge1 Br12'
_cell_volume   838.43410787
_cell_formula_units_Z   1
loop_
 _symmetry_equiv_pos_site_id
 _symmetry_equiv_pos_as_xyz
  1  'x, y, z'
loop_
 _atom_site_type_symbol
 _atom_site_label
 _atom_site_symmetry_multiplicity
 _atom_site_fract_x
 _atom_site_fract_y
 _atom_site_fract_z
 _atom_site_occupancy
  Sm  Sm0  1  0.479545  0.491821  0.237028  1
  Sm  Sm1  1  0.749509  0.239955  0.260190  1
  Sm  Sm2  1  0.749467  0.008221  0.490193  1
  Sm  Sm3  1  0.240773  0.482019  0.490214  1
  Sm  Sm4  1  0.257469  0.745201  0.237014  1
  Sm  Sm5  1  0.019943  0.262939  0.008301  1
  Sm  Sm6  1  0.010674  0.020236  0.260173  1
  Sm  Sm7  1  0.488344  0.745351  0.008326  1
  Sm  Sm8  1  0.490487  0.240500  0.480958  1
  Sm  Sm9  1  0.013330  0.491526  0.754890  1
  Sm  Sm10  1  0.258587  0.008596  0.017212  1
  Sm  Sm11  1  0.241577  0.263346  0.754894  1
  Ga  Ga12  1  0.250123  0.250195  0.249595  1
  Ga  Ga13  1  0.499468  0.999415  0.249601  1
  Si  Si14  1  0.250206  0.500198  0.000430  1
  Ge  Ge15  1  0.000183  0.250166  0.500301  1
  Br  Br16  1  0.249567  0.754193  0.743971  1
  Br  Br17  1  0.510834  0.505938  0.755182  1
  Br  Br18  1  0.986478  0.743412  0.992966  1
  Br  Br19  1  0.744344  0.249251  0.755138  1
  Br  Br20  1  0.994372  0.989741  0.743944  1
  Br  Br21  1  0.249610  0.994635  0.506563  1
  Br  Br22  1  0.756974  0.511967  0.506591  1
  Br  Br23  1  0.506484  0.249539  0.993010  1
  Br  Br24  1  0.757529  0.744341  0.250852  1
  Br  Br25  1  0.745257  0.995257  0.990584  1
  Br  Br26  1  0.993329  0.506502  0.250846  1
  Br  Br27  1  0.505541  0.755539  0.511029  1
