# generated using pymatgen
data_Ac2B4Ir3Os
_symmetry_space_group_name_H-M   'P 1'
_cell_length_a   7.18939648
_cell_length_b   6.22156936
_cell_length_c   5.70903449
_cell_angle_alpha   73.97249386
_cell_angle_beta   56.27824937
_cell_angle_gamma   49.87984111
_symmetry_Int_Tables_number   1
_chemical_formula_structural   Ac2B4Ir3Os
_chemical_formula_sum   'Ac2 B4 Ir3 Os1'
_cell_volume   161.07376018
_cell_formula_units_Z   1
loop_
 _symmetry_equiv_pos_site_id
 _symmetry_equiv_pos_as_xyz
  1  'x, y, z'
loop_
 _atom_site_type_symbol
 _atom_site_label
 _atom_site_symmetry_multiplicity
 _atom_site_fract_x
 _atom_site_fract_y
 _atom_site_fract_z
 _atom_site_occupancy
  Ac  Ac0  1  0.998480  0.998480  0.001520  1
  Ac  Ac1  1  0.251464  0.251464  0.248536  1
  B  B2  1  0.324660  0.683657  0.331822  1
  B  B3  1  0.568144  0.926049  0.577917  1
  B  B4  1  0.683657  0.324660  0.659861  1
  B  B5  1  0.926049  0.568144  0.927889  1
  Ir  Ir6  1  0.880563  0.880563  0.619437  1
  Ir  Ir7  1  0.617145  0.617145  0.882855  1
  Ir  Ir8  1  0.367817  0.367817  0.632183  1
  Os  Os9  1  0.632021  0.632021  0.367979  1
