# generated using pymatgen
data_CrBCl7
_symmetry_space_group_name_H-M   'P 1'
_cell_length_a   8.85013982
_cell_length_b   6.52222409
_cell_length_c   7.64276109
_cell_angle_alpha   82.25391072
_cell_angle_beta   79.22334255
_cell_angle_gamma   57.05076509
_symmetry_Int_Tables_number   1
_chemical_formula_structural   CrBCl7
_chemical_formula_sum   'Cr1 B1 Cl7'
_cell_volume   363.37859491
_cell_formula_units_Z   1
loop_
 _symmetry_equiv_pos_site_id
 _symmetry_equiv_pos_as_xyz
  1  'x, y, z'
loop_
 _atom_site_type_symbol
 _atom_site_label
 _atom_site_symmetry_multiplicity
 _atom_site_fract_x
 _atom_site_fract_y
 _atom_site_fract_z
 _atom_site_occupancy
  Cr  Cr0  1  0.523708  0.381056  0.659098  1
  B  B1  1  0.031394  0.349504  0.138399  1
  Cl  Cl2  1  0.227407  0.057202  0.136267  1
  Cl  Cl3  1  0.608743  0.207248  0.414333  1
  Cl  Cl4  1  0.648932  0.115820  0.862524  1
  Cl  Cl5  1  0.998415  0.568167  0.275013  1
  Cl  Cl6  1  0.598664  0.642480  0.636116  1
  Cl  Cl7  1  0.868443  0.422289  0.003938  1
  Cl  Cl8  1  0.238354  0.553398  0.721356  1
