# generated using pymatgen
data_Dy4Tm4B24IrRu3
_symmetry_space_group_name_H-M   'P 1'
_cell_length_a   3.64024200
_cell_length_b   9.10693457
_cell_length_c   11.45949812
_cell_angle_alpha   90.01184775
_cell_angle_beta   90.00000000
_cell_angle_gamma   90.00000000
_symmetry_Int_Tables_number   1
_chemical_formula_structural   Dy4Tm4B24IrRu3
_chemical_formula_sum   'Dy4 Tm4 B24 Ir1 Ru3'
_cell_volume   379.89892193
_cell_formula_units_Z   1
loop_
 _symmetry_equiv_pos_site_id
 _symmetry_equiv_pos_as_xyz
  1  'x, y, z'
loop_
 _atom_site_type_symbol
 _atom_site_label
 _atom_site_symmetry_multiplicity
 _atom_site_fract_x
 _atom_site_fract_y
 _atom_site_fract_z
 _atom_site_occupancy
  Dy  Dy0  1  0.000000  0.318867  0.414378  1
  Dy  Dy1  1  0.000000  0.679195  0.589040  1
  Dy  Dy2  1  0.000000  0.823135  0.084261  1
  Dy  Dy3  1  0.000000  0.178808  0.913107  1
  Tm  Tm4  1  0.000000  0.945819  0.373243  1
  Tm  Tm5  1  0.000000  0.055837  0.626905  1
  Tm  Tm6  1  0.000000  0.441889  0.125538  1
  Tm  Tm7  1  0.000000  0.555783  0.873361  1
  B  B8  1  0.500000  0.554119  0.433602  1
  B  B9  1  0.500000  0.445719  0.567149  1
  B  B10  1  0.500000  0.054568  0.067140  1
  B  B11  1  0.500000  0.945877  0.932510  1
  B  B12  1  0.500000  0.750186  0.421016  1
  B  B13  1  0.500000  0.250770  0.580253  1
  B  B14  1  0.500000  0.248606  0.080017  1
  B  B15  1  0.500000  0.751351  0.919825  1
  B  B16  1  0.500000  0.792588  0.265664  1
  B  B17  1  0.500000  0.208554  0.733682  1
  B  B18  1  0.500000  0.291808  0.234214  1
  B  B19  1  0.500000  0.708342  0.766272  1
  B  B20  1  0.500000  0.631302  0.183461  1
  B  B21  1  0.500000  0.368979  0.814965  1
  B  B22  1  0.500000  0.131243  0.315206  1
  B  B23  1  0.500000  0.868614  0.685129  1
  B  B24  1  0.500000  0.982918  0.213335  1
  B  B25  1  0.500000  0.016951  0.786443  1
  B  B26  1  0.500000  0.481787  0.286166  1
  B  B27  1  0.500000  0.516934  0.713678  1
  B  B28  1  0.500000  0.607648  0.029856  1
  B  B29  1  0.500000  0.392446  0.970441  1
  B  B30  1  0.500000  0.107010  0.470624  1
  B  B31  1  0.500000  0.892320  0.529240  1
  Ir  Ir32  1  0.000000  0.637851  0.321136  1
  Ru  Ru33  1  0.000000  0.362070  0.678878  1
  Ru  Ru34  1  0.000000  0.138281  0.179767  1
  Ru  Ru35  1  0.000000  0.861823  0.820500  1
