# generated using pymatgen
data_Nd8Y11LuPb16
_symmetry_space_group_name_H-M   'P 1'
_cell_length_a   8.29712942
_cell_length_b   8.37803643
_cell_length_c   15.85744900
_cell_angle_alpha   90.00000000
_cell_angle_beta   90.00000000
_cell_angle_gamma   90.03642797
_symmetry_Int_Tables_number   1
_chemical_formula_structural   Nd8Y11LuPb16
_chemical_formula_sum   'Nd8 Y11 Lu1 Pb16'
_cell_volume   1102.30897627
_cell_formula_units_Z   1
loop_
 _symmetry_equiv_pos_site_id
 _symmetry_equiv_pos_as_xyz
  1  'x, y, z'
loop_
 _atom_site_type_symbol
 _atom_site_label
 _atom_site_symmetry_multiplicity
 _atom_site_fract_x
 _atom_site_fract_y
 _atom_site_fract_z
 _atom_site_occupancy
  Nd  Nd0  1  0.473417  0.677401  0.597730  1
  Nd  Nd1  1  0.973495  0.822610  0.902400  1
  Nd  Nd2  1  0.526781  0.322195  0.097795  1
  Nd  Nd3  1  0.026192  0.177154  0.402163  1
  Nd  Nd4  1  0.526781  0.322195  0.402205  1
  Nd  Nd5  1  0.026192  0.177154  0.097837  1
  Nd  Nd6  1  0.473417  0.677401  0.902270  1
  Nd  Nd7  1  0.973495  0.822610  0.597600  1
  Y  Y8  1  0.632574  0.158125  0.622264  1
  Y  Y9  1  0.132624  0.341905  0.877578  1
  Y  Y10  1  0.367977  0.842293  0.122584  1
  Y  Y11  1  0.867035  0.658365  0.377453  1
  Y  Y12  1  0.367977  0.842293  0.377416  1
  Y  Y13  1  0.867035  0.658365  0.122547  1
  Y  Y14  1  0.632574  0.158125  0.877736  1
  Y  Y15  1  0.132624  0.341905  0.622422  1
  Y  Y16  1  0.799075  0.494959  0.750000  1
  Y  Y17  1  0.299095  0.004990  0.750000  1
  Y  Y18  1  0.200829  0.504893  0.250000  1
  Lu  Lu19  1  0.701114  0.994453  0.250000  1
  Pb  Pb20  1  0.707208  0.960651  0.456060  1
  Pb  Pb21  1  0.207032  0.539615  0.043253  1
  Pb  Pb22  1  0.292982  0.039617  0.956863  1
  Pb  Pb23  1  0.792959  0.460499  0.543131  1
  Pb  Pb24  1  0.292982  0.039617  0.543137  1
  Pb  Pb25  1  0.792959  0.460499  0.956869  1
  Pb  Pb26  1  0.707208  0.960651  0.043940  1
  Pb  Pb27  1  0.207032  0.539615  0.456747  1
  Pb  Pb28  1  0.436988  0.372278  0.750000  1
  Pb  Pb29  1  0.936998  0.127585  0.750000  1
  Pb  Pb30  1  0.563369  0.628602  0.250000  1
  Pb  Pb31  1  0.061505  0.872969  0.250000  1
  Pb  Pb32  1  0.662787  0.848968  0.750000  1
  Pb  Pb33  1  0.162735  0.651278  0.750000  1
  Pb  Pb34  1  0.337864  0.151030  0.250000  1
  Pb  Pb35  1  0.837090  0.347136  0.250000  1
