# generated using pymatgen
data_TbTh3(Ge5Os3)2
_symmetry_space_group_name_H-M   'P 1'
_cell_length_a   8.43652762
_cell_length_b   8.43101493
_cell_length_c   6.03520519
_cell_angle_alpha   70.50888182
_cell_angle_beta   70.81170788
_cell_angle_gamma   94.20058466
_symmetry_Int_Tables_number   1
_chemical_formula_structural   TbTh3(Ge5Os3)2
_chemical_formula_sum   'Tb1 Th3 Ge10 Os6'
_cell_volume   374.03952765
_cell_formula_units_Z   1
loop_
 _symmetry_equiv_pos_site_id
 _symmetry_equiv_pos_as_xyz
  1  'x, y, z'
loop_
 _atom_site_type_symbol
 _atom_site_label
 _atom_site_symmetry_multiplicity
 _atom_site_fract_x
 _atom_site_fract_y
 _atom_site_fract_z
 _atom_site_occupancy
  Tb  Tb0  1  0.868333  0.594271  0.763715  1
  Th  Th1  1  0.403796  0.129137  0.738717  1
  Th  Th2  1  0.129349  0.405814  0.238762  1
  Th  Th3  1  0.595737  0.868966  0.262511  1
  Ge  Ge4  1  0.073496  0.261797  0.829198  1
  Ge  Ge5  1  0.743063  0.921214  0.671740  1
  Ge  Ge6  1  0.925876  0.738108  0.171467  1
  Ge  Ge7  1  0.260111  0.073847  0.329348  1
  Ge  Ge8  1  0.200870  0.790277  0.752073  1
  Ge  Ge9  1  0.793933  0.206400  0.250508  1
  Ge  Ge10  1  0.516988  0.488751  0.748010  1
  Ge  Ge11  1  0.488065  0.513246  0.248143  1
  Ge  Ge12  1  0.775065  0.229381  0.748931  1
  Ge  Ge13  1  0.222878  0.774116  0.253360  1
  Os  Os14  1  0.256705  0.545479  0.632289  1
  Os  Os15  1  0.453183  0.747483  0.866217  1
  Os  Os16  1  0.744379  0.453630  0.366897  1
  Os  Os17  1  0.546137  0.254019  0.133338  1
  Os  Os18  1  0.004791  0.999984  0.746892  1
  Os  Os19  1  0.997247  0.004080  0.247883  1
