# generated using pymatgen
data_Tb4Dy12Cd4Ni3Ir
_symmetry_space_group_name_H-M   'P 1'
_cell_length_a   9.58680853
_cell_length_b   9.58559212
_cell_length_c   9.58559127
_cell_angle_alpha   59.80607339
_cell_angle_beta   59.78683038
_cell_angle_gamma   59.78682293
_symmetry_Int_Tables_number   1
_chemical_formula_structural   Tb4Dy12Cd4Ni3Ir
_chemical_formula_sum   'Tb4 Dy12 Cd4 Ni3 Ir1'
_cell_volume   619.94561916
_cell_formula_units_Z   1
loop_
 _symmetry_equiv_pos_site_id
 _symmetry_equiv_pos_as_xyz
  1  'x, y, z'
loop_
 _atom_site_type_symbol
 _atom_site_label
 _atom_site_symmetry_multiplicity
 _atom_site_fract_x
 _atom_site_fract_y
 _atom_site_fract_z
 _atom_site_occupancy
  Tb  Tb0  1  0.565898  0.935720  0.565881  1
  Tb  Tb1  1  0.937604  0.560178  0.937522  1
  Tb  Tb2  1  0.565898  0.565881  0.935720  1
  Tb  Tb3  1  0.937604  0.937522  0.560178  1
  Dy  Dy4  1  0.346845  0.347121  0.347121  1
  Dy  Dy5  1  0.351322  0.351172  0.953180  1
  Dy  Dy6  1  0.351322  0.953180  0.351172  1
  Dy  Dy7  1  0.953099  0.351360  0.351360  1
  Dy  Dy8  1  0.808368  0.189262  0.189262  1
  Dy  Dy9  1  0.186743  0.811375  0.811375  1
  Dy  Dy10  1  0.189278  0.808330  0.189289  1
  Dy  Dy11  1  0.811396  0.186652  0.811341  1
  Dy  Dy12  1  0.189278  0.189289  0.808330  1
  Dy  Dy13  1  0.811396  0.811341  0.186652  1
  Dy  Dy14  1  0.936030  0.565577  0.565577  1
  Dy  Dy15  1  0.559971  0.937761  0.937761  1
  Cd  Cd16  1  0.580514  0.580322  0.580322  1
  Cd  Cd17  1  0.580101  0.580331  0.256577  1
  Cd  Cd18  1  0.580101  0.256577  0.580331  1
  Cd  Cd19  1  0.256410  0.580200  0.580200  1
  Ni  Ni20  1  0.141675  0.141870  0.574464  1
  Ni  Ni21  1  0.141675  0.574464  0.141870  1
  Ni  Ni22  1  0.574450  0.141680  0.141680  1
  Ir  Ir23  1  0.143022  0.142834  0.142834  1
