# generated using pymatgen
data_Lu10Sn6Cl
_symmetry_space_group_name_H-M   'P 1'
_cell_length_a   6.38598804
_cell_length_b   8.83924151
_cell_length_c   8.83927201
_cell_angle_alpha   119.99970390
_cell_angle_beta   89.99994122
_cell_angle_gamma   90.00052296
_symmetry_Int_Tables_number   1
_chemical_formula_structural   Lu10Sn6Cl
_chemical_formula_sum   'Lu10 Sn6 Cl1'
_cell_volume   432.10722421
_cell_formula_units_Z   1
loop_
 _symmetry_equiv_pos_site_id
 _symmetry_equiv_pos_as_xyz
  1  'x, y, z'
loop_
 _atom_site_type_symbol
 _atom_site_label
 _atom_site_symmetry_multiplicity
 _atom_site_fract_x
 _atom_site_fract_y
 _atom_site_fract_z
 _atom_site_occupancy
  Lu  Lu0  1  0.499989  0.333318  0.666630  1
  Lu  Lu1  1  0.500002  0.666690  0.333374  1
  Lu  Lu2  1  0.000014  0.666669  0.333332  1
  Lu  Lu3  1  0.000039  0.333336  0.666683  1
  Lu  Lu4  1  0.763344  0.251196  0.000011  1
  Lu  Lu5  1  0.763264  0.748798  0.748789  1
  Lu  Lu6  1  0.763256  0.000008  0.251194  1
  Lu  Lu7  1  0.236672  0.748789  0.999986  1
  Lu  Lu8  1  0.236724  0.251200  0.251200  1
  Lu  Lu9  1  0.236713  0.000000  0.748801  1
  Sn  Sn10  1  0.749743  0.607804  0.999997  1
  Sn  Sn11  1  0.749877  0.392201  0.392205  1
  Sn  Sn12  1  0.749890  0.999996  0.607799  1
  Sn  Sn13  1  0.250262  0.392200  0.999999  1
  Sn  Sn14  1  0.250128  0.607790  0.607791  1
  Sn  Sn15  1  0.250126  0.999997  0.392207  1
  Cl  Cl16  1  0.499958  0.000010  0.000002  1
