# generated using pymatgen
data_Nb12Al5Zn3N4
_symmetry_space_group_name_H-M   'P 1'
_cell_length_a   7.06406125
_cell_length_b   7.06406125
_cell_length_c   7.06406125
_cell_angle_alpha   90.02147561
_cell_angle_beta   90.02147561
_cell_angle_gamma   90.02147561
_symmetry_Int_Tables_number   1
_chemical_formula_structural   Nb12Al5Zn3N4
_chemical_formula_sum   'Nb12 Al5 Zn3 N4'
_cell_volume   352.50337279
_cell_formula_units_Z   1
loop_
 _symmetry_equiv_pos_site_id
 _symmetry_equiv_pos_as_xyz
  1  'x, y, z'
loop_
 _atom_site_type_symbol
 _atom_site_label
 _atom_site_symmetry_multiplicity
 _atom_site_fract_x
 _atom_site_fract_y
 _atom_site_fract_z
 _atom_site_occupancy
  Nb  Nb0  1  0.791528  0.955297  0.377135  1
  Nb  Nb1  1  0.707312  0.042771  0.872696  1
  Nb  Nb2  1  0.205970  0.456000  0.126555  1
  Nb  Nb3  1  0.294591  0.544249  0.625729  1
  Nb  Nb4  1  0.955297  0.377135  0.791528  1
  Nb  Nb5  1  0.042771  0.872696  0.707312  1
  Nb  Nb6  1  0.456000  0.126555  0.205970  1
  Nb  Nb7  1  0.544249  0.625729  0.294591  1
  Nb  Nb8  1  0.377135  0.791528  0.955297  1
  Nb  Nb9  1  0.872696  0.707312  0.042771  1
  Nb  Nb10  1  0.126555  0.205970  0.456000  1
  Nb  Nb11  1  0.625729  0.294591  0.544249  1
  Al  Al12  1  0.677945  0.677945  0.677945  1
  Al  Al13  1  0.571512  0.423898  0.930724  1
  Al  Al14  1  0.423898  0.930724  0.571512  1
  Al  Al15  1  0.930724  0.571512  0.423898  1
  Al  Al16  1  0.072852  0.072852  0.072852  1
  Zn  Zn17  1  0.179514  0.820468  0.319635  1
  Zn  Zn18  1  0.319635  0.179514  0.820468  1
  Zn  Zn19  1  0.820468  0.319635  0.179514  1
  N  N20  1  0.877553  0.125611  0.624223  1
  N  N21  1  0.624223  0.877553  0.125611  1
  N  N22  1  0.125611  0.624223  0.877553  1
  N  N23  1  0.376233  0.376233  0.376233  1
