# generated using pymatgen
data_TbY4Ta3(Ni4As3)4
_symmetry_space_group_name_H-M   'P 1'
_cell_length_a   12.71863000
_cell_length_b   12.71862971
_cell_length_c   3.90119800
_cell_angle_alpha   90.00000000
_cell_angle_beta   90.00000000
_cell_angle_gamma   120.02424920
_symmetry_Int_Tables_number   1
_chemical_formula_structural   TbY4Ta3(Ni4As3)4
_chemical_formula_sum   'Tb1 Y4 Ta3 Ni16 As12'
_cell_volume   546.39046159
_cell_formula_units_Z   1
loop_
 _symmetry_equiv_pos_site_id
 _symmetry_equiv_pos_as_xyz
  1  'x, y, z'
loop_
 _atom_site_type_symbol
 _atom_site_label
 _atom_site_symmetry_multiplicity
 _atom_site_fract_x
 _atom_site_fract_y
 _atom_site_fract_z
 _atom_site_occupancy
  Tb  Tb0  1  0.185723  0.185723  0.500000  1
  Y  Y1  1  0.814327  0.000122  0.500000  1
  Y  Y2  1  0.000122  0.814327  0.500000  1
  Y  Y3  1  0.333321  0.666659  0.000000  1
  Y  Y4  1  0.666659  0.333321  0.000000  1
  Ta  Ta5  1  0.563038  0.563038  0.000000  1
  Ta  Ta6  1  0.436820  0.000088  0.000000  1
  Ta  Ta7  1  0.000088  0.436820  0.000000  1
  Ni  Ni8  1  0.720089  0.720089  0.500000  1
  Ni  Ni9  1  0.279786  0.000035  0.500000  1
  Ni  Ni10  1  0.000035  0.279786  0.500000  1
  Ni  Ni11  1  0.181465  0.375664  0.000000  1
  Ni  Ni12  1  0.624381  0.805586  0.000000  1
  Ni  Ni13  1  0.194380  0.818817  0.000000  1
  Ni  Ni14  1  0.805586  0.624381  0.000000  1
  Ni  Ni15  1  0.818817  0.194380  0.000000  1
  Ni  Ni16  1  0.375664  0.181465  0.000000  1
  Ni  Ni17  1  0.362369  0.483613  0.500000  1
  Ni  Ni18  1  0.516167  0.878600  0.500000  1
  Ni  Ni19  1  0.121346  0.637460  0.500000  1
  Ni  Ni20  1  0.878600  0.516167  0.500000  1
  Ni  Ni21  1  0.637460  0.121346  0.500000  1
  Ni  Ni22  1  0.483613  0.362369  0.500000  1
  Ni  Ni23  1  0.000202  0.000202  0.000000  1
  As  As24  1  0.821929  0.821929  0.000000  1
  As  As25  1  0.178194  0.000073  0.000000  1
  As  As26  1  0.000073  0.178194  0.000000  1
  As  As27  1  0.169346  0.480141  0.500000  1
  As  As28  1  0.519751  0.689015  0.500000  1
  As  As29  1  0.310877  0.830739  0.500000  1
  As  As30  1  0.689015  0.519751  0.500000  1
  As  As31  1  0.830739  0.310877  0.500000  1
  As  As32  1  0.480141  0.169346  0.500000  1
  As  As33  1  0.361285  0.361285  0.000000  1
  As  As34  1  0.638614  0.999981  0.000000  1
  As  As35  1  0.999981  0.638614  0.000000  1
