# generated using pymatgen
data_Y5Ho11(CoAg)4
_symmetry_space_group_name_H-M   'P 1'
_cell_length_a   9.36478637
_cell_length_b   9.36530828
_cell_length_c   9.36530901
_cell_angle_alpha   60.00197868
_cell_angle_beta   60.00184277
_cell_angle_gamma   60.00184517
_symmetry_Int_Tables_number   1
_chemical_formula_structural   Y5Ho11(CoAg)4
_chemical_formula_sum   'Y5 Ho11 Co4 Ag4'
_cell_volume   580.82548506
_cell_formula_units_Z   1
loop_
 _symmetry_equiv_pos_site_id
 _symmetry_equiv_pos_as_xyz
  1  'x, y, z'
loop_
 _atom_site_type_symbol
 _atom_site_label
 _atom_site_symmetry_multiplicity
 _atom_site_fract_x
 _atom_site_fract_y
 _atom_site_fract_z
 _atom_site_occupancy
  Y  Y0  1  0.562282  0.937718  0.937718  1
  Y  Y1  1  0.562566  0.937501  0.562268  1
  Y  Y2  1  0.937666  0.562268  0.937501  1
  Y  Y3  1  0.562566  0.562268  0.937501  1
  Y  Y4  1  0.937666  0.937501  0.562268  1
  Ho  Ho5  1  0.347407  0.347799  0.347799  1
  Ho  Ho6  1  0.347662  0.347703  0.956974  1
  Ho  Ho7  1  0.347662  0.956974  0.347703  1
  Ho  Ho8  1  0.956994  0.347799  0.347799  1
  Ho  Ho9  1  0.811828  0.188172  0.188172  1
  Ho  Ho10  1  0.188076  0.811924  0.811924  1
  Ho  Ho11  1  0.187954  0.811771  0.188313  1
  Ho  Ho12  1  0.811962  0.188313  0.811771  1
  Ho  Ho13  1  0.187954  0.188313  0.811771  1
  Ho  Ho14  1  0.811962  0.811771  0.188313  1
  Ho  Ho15  1  0.937882  0.562118  0.562118  1
  Co  Co16  1  0.141240  0.141216  0.141216  1
  Co  Co17  1  0.141151  0.141344  0.576353  1
  Co  Co18  1  0.141151  0.576353  0.141344  1
  Co  Co19  1  0.576328  0.141216  0.141216  1
  Ag  Ag20  1  0.581201  0.580844  0.580844  1
  Ag  Ag21  1  0.580864  0.580849  0.257423  1
  Ag  Ag22  1  0.580864  0.257423  0.580849  1
  Ag  Ag23  1  0.257113  0.580844  0.580844  1
