# generated using pymatgen
data_DyIn2Pd3
_symmetry_space_group_name_H-M   'P 1'
_cell_length_a   4.62562700
_cell_length_b   9.78097000
_cell_length_c   10.42222500
_cell_angle_alpha   90.00000000
_cell_angle_beta   90.00000000
_cell_angle_gamma   90.00000000
_symmetry_Int_Tables_number   1
_chemical_formula_structural   DyIn2Pd3
_chemical_formula_sum   'Dy4 In8 Pd12'
_cell_volume   471.53396507
_cell_formula_units_Z   4
loop_
 _symmetry_equiv_pos_site_id
 _symmetry_equiv_pos_as_xyz
  1  'x, y, z'
loop_
 _atom_site_type_symbol
 _atom_site_label
 _atom_site_symmetry_multiplicity
 _atom_site_fract_x
 _atom_site_fract_y
 _atom_site_fract_z
 _atom_site_occupancy
  Dy  Dy0  1  0.250000  0.447437  0.723156  1
  Dy  Dy1  1  0.250000  0.052563  0.223156  1
  Dy  Dy2  1  0.750000  0.552563  0.276844  1
  Dy  Dy3  1  0.750000  0.947437  0.776844  1
  In  In4  1  0.250000  0.887545  0.512397  1
  In  In5  1  0.250000  0.612455  0.012397  1
  In  In6  1  0.750000  0.112455  0.487603  1
  In  In7  1  0.750000  0.387545  0.987603  1
  In  In8  1  0.250000  0.165350  0.894918  1
  In  In9  1  0.250000  0.334650  0.394918  1
  In  In10  1  0.750000  0.834650  0.105082  1
  In  In11  1  0.750000  0.665350  0.605082  1
  Pd  Pd12  1  0.250000  0.144444  0.626814  1
  Pd  Pd13  1  0.250000  0.355556  0.126814  1
  Pd  Pd14  1  0.750000  0.855556  0.373186  1
  Pd  Pd15  1  0.750000  0.644444  0.873186  1
  Pd  Pd16  1  0.250000  0.745983  0.739257  1
  Pd  Pd17  1  0.250000  0.754017  0.239257  1
  Pd  Pd18  1  0.750000  0.254017  0.260743  1
  Pd  Pd19  1  0.750000  0.245983  0.760743  1
  Pd  Pd20  1  0.250000  0.896413  0.973236  1
  Pd  Pd21  1  0.250000  0.603587  0.473236  1
  Pd  Pd22  1  0.750000  0.103587  0.026764  1
  Pd  Pd23  1  0.750000  0.396413  0.526764  1
