# generated using pymatgen
data_Y7ErTi11Si16Os
_symmetry_space_group_name_H-M   'P 1'
_cell_length_a   7.02963193
_cell_length_b   7.02920464
_cell_length_c   12.90286814
_cell_angle_alpha   90.04567375
_cell_angle_beta   89.96953863
_cell_angle_gamma   89.93010715
_symmetry_Int_Tables_number   1
_chemical_formula_structural   Y7ErTi11Si16Os
_chemical_formula_sum   'Y7 Er1 Ti11 Si16 Os1'
_cell_volume   637.56506193
_cell_formula_units_Z   1
loop_
 _symmetry_equiv_pos_site_id
 _symmetry_equiv_pos_as_xyz
  1  'x, y, z'
loop_
 _atom_site_type_symbol
 _atom_site_label
 _atom_site_symmetry_multiplicity
 _atom_site_fract_x
 _atom_site_fract_y
 _atom_site_fract_z
 _atom_site_occupancy
  Y  Y0  1  0.340630  0.004093  0.467244  1
  Y  Y1  1  0.496958  0.840672  0.718268  1
  Y  Y2  1  0.500137  0.159274  0.214974  1
  Y  Y3  1  0.840821  0.497025  0.281650  1
  Y  Y4  1  0.159187  0.500209  0.785015  1
  Y  Y5  1  0.658628  0.998172  0.968671  1
  Y  Y6  1  0.004092  0.340693  0.532665  1
  Er  Er7  1  0.999091  0.658014  0.031563  1
  Ti  Ti8  1  0.174158  0.827551  0.247968  1
  Ti  Ti9  1  0.827777  0.174323  0.751863  1
  Ti  Ti10  1  0.673914  0.673896  0.499976  1
  Ti  Ti11  1  0.151045  0.004030  0.875584  1
  Ti  Ti12  1  0.491617  0.655492  0.124871  1
  Ti  Ti13  1  0.507367  0.349021  0.628139  1
  Ti  Ti14  1  0.655653  0.491954  0.875389  1
  Ti  Ti15  1  0.348882  0.507468  0.371710  1
  Ti  Ti16  1  0.848410  0.993440  0.374993  1
  Ti  Ti17  1  0.004147  0.151052  0.124676  1
  Ti  Ti18  1  0.993543  0.848313  0.624911  1
  Si  Si19  1  0.202808  0.131020  0.685524  1
  Si  Si20  1  0.371795  0.698888  0.934319  1
  Si  Si21  1  0.630950  0.297194  0.434792  1
  Si  Si22  1  0.700242  0.373606  0.066016  1
  Si  Si23  1  0.297267  0.630919  0.565109  1
  Si  Si24  1  0.797449  0.868044  0.183543  1
  Si  Si25  1  0.130935  0.202732  0.314421  1
  Si  Si26  1  0.869008  0.796215  0.816283  1
  Si  Si27  1  0.285970  0.954115  0.064179  1
  Si  Si28  1  0.547189  0.791631  0.315075  1
  Si  Si29  1  0.450100  0.209855  0.818335  1
  Si  Si30  1  0.791549  0.547110  0.684909  1
  Si  Si31  1  0.208967  0.450873  0.181294  1
  Si  Si32  1  0.709129  0.048195  0.565552  1
  Si  Si33  1  0.955250  0.287860  0.936227  1
  Si  Si34  1  0.048147  0.709167  0.434311  1
  Os  Os35  1  0.327191  0.327885  0.999984  1
