# generated using pymatgen
data_DyY6Tm(CdPt)2
_symmetry_space_group_name_H-M   'P 1'
_cell_length_a   9.70479261
_cell_length_b   9.70479198
_cell_length_c   9.68260600
_cell_angle_alpha   60.07559431
_cell_angle_beta   60.07559646
_cell_angle_gamma   60.17876345
_symmetry_Int_Tables_number   1
_chemical_formula_structural   DyY6Tm(CdPt)2
_chemical_formula_sum   'Dy2 Y12 Tm2 Cd4 Pt4'
_cell_volume   646.44217927
_cell_formula_units_Z   2
loop_
 _symmetry_equiv_pos_site_id
 _symmetry_equiv_pos_as_xyz
  1  'x, y, z'
loop_
 _atom_site_type_symbol
 _atom_site_label
 _atom_site_symmetry_multiplicity
 _atom_site_fract_x
 _atom_site_fract_y
 _atom_site_fract_z
 _atom_site_occupancy
  Dy  Dy0  1  0.352055  0.352055  0.350053  1
  Dy  Dy1  1  0.352055  0.352055  0.945838  1
  Y  Y2  1  0.810510  0.190310  0.190592  1
  Y  Y3  1  0.190310  0.810510  0.808587  1
  Y  Y4  1  0.190310  0.810510  0.190592  1
  Y  Y5  1  0.810510  0.190310  0.808587  1
  Y  Y6  1  0.190730  0.190730  0.809270  1
  Y  Y7  1  0.809753  0.809753  0.190247  1
  Y  Y8  1  0.936601  0.563136  0.564096  1
  Y  Y9  1  0.563136  0.936601  0.936167  1
  Y  Y10  1  0.563136  0.936601  0.564096  1
  Y  Y11  1  0.936601  0.563136  0.936167  1
  Y  Y12  1  0.564832  0.564832  0.935168  1
  Y  Y13  1  0.937698  0.937698  0.562302  1
  Tm  Tm14  1  0.354255  0.942031  0.351857  1
  Tm  Tm15  1  0.942031  0.354255  0.351857  1
  Cd  Cd16  1  0.581550  0.581550  0.580926  1
  Cd  Cd17  1  0.581550  0.581550  0.255974  1
  Cd  Cd18  1  0.581902  0.254857  0.581621  1
  Cd  Cd19  1  0.254857  0.581902  0.581621  1
  Pt  Pt20  1  0.143094  0.143094  0.148593  1
  Pt  Pt21  1  0.143094  0.143094  0.565218  1
  Pt  Pt22  1  0.140394  0.569036  0.145285  1
  Pt  Pt23  1  0.569036  0.140394  0.145285  1
