# generated using pymatgen
data_NdHoV2(WO6)2
_symmetry_space_group_name_H-M   'P 1'
_cell_length_a   5.30295738
_cell_length_b   7.49447229
_cell_length_c   11.20330000
_cell_angle_alpha   90.00000000
_cell_angle_beta   90.00000000
_cell_angle_gamma   90.14783575
_symmetry_Int_Tables_number   1
_chemical_formula_structural   NdHoV2(WO6)2
_chemical_formula_sum   'Nd2 Ho2 V4 W4 O24'
_cell_volume   445.24978092
_cell_formula_units_Z   2
loop_
 _symmetry_equiv_pos_site_id
 _symmetry_equiv_pos_as_xyz
  1  'x, y, z'
loop_
 _atom_site_type_symbol
 _atom_site_label
 _atom_site_symmetry_multiplicity
 _atom_site_fract_x
 _atom_site_fract_y
 _atom_site_fract_z
 _atom_site_occupancy
  Nd  Nd0  1  0.540923  0.250921  0.044594  1
  Nd  Nd1  1  0.040922  0.750921  0.455406  1
  Ho  Ho2  1  0.951365  0.251165  0.546599  1
  Ho  Ho3  1  0.451364  0.751165  0.953401  1
  V  V4  1  0.049986  0.996369  0.133160  1
  V  V5  1  0.549984  0.496369  0.366840  1
  V  V6  1  0.448449  0.999500  0.635294  1
  V  V7  1  0.948448  0.499500  0.864705  1
  W  W8  1  0.055032  0.508240  0.142395  1
  W  W9  1  0.555030  0.008240  0.357604  1
  W  W10  1  0.443007  0.503301  0.644994  1
  W  W11  1  0.943008  0.003301  0.855006  1
  O  O12  1  0.759281  0.955277  0.018381  1
  O  O13  1  0.766085  0.549614  0.028436  1
  O  O14  1  0.180284  0.750232  0.116394  1
  O  O15  1  0.948303  0.258921  0.140641  1
  O  O16  1  0.368347  0.439946  0.209080  1
  O  O17  1  0.384026  0.065541  0.217117  1
  O  O18  1  0.884025  0.565541  0.282883  1
  O  O19  1  0.868346  0.939946  0.290920  1
  O  O20  1  0.448302  0.758921  0.359359  1
  O  O21  1  0.680283  0.250232  0.383606  1
  O  O22  1  0.266086  0.049614  0.471563  1
  O  O23  1  0.259282  0.455277  0.481619  1
  O  O24  1  0.739405  0.968649  0.521399  1
  O  O25  1  0.731991  0.538722  0.531004  1
  O  O26  1  0.334593  0.747625  0.619111  1
  O  O27  1  0.566628  0.257834  0.645532  1
  O  O28  1  0.125149  0.432787  0.705644  1
  O  O29  1  0.107148  0.065555  0.712073  1
  O  O30  1  0.607147  0.565555  0.787928  1
  O  O31  1  0.625148  0.932787  0.794356  1
  O  O32  1  0.066627  0.757834  0.854467  1
  O  O33  1  0.834592  0.247625  0.880888  1
  O  O34  1  0.231992  0.038722  0.968995  1
  O  O35  1  0.239406  0.468649  0.978601  1
