# generated using pymatgen
data_Li3Gd3CdGeAs
_symmetry_space_group_name_H-M   'P 1'
_cell_length_a   7.29507800
_cell_length_b   7.29507948
_cell_length_c   4.24415400
_cell_angle_alpha   90.00000000
_cell_angle_beta   90.00000000
_cell_angle_gamma   120.00000237
_symmetry_Int_Tables_number   1
_chemical_formula_structural   Li3Gd3CdGeAs
_chemical_formula_sum   'Li3 Gd3 Cd1 Ge1 As1'
_cell_volume   195.60579765
_cell_formula_units_Z   1
loop_
 _symmetry_equiv_pos_site_id
 _symmetry_equiv_pos_as_xyz
  1  'x, y, z'
loop_
 _atom_site_type_symbol
 _atom_site_label
 _atom_site_symmetry_multiplicity
 _atom_site_fract_x
 _atom_site_fract_y
 _atom_site_fract_z
 _atom_site_occupancy
  Li  Li0  1  0.252197  0.998887  0.500000  1
  Li  Li1  1  0.746690  0.747803  0.500000  1
  Li  Li2  1  0.001113  0.253310  0.500000  1
  Gd  Gd3  1  0.996000  0.565608  0.000000  1
  Gd  Gd4  1  0.569608  0.004000  0.000000  1
  Gd  Gd5  1  0.434392  0.430392  0.000000  1
  Cd  Cd6  1  0.000000  0.000000  0.000000  1
  Ge  Ge7  1  0.666667  0.333333  0.500000  1
  As  As8  1  0.333333  0.666667  0.500000  1
