# generated using pymatgen
data_Ho8Tm4ZnInCo4
_symmetry_space_group_name_H-M   'P 1'
_cell_length_a   8.28184266
_cell_length_b   8.28184200
_cell_length_c   8.28184304
_cell_angle_alpha   111.54633834
_cell_angle_beta   110.17485616
_cell_angle_gamma   106.72988369
_symmetry_Int_Tables_number   1
_chemical_formula_structural   Ho8Tm4ZnInCo4
_chemical_formula_sum   'Ho8 Tm4 Zn1 In1 Co4'
_cell_volume   436.46735404
_cell_formula_units_Z   1
loop_
 _symmetry_equiv_pos_site_id
 _symmetry_equiv_pos_as_xyz
  1  'x, y, z'
loop_
 _atom_site_type_symbol
 _atom_site_label
 _atom_site_symmetry_multiplicity
 _atom_site_fract_x
 _atom_site_fract_y
 _atom_site_fract_z
 _atom_site_occupancy
  Ho  Ho0  1  0.185107  0.287199  0.472306  1
  Ho  Ho1  1  0.814893  0.712801  0.527694  1
  Ho  Ho2  1  0.185109  0.712801  0.897909  1
  Ho  Ho3  1  0.814891  0.287199  0.102091  1
  Ho  Ho4  1  0.428268  0.224622  0.203647  1
  Ho  Ho5  1  0.571732  0.775378  0.796353  1
  Ho  Ho6  1  0.020977  0.224622  0.796354  1
  Ho  Ho7  1  0.979023  0.775378  0.203646  1
  Tm  Tm8  1  0.316071  0.621405  0.305334  1
  Tm  Tm9  1  0.683929  0.378595  0.694666  1
  Tm  Tm10  1  0.316070  0.010737  0.694668  1
  Tm  Tm11  1  0.683930  0.989263  0.305332  1
  Zn  Zn12  1  0.000000  0.000000  0.000000  1
  In  In13  1  0.500000  0.500000  0.000000  1
  Co  Co14  1  0.113204  0.613203  0.500000  1
  Co  Co15  1  0.886796  0.386797  0.500000  1
  Co  Co16  1  0.376252  0.000000  0.376252  1
  Co  Co17  1  0.623748  0.000000  0.623748  1
