# generated using pymatgen
data_Sc2ZnSi2Ir5
_symmetry_space_group_name_H-M   'P 1'
_cell_length_a   9.43330000
_cell_length_b   9.43330000
_cell_length_c   3.46416600
_cell_angle_alpha   90.00000000
_cell_angle_beta   90.00000000
_cell_angle_gamma   90.00000000
_symmetry_Int_Tables_number   1
_chemical_formula_structural   Sc2ZnSi2Ir5
_chemical_formula_sum   'Sc4 Zn2 Si4 Ir10'
_cell_volume   308.26625562
_cell_formula_units_Z   2
loop_
 _symmetry_equiv_pos_site_id
 _symmetry_equiv_pos_as_xyz
  1  'x, y, z'
loop_
 _atom_site_type_symbol
 _atom_site_label
 _atom_site_symmetry_multiplicity
 _atom_site_fract_x
 _atom_site_fract_y
 _atom_site_fract_z
 _atom_site_occupancy
  Sc  Sc0  1  0.172416  0.672416  0.000000  1
  Sc  Sc1  1  0.827584  0.327584  0.000000  1
  Sc  Sc2  1  0.327584  0.172416  0.000000  1
  Sc  Sc3  1  0.672416  0.827584  0.000000  1
  Zn  Zn4  1  0.000000  0.000000  0.000000  1
  Zn  Zn5  1  0.500000  0.500000  0.000000  1
  Si  Si6  1  0.371677  0.871677  0.000000  1
  Si  Si7  1  0.871677  0.628323  0.000000  1
  Si  Si8  1  0.128323  0.371677  0.000000  1
  Si  Si9  1  0.628323  0.128323  0.000000  1
  Ir  Ir10  1  0.500000  0.000000  0.500000  1
  Ir  Ir11  1  0.706753  0.569117  0.500000  1
  Ir  Ir12  1  0.569117  0.293247  0.500000  1
  Ir  Ir13  1  0.430883  0.706753  0.500000  1
  Ir  Ir14  1  0.293247  0.430883  0.500000  1
  Ir  Ir15  1  0.000000  0.500000  0.500000  1
  Ir  Ir16  1  0.930883  0.793247  0.500000  1
  Ir  Ir17  1  0.793247  0.069117  0.500000  1
  Ir  Ir18  1  0.206753  0.930883  0.500000  1
  Ir  Ir19  1  0.069117  0.206753  0.500000  1
