# generated using pymatgen
data_SrEu3Si10NiPt5
_symmetry_space_group_name_H-M   'P 1'
_cell_length_a   8.31418472
_cell_length_b   8.31647799
_cell_length_c   8.31730928
_cell_angle_alpha   138.00100649
_cell_angle_beta   105.09115148
_cell_angle_gamma   89.81659645
_symmetry_Int_Tables_number   1
_chemical_formula_structural   SrEu3Si10NiPt5
_chemical_formula_sum   'Sr1 Eu3 Si10 Ni1 Pt5'
_cell_volume   355.05583061
_cell_formula_units_Z   1
loop_
 _symmetry_equiv_pos_site_id
 _symmetry_equiv_pos_as_xyz
  1  'x, y, z'
loop_
 _atom_site_type_symbol
 _atom_site_label
 _atom_site_symmetry_multiplicity
 _atom_site_fract_x
 _atom_site_fract_y
 _atom_site_fract_z
 _atom_site_occupancy
  Sr  Sr0  1  0.105769  0.873763  0.238684  1
  Eu  Eu1  1  0.895494  0.132388  0.768080  1
  Eu  Eu2  1  0.636204  0.367884  0.263251  1
  Eu  Eu3  1  0.363419  0.626779  0.731727  1
  Si  Si4  1  0.999841  0.750667  0.748718  1
  Si  Si5  1  0.999909  0.251206  0.249320  1
  Si  Si6  1  0.273626  0.023704  0.751733  1
  Si  Si7  1  0.724847  0.474570  0.747992  1
  Si  Si8  1  0.725516  0.976477  0.249926  1
  Si  Si9  1  0.273279  0.521637  0.249657  1
  Si  Si10  1  0.752929  0.618541  0.159202  1
  Si  Si11  1  0.246431  0.403460  0.865284  1
  Si  Si12  1  0.463230  0.098023  0.342033  1
  Si  Si13  1  0.539344  0.880568  0.634656  1
  Ni  Ni14  1  0.500542  0.750172  0.250407  1
  Pt  Pt15  1  0.500665  0.249664  0.750031  1
  Pt  Pt16  1  0.023159  0.637390  0.388308  1
  Pt  Pt17  1  0.975846  0.365892  0.613379  1
  Pt  Pt18  1  0.249529  0.135053  0.111980  1
  Pt  Pt19  1  0.750422  0.862162  0.885630  1
