# generated using pymatgen
data_Lu5Zn2Sb
_symmetry_space_group_name_H-M   'P 1'
_cell_length_a   8.42055946
_cell_length_b   8.42055931
_cell_length_c   8.42055990
_cell_angle_alpha   124.41372344
_cell_angle_beta   124.41372044
_cell_angle_gamma   82.51138839
_symmetry_Int_Tables_number   1
_chemical_formula_structural   Lu5Zn2Sb
_chemical_formula_sum   'Lu10 Zn4 Sb2'
_cell_volume   390.35991009
_cell_formula_units_Z   2
loop_
 _symmetry_equiv_pos_site_id
 _symmetry_equiv_pos_as_xyz
  1  'x, y, z'
loop_
 _atom_site_type_symbol
 _atom_site_label
 _atom_site_symmetry_multiplicity
 _atom_site_fract_x
 _atom_site_fract_y
 _atom_site_fract_z
 _atom_site_occupancy
  Lu  Lu0  1  0.511311  0.699772  0.500000  1
  Lu  Lu1  1  0.011311  0.511311  0.811539  1
  Lu  Lu2  1  0.699772  0.199772  0.188461  1
  Lu  Lu3  1  0.988689  0.488689  0.188461  1
  Lu  Lu4  1  0.199772  0.011311  0.500000  1
  Lu  Lu5  1  0.488689  0.300228  0.500000  1
  Lu  Lu6  1  0.800228  0.988689  0.500000  1
  Lu  Lu7  1  0.300228  0.800228  0.811539  1
  Lu  Lu8  1  0.000000  0.000000  0.000000  1
  Lu  Lu9  1  0.500000  0.500000  0.000000  1
  Zn  Zn10  1  0.365873  0.865873  0.231746  1
  Zn  Zn11  1  0.865873  0.634127  0.500000  1
  Zn  Zn12  1  0.634127  0.134127  0.768254  1
  Zn  Zn13  1  0.134127  0.365873  0.500000  1
  Sb  Sb14  1  0.750000  0.750000  0.000000  1
  Sb  Sb15  1  0.250000  0.250000  0.000000  1
