# generated using pymatgen
data_ZnRu2F12
_symmetry_space_group_name_H-M   'P 1'
_cell_length_a   5.54454777
_cell_length_b   11.09103905
_cell_length_c   5.55151184
_cell_angle_alpha   57.12245769
_cell_angle_beta   57.15231058
_cell_angle_gamma   57.12515672
_symmetry_Int_Tables_number   1
_chemical_formula_structural   ZnRu2F12
_chemical_formula_sum   'Zn1 Ru2 F12'
_cell_volume   225.45279980
_cell_formula_units_Z   1
loop_
 _symmetry_equiv_pos_site_id
 _symmetry_equiv_pos_as_xyz
  1  'x, y, z'
loop_
 _atom_site_type_symbol
 _atom_site_label
 _atom_site_symmetry_multiplicity
 _atom_site_fract_x
 _atom_site_fract_y
 _atom_site_fract_z
 _atom_site_occupancy
  Zn  Zn0  1  0.000000  0.500000  0.000000  1
  Ru  Ru1  1  0.496703  0.246452  0.507965  1
  Ru  Ru2  1  0.503297  0.753548  0.492035  1
  F  F3  1  0.153708  0.190327  0.731205  1
  F  F4  1  0.157549  0.679824  0.741533  1
  F  F5  1  0.363331  0.372774  0.152594  1
  F  F6  1  0.375212  0.863745  0.159977  1
  F  F7  1  0.731889  0.083196  0.370306  1
  F  F8  1  0.741576  0.573123  0.366821  1
  F  F9  1  0.258424  0.426877  0.633179  1
  F  F10  1  0.268111  0.916804  0.629694  1
  F  F11  1  0.624788  0.136255  0.840023  1
  F  F12  1  0.636669  0.627226  0.847406  1
  F  F13  1  0.842451  0.320176  0.258467  1
  F  F14  1  0.846292  0.809673  0.268795  1
