# generated using pymatgen
data_Yb5Pr8Tm7Si16
_symmetry_space_group_name_H-M   'P 1'
_cell_length_a   7.46477560
_cell_length_b   7.83821831
_cell_length_c   14.86250150
_cell_angle_alpha   89.94968812
_cell_angle_beta   90.10441685
_cell_angle_gamma   90.10971567
_symmetry_Int_Tables_number   1
_chemical_formula_structural   Yb5Pr8Tm7Si16
_chemical_formula_sum   'Yb5 Pr8 Tm7 Si16'
_cell_volume   869.60962923
_cell_formula_units_Z   1
loop_
 _symmetry_equiv_pos_site_id
 _symmetry_equiv_pos_as_xyz
  1  'x, y, z'
loop_
 _atom_site_type_symbol
 _atom_site_label
 _atom_site_symmetry_multiplicity
 _atom_site_fract_x
 _atom_site_fract_y
 _atom_site_fract_z
 _atom_site_occupancy
  Yb  Yb0  1  0.323249  0.180826  0.621769  1
  Yb  Yb1  1  0.653451  0.990631  0.748983  1
  Yb  Yb2  1  0.843438  0.488670  0.249886  1
  Yb  Yb3  1  0.343138  0.011659  0.249577  1
  Yb  Yb4  1  0.157261  0.507917  0.748805  1
  Pr  Pr5  1  0.022043  0.179900  0.400903  1
  Pr  Pr6  1  0.522779  0.319177  0.400878  1
  Pr  Pr7  1  0.477378  0.680220  0.901915  1
  Pr  Pr8  1  0.477761  0.680209  0.598706  1
  Pr  Pr9  1  0.977868  0.820114  0.598756  1
  Pr  Pr10  1  0.977536  0.819567  0.903156  1
  Pr  Pr11  1  0.522360  0.320467  0.098493  1
  Pr  Pr12  1  0.022545  0.180332  0.099190  1
  Tm  Tm13  1  0.675852  0.819267  0.375495  1
  Tm  Tm14  1  0.176789  0.680547  0.376178  1
  Tm  Tm15  1  0.825510  0.317530  0.877469  1
  Tm  Tm16  1  0.824144  0.319463  0.623347  1
  Tm  Tm17  1  0.324280  0.181823  0.877667  1
  Tm  Tm18  1  0.176054  0.680887  0.123311  1
  Tm  Tm19  1  0.676464  0.819189  0.123045  1
  Si  Si20  1  0.264560  0.885206  0.752893  1
  Si  Si21  1  0.466623  0.612194  0.249845  1
  Si  Si22  1  0.031707  0.111021  0.753256  1
  Si  Si23  1  0.537185  0.392612  0.752002  1
  Si  Si24  1  0.142272  0.472820  0.535298  1
  Si  Si25  1  0.966388  0.886441  0.249986  1
  Si  Si26  1  0.731775  0.109530  0.249792  1
  Si  Si27  1  0.850442  0.533511  0.035197  1
  Si  Si28  1  0.350656  0.966999  0.035456  1
  Si  Si29  1  0.149509  0.466103  0.964954  1
  Si  Si30  1  0.655049  0.032120  0.533287  1
  Si  Si31  1  0.355211  0.963922  0.461271  1
  Si  Si32  1  0.849307  0.534489  0.463677  1
  Si  Si33  1  0.769991  0.610814  0.751208  1
  Si  Si34  1  0.230603  0.390752  0.249821  1
  Si  Si35  1  0.648823  0.033073  0.964527  1
