# generated using pymatgen
data_Nd4ThGeSe4
_symmetry_space_group_name_H-M   'P 1'
_cell_length_a   7.35675853
_cell_length_b   7.35675835
_cell_length_c   7.35675900
_cell_angle_alpha   99.53409591
_cell_angle_beta   99.53410357
_cell_angle_gamma   131.96919689
_symmetry_Int_Tables_number   1
_chemical_formula_structural   Nd4ThGeSe4
_chemical_formula_sum   'Nd4 Th1 Ge1 Se4'
_cell_volume   270.40905593
_cell_formula_units_Z   1
loop_
 _symmetry_equiv_pos_site_id
 _symmetry_equiv_pos_as_xyz
  1  'x, y, z'
loop_
 _atom_site_type_symbol
 _atom_site_label
 _atom_site_symmetry_multiplicity
 _atom_site_fract_x
 _atom_site_fract_y
 _atom_site_fract_z
 _atom_site_occupancy
  Nd  Nd0  1  0.403295  0.792454  0.195748  1
  Nd  Nd1  1  0.596705  0.207546  0.804252  1
  Nd  Nd2  1  0.207546  0.403295  0.610842  1
  Nd  Nd3  1  0.792454  0.596705  0.389158  1
  Th  Th4  1  0.000000  0.000000  0.000000  1
  Ge  Ge5  1  0.500000  0.500000  0.000000  1
  Se  Se6  1  0.096828  0.700413  0.797240  1
  Se  Se7  1  0.700413  0.903172  0.603583  1
  Se  Se8  1  0.299587  0.096828  0.396417  1
  Se  Se9  1  0.903172  0.299587  0.202760  1
