# generated using pymatgen
data_YbEr3Pd2(PtO7)2
_symmetry_space_group_name_H-M   'P 1'
_cell_length_a   7.24731875
_cell_length_b   7.24553809
_cell_length_c   7.24731879
_cell_angle_alpha   59.77554835
_cell_angle_beta   59.78682452
_cell_angle_gamma   59.77555049
_symmetry_Int_Tables_number   1
_chemical_formula_structural   YbEr3Pd2(PtO7)2
_chemical_formula_sum   'Yb1 Er3 Pd2 Pt2 O14'
_cell_volume   267.74960639
_cell_formula_units_Z   1
loop_
 _symmetry_equiv_pos_site_id
 _symmetry_equiv_pos_as_xyz
  1  'x, y, z'
loop_
 _atom_site_type_symbol
 _atom_site_label
 _atom_site_symmetry_multiplicity
 _atom_site_fract_x
 _atom_site_fract_y
 _atom_site_fract_z
 _atom_site_occupancy
  Yb  Yb0  1  0.625000  0.625000  0.625000  1
  Er  Er1  1  0.625000  0.625000  0.125000  1
  Er  Er2  1  0.625000  0.125000  0.625000  1
  Er  Er3  1  0.125000  0.625000  0.625000  1
  Pd  Pd4  1  0.125000  0.125000  0.125000  1
  Pd  Pd5  1  0.125000  0.625000  0.125000  1
  Pt  Pt6  1  0.625000  0.125000  0.125000  1
  Pt  Pt7  1  0.125000  0.125000  0.625000  1
  O  O8  1  0.042998  0.461032  0.464489  1
  O  O9  1  0.785511  0.788968  0.207002  1
  O  O10  1  0.784341  0.214428  0.215826  1
  O  O11  1  0.752136  0.753312  0.752136  1
  O  O12  1  0.034593  0.465242  0.034593  1
  O  O13  1  0.461045  0.047150  0.461045  1
  O  O14  1  0.034174  0.035572  0.465659  1
  O  O15  1  0.497864  0.496688  0.497864  1
  O  O16  1  0.215826  0.214428  0.784341  1
  O  O17  1  0.215407  0.784758  0.215407  1
  O  O18  1  0.788955  0.202850  0.788955  1
  O  O19  1  0.465659  0.035572  0.034174  1
  O  O20  1  0.464489  0.461032  0.042998  1
  O  O21  1  0.207002  0.788968  0.785511  1
