# generated using pymatgen
data_TbYb2Y(ReB4)4
_symmetry_space_group_name_H-M   'P 1'
_cell_length_a   3.60505100
_cell_length_b   5.97756363
_cell_length_c   11.57345301
_cell_angle_alpha   90.02374963
_cell_angle_beta   90.00000000
_cell_angle_gamma   90.00000000
_symmetry_Int_Tables_number   1
_chemical_formula_structural   TbYb2Y(ReB4)4
_chemical_formula_sum   'Tb1 Yb2 Y1 Re4 B16'
_cell_volume   249.40119835
_cell_formula_units_Z   1
loop_
 _symmetry_equiv_pos_site_id
 _symmetry_equiv_pos_as_xyz
  1  'x, y, z'
loop_
 _atom_site_type_symbol
 _atom_site_label
 _atom_site_symmetry_multiplicity
 _atom_site_fract_x
 _atom_site_fract_y
 _atom_site_fract_z
 _atom_site_occupancy
  Tb  Tb0  1  0.000000  0.127293  0.150481  1
  Yb  Yb1  1  0.000000  0.872361  0.850323  1
  Yb  Yb2  1  0.000000  0.628044  0.349573  1
  Y  Y3  1  0.000000  0.372761  0.650574  1
  Re  Re4  1  0.000000  0.131735  0.415289  1
  Re  Re5  1  0.000000  0.868682  0.585063  1
  Re  Re6  1  0.000000  0.631242  0.084941  1
  Re  Re7  1  0.000000  0.368233  0.915170  1
  B  B8  1  0.500000  0.477483  0.192368  1
  B  B9  1  0.500000  0.523613  0.808263  1
  B  B10  1  0.500000  0.976602  0.308182  1
  B  B11  1  0.500000  0.022369  0.692774  1
  B  B12  1  0.500000  0.285769  0.315289  1
  B  B13  1  0.500000  0.715262  0.684929  1
  B  B14  1  0.500000  0.784830  0.184761  1
  B  B15  1  0.500000  0.213918  0.815565  1
  B  B16  1  0.500000  0.364376  0.467517  1
  B  B17  1  0.500000  0.636371  0.531380  1
  B  B18  1  0.500000  0.863428  0.031690  1
  B  B19  1  0.500000  0.135767  0.967743  1
  B  B20  1  0.500000  0.387343  0.046861  1
  B  B21  1  0.500000  0.614911  0.952234  1
  B  B22  1  0.500000  0.884969  0.452070  1
  B  B23  1  0.500000  0.112640  0.546961  1
