# generated using pymatgen
data_La4In3Au10
_symmetry_space_group_name_H-M   'P 1'
_cell_length_a   8.93125415
_cell_length_b   8.93125607
_cell_length_c   10.42111900
_cell_angle_alpha   90.00000000
_cell_angle_beta   90.00000000
_cell_angle_gamma   109.06497477
_symmetry_Int_Tables_number   1
_chemical_formula_structural   La4In3Au10
_chemical_formula_sum   'La8 In6 Au20'
_cell_volume   785.66881581
_cell_formula_units_Z   2
loop_
 _symmetry_equiv_pos_site_id
 _symmetry_equiv_pos_as_xyz
  1  'x, y, z'
loop_
 _atom_site_type_symbol
 _atom_site_label
 _atom_site_symmetry_multiplicity
 _atom_site_fract_x
 _atom_site_fract_y
 _atom_site_fract_z
 _atom_site_occupancy
  La  La0  1  0.702249  0.297751  0.000000  1
  La  La1  1  0.202249  0.797751  0.500000  1
  La  La2  1  0.799952  0.799952  0.296242  1
  La  La3  1  0.299952  0.299952  0.203758  1
  La  La4  1  0.797751  0.202249  0.500000  1
  La  La5  1  0.297751  0.702249  0.000000  1
  La  La6  1  0.700048  0.700048  0.796242  1
  La  La7  1  0.200048  0.200048  0.703758  1
  In  In8  1  0.514627  0.014627  0.250000  1
  In  In9  1  0.985373  0.485373  0.750000  1
  In  In10  1  0.000000  0.000000  0.000000  1
  In  In11  1  0.014627  0.514627  0.250000  1
  In  In12  1  0.485373  0.985373  0.750000  1
  In  In13  1  0.500000  0.500000  0.500000  1
  Au  Au14  1  0.160055  0.429165  0.474528  1
  Au  Au15  1  0.906363  0.906363  0.595450  1
  Au  Au16  1  0.570835  0.839945  0.525472  1
  Au  Au17  1  0.892958  0.169395  0.208937  1
  Au  Au18  1  0.392958  0.669395  0.291063  1
  Au  Au19  1  0.669395  0.392958  0.291063  1
  Au  Au20  1  0.406363  0.406363  0.904550  1
  Au  Au21  1  0.929165  0.660055  0.025472  1
  Au  Au22  1  0.330605  0.607042  0.708937  1
  Au  Au23  1  0.339945  0.070835  0.974528  1
  Au  Au24  1  0.593637  0.593637  0.095450  1
  Au  Au25  1  0.660055  0.929165  0.025472  1
  Au  Au26  1  0.093637  0.093637  0.404550  1
  Au  Au27  1  0.607042  0.330605  0.708937  1
  Au  Au28  1  0.107042  0.830605  0.791063  1
  Au  Au29  1  0.070835  0.339945  0.974528  1
  Au  Au30  1  0.839945  0.570835  0.525472  1
  Au  Au31  1  0.169395  0.892958  0.208937  1
  Au  Au32  1  0.429165  0.160055  0.474528  1
  Au  Au33  1  0.830605  0.107042  0.791063  1
