# generated using pymatgen
data_Hf3Zr4Nb3Si8
_symmetry_space_group_name_H-M   'P 1'
_cell_length_a   7.00265000
_cell_length_b   7.00042770
_cell_length_c   12.85905357
_cell_angle_alpha   90.28500985
_cell_angle_beta   90.00000000
_cell_angle_gamma   90.00000000
_symmetry_Int_Tables_number   1
_chemical_formula_structural   Hf3Zr4Nb3Si8
_chemical_formula_sum   'Hf6 Zr8 Nb6 Si16'
_cell_volume   630.36287499
_cell_formula_units_Z   2
loop_
 _symmetry_equiv_pos_site_id
 _symmetry_equiv_pos_as_xyz
  1  'x, y, z'
loop_
 _atom_site_type_symbol
 _atom_site_label
 _atom_site_symmetry_multiplicity
 _atom_site_fract_x
 _atom_site_fract_y
 _atom_site_fract_z
 _atom_site_occupancy
  Hf  Hf0  1  0.003849  0.147619  0.126840  1
  Hf  Hf1  1  0.998626  0.853240  0.626023  1
  Hf  Hf2  1  0.646035  0.496997  0.876403  1
  Hf  Hf3  1  0.503849  0.352381  0.623160  1
  Hf  Hf4  1  0.498626  0.646760  0.123977  1
  Hf  Hf5  1  0.146035  0.003003  0.873597  1
  Zr  Zr6  1  0.999908  0.654010  0.034448  1
  Zr  Zr7  1  0.001950  0.346161  0.529868  1
  Zr  Zr8  1  0.653113  0.998835  0.968664  1
  Zr  Zr9  1  0.153113  0.501165  0.781336  1
  Zr  Zr10  1  0.846495  0.498314  0.283086  1
  Zr  Zr11  1  0.501950  0.153839  0.220132  1
  Zr  Zr12  1  0.499908  0.845990  0.715552  1
  Zr  Zr13  1  0.346495  0.001686  0.466914  1
  Nb  Nb14  1  0.353854  0.505528  0.375918  1
  Nb  Nb15  1  0.853854  0.994472  0.374082  1
  Nb  Nb16  1  0.673754  0.672908  0.498199  1
  Nb  Nb17  1  0.826043  0.174459  0.749157  1
  Nb  Nb18  1  0.173754  0.827092  0.251801  1
  Nb  Nb19  1  0.326043  0.325541  0.000843  1
  Si  Si20  1  0.049242  0.701120  0.435147  1
  Si  Si21  1  0.952164  0.301523  0.935838  1
  Si  Si22  1  0.701982  0.048407  0.562066  1
  Si  Si23  1  0.201982  0.451593  0.187934  1
  Si  Si24  1  0.800386  0.548160  0.684908  1
  Si  Si25  1  0.452164  0.198477  0.814162  1
  Si  Si26  1  0.549242  0.798880  0.314853  1
  Si  Si27  1  0.300386  0.951840  0.065092  1
  Si  Si28  1  0.853791  0.796310  0.821085  1
  Si  Si29  1  0.139932  0.208248  0.324631  1
  Si  Si30  1  0.795229  0.857559  0.180296  1
  Si  Si31  1  0.295229  0.642441  0.569704  1
  Si  Si32  1  0.703646  0.354121  0.072389  1
  Si  Si33  1  0.639932  0.291752  0.425369  1
  Si  Si34  1  0.353791  0.703690  0.928915  1
  Si  Si35  1  0.203646  0.145879  0.677611  1
