# generated using pymatgen
data_Y20Ir7Ru4Pt
_symmetry_space_group_name_H-M   'P 1'
_cell_length_a   10.88216376
_cell_length_b   10.88216376
_cell_length_c   6.47386291
_cell_angle_alpha   90.08919795
_cell_angle_beta   90.08919795
_cell_angle_gamma   89.86578919
_symmetry_Int_Tables_number   1
_chemical_formula_structural   Y20Ir7Ru4Pt
_chemical_formula_sum   'Y20 Ir7 Ru4 Pt1'
_cell_volume   766.64052251
_cell_formula_units_Z   1
loop_
 _symmetry_equiv_pos_site_id
 _symmetry_equiv_pos_as_xyz
  1  'x, y, z'
loop_
 _atom_site_type_symbol
 _atom_site_label
 _atom_site_symmetry_multiplicity
 _atom_site_fract_x
 _atom_site_fract_y
 _atom_site_fract_z
 _atom_site_occupancy
  Y  Y0  1  0.292861  0.086288  0.378258  1
  Y  Y1  1  0.294222  0.913257  0.878335  1
  Y  Y2  1  0.704301  0.085152  0.873480  1
  Y  Y3  1  0.705007  0.910281  0.380323  1
  Y  Y4  1  0.586529  0.793190  0.878789  1
  Y  Y5  1  0.583079  0.206622  0.378157  1
  Y  Y6  1  0.412667  0.793202  0.378758  1
  Y  Y7  1  0.412870  0.206655  0.879208  1
  Y  Y8  1  0.206810  0.413471  0.621211  1
  Y  Y9  1  0.206798  0.587333  0.121242  1
  Y  Y10  1  0.793378  0.416921  0.121843  1
  Y  Y11  1  0.793345  0.587130  0.620792  1
  Y  Y12  1  0.913712  0.707139  0.121742  1
  Y  Y13  1  0.914848  0.295699  0.626520  1
  Y  Y14  1  0.086743  0.705778  0.621665  1
  Y  Y15  1  0.089719  0.294993  0.119677  1
  Y  Y16  1  0.001163  0.998294  0.501087  1
  Y  Y17  1  0.001706  0.998837  0.998913  1
  Y  Y18  1  0.499820  0.500047  0.999741  1
  Y  Y19  1  0.499953  0.500180  0.500259  1
  Ir  Ir20  1  0.847986  0.848549  0.750239  1
  Ir  Ir21  1  0.151451  0.152014  0.749761  1
  Ir  Ir22  1  0.152406  0.847594  0.250000  1
  Ir  Ir23  1  0.653269  0.346731  0.750000  1
  Ir  Ir24  1  0.652329  0.652201  0.250012  1
  Ir  Ir25  1  0.347799  0.347671  0.249988  1
  Ir  Ir26  1  0.347610  0.652390  0.750000  1
  Ru  Ru27  1  0.500086  0.999737  0.125596  1
  Ru  Ru28  1  0.500020  0.999622  0.624548  1
  Ru  Ru29  1  0.000378  0.499980  0.875452  1
  Ru  Ru30  1  0.000263  0.499914  0.374404  1
  Pt  Pt31  1  0.846872  0.153128  0.250000  1
