# generated using pymatgen
data_EuYNi12P5
_symmetry_space_group_name_H-M   'P 1'
_cell_length_a   3.68799500
_cell_length_b   10.80679625
_cell_length_c   13.24794600
_cell_angle_alpha   71.54381890
_cell_angle_beta   90.00000000
_cell_angle_gamma   90.00000000
_symmetry_Int_Tables_number   1
_chemical_formula_structural   EuYNi12P5
_chemical_formula_sum   'Eu2 Y2 Ni24 P10'
_cell_volume   500.84507976
_cell_formula_units_Z   2
loop_
 _symmetry_equiv_pos_site_id
 _symmetry_equiv_pos_as_xyz
  1  'x, y, z'
loop_
 _atom_site_type_symbol
 _atom_site_label
 _atom_site_symmetry_multiplicity
 _atom_site_fract_x
 _atom_site_fract_y
 _atom_site_fract_z
 _atom_site_occupancy
  Eu  Eu0  1  0.250000  0.745433  0.187994  1
  Eu  Eu1  1  0.750000  0.254567  0.812006  1
  Y  Y2  1  0.250000  0.782063  0.681118  1
  Y  Y3  1  0.750000  0.217937  0.318882  1
  Ni  Ni4  1  0.250000  0.569401  0.015764  1
  Ni  Ni5  1  0.250000  0.564240  0.446929  1
  Ni  Ni6  1  0.750000  0.501806  0.341685  1
  Ni  Ni7  1  0.250000  0.498194  0.658315  1
  Ni  Ni8  1  0.750000  0.504874  0.152621  1
  Ni  Ni9  1  0.250000  0.495126  0.847379  1
  Ni  Ni10  1  0.750000  0.435760  0.553071  1
  Ni  Ni11  1  0.250000  0.337009  0.139207  1
  Ni  Ni12  1  0.750000  0.662929  0.562169  1
  Ni  Ni13  1  0.250000  0.337071  0.437831  1
  Ni  Ni14  1  0.750000  0.905180  0.304896  1
  Ni  Ni15  1  0.250000  0.094820  0.695104  1
  Ni  Ni16  1  0.750000  0.916526  0.990897  1
  Ni  Ni17  1  0.250000  0.083474  0.009103  1
  Ni  Ni18  1  0.750000  0.920991  0.491112  1
  Ni  Ni19  1  0.250000  0.079009  0.508888  1
  Ni  Ni20  1  0.750000  0.933259  0.795498  1
  Ni  Ni21  1  0.250000  0.066741  0.204502  1
  Ni  Ni22  1  0.250000  0.787800  0.439947  1
  Ni  Ni23  1  0.750000  0.212200  0.560053  1
  Ni  Ni24  1  0.250000  0.797799  0.915803  1
  Ni  Ni25  1  0.750000  0.202201  0.084197  1
  Ni  Ni26  1  0.750000  0.662991  0.860793  1
  Ni  Ni27  1  0.750000  0.430599  0.984236  1
  P  P28  1  0.250000  0.009286  0.871290  1
  P  P29  1  0.750000  0.990714  0.128710  1
  P  P30  1  0.250000  0.302757  0.983608  1
  P  P31  1  0.750000  0.697243  0.016392  1
  P  P32  1  0.250000  0.444464  0.261349  1
  P  P33  1  0.750000  0.555536  0.738651  1
  P  P34  1  0.250000  0.996646  0.377626  1
  P  P35  1  0.750000  0.003354  0.622374  1
  P  P36  1  0.250000  0.313004  0.610867  1
  P  P37  1  0.750000  0.686996  0.389133  1
