# generated using pymatgen
data_TbHoTiSi2Mo
_symmetry_space_group_name_H-M   'P 1'
_cell_length_a   3.94276800
_cell_length_b   3.93907600
_cell_length_c   7.68204300
_cell_angle_alpha   90.00000000
_cell_angle_beta   90.00000000
_cell_angle_gamma   90.00000000
_symmetry_Int_Tables_number   1
_chemical_formula_structural   TbHoTiSi2Mo
_chemical_formula_sum   'Tb1 Ho1 Ti1 Si2 Mo1'
_cell_volume   119.30875587
_cell_formula_units_Z   1
loop_
 _symmetry_equiv_pos_site_id
 _symmetry_equiv_pos_as_xyz
  1  'x, y, z'
loop_
 _atom_site_type_symbol
 _atom_site_label
 _atom_site_symmetry_multiplicity
 _atom_site_fract_x
 _atom_site_fract_y
 _atom_site_fract_z
 _atom_site_occupancy
  Tb  Tb0  1  0.000000  0.500000  0.352475  1
  Ho  Ho1  1  0.500000  0.000000  0.650073  1
  Ti  Ti2  1  0.500000  0.500000  0.999397  1
  Si  Si3  1  0.000000  0.500000  0.767574  1
  Si  Si4  1  0.500000  0.000000  0.231026  1
  Mo  Mo5  1  0.000000  0.000000  0.999456  1
