# generated using pymatgen
data_NaLiTbPt3
_symmetry_space_group_name_H-M   'P 1'
_cell_length_a   5.49940386
_cell_length_b   5.49940393
_cell_length_c   5.16030358
_cell_angle_alpha   57.80132357
_cell_angle_beta   57.80132500
_cell_angle_gamma   59.99998261
_symmetry_Int_Tables_number   1
_chemical_formula_structural   NaLiTbPt3
_chemical_formula_sum   'Na1 Li1 Tb1 Pt3'
_cell_volume   106.54402026
_cell_formula_units_Z   1
loop_
 _symmetry_equiv_pos_site_id
 _symmetry_equiv_pos_as_xyz
  1  'x, y, z'
loop_
 _atom_site_type_symbol
 _atom_site_label
 _atom_site_symmetry_multiplicity
 _atom_site_fract_x
 _atom_site_fract_y
 _atom_site_fract_z
 _atom_site_occupancy
  Na  Na0  1  0.252732  0.252732  0.241804  1
  Li  Li1  1  0.621945  0.621945  0.134167  1
  Tb  Tb2  1  0.005314  0.005314  0.984058  1
  Pt  Pt3  1  0.623123  0.123766  0.629991  1
  Pt  Pt4  1  0.123766  0.623123  0.629991  1
  Pt  Pt5  1  0.623123  0.623123  0.629991  1
