# generated using pymatgen
data_Lu6Ta2Nb3Ga11Os7
_symmetry_space_group_name_H-M   'P 1'
_cell_length_a   9.03453121
_cell_length_b   9.03453128
_cell_length_c   8.97116699
_cell_angle_alpha   59.69747405
_cell_angle_beta   59.69747309
_cell_angle_gamma   59.98769483
_symmetry_Int_Tables_number   1
_chemical_formula_structural   Lu6Ta2Nb3Ga11Os7
_chemical_formula_sum   'Lu6 Ta2 Nb3 Ga11 Os7'
_cell_volume   515.35211144
_cell_formula_units_Z   1
loop_
 _symmetry_equiv_pos_site_id
 _symmetry_equiv_pos_as_xyz
  1  'x, y, z'
loop_
 _atom_site_type_symbol
 _atom_site_label
 _atom_site_symmetry_multiplicity
 _atom_site_fract_x
 _atom_site_fract_y
 _atom_site_fract_z
 _atom_site_occupancy
  Lu  Lu0  1  0.708411  0.708411  0.294711  1
  Lu  Lu1  1  0.288361  0.708736  0.293408  1
  Lu  Lu2  1  0.708736  0.288361  0.293408  1
  Lu  Lu3  1  0.297184  0.297184  0.711069  1
  Lu  Lu4  1  0.693691  0.298309  0.710665  1
  Lu  Lu5  1  0.298309  0.693691  0.710665  1
  Ta  Ta6  1  0.876032  0.876032  0.879246  1
  Ta  Ta7  1  0.126891  0.126891  0.618189  1
  Nb  Nb8  1  0.878412  0.878412  0.364474  1
  Nb  Nb9  1  0.875564  0.368994  0.879554  1
  Nb  Nb10  1  0.368994  0.875564  0.879554  1
  Ga  Ga11  1  0.117487  0.645599  0.119188  1
  Ga  Ga12  1  0.645599  0.117487  0.119188  1
  Ga  Ga13  1  0.117632  0.117632  0.119123  1
  Ga  Ga14  1  0.659526  0.659526  0.021633  1
  Ga  Ga15  1  0.661869  0.016240  0.659974  1
  Ga  Ga16  1  0.016240  0.661869  0.659974  1
  Ga  Ga17  1  0.661614  0.661614  0.659738  1
  Ga  Ga18  1  0.334816  0.334816  0.995411  1
  Ga  Ga19  1  0.339095  0.987660  0.334353  1
  Ga  Ga20  1  0.987660  0.339095  0.334353  1
  Ga  Ga21  1  0.338716  0.338716  0.334701  1
  Os  Os22  1  0.006546  0.006546  0.979823  1
  Os  Os23  1  0.998781  0.998781  0.508584  1
  Os  Os24  1  0.494528  0.999238  0.507580  1
  Os  Os25  1  0.999238  0.494528  0.507580  1
  Os  Os26  1  0.502073  0.502073  0.001710  1
  Os  Os27  1  0.994174  0.503822  0.001070  1
  Os  Os28  1  0.503822  0.994174  0.001070  1
