# generated using pymatgen
data_K10Sr2TaNbAs8
_symmetry_space_group_name_H-M   'P 1'
_cell_length_a   10.45812056
_cell_length_b   10.45770337
_cell_length_c   7.98249190
_cell_angle_alpha   88.45709293
_cell_angle_beta   88.45639969
_cell_angle_gamma   120.56464731
_symmetry_Int_Tables_number   1
_chemical_formula_structural   K10Sr2TaNbAs8
_chemical_formula_sum   'K10 Sr2 Ta1 Nb1 As8'
_cell_volume   750.61626180
_cell_formula_units_Z   1
loop_
 _symmetry_equiv_pos_site_id
 _symmetry_equiv_pos_as_xyz
  1  'x, y, z'
loop_
 _atom_site_type_symbol
 _atom_site_label
 _atom_site_symmetry_multiplicity
 _atom_site_fract_x
 _atom_site_fract_y
 _atom_site_fract_z
 _atom_site_occupancy
  K  K0  1  0.466415  0.526332  0.606866  1
  K  K1  1  0.057929  0.528389  0.610051  1
  K  K2  1  0.526358  0.466436  0.106839  1
  K  K3  1  0.528310  0.057813  0.109917  1
  K  K4  1  0.864135  0.142869  0.787559  1
  K  K5  1  0.293623  0.153284  0.827337  1
  K  K6  1  0.854957  0.716031  0.764905  1
  K  K7  1  0.142809  0.864167  0.287680  1
  K  K8  1  0.716180  0.855011  0.265075  1
  K  K9  1  0.153252  0.293562  0.327487  1
  Sr  Sr10  1  0.464702  0.937010  0.602877  1
  Sr  Sr11  1  0.936971  0.464781  0.102769  1
  Ta  Ta12  1  0.669698  0.330956  0.500414  1
  Nb  Nb13  1  0.330982  0.669527  0.000497  1
  As  As14  1  0.685971  0.339013  0.813087  1
  As  As15  1  0.339124  0.686142  0.313944  1
  As  As16  1  0.194566  0.794408  0.892695  1
  As  As17  1  0.590344  0.801325  0.872407  1
  As  As18  1  0.187742  0.399866  0.928300  1
  As  As19  1  0.794262  0.194968  0.392800  1
  As  As20  1  0.400588  0.188286  0.428313  1
  As  As21  1  0.801081  0.589825  0.372581  1
