# generated using pymatgen
data_TmLu4(Al2Ni)2
_symmetry_space_group_name_H-M   'P 1'
_cell_length_a   3.45364400
_cell_length_b   7.62484000
_cell_length_c   17.03434700
_cell_angle_alpha   90.00000000
_cell_angle_beta   90.00000000
_cell_angle_gamma   90.00000000
_symmetry_Int_Tables_number   1
_chemical_formula_structural   TmLu4(Al2Ni)2
_chemical_formula_sum   'Tm2 Lu8 Al8 Ni4'
_cell_volume   448.57368573
_cell_formula_units_Z   2
loop_
 _symmetry_equiv_pos_site_id
 _symmetry_equiv_pos_as_xyz
  1  'x, y, z'
loop_
 _atom_site_type_symbol
 _atom_site_label
 _atom_site_symmetry_multiplicity
 _atom_site_fract_x
 _atom_site_fract_y
 _atom_site_fract_z
 _atom_site_occupancy
  Tm  Tm0  1  0.000000  0.500000  0.500000  1
  Tm  Tm1  1  0.000000  0.000000  0.000000  1
  Lu  Lu2  1  0.000000  0.743218  0.279002  1
  Lu  Lu3  1  0.000000  0.256782  0.720998  1
  Lu  Lu4  1  0.000000  0.756782  0.779002  1
  Lu  Lu5  1  0.000000  0.243218  0.220998  1
  Lu  Lu6  1  0.000000  0.617709  0.084231  1
  Lu  Lu7  1  0.000000  0.382291  0.915769  1
  Lu  Lu8  1  0.000000  0.882291  0.584231  1
  Lu  Lu9  1  0.000000  0.117709  0.415769  1
  Al  Al10  1  0.500000  0.707745  0.928268  1
  Al  Al11  1  0.500000  0.292255  0.071732  1
  Al  Al12  1  0.500000  0.792255  0.428268  1
  Al  Al13  1  0.500000  0.207745  0.571732  1
  Al  Al14  1  0.500000  0.569237  0.651930  1
  Al  Al15  1  0.500000  0.430763  0.348070  1
  Al  Al16  1  0.500000  0.930763  0.151930  1
  Al  Al17  1  0.500000  0.069237  0.848070  1
  Ni  Ni18  1  0.500000  0.519535  0.196316  1
  Ni  Ni19  1  0.500000  0.480465  0.803684  1
  Ni  Ni20  1  0.500000  0.980465  0.696316  1
  Ni  Ni21  1  0.500000  0.019535  0.303684  1
