# generated using pymatgen
data_Tb8Ti2ReSi16Mo9
_symmetry_space_group_name_H-M   'P 1'
_cell_length_a   6.91145823
_cell_length_b   6.91145748
_cell_length_c   12.82646136
_cell_angle_alpha   89.94978779
_cell_angle_beta   90.05021283
_cell_angle_gamma   89.51778253
_symmetry_Int_Tables_number   1
_chemical_formula_structural   Tb8Ti2ReSi16Mo9
_chemical_formula_sum   'Tb8 Ti2 Re1 Si16 Mo9'
_cell_volume   612.67543474
_cell_formula_units_Z   1
loop_
 _symmetry_equiv_pos_site_id
 _symmetry_equiv_pos_as_xyz
  1  'x, y, z'
loop_
 _atom_site_type_symbol
 _atom_site_label
 _atom_site_symmetry_multiplicity
 _atom_site_fract_x
 _atom_site_fract_y
 _atom_site_fract_z
 _atom_site_occupancy
  Tb  Tb0  1  0.340910  0.000311  0.468550  1
  Tb  Tb1  1  0.499066  0.836967  0.718371  1
  Tb  Tb2  1  0.501360  0.162491  0.218427  1
  Tb  Tb3  1  0.836967  0.499066  0.281629  1
  Tb  Tb4  1  0.162491  0.501360  0.781573  1
  Tb  Tb5  1  0.659702  0.999447  0.968535  1
  Tb  Tb6  1  0.000311  0.340910  0.531450  1
  Tb  Tb7  1  0.999447  0.659702  0.031465  1
  Ti  Ti8  1  0.170400  0.829225  0.250392  1
  Ti  Ti9  1  0.829225  0.170400  0.749608  1
  Re  Re10  1  0.667991  0.667991  0.500000  1
  Si  Si11  1  0.202145  0.128389  0.685209  1
  Si  Si12  1  0.374734  0.696991  0.935289  1
  Si  Si13  1  0.624408  0.306477  0.436252  1
  Si  Si14  1  0.696991  0.374734  0.064711  1
  Si  Si15  1  0.306477  0.624408  0.563748  1
  Si  Si16  1  0.797243  0.871733  0.185419  1
  Si  Si17  1  0.128389  0.202145  0.314791  1
  Si  Si18  1  0.871733  0.797243  0.814581  1
  Si  Si19  1  0.287160  0.963015  0.061923  1
  Si  Si20  1  0.542009  0.788183  0.317208  1
  Si  Si21  1  0.459272  0.211142  0.815689  1
  Si  Si22  1  0.788183  0.542009  0.682792  1
  Si  Si23  1  0.211142  0.459272  0.184311  1
  Si  Si24  1  0.713512  0.034266  0.561239  1
  Si  Si25  1  0.963015  0.287160  0.938077  1
  Si  Si26  1  0.034266  0.713512  0.438761  1
  Mo  Mo27  1  0.331768  0.331768  0.000000  1
  Mo  Mo28  1  0.155484  0.002032  0.872887  1
  Mo  Mo29  1  0.497059  0.666462  0.126301  1
  Mo  Mo30  1  0.502433  0.332162  0.626192  1
  Mo  Mo31  1  0.666462  0.497059  0.873699  1
  Mo  Mo32  1  0.332162  0.502433  0.373808  1
  Mo  Mo33  1  0.844804  0.999247  0.373473  1
  Mo  Mo34  1  0.002032  0.155484  0.127113  1
  Mo  Mo35  1  0.999247  0.844804  0.626527  1
