# generated using pymatgen
data_Cu5Mo12Pt2RhN4
_symmetry_space_group_name_H-M   'P 1'
_cell_length_a   6.78437471
_cell_length_b   6.78097054
_cell_length_c   6.78267443
_cell_angle_alpha   89.86810731
_cell_angle_beta   90.16861479
_cell_angle_gamma   89.87115235
_symmetry_Int_Tables_number   1
_chemical_formula_structural   Cu5Mo12Pt2RhN4
_chemical_formula_sum   'Cu5 Mo12 Pt2 Rh1 N4'
_cell_volume   312.03155772
_cell_formula_units_Z   1
loop_
 _symmetry_equiv_pos_site_id
 _symmetry_equiv_pos_as_xyz
  1  'x, y, z'
loop_
 _atom_site_type_symbol
 _atom_site_label
 _atom_site_symmetry_multiplicity
 _atom_site_fract_x
 _atom_site_fract_y
 _atom_site_fract_z
 _atom_site_occupancy
  Cu  Cu0  1  0.192143  0.181006  0.175362  1
  Cu  Cu1  1  0.319979  0.823662  0.691437  1
  Cu  Cu2  1  0.431692  0.068284  0.931338  1
  Cu  Cu3  1  0.813023  0.685472  0.315050  1
  Cu  Cu4  1  0.674895  0.308861  0.818093  1
  Mo  Mo5  1  0.621642  0.699385  0.957157  1
  Mo  Mo6  1  0.460014  0.875834  0.301784  1
  Mo  Mo7  1  0.701821  0.956927  0.627209  1
  Mo  Mo8  1  0.541167  0.372421  0.203839  1
  Mo  Mo9  1  0.373768  0.199739  0.539925  1
  Mo  Mo10  1  0.197467  0.538563  0.373626  1
  Mo  Mo11  1  0.871144  0.306968  0.462907  1
  Mo  Mo12  1  0.039650  0.127599  0.801522  1
  Mo  Mo13  1  0.303930  0.461149  0.871372  1
  Mo  Mo14  1  0.128044  0.797955  0.040631  1
  Mo  Mo15  1  0.799917  0.040186  0.122583  1
  Mo  Mo16  1  0.959221  0.626118  0.695423  1
  Pt  Pt17  1  0.066908  0.934444  0.432263  1
  Pt  Pt18  1  0.931741  0.432754  0.065060  1
  Rh  Rh19  1  0.565257  0.568081  0.567104  1
  N  N20  1  0.374638  0.624344  0.128822  1
  N  N21  1  0.875703  0.871151  0.874603  1
  N  N22  1  0.127067  0.373660  0.626687  1
  N  N23  1  0.629168  0.125437  0.376203  1
