# generated using pymatgen
data_Eu2SiGePd4
_symmetry_space_group_name_H-M   'P 1'
_cell_length_a   5.74973500
_cell_length_b   7.02421100
_cell_length_c   7.63871400
_cell_angle_alpha   90.00000000
_cell_angle_beta   90.00000000
_cell_angle_gamma   90.00000000
_symmetry_Int_Tables_number   1
_chemical_formula_structural   Eu2SiGePd4
_chemical_formula_sum   'Eu4 Si2 Ge2 Pd8'
_cell_volume   308.50742988
_cell_formula_units_Z   2
loop_
 _symmetry_equiv_pos_site_id
 _symmetry_equiv_pos_as_xyz
  1  'x, y, z'
loop_
 _atom_site_type_symbol
 _atom_site_label
 _atom_site_symmetry_multiplicity
 _atom_site_fract_x
 _atom_site_fract_y
 _atom_site_fract_z
 _atom_site_occupancy
  Eu  Eu0  1  0.362030  0.750000  0.027936  1
  Eu  Eu1  1  0.137970  0.750000  0.527936  1
  Eu  Eu2  1  0.635035  0.250000  0.972798  1
  Eu  Eu3  1  0.864965  0.250000  0.472798  1
  Si  Si4  1  0.640733  0.750000  0.375693  1
  Si  Si5  1  0.859267  0.750000  0.875693  1
  Ge  Ge6  1  0.359228  0.250000  0.627311  1
  Ge  Ge7  1  0.140772  0.250000  0.127311  1
  Pd  Pd8  1  0.891523  0.557051  0.168589  1
  Pd  Pd9  1  0.608477  0.942949  0.668589  1
  Pd  Pd10  1  0.084071  0.050746  0.829542  1
  Pd  Pd11  1  0.415929  0.449254  0.329542  1
  Pd  Pd12  1  0.084071  0.449254  0.829542  1
  Pd  Pd13  1  0.415929  0.050746  0.329542  1
  Pd  Pd14  1  0.891523  0.942949  0.168589  1
  Pd  Pd15  1  0.608477  0.557051  0.668589  1
