# generated using pymatgen
data_HoTm2Sc3FeBi2
_symmetry_space_group_name_H-M   'P 1'
_cell_length_a   7.94502600
_cell_length_b   7.93873485
_cell_length_c   4.13921700
_cell_angle_alpha   90.00000000
_cell_angle_beta   90.00000000
_cell_angle_gamma   120.02621790
_symmetry_Int_Tables_number   1
_chemical_formula_structural   HoTm2Sc3FeBi2
_chemical_formula_sum   'Ho1 Tm2 Sc3 Fe1 Bi2'
_cell_volume   226.03758064
_cell_formula_units_Z   1
loop_
 _symmetry_equiv_pos_site_id
 _symmetry_equiv_pos_as_xyz
  1  'x, y, z'
loop_
 _atom_site_type_symbol
 _atom_site_label
 _atom_site_symmetry_multiplicity
 _atom_site_fract_x
 _atom_site_fract_y
 _atom_site_fract_z
 _atom_site_occupancy
  Ho  Ho0  1  0.614991  0.000000  0.000000  1
  Tm  Tm1  1  0.999820  0.615948  0.000000  1
  Tm  Tm2  1  0.383872  0.384052  0.000000  1
  Sc  Sc3  1  0.222433  0.000000  0.500000  1
  Sc  Sc4  1  0.000701  0.222865  0.500000  1
  Sc  Sc5  1  0.777837  0.777135  0.500000  1
  Fe  Fe6  1  0.001144  0.000000  0.000000  1
  Bi  Bi7  1  0.332474  0.665746  0.500000  1
  Bi  Bi8  1  0.666729  0.334254  0.500000  1
