# generated using pymatgen
data_Na44Hg7
_symmetry_space_group_name_H-M   'P 1'
_cell_length_a   16.72433149
_cell_length_b   16.72433157
_cell_length_c   16.72433200
_cell_angle_alpha   60.00177533
_cell_angle_beta   60.00177516
_cell_angle_gamma   60.00177626
_symmetry_Int_Tables_number   1
_chemical_formula_structural   Na44Hg7
_chemical_formula_sum   'Na88 Hg14'
_cell_volume   3307.87280235
_cell_formula_units_Z   2
loop_
 _symmetry_equiv_pos_site_id
 _symmetry_equiv_pos_as_xyz
  1  'x, y, z'
loop_
 _atom_site_type_symbol
 _atom_site_label
 _atom_site_symmetry_multiplicity
 _atom_site_fract_x
 _atom_site_fract_y
 _atom_site_fract_z
 _atom_site_occupancy
  Na  Na0  1  0.715981  0.715980  0.096458  1
  Na  Na1  1  0.715982  0.471598  0.096479  1
  Na  Na2  1  0.471598  0.715983  0.096478  1
  Na  Na3  1  0.479809  0.479808  0.134995  1
  Na  Na4  1  0.905404  0.479808  0.135007  1
  Na  Na5  1  0.479809  0.905404  0.135006  1
  Na  Na6  1  0.356030  0.143968  0.143969  1
  Na  Na7  1  0.143968  0.356029  0.143969  1
  Na  Na8  1  0.356041  0.356041  0.143973  1
  Na  Na9  1  0.945405  0.945405  0.163782  1
  Na  Na10  1  0.812823  0.187177  0.187176  1
  Na  Na11  1  0.187176  0.812824  0.187176  1
  Na  Na12  1  0.812821  0.812821  0.187190  1
  Na  Na13  1  0.567977  0.216512  0.216513  1
  Na  Na14  1  0.216513  0.567978  0.216512  1
  Na  Na15  1  0.999031  0.567938  0.216526  1
  Na  Na16  1  0.567939  0.999031  0.216526  1
  Na  Na17  1  0.998981  0.216530  0.216530  1
  Na  Na18  1  0.216530  0.998982  0.216530  1
  Na  Na19  1  0.559827  0.559827  0.320538  1
  Na  Na20  1  0.980290  0.980290  0.336322  1
  Na  Na21  1  0.980294  0.703099  0.336331  1
  Na  Na22  1  0.703100  0.980292  0.336332  1
  Na  Na23  1  0.558844  0.338447  0.338447  1
  Na  Na24  1  0.338447  0.558844  0.338447  1
  Na  Na25  1  0.764269  0.558832  0.338457  1
  Na  Na26  1  0.558832  0.764268  0.338456  1
  Na  Na27  1  0.764262  0.338471  0.338470  1
  Na  Na28  1  0.338470  0.764261  0.338471  1
  Na  Na29  1  0.143969  0.143968  0.356029  1
  Na  Na30  1  0.356042  0.143973  0.356039  1
  Na  Na31  1  0.143973  0.356040  0.356041  1
  Na  Na32  1  0.715968  0.715968  0.471574  1
  Na  Na33  1  0.715982  0.096479  0.471597  1
  Na  Na34  1  0.096480  0.715981  0.471598  1
  Na  Na35  1  0.905395  0.479800  0.479801  1
  Na  Na36  1  0.479800  0.905395  0.479799  1
  Na  Na37  1  0.479808  0.134996  0.479808  1
  Na  Na38  1  0.134995  0.479808  0.479809  1
  Na  Na39  1  0.905404  0.135006  0.479808  1
  Na  Na40  1  0.135006  0.905404  0.479810  1
  Na  Na41  1  0.835793  0.835792  0.492633  1
  Na  Na42  1  0.764268  0.338457  0.558831  1
  Na  Na43  1  0.338456  0.764268  0.558832  1
  Na  Na44  1  0.338446  0.338446  0.558846  1
  Na  Na45  1  0.559827  0.559827  0.559827  1
  Na  Na46  1  0.559826  0.320540  0.559826  1
  Na  Na47  1  0.320539  0.559827  0.559827  1
  Na  Na48  1  0.999031  0.216525  0.567938  1
  Na  Na49  1  0.216525  0.999031  0.567939  1
  Na  Na50  1  0.216512  0.216512  0.567977  1
  Na  Na51  1  0.695335  0.695335  0.695335  1
  Na  Na52  1  0.913967  0.695349  0.695349  1
  Na  Na53  1  0.695348  0.913969  0.695349  1
  Na  Na54  1  0.980301  0.980302  0.703095  1
  Na  Na55  1  0.980294  0.336331  0.703099  1
  Na  Na56  1  0.336331  0.980293  0.703100  1
  Na  Na57  1  0.715967  0.471575  0.715968  1
  Na  Na58  1  0.471574  0.715967  0.715968  1
  Na  Na59  1  0.715980  0.096458  0.715981  1
  Na  Na60  1  0.096459  0.715980  0.715980  1
  Na  Na61  1  0.471598  0.096479  0.715982  1
  Na  Na62  1  0.096480  0.471597  0.715982  1
  Na  Na63  1  0.338471  0.338470  0.764262  1
  Na  Na64  1  0.558832  0.338455  0.764268  1
  Na  Na65  1  0.338456  0.558831  0.764269  1
  Na  Na66  1  0.812821  0.187190  0.812821  1
  Na  Na67  1  0.187190  0.812821  0.812821  1
  Na  Na68  1  0.187177  0.187177  0.812823  1
  Na  Na69  1  0.835792  0.835791  0.835792  1
  Na  Na70  1  0.835793  0.492632  0.835793  1
  Na  Na71  1  0.492632  0.835794  0.835793  1
  Na  Na72  1  0.479799  0.479801  0.905396  1
  Na  Na73  1  0.479809  0.135007  0.905403  1
  Na  Na74  1  0.135007  0.479808  0.905405  1
  Na  Na75  1  0.695348  0.695349  0.913967  1
  Na  Na76  1  0.945405  0.163782  0.945405  1
  Na  Na77  1  0.163783  0.945406  0.945405  1
  Na  Na78  1  0.945411  0.945412  0.945412  1
  Na  Na79  1  0.980290  0.336321  0.980290  1
  Na  Na80  1  0.336322  0.980290  0.980289  1
  Na  Na81  1  0.703099  0.336332  0.980293  1
  Na  Na82  1  0.336331  0.703100  0.980293  1
  Na  Na83  1  0.980302  0.703094  0.980302  1
  Na  Na84  1  0.703094  0.980302  0.980303  1
  Na  Na85  1  0.216530  0.216530  0.998982  1
  Na  Na86  1  0.567938  0.216524  0.999031  1
  Na  Na87  1  0.216525  0.567939  0.999031  1
  Hg  Hg88  1  0.755574  0.081483  0.081482  1
  Hg  Hg89  1  0.081483  0.755575  0.081482  1
  Hg  Hg90  1  0.081487  0.081487  0.081487  1
  Hg  Hg91  1  0.952976  0.349012  0.349013  1
  Hg  Hg92  1  0.349012  0.952976  0.349013  1
  Hg  Hg93  1  0.349015  0.349015  0.349014  1
  Hg  Hg94  1  0.914768  0.585222  0.585223  1
  Hg  Hg95  1  0.585223  0.914768  0.585223  1
  Hg  Hg96  1  0.914780  0.914780  0.585229  1
  Hg  Hg97  1  0.081483  0.081483  0.755575  1
  Hg  Hg98  1  0.585223  0.585223  0.914768  1
  Hg  Hg99  1  0.914780  0.585229  0.914780  1
  Hg  Hg100  1  0.585229  0.914781  0.914780  1
  Hg  Hg101  1  0.349012  0.349012  0.952976  1
