# generated using pymatgen
data_Y4MnNi13
_symmetry_space_group_name_H-M   'P 1'
_cell_length_a   4.97948632
_cell_length_b   4.94067879
_cell_length_c   12.43456128
_cell_angle_alpha   78.54522778
_cell_angle_beta   78.44972862
_cell_angle_gamma   59.73982510
_symmetry_Int_Tables_number   1
_chemical_formula_structural   Y4MnNi13
_chemical_formula_sum   'Y4 Mn1 Ni13'
_cell_volume   257.15164393
_cell_formula_units_Z   1
loop_
 _symmetry_equiv_pos_site_id
 _symmetry_equiv_pos_as_xyz
  1  'x, y, z'
loop_
 _atom_site_type_symbol
 _atom_site_label
 _atom_site_symmetry_multiplicity
 _atom_site_fract_x
 _atom_site_fract_y
 _atom_site_fract_z
 _atom_site_occupancy
  Y  Y0  1  0.947477  0.948074  0.156972  1
  Y  Y1  1  0.052523  0.051926  0.843028  1
  Y  Y2  1  0.852014  0.852763  0.443210  1
  Y  Y3  1  0.147986  0.147237  0.556790  1
  Mn  Mn4  1  0.500000  0.000000  0.000000  1
  Ni  Ni5  1  0.500000  0.500000  0.500000  1
  Ni  Ni6  1  0.722450  0.721809  0.833291  1
  Ni  Ni7  1  0.277550  0.278191  0.166709  1
  Ni  Ni8  1  0.611047  0.611785  0.166121  1
  Ni  Ni9  1  0.388953  0.388215  0.833879  1
  Ni  Ni10  1  0.000000  0.500000  0.000000  1
  Ni  Ni11  1  0.500000  0.500000  0.000000  1
  Ni  Ni12  1  0.389766  0.390004  0.330417  1
  Ni  Ni13  1  0.889813  0.390004  0.330417  1
  Ni  Ni14  1  0.389131  0.891096  0.330640  1
  Ni  Ni15  1  0.610234  0.609996  0.669583  1
  Ni  Ni16  1  0.110187  0.609996  0.669583  1
  Ni  Ni17  1  0.610869  0.108904  0.669360  1
