# generated using pymatgen
data_Pr2YHo3Ga17Pd5
_symmetry_space_group_name_H-M   'P 1'
_cell_length_a   8.22097129
_cell_length_b   8.22097698
_cell_length_c   15.85234215
_cell_angle_alpha   76.09853819
_cell_angle_beta   76.09853824
_cell_angle_gamma   30.42725991
_symmetry_Int_Tables_number   1
_chemical_formula_structural   Pr2YHo3Ga17Pd5
_chemical_formula_sum   'Pr2 Y1 Ho3 Ga17 Pd5'
_cell_volume   525.50295058
_cell_formula_units_Z   1
loop_
 _symmetry_equiv_pos_site_id
 _symmetry_equiv_pos_as_xyz
  1  'x, y, z'
loop_
 _atom_site_type_symbol
 _atom_site_label
 _atom_site_symmetry_multiplicity
 _atom_site_fract_x
 _atom_site_fract_y
 _atom_site_fract_z
 _atom_site_occupancy
  Pr  Pr0  1  0.745471  0.745469  0.750002  1
  Pr  Pr1  1  0.254322  0.254326  0.249850  1
  Y  Y2  1  0.408629  0.408620  0.406077  1
  Ho  Ho3  1  0.590284  0.590273  0.592995  1
  Ho  Ho4  1  0.099789  0.099790  0.096965  1
  Ho  Ho5  1  0.900311  0.900310  0.902871  1
  Ga  Ga6  1  0.828037  0.828028  0.542944  1
  Ga  Ga7  1  0.322150  0.322158  0.038816  1
  Ga  Ga8  1  0.677804  0.677806  0.961159  1
  Ga  Ga9  1  0.172158  0.172153  0.457578  1
  Ga  Ga10  1  0.537346  0.537351  0.823178  1
  Ga  Ga11  1  0.045828  0.045825  0.326816  1
  Ga  Ga12  1  0.954562  0.954559  0.673451  1
  Ga  Ga13  1  0.462750  0.462757  0.176612  1
  Ga  Ga14  1  0.261407  0.261401  0.896854  1
  Ga  Ga15  1  0.768928  0.768921  0.399881  1
  Ga  Ga16  1  0.230812  0.230800  0.599945  1
  Ga  Ga17  1  0.738597  0.738602  0.103177  1
  Ga  Ga18  1  0.394191  0.394185  0.766726  1
  Ga  Ga19  1  0.902471  0.902478  0.264374  1
  Ga  Ga20  1  0.097267  0.097268  0.735110  1
  Ga  Ga21  1  0.605790  0.605793  0.233496  1
  Ga  Ga22  1  0.499974  0.499972  0.999960  1
  Pd  Pd23  1  0.093160  0.093175  0.904834  1
  Pd  Pd24  1  0.605878  0.605885  0.396984  1
  Pd  Pd25  1  0.394765  0.394773  0.603669  1
  Pd  Pd26  1  0.906800  0.906802  0.095155  1
  Pd  Pd27  1  0.000519  0.000520  0.500523  1
