# generated using pymatgen
data_Ta12Al8CuRu3C4
_symmetry_space_group_name_H-M   'P 1'
_cell_length_a   8.28605143
_cell_length_b   8.32218656
_cell_length_c   8.32218600
_cell_angle_alpha   60.00000222
_cell_angle_beta   59.85563772
_cell_angle_gamma   59.85563762
_symmetry_Int_Tables_number   1
_chemical_formula_structural   Ta12Al8CuRu3C4
_chemical_formula_sum   'Ta12 Al8 Cu1 Ru3 C4'
_cell_volume   404.90803837
_cell_formula_units_Z   1
loop_
 _symmetry_equiv_pos_site_id
 _symmetry_equiv_pos_as_xyz
  1  'x, y, z'
loop_
 _atom_site_type_symbol
 _atom_site_label
 _atom_site_symmetry_multiplicity
 _atom_site_fract_x
 _atom_site_fract_y
 _atom_site_fract_z
 _atom_site_occupancy
  Ta  Ta0  1  0.558547  0.936693  0.568069  1
  Ta  Ta1  1  0.311116  0.688283  0.688283  1
  Ta  Ta2  1  0.691453  0.313307  0.313307  1
  Ta  Ta3  1  0.311116  0.688283  0.312317  1
  Ta  Ta4  1  0.691453  0.681931  0.313307  1
  Ta  Ta5  1  0.311116  0.312317  0.688283  1
  Ta  Ta6  1  0.558547  0.568069  0.936693  1
  Ta  Ta7  1  0.938884  0.561717  0.561717  1
  Ta  Ta8  1  0.558547  0.936693  0.936693  1
  Ta  Ta9  1  0.938884  0.937683  0.561717  1
  Ta  Ta10  1  0.691453  0.313307  0.681931  1
  Ta  Ta11  1  0.938884  0.561717  0.937683  1
  Al  Al12  1  0.915018  0.917219  0.917219  1
  Al  Al13  1  0.003599  0.332133  0.332133  1
  Al  Al14  1  0.334982  0.999454  0.332781  1
  Al  Al15  1  0.334982  0.332781  0.999454  1
  Al  Al16  1  0.915018  0.250546  0.917219  1
  Al  Al17  1  0.915018  0.917219  0.250546  1
  Al  Al18  1  0.246401  0.917867  0.917867  1
  Al  Al19  1  0.334982  0.332781  0.332781  1
  Cu  Cu20  1  0.625000  0.125000  0.125000  1
  Ru  Ru21  1  0.125000  0.125000  0.125000  1
  Ru  Ru22  1  0.125000  0.625000  0.125000  1
  Ru  Ru23  1  0.125000  0.125000  0.625000  1
  C  C24  1  0.625000  0.625000  0.625000  1
  C  C25  1  0.125000  0.625000  0.625000  1
  C  C26  1  0.625000  0.125000  0.625000  1
  C  C27  1  0.625000  0.625000  0.125000  1
