# generated using pymatgen
data_Ba4U4N10O
_symmetry_space_group_name_H-M   'P 1'
_cell_length_a   6.18681426
_cell_length_b   6.18240180
_cell_length_c   8.68109418
_cell_angle_alpha   89.99966332
_cell_angle_beta   89.99499336
_cell_angle_gamma   90.71469705
_symmetry_Int_Tables_number   1
_chemical_formula_structural   Ba4U4N10O
_chemical_formula_sum   'Ba4 U4 N10 O1'
_cell_volume   332.02056390
_cell_formula_units_Z   1
loop_
 _symmetry_equiv_pos_site_id
 _symmetry_equiv_pos_as_xyz
  1  'x, y, z'
loop_
 _atom_site_type_symbol
 _atom_site_label
 _atom_site_symmetry_multiplicity
 _atom_site_fract_x
 _atom_site_fract_y
 _atom_site_fract_z
 _atom_site_occupancy
  Ba  Ba0  1  0.010965  0.989739  0.257236  1
  Ba  Ba1  1  0.490312  0.506977  0.259110  1
  Ba  Ba2  1  0.490617  0.506323  0.736901  1
  Ba  Ba3  1  0.010420  0.989724  0.738916  1
  U  U4  1  0.505323  0.001750  0.497932  1
  U  U5  1  0.996854  0.494378  0.497863  1
  U  U6  1  0.493954  0.998141  0.997781  1
  U  U7  1  0.011561  0.499869  0.997770  1
  N  N8  1  0.992360  0.487585  0.234236  1
  N  N9  1  0.512226  0.010388  0.227808  1
  N  N10  1  0.725913  0.768734  0.497475  1
  N  N11  1  0.769679  0.263663  0.496175  1
  N  N12  1  0.230245  0.727386  0.498940  1
  N  N13  1  0.274848  0.225935  0.498377  1
  N  N14  1  0.517107  0.013132  0.768160  1
  N  N15  1  0.987623  0.485396  0.761671  1
  N  N16  1  0.263546  0.741420  0.995766  1
  N  N17  1  0.235152  0.242709  0.997271  1
  O  O18  1  0.767863  0.755569  0.998683  1
