# generated using pymatgen
data_Er8Ta11Si16Au
_symmetry_space_group_name_H-M   'P 1'
_cell_length_a   7.02762291
_cell_length_b   7.02762371
_cell_length_c   12.92764530
_cell_angle_alpha   90.28418314
_cell_angle_beta   89.71581586
_cell_angle_gamma   89.72466137
_symmetry_Int_Tables_number   1
_chemical_formula_structural   Er8Ta11Si16Au
_chemical_formula_sum   'Er8 Ta11 Si16 Au1'
_cell_volume   638.44079096
_cell_formula_units_Z   1
loop_
 _symmetry_equiv_pos_site_id
 _symmetry_equiv_pos_as_xyz
  1  'x, y, z'
loop_
 _atom_site_type_symbol
 _atom_site_label
 _atom_site_symmetry_multiplicity
 _atom_site_fract_x
 _atom_site_fract_y
 _atom_site_fract_z
 _atom_site_occupancy
  Er  Er0  1  0.342034  0.001982  0.467387  1
  Er  Er1  1  0.496841  0.841439  0.717527  1
  Er  Er2  1  0.502793  0.157415  0.216002  1
  Er  Er3  1  0.841439  0.496841  0.282473  1
  Er  Er4  1  0.157415  0.502793  0.783998  1
  Er  Er5  1  0.655639  0.001531  0.968324  1
  Er  Er6  1  0.001982  0.342034  0.532613  1
  Er  Er7  1  0.001531  0.655639  0.031676  1
  Ta  Ta8  1  0.171592  0.826388  0.249690  1
  Ta  Ta9  1  0.826388  0.171592  0.750310  1
  Ta  Ta10  1  0.671266  0.671266  0.500000  1
  Ta  Ta11  1  0.149522  0.007244  0.875933  1
  Ta  Ta12  1  0.498083  0.652299  0.122293  1
  Ta  Ta13  1  0.504414  0.349878  0.623832  1
  Ta  Ta14  1  0.652299  0.498083  0.877707  1
  Ta  Ta15  1  0.349878  0.504414  0.376168  1
  Ta  Ta16  1  0.848428  0.992370  0.373010  1
  Ta  Ta17  1  0.007244  0.149522  0.124067  1
  Ta  Ta18  1  0.992370  0.848428  0.626990  1
  Si  Si19  1  0.202011  0.137302  0.682461  1
  Si  Si20  1  0.370271  0.719401  0.927692  1
  Si  Si21  1  0.636250  0.294434  0.431132  1
  Si  Si22  1  0.719401  0.370271  0.072308  1
  Si  Si23  1  0.294434  0.636250  0.568868  1
  Si  Si24  1  0.796928  0.863780  0.180639  1
  Si  Si25  1  0.137302  0.202011  0.317539  1
  Si  Si26  1  0.863780  0.796928  0.819361  1
  Si  Si27  1  0.289900  0.940923  0.064659  1
  Si  Si28  1  0.544448  0.794284  0.312709  1
  Si  Si29  1  0.455090  0.205307  0.810593  1
  Si  Si30  1  0.794284  0.544448  0.687291  1
  Si  Si31  1  0.205307  0.455090  0.189407  1
  Si  Si32  1  0.704455  0.045352  0.563442  1
  Si  Si33  1  0.940923  0.289900  0.935341  1
  Si  Si34  1  0.045352  0.704455  0.436558  1
  Au  Au35  1  0.328710  0.328710  0.000000  1
