# generated using pymatgen
data_Tb3Yb4Pr(US5)4
_symmetry_space_group_name_H-M   'P 1'
_cell_length_a   7.41249754
_cell_length_b   7.96012289
_cell_length_c   11.65833106
_cell_angle_alpha   90.04191284
_cell_angle_beta   89.94647882
_cell_angle_gamma   89.82419900
_symmetry_Int_Tables_number   1
_chemical_formula_structural   Tb3Yb4Pr(US5)4
_chemical_formula_sum   'Tb3 Yb4 Pr1 U4 S20'
_cell_volume   687.88900467
_cell_formula_units_Z   1
loop_
 _symmetry_equiv_pos_site_id
 _symmetry_equiv_pos_as_xyz
  1  'x, y, z'
loop_
 _atom_site_type_symbol
 _atom_site_label
 _atom_site_symmetry_multiplicity
 _atom_site_fract_x
 _atom_site_fract_y
 _atom_site_fract_z
 _atom_site_occupancy
  Tb  Tb0  1  0.467014  0.498930  0.674013  1
  Tb  Tb1  1  0.033032  0.000725  0.176735  1
  Tb  Tb2  1  0.532635  0.998915  0.325077  1
  Yb  Yb3  1  0.528589  0.500840  0.322745  1
  Yb  Yb4  1  0.972350  0.000067  0.822254  1
  Yb  Yb5  1  0.470352  0.001107  0.676378  1
  Yb  Yb6  1  0.028465  0.499006  0.178590  1
  Pr  Pr7  1  0.962836  0.502730  0.827683  1
  U  U8  1  0.072116  0.752127  0.491195  1
  U  U9  1  0.428335  0.748763  0.992530  1
  U  U10  1  0.928362  0.251432  0.507618  1
  U  U11  1  0.571803  0.245873  0.009434  1
  S  S12  1  0.837394  0.957797  0.588530  1
  S  S13  1  0.665200  0.541785  0.087813  1
  S  S14  1  0.163232  0.457625  0.410824  1
  S  S15  1  0.337007  0.042344  0.911862  1
  S  S16  1  0.169777  0.045126  0.407571  1
  S  S17  1  0.335078  0.455363  0.908131  1
  S  S18  1  0.828192  0.546227  0.588594  1
  S  S19  1  0.668684  0.952778  0.092973  1
  S  S20  1  0.842035  0.759222  0.312285  1
  S  S21  1  0.652979  0.745428  0.810835  1
  S  S22  1  0.161262  0.255336  0.685124  1
  S  S23  1  0.341878  0.241276  0.188230  1
  S  S24  1  0.451679  0.750552  0.496635  1
  S  S25  1  0.050806  0.754984  0.000698  1
  S  S26  1  0.548855  0.250964  0.501905  1
  S  S27  1  0.951224  0.242968  0.005297  1
  S  S28  1  0.189153  0.745739  0.711404  1
  S  S29  1  0.314704  0.758479  0.214264  1
  S  S30  1  0.813157  0.241113  0.286590  1
  S  S31  1  0.681814  0.254382  0.786182  1
