# generated using pymatgen
data_Dy2TiWO8
_symmetry_space_group_name_H-M   'P 1'
_cell_length_a   5.49191600
_cell_length_b   5.09936178
_cell_length_c   5.32198167
_cell_angle_alpha   82.53364781
_cell_angle_beta   90.00000000
_cell_angle_gamma   90.00000000
_symmetry_Int_Tables_number   1
_chemical_formula_structural   Dy2TiWO8
_chemical_formula_sum   'Dy2 Ti1 W1 O8'
_cell_volume   147.77982654
_cell_formula_units_Z   1
loop_
 _symmetry_equiv_pos_site_id
 _symmetry_equiv_pos_as_xyz
  1  'x, y, z'
loop_
 _atom_site_type_symbol
 _atom_site_label
 _atom_site_symmetry_multiplicity
 _atom_site_fract_x
 _atom_site_fract_y
 _atom_site_fract_z
 _atom_site_occupancy
  Dy  Dy0  1  0.271839  0.500000  0.750000  1
  Dy  Dy1  1  0.737207  0.500000  0.250000  1
  Ti  Ti2  1  0.797669  0.000000  0.750000  1
  W  W3  1  0.174112  0.000000  0.250000  1
  O  O4  1  0.072981  0.238453  0.489283  1
  O  O5  1  0.934940  0.220587  0.005393  1
  O  O6  1  0.593493  0.255360  0.608388  1
  O  O7  1  0.408173  0.241712  0.108499  1
  O  O8  1  0.593493  0.744640  0.891612  1
  O  O9  1  0.408173  0.758288  0.391501  1
  O  O10  1  0.072981  0.761547  0.010717  1
  O  O11  1  0.934940  0.779413  0.494607  1
