# generated using pymatgen
data_Yb3Sc(Pt2O7)2
_symmetry_space_group_name_H-M   'P 1'
_cell_length_a   7.17077963
_cell_length_b   7.22612347
_cell_length_c   7.22612200
_cell_angle_alpha   59.99999756
_cell_angle_beta   59.74435916
_cell_angle_gamma   59.74436685
_symmetry_Int_Tables_number   1
_chemical_formula_structural   Yb3Sc(Pt2O7)2
_chemical_formula_sum   'Yb3 Sc1 Pt4 O14'
_cell_volume   263.73823363
_cell_formula_units_Z   1
loop_
 _symmetry_equiv_pos_site_id
 _symmetry_equiv_pos_as_xyz
  1  'x, y, z'
loop_
 _atom_site_type_symbol
 _atom_site_label
 _atom_site_symmetry_multiplicity
 _atom_site_fract_x
 _atom_site_fract_y
 _atom_site_fract_z
 _atom_site_occupancy
  Yb  Yb0  1  0.625000  0.625000  0.125000  1
  Yb  Yb1  1  0.625000  0.625000  0.625000  1
  Yb  Yb2  1  0.625000  0.125000  0.625000  1
  Sc  Sc3  1  0.125000  0.625000  0.625000  1
  Pt  Pt4  1  0.625000  0.125000  0.125000  1
  Pt  Pt5  1  0.125000  0.125000  0.125000  1
  Pt  Pt6  1  0.125000  0.625000  0.125000  1
  Pt  Pt7  1  0.125000  0.125000  0.625000  1
  O  O8  1  0.052431  0.460227  0.460227  1
  O  O9  1  0.789675  0.789062  0.210631  1
  O  O10  1  0.789675  0.210631  0.210631  1
  O  O11  1  0.052431  0.460227  0.027115  1
  O  O12  1  0.460325  0.039369  0.460938  1
  O  O13  1  0.778604  0.740465  0.740465  1
  O  O14  1  0.052431  0.027115  0.460227  1
  O  O15  1  0.789675  0.210631  0.789062  1
  O  O16  1  0.471396  0.509535  0.509535  1
  O  O17  1  0.197569  0.222885  0.789773  1
  O  O18  1  0.197569  0.789773  0.222885  1
  O  O19  1  0.460325  0.039369  0.039369  1
  O  O20  1  0.460325  0.460938  0.039369  1
  O  O21  1  0.197569  0.789773  0.789773  1
