# generated using pymatgen
data_CePrTm2(B6Os)2
_symmetry_space_group_name_H-M   'P 1'
_cell_length_a   3.69278500
_cell_length_b   9.19355093
_cell_length_c   11.60703698
_cell_angle_alpha   90.10603631
_cell_angle_beta   90.00000000
_cell_angle_gamma   90.00000000
_symmetry_Int_Tables_number   1
_chemical_formula_structural   CePrTm2(B6Os)2
_chemical_formula_sum   'Ce2 Pr2 Tm4 B24 Os4'
_cell_volume   394.05599004
_cell_formula_units_Z   2
loop_
 _symmetry_equiv_pos_site_id
 _symmetry_equiv_pos_as_xyz
  1  'x, y, z'
loop_
 _atom_site_type_symbol
 _atom_site_label
 _atom_site_symmetry_multiplicity
 _atom_site_fract_x
 _atom_site_fract_y
 _atom_site_fract_z
 _atom_site_occupancy
  Ce  Ce0  1  0.000000  0.322315  0.414157  1
  Ce  Ce1  1  0.000000  0.677685  0.585843  1
  Pr  Pr2  1  0.000000  0.821851  0.085672  1
  Pr  Pr3  1  0.000000  0.178149  0.914328  1
  Tm  Tm4  1  0.000000  0.944846  0.373945  1
  Tm  Tm5  1  0.000000  0.055154  0.626056  1
  Tm  Tm6  1  0.000000  0.444664  0.126862  1
  Tm  Tm7  1  0.000000  0.555336  0.873137  1
  B  B8  1  0.500000  0.555114  0.431847  1
  B  B9  1  0.500000  0.444886  0.568153  1
  B  B10  1  0.500000  0.057209  0.070876  1
  B  B11  1  0.500000  0.942791  0.929124  1
  B  B12  1  0.500000  0.750137  0.418655  1
  B  B13  1  0.500000  0.249863  0.581345  1
  B  B14  1  0.500000  0.250846  0.083460  1
  B  B15  1  0.500000  0.749154  0.916540  1
  B  B16  1  0.500000  0.790988  0.267388  1
  B  B17  1  0.500000  0.209012  0.732612  1
  B  B18  1  0.500000  0.292626  0.234862  1
  B  B19  1  0.500000  0.707373  0.765138  1
  B  B20  1  0.500000  0.629940  0.185415  1
  B  B21  1  0.500000  0.370060  0.814585  1
  B  B22  1  0.500000  0.132029  0.316280  1
  B  B23  1  0.500000  0.867971  0.683720  1
  B  B24  1  0.500000  0.985688  0.215280  1
  B  B25  1  0.500000  0.014312  0.784720  1
  B  B26  1  0.500000  0.484599  0.286235  1
  B  B27  1  0.500000  0.515401  0.713765  1
  B  B28  1  0.500000  0.601713  0.027793  1
  B  B29  1  0.500000  0.398287  0.972207  1
  B  B30  1  0.500000  0.104954  0.471722  1
  B  B31  1  0.500000  0.895046  0.528278  1
  Os  Os32  1  0.000000  0.638406  0.321992  1
  Os  Os33  1  0.000000  0.361594  0.678008  1
  Os  Os34  1  0.000000  0.141376  0.183621  1
  Os  Os35  1  0.000000  0.858624  0.816379  1
