# generated using pymatgen
data_Ca11Pr8NdSn16
_symmetry_space_group_name_H-M   'P 1'
_cell_length_a   8.00295456
_cell_length_b   8.56831579
_cell_length_c   16.16967021
_cell_angle_alpha   90.01850281
_cell_angle_beta   89.99803627
_cell_angle_gamma   89.92834722
_symmetry_Int_Tables_number   1
_chemical_formula_structural   Ca11Pr8NdSn16
_chemical_formula_sum   'Ca11 Pr8 Nd1 Sn16'
_cell_volume   1108.78314466
_cell_formula_units_Z   1
loop_
 _symmetry_equiv_pos_site_id
 _symmetry_equiv_pos_as_xyz
  1  'x, y, z'
loop_
 _atom_site_type_symbol
 _atom_site_label
 _atom_site_symmetry_multiplicity
 _atom_site_fract_x
 _atom_site_fract_y
 _atom_site_fract_z
 _atom_site_occupancy
  Ca  Ca0  1  0.834427  0.674158  0.623118  1
  Ca  Ca1  1  0.665387  0.174425  0.376436  1
  Ca  Ca2  1  0.164773  0.325863  0.123829  1
  Ca  Ca3  1  0.666313  0.174719  0.123891  1
  Ca  Ca4  1  0.165236  0.325629  0.376443  1
  Ca  Ca5  1  0.334970  0.825766  0.622972  1
  Ca  Ca6  1  0.834561  0.674311  0.877063  1
  Ca  Ca7  1  0.162680  0.500550  0.749267  1
  Ca  Ca8  1  0.663936  0.999615  0.749500  1
  Ca  Ca9  1  0.836359  0.498346  0.250124  1
  Ca  Ca10  1  0.336376  0.001444  0.250169  1
  Pr  Pr11  1  0.494865  0.315613  0.903905  1
  Pr  Pr12  1  0.993605  0.185801  0.595099  1
  Pr  Pr13  1  0.505551  0.685791  0.403686  1
  Pr  Pr14  1  0.005076  0.814446  0.096841  1
  Pr  Pr15  1  0.507008  0.684908  0.097064  1
  Pr  Pr16  1  0.005579  0.814405  0.403797  1
  Pr  Pr17  1  0.494747  0.314706  0.595660  1
  Pr  Pr18  1  0.993484  0.186135  0.904721  1
  Nd  Nd19  1  0.335276  0.823864  0.875432  1
  Sn  Sn20  1  0.328650  0.033797  0.038011  1
  Sn  Sn21  1  0.829007  0.466382  0.462025  1
  Sn  Sn22  1  0.670508  0.966698  0.538182  1
  Sn  Sn23  1  0.171693  0.534208  0.961673  1
  Sn  Sn24  1  0.670526  0.966644  0.961473  1
  Sn  Sn25  1  0.170983  0.533442  0.538233  1
  Sn  Sn26  1  0.329418  0.033433  0.461950  1
  Sn  Sn27  1  0.828435  0.465959  0.038118  1
  Sn  Sn28  1  0.536052  0.601024  0.750548  1
  Sn  Sn29  1  0.036671  0.899089  0.750589  1
  Sn  Sn30  1  0.463903  0.399107  0.249958  1
  Sn  Sn31  1  0.963749  0.100505  0.250064  1
  Sn  Sn32  1  0.290311  0.141814  0.750636  1
  Sn  Sn33  1  0.790656  0.357439  0.749999  1
  Sn  Sn34  1  0.709886  0.857463  0.249765  1
  Sn  Sn35  1  0.209344  0.642500  0.249758  1
