# generated using pymatgen
data_LiPmGe2Au
_symmetry_space_group_name_H-M   'P 1'
_cell_length_a   6.40666770
_cell_length_b   6.40666923
_cell_length_c   6.40666900
_cell_angle_alpha   140.39784663
_cell_angle_beta   140.39784911
_cell_angle_gamma   57.24971559
_symmetry_Int_Tables_number   1
_chemical_formula_structural   LiPmGe2Au
_chemical_formula_sum   'Li1 Pm1 Ge2 Au1'
_cell_volume   105.95294556
_cell_formula_units_Z   1
loop_
 _symmetry_equiv_pos_site_id
 _symmetry_equiv_pos_as_xyz
  1  'x, y, z'
loop_
 _atom_site_type_symbol
 _atom_site_label
 _atom_site_symmetry_multiplicity
 _atom_site_fract_x
 _atom_site_fract_y
 _atom_site_fract_z
 _atom_site_occupancy
  Li  Li0  1  0.750000  0.250000  0.500000  1
  Pm  Pm1  1  0.000000  0.000000  0.000000  1
  Ge  Ge2  1  0.387707  0.387707  0.000000  1
  Ge  Ge3  1  0.612292  0.612292  0.000000  1
  Au  Au4  1  0.250000  0.750000  0.500000  1
