# generated using pymatgen
data_Nd3SmGeSe3
_symmetry_space_group_name_H-M   'P 1'
_cell_length_a   7.37135021
_cell_length_b   7.37135041
_cell_length_c   7.37135017
_cell_angle_alpha   131.96859871
_cell_angle_beta   131.98922244
_cell_angle_gamma   70.26234070
_symmetry_Int_Tables_number   1
_chemical_formula_structural   Nd3SmGeSe3
_chemical_formula_sum   'Nd3 Sm1 Ge1 Se3'
_cell_volume   216.94682715
_cell_formula_units_Z   1
loop_
 _symmetry_equiv_pos_site_id
 _symmetry_equiv_pos_as_xyz
  1  'x, y, z'
loop_
 _atom_site_type_symbol
 _atom_site_label
 _atom_site_symmetry_multiplicity
 _atom_site_fract_x
 _atom_site_fract_y
 _atom_site_fract_z
 _atom_site_occupancy
  Nd  Nd0  1  0.243729  0.243729  0.000000  1
  Nd  Nd1  1  0.756271  0.756271  0.000000  1
  Nd  Nd2  1  0.500001  0.000000  0.500001  1
  Sm  Sm3  1  0.000000  0.500001  0.500001  1
  Ge  Ge4  1  0.000000  0.000000  0.000000  1
  Se  Se5  1  0.500000  0.500000  0.000000  1
  Se  Se6  1  0.751203  0.251203  0.500001  1
  Se  Se7  1  0.248797  0.748797  0.500001  1
