# generated using pymatgen
data_Dy8Y2Si5Bi
_symmetry_space_group_name_H-M   'P 1'
_cell_length_a   8.53343435
_cell_length_b   8.59360792
_cell_length_c   6.37262200
_cell_angle_alpha   90.00000000
_cell_angle_beta   90.00000000
_cell_angle_gamma   119.80158974
_symmetry_Int_Tables_number   1
_chemical_formula_structural   Dy8Y2Si5Bi
_chemical_formula_sum   'Dy8 Y2 Si5 Bi1'
_cell_volume   405.52067485
_cell_formula_units_Z   1
loop_
 _symmetry_equiv_pos_site_id
 _symmetry_equiv_pos_as_xyz
  1  'x, y, z'
loop_
 _atom_site_type_symbol
 _atom_site_label
 _atom_site_symmetry_multiplicity
 _atom_site_fract_x
 _atom_site_fract_y
 _atom_site_fract_z
 _atom_site_occupancy
  Dy  Dy0  1  0.997939  0.243246  0.250000  1
  Dy  Dy1  1  0.754492  0.756843  0.250000  1
  Dy  Dy2  1  0.240818  0.255580  0.750000  1
  Dy  Dy3  1  0.240881  0.000188  0.250000  1
  Dy  Dy4  1  0.676795  0.346321  0.005143  1
  Dy  Dy5  1  0.330447  0.653404  0.494937  1
  Dy  Dy6  1  0.330447  0.653404  0.005063  1
  Dy  Dy7  1  0.676795  0.346321  0.494857  1
  Y  Y8  1  0.985989  0.745060  0.750000  1
  Y  Y9  1  0.767039  0.000158  0.750000  1
  Si  Si10  1  0.392688  0.389718  0.250000  1
  Si  Si11  1  0.002826  0.610118  0.250000  1
  Si  Si12  1  0.998556  0.394052  0.750000  1
  Si  Si13  1  0.604076  0.605628  0.750000  1
  Si  Si14  1  0.606890  0.999916  0.250000  1
  Bi  Bi15  1  0.393319  0.000042  0.750000  1
