# generated using pymatgen
data_Hf7Zr3In2Ga2SnSb3
_symmetry_space_group_name_H-M   'P 1'
_cell_length_a   8.65676300
_cell_length_b   8.65676440
_cell_length_c   5.83120300
_cell_angle_alpha   90.00000000
_cell_angle_beta   90.00000000
_cell_angle_gamma   119.99999847
_symmetry_Int_Tables_number   1
_chemical_formula_structural   Hf7Zr3In2Ga2SnSb3
_chemical_formula_sum   'Hf7 Zr3 In2 Ga2 Sn1 Sb3'
_cell_volume   378.44251925
_cell_formula_units_Z   1
loop_
 _symmetry_equiv_pos_site_id
 _symmetry_equiv_pos_as_xyz
  1  'x, y, z'
loop_
 _atom_site_type_symbol
 _atom_site_label
 _atom_site_symmetry_multiplicity
 _atom_site_fract_x
 _atom_site_fract_y
 _atom_site_fract_z
 _atom_site_occupancy
  Hf  Hf0  1  0.275016  0.276000  0.250000  1
  Hf  Hf1  1  0.724984  0.000984  0.250000  1
  Hf  Hf2  1  0.000000  0.724090  0.250000  1
  Hf  Hf3  1  0.667366  0.333446  0.002655  1
  Hf  Hf4  1  0.332634  0.666081  0.002655  1
  Hf  Hf5  1  0.332634  0.666081  0.497345  1
  Hf  Hf6  1  0.667366  0.333446  0.497345  1
  Zr  Zr7  1  0.739727  0.739021  0.750000  1
  Zr  Zr8  1  0.260273  0.999294  0.750000  1
  Zr  Zr9  1  0.000000  0.261621  0.750000  1
  In  In10  1  0.617300  0.617487  0.250000  1
  In  In11  1  0.382700  0.000187  0.250000  1
  Ga  Ga12  1  0.000000  0.999330  0.018271  1
  Ga  Ga13  1  0.000000  0.999330  0.481729  1
  Sn  Sn14  1  0.000000  0.384052  0.250000  1
  Sb  Sb15  1  0.394189  0.393504  0.750000  1
  Sb  Sb16  1  0.605811  0.999316  0.750000  1
  Sb  Sb17  1  0.000000  0.606728  0.750000  1
