# generated using pymatgen
data_Cs2GaBi2
_symmetry_space_group_name_H-M   'P 1'
_cell_length_a   9.96500000
_cell_length_b   11.72335900
_cell_length_c   16.24723400
_cell_angle_alpha   90.00000000
_cell_angle_beta   90.00000000
_cell_angle_gamma   90.00000000
_symmetry_Int_Tables_number   1
_chemical_formula_structural   Cs2GaBi2
_chemical_formula_sum   'Cs16 Ga8 Bi16'
_cell_volume   1898.05504390
_cell_formula_units_Z   8
loop_
 _symmetry_equiv_pos_site_id
 _symmetry_equiv_pos_as_xyz
  1  'x, y, z'
loop_
 _atom_site_type_symbol
 _atom_site_label
 _atom_site_symmetry_multiplicity
 _atom_site_fract_x
 _atom_site_fract_y
 _atom_site_fract_z
 _atom_site_occupancy
  Cs  Cs0  1  0.227442  0.970032  0.482566  1
  Cs  Cs1  1  0.396064  0.967930  0.729462  1
  Cs  Cs2  1  0.103936  0.532070  0.229462  1
  Cs  Cs3  1  0.896064  0.032070  0.770538  1
  Cs  Cs4  1  0.103936  0.967930  0.229462  1
  Cs  Cs5  1  0.603936  0.032070  0.270538  1
  Cs  Cs6  1  0.896064  0.467930  0.770538  1
  Cs  Cs7  1  0.396064  0.532070  0.729462  1
  Cs  Cs8  1  0.727442  0.029968  0.017434  1
  Cs  Cs9  1  0.772558  0.470032  0.517434  1
  Cs  Cs10  1  0.272558  0.529968  0.982566  1
  Cs  Cs11  1  0.772558  0.029968  0.517434  1
  Cs  Cs12  1  0.727442  0.470032  0.017434  1
  Cs  Cs13  1  0.227442  0.529968  0.482566  1
  Cs  Cs14  1  0.603936  0.467930  0.270538  1
  Cs  Cs15  1  0.272558  0.970032  0.982566  1
  Ga  Ga16  1  0.722909  0.750000  0.680379  1
  Ga  Ga17  1  0.222909  0.250000  0.819621  1
  Ga  Ga18  1  0.777091  0.750000  0.180379  1
  Ga  Ga19  1  0.897847  0.750000  0.905973  1
  Ga  Ga20  1  0.397847  0.250000  0.594027  1
  Ga  Ga21  1  0.102153  0.250000  0.094027  1
  Ga  Ga22  1  0.602153  0.750000  0.405973  1
  Ga  Ga23  1  0.277091  0.250000  0.319621  1
  Bi  Bi24  1  0.115531  0.750000  0.805774  1
  Bi  Bi25  1  0.615531  0.250000  0.694226  1
  Bi  Bi26  1  0.884469  0.250000  0.194226  1
  Bi  Bi27  1  0.384469  0.750000  0.305774  1
  Bi  Bi28  1  0.987154  0.750000  0.635550  1
  Bi  Bi29  1  0.487154  0.250000  0.864450  1
  Bi  Bi30  1  0.012846  0.250000  0.364450  1
  Bi  Bi31  1  0.512846  0.750000  0.135550  1
  Bi  Bi32  1  0.643662  0.750000  0.845712  1
  Bi  Bi33  1  0.143662  0.250000  0.654288  1
  Bi  Bi34  1  0.356338  0.250000  0.154288  1
  Bi  Bi35  1  0.856338  0.750000  0.345712  1
  Bi  Bi36  1  0.982690  0.750000  0.065991  1
  Bi  Bi37  1  0.482690  0.250000  0.434009  1
  Bi  Bi38  1  0.017310  0.250000  0.934009  1
  Bi  Bi39  1  0.517310  0.750000  0.565991  1
