# generated using pymatgen
data_Rb(PtO3)2
_symmetry_space_group_name_H-M   'P 1'
_cell_length_a   7.22763790
_cell_length_b   7.22763813
_cell_length_c   7.22763800
_cell_angle_alpha   60.00000057
_cell_angle_beta   59.99999953
_cell_angle_gamma   60.00000337
_symmetry_Int_Tables_number   1
_chemical_formula_structural   Rb(PtO3)2
_chemical_formula_sum   'Rb2 Pt4 O12'
_cell_volume   266.97721152
_cell_formula_units_Z   2
loop_
 _symmetry_equiv_pos_site_id
 _symmetry_equiv_pos_as_xyz
  1  'x, y, z'
loop_
 _atom_site_type_symbol
 _atom_site_label
 _atom_site_symmetry_multiplicity
 _atom_site_fract_x
 _atom_site_fract_y
 _atom_site_fract_z
 _atom_site_occupancy
  Rb  Rb0  1  0.250000  0.250000  0.250000  1
  Rb  Rb1  1  0.000000  0.000000  0.000000  1
  Pt  Pt2  1  0.125000  0.625000  0.625000  1
  Pt  Pt3  1  0.625000  0.625000  0.125000  1
  Pt  Pt4  1  0.625000  0.125000  0.625000  1
  Pt  Pt5  1  0.625000  0.625000  0.625000  1
  O  O6  1  0.952264  0.547736  0.547736  1
  O  O7  1  0.297736  0.297736  0.702264  1
  O  O8  1  0.702264  0.702264  0.297736  1
  O  O9  1  0.547736  0.952264  0.952264  1
  O  O10  1  0.297736  0.702264  0.702264  1
  O  O11  1  0.952264  0.952264  0.547736  1
  O  O12  1  0.547736  0.952264  0.547736  1
  O  O13  1  0.702264  0.297736  0.702264  1
  O  O14  1  0.297736  0.702264  0.297736  1
  O  O15  1  0.952264  0.547736  0.952264  1
  O  O16  1  0.702264  0.297736  0.297736  1
  O  O17  1  0.547736  0.547736  0.952264  1
