# generated using pymatgen
data_Ho2Tm8CuIrPb6
_symmetry_space_group_name_H-M   'P 1'
_cell_length_a   9.12992900
_cell_length_b   9.12992534
_cell_length_c   6.72677200
_cell_angle_alpha   89.99987314
_cell_angle_beta   89.99992828
_cell_angle_gamma   120.00019172
_symmetry_Int_Tables_number   1
_chemical_formula_structural   Ho2Tm8CuIrPb6
_chemical_formula_sum   'Ho2 Tm8 Cu1 Ir1 Pb6'
_cell_volume   485.59155644
_cell_formula_units_Z   1
loop_
 _symmetry_equiv_pos_site_id
 _symmetry_equiv_pos_as_xyz
  1  'x, y, z'
loop_
 _atom_site_type_symbol
 _atom_site_label
 _atom_site_symmetry_multiplicity
 _atom_site_fract_x
 _atom_site_fract_y
 _atom_site_fract_z
 _atom_site_occupancy
  Ho  Ho0  1  0.666667  0.333333  0.999998  1
  Ho  Ho1  1  0.333333  0.666667  0.000002  1
  Tm  Tm2  1  0.243824  0.999999  0.738160  1
  Tm  Tm3  1  0.756176  0.000001  0.261840  1
  Tm  Tm4  1  0.000000  0.243824  0.738159  1
  Tm  Tm5  1  0.000000  0.756176  0.261841  1
  Tm  Tm6  1  0.756177  0.756177  0.738159  1
  Tm  Tm7  1  0.243823  0.243823  0.261841  1
  Tm  Tm8  1  0.333333  0.666667  0.500000  1
  Tm  Tm9  1  0.666667  0.333333  0.500000  1
  Cu  Cu10  1  0.000000  0.000000  0.000000  1
  Ir  Ir11  1  0.000000  0.000000  0.500000  1
  Pb  Pb12  1  0.602487  0.000001  0.751532  1
  Pb  Pb13  1  0.397513  0.999999  0.248468  1
  Pb  Pb14  1  0.000000  0.602485  0.751531  1
  Pb  Pb15  1  0.000000  0.397515  0.248469  1
  Pb  Pb16  1  0.397514  0.397514  0.751531  1
  Pb  Pb17  1  0.602486  0.602486  0.248469  1
