# generated using pymatgen
data_TbY7(Nb3Si4)4
_symmetry_space_group_name_H-M   'P 1'
_cell_length_a   7.08003501
_cell_length_b   7.08019509
_cell_length_c   13.08630902
_cell_angle_alpha   89.98994805
_cell_angle_beta   90.00383671
_cell_angle_gamma   89.99338078
_symmetry_Int_Tables_number   1
_chemical_formula_structural   TbY7(Nb3Si4)4
_chemical_formula_sum   'Tb1 Y7 Nb12 Si16'
_cell_volume   655.99086391
_cell_formula_units_Z   1
loop_
 _symmetry_equiv_pos_site_id
 _symmetry_equiv_pos_as_xyz
  1  'x, y, z'
loop_
 _atom_site_type_symbol
 _atom_site_label
 _atom_site_symmetry_multiplicity
 _atom_site_fract_x
 _atom_site_fract_y
 _atom_site_fract_z
 _atom_site_occupancy
  Tb  Tb0  1  0.997421  0.658379  0.032527  1
  Y  Y1  1  0.341772  0.002305  0.467446  1
  Y  Y2  1  0.497698  0.841782  0.717431  1
  Y  Y3  1  0.502259  0.158246  0.217455  1
  Y  Y4  1  0.841768  0.497676  0.282583  1
  Y  Y5  1  0.158285  0.502257  0.782488  1
  Y  Y6  1  0.658253  0.997629  0.967456  1
  Y  Y7  1  0.002314  0.341800  0.532540  1
  Nb  Nb8  1  0.327905  0.328012  0.000010  1
  Nb  Nb9  1  0.172027  0.827999  0.250054  1
  Nb  Nb10  1  0.827995  0.171995  0.749958  1
  Nb  Nb11  1  0.672062  0.672049  0.500019  1
  Nb  Nb12  1  0.153644  0.007151  0.874166  1
  Nb  Nb13  1  0.492747  0.653619  0.124332  1
  Nb  Nb14  1  0.507275  0.346408  0.624201  1
  Nb  Nb15  1  0.653576  0.492618  0.875677  1
  Nb  Nb16  1  0.346465  0.507296  0.375811  1
  Nb  Nb17  1  0.846427  0.992772  0.374315  1
  Nb  Nb18  1  0.007325  0.153638  0.125823  1
  Nb  Nb19  1  0.992698  0.846433  0.625690  1
  Si  Si20  1  0.203434  0.132966  0.683199  1
  Si  Si21  1  0.367235  0.703422  0.933166  1
  Si  Si22  1  0.632996  0.296545  0.433186  1
  Si  Si23  1  0.703342  0.366946  0.066790  1
  Si  Si24  1  0.296569  0.633014  0.566817  1
  Si  Si25  1  0.796419  0.867213  0.183356  1
  Si  Si26  1  0.132996  0.203430  0.316809  1
  Si  Si27  1  0.867082  0.796532  0.816726  1
  Si  Si28  1  0.293217  0.953784  0.063678  1
  Si  Si29  1  0.546274  0.793210  0.313665  1
  Si  Si30  1  0.453637  0.206870  0.813629  1
  Si  Si31  1  0.793154  0.546333  0.686346  1
  Si  Si32  1  0.206880  0.453636  0.186438  1
  Si  Si33  1  0.706807  0.046333  0.563693  1
  Si  Si34  1  0.953732  0.292865  0.936228  1
  Si  Si35  1  0.046312  0.706834  0.436297  1
