# generated using pymatgen
data_Cs3RuF7
_symmetry_space_group_name_H-M   'P 1'
_cell_length_a   8.75778100
_cell_length_b   8.75778100
_cell_length_c   6.31806600
_cell_angle_alpha   90.00000000
_cell_angle_beta   90.00000000
_cell_angle_gamma   90.00000000
_symmetry_Int_Tables_number   1
_chemical_formula_structural   Cs3RuF7
_chemical_formula_sum   'Cs6 Ru2 F14'
_cell_volume   484.58762590
_cell_formula_units_Z   2
loop_
 _symmetry_equiv_pos_site_id
 _symmetry_equiv_pos_as_xyz
  1  'x, y, z'
loop_
 _atom_site_type_symbol
 _atom_site_label
 _atom_site_symmetry_multiplicity
 _atom_site_fract_x
 _atom_site_fract_y
 _atom_site_fract_z
 _atom_site_occupancy
  Cs  Cs0  1  0.192002  0.692002  0.500000  1
  Cs  Cs1  1  0.692002  0.807998  0.500000  1
  Cs  Cs2  1  0.307998  0.192002  0.500000  1
  Cs  Cs3  1  0.807998  0.307998  0.500000  1
  Cs  Cs4  1  0.500000  0.500000  0.000000  1
  Cs  Cs5  1  0.000000  0.000000  0.000000  1
  Ru  Ru6  1  0.000000  0.500000  0.000000  1
  Ru  Ru7  1  0.500000  0.000000  0.000000  1
  F  F8  1  0.389255  0.889255  0.781496  1
  F  F9  1  0.610745  0.110745  0.781496  1
  F  F10  1  0.110745  0.389255  0.781496  1
  F  F11  1  0.889255  0.610745  0.781496  1
  F  F12  1  0.389255  0.889255  0.218504  1
  F  F13  1  0.889255  0.610745  0.218504  1
  F  F14  1  0.110745  0.389255  0.218504  1
  F  F15  1  0.610745  0.110745  0.218504  1
  F  F16  1  0.000000  0.000000  0.500000  1
  F  F17  1  0.500000  0.500000  0.500000  1
  F  F18  1  0.840200  0.340200  0.000000  1
  F  F19  1  0.340200  0.159800  0.000000  1
  F  F20  1  0.659800  0.840200  0.000000  1
  F  F21  1  0.159800  0.659800  0.000000  1
