# generated using pymatgen
data_ErTh3(WC2)2
_symmetry_space_group_name_H-M   'P 1'
_cell_length_a   5.33283200
_cell_length_b   6.78662200
_cell_length_c   10.10131500
_cell_angle_alpha   90.00000000
_cell_angle_beta   90.00000000
_cell_angle_gamma   90.00000000
_symmetry_Int_Tables_number   1
_chemical_formula_structural   ErTh3(WC2)2
_chemical_formula_sum   'Er2 Th6 W4 C8'
_cell_volume   365.58593360
_cell_formula_units_Z   2
loop_
 _symmetry_equiv_pos_site_id
 _symmetry_equiv_pos_as_xyz
  1  'x, y, z'
loop_
 _atom_site_type_symbol
 _atom_site_label
 _atom_site_symmetry_multiplicity
 _atom_site_fract_x
 _atom_site_fract_y
 _atom_site_fract_z
 _atom_site_occupancy
  Er  Er0  1  0.250000  0.323426  0.444200  1
  Er  Er1  1  0.750000  0.176574  0.944200  1
  Th  Th2  1  0.250000  0.462495  0.782281  1
  Th  Th3  1  0.750000  0.037505  0.282281  1
  Th  Th4  1  0.250000  0.967708  0.719114  1
  Th  Th5  1  0.750000  0.532292  0.219114  1
  Th  Th6  1  0.250000  0.820287  0.050236  1
  Th  Th7  1  0.750000  0.679713  0.550236  1
  W  W8  1  0.250000  0.277692  0.133819  1
  W  W9  1  0.750000  0.222308  0.633819  1
  W  W10  1  0.250000  0.776804  0.366643  1
  W  W11  1  0.750000  0.723196  0.866643  1
  C  C12  1  0.250000  0.170041  0.945314  1
  C  C13  1  0.750000  0.833583  0.054445  1
  C  C14  1  0.250000  0.666417  0.554445  1
  C  C15  1  0.750000  0.329959  0.445314  1
  C  C16  1  0.250000  0.046384  0.262137  1
  C  C17  1  0.750000  0.453616  0.762137  1
  C  C18  1  0.250000  0.540173  0.241812  1
  C  C19  1  0.750000  0.959827  0.741812  1
