# generated using pymatgen
data_Na11TlV4S8(O4F)8
_symmetry_space_group_name_H-M   'P 1'
_cell_length_a   6.75612100
_cell_length_b   9.01049200
_cell_length_c   14.19045000
_cell_angle_alpha   90.00000000
_cell_angle_beta   90.00000000
_cell_angle_gamma   90.00000000
_symmetry_Int_Tables_number   1
_chemical_formula_structural   Na11TlV4S8(O4F)8
_chemical_formula_sum   'Na11 Tl1 V4 S8 O32 F8'
_cell_volume   863.85746839
_cell_formula_units_Z   1
loop_
 _symmetry_equiv_pos_site_id
 _symmetry_equiv_pos_as_xyz
  1  'x, y, z'
loop_
 _atom_site_type_symbol
 _atom_site_label
 _atom_site_symmetry_multiplicity
 _atom_site_fract_x
 _atom_site_fract_y
 _atom_site_fract_z
 _atom_site_occupancy
  Na  Na0  1  0.024023  0.831930  0.591379  1
  Na  Na1  1  0.479087  0.161565  0.595689  1
  Na  Na2  1  0.986424  0.338588  0.903780  1
  Na  Na3  1  0.481589  0.331979  0.094229  1
  Na  Na4  1  0.981626  0.168298  0.405620  1
  Na  Na5  1  0.518739  0.832512  0.402873  1
  Na  Na6  1  0.001506  0.671199  0.107887  1
  Na  Na7  1  0.748641  0.000758  0.050733  1
  Na  Na8  1  0.251069  0.500279  0.450043  1
  Na  Na9  1  0.247593  0.010324  0.956495  1
  Na  Na10  1  0.747101  0.496182  0.549214  1
  Tl  Tl11  1  0.529605  0.661269  0.909217  1
  V  V12  1  0.752189  0.000106  0.802665  1
  V  V13  1  0.247202  0.497308  0.691644  1
  V  V14  1  0.250743  0.001671  0.201402  1
  V  V15  1  0.753589  0.499203  0.304139  1
  S  S16  1  0.015745  0.700116  0.856970  1
  S  S17  1  0.505772  0.806082  0.639352  1
  S  S18  1  0.994074  0.189504  0.641148  1
  S  S19  1  0.497173  0.298292  0.848262  1
  S  S20  1  0.996097  0.303888  0.143173  1
  S  S21  1  0.499102  0.196243  0.359017  1
  S  S22  1  0.001535  0.806203  0.358427  1
  S  S23  1  0.491028  0.693980  0.150814  1
  O  O24  1  0.450534  0.433129  0.787973  1
  O  O25  1  0.947370  0.049095  0.697405  1
  O  O26  1  0.554312  0.938554  0.701325  1
  O  O27  1  0.068027  0.564135  0.798242  1
  O  O28  1  0.552634  0.555461  0.204300  1
  O  O29  1  0.053587  0.945813  0.303254  1
  O  O30  1  0.447229  0.057480  0.302936  1
  O  O31  1  0.946249  0.444353  0.198334  1
  O  O32  1  0.184330  0.799156  0.870958  1
  O  O33  1  0.688326  0.733694  0.607564  1
  O  O34  1  0.810776  0.258269  0.607261  1
  O  O35  1  0.313050  0.232171  0.882667  1
  O  O36  1  0.812395  0.235237  0.109346  1
  O  O37  1  0.316852  0.268981  0.390414  1
  O  O38  1  0.182250  0.734428  0.392735  1
  O  O39  1  0.665989  0.758963  0.104652  1
  O  O40  1  0.938736  0.639469  0.946185  1
  O  O41  1  0.386844  0.864298  0.560030  1
  O  O42  1  0.123018  0.142014  0.562756  1
  O  O43  1  0.625304  0.346165  0.927154  1
  O  O44  1  0.127061  0.346960  0.064815  1
  O  O45  1  0.624187  0.146962  0.438049  1
  O  O46  1  0.871620  0.854028  0.436002  1
  O  O47  1  0.339891  0.645865  0.082856  1
  O  O48  1  0.381877  0.703911  0.697944  1
  O  O49  1  0.856911  0.780372  0.802941  1
  O  O50  1  0.610139  0.198582  0.783396  1
  O  O51  1  0.103254  0.291861  0.706338  1
  O  O52  1  0.615978  0.293148  0.293362  1
  O  O53  1  0.104296  0.204826  0.210854  1
  O  O54  1  0.403091  0.800301  0.220326  1
  O  O55  1  0.890813  0.707438  0.291027  1
  F  F56  1  0.578631  0.956396  0.908921  1
  F  F57  1  0.070817  0.569950  0.593494  1
  F  F58  1  0.416251  0.423458  0.590868  1
  F  F59  1  0.929302  0.077350  0.899496  1
  F  F60  1  0.422254  0.072922  0.100508  1
  F  F61  1  0.928192  0.427754  0.403051  1
  F  F62  1  0.580835  0.571157  0.404291  1
  F  F63  1  0.075536  0.928414  0.101797  1
