# generated using pymatgen
data_PrNd3AgIr
_symmetry_space_group_name_H-M   'P 1'
_cell_length_a   9.89519814
_cell_length_b   9.89641326
_cell_length_c   9.89641407
_cell_angle_alpha   59.99187900
_cell_angle_beta   60.00406488
_cell_angle_gamma   60.00406874
_symmetry_Int_Tables_number   1
_chemical_formula_structural   PrNd3AgIr
_chemical_formula_sum   'Pr4 Nd12 Ag4 Ir4'
_cell_volume   685.27550090
_cell_formula_units_Z   4
loop_
 _symmetry_equiv_pos_site_id
 _symmetry_equiv_pos_as_xyz
  1  'x, y, z'
loop_
 _atom_site_type_symbol
 _atom_site_label
 _atom_site_symmetry_multiplicity
 _atom_site_fract_x
 _atom_site_fract_y
 _atom_site_fract_z
 _atom_site_occupancy
  Pr  Pr0  1  0.561846  0.938154  0.561846  1
  Pr  Pr1  1  0.938154  0.561846  0.938154  1
  Pr  Pr2  1  0.561846  0.561846  0.938154  1
  Pr  Pr3  1  0.938154  0.938154  0.561846  1
  Nd  Nd4  1  0.350402  0.350500  0.350500  1
  Nd  Nd5  1  0.350500  0.350402  0.948596  1
  Nd  Nd6  1  0.350500  0.948596  0.350402  1
  Nd  Nd7  1  0.948596  0.350500  0.350500  1
  Nd  Nd8  1  0.810372  0.189628  0.189628  1
  Nd  Nd9  1  0.189628  0.810372  0.810372  1
  Nd  Nd10  1  0.189636  0.810364  0.189636  1
  Nd  Nd11  1  0.810364  0.189636  0.810364  1
  Nd  Nd12  1  0.189636  0.189636  0.810364  1
  Nd  Nd13  1  0.810364  0.810364  0.189636  1
  Nd  Nd14  1  0.938300  0.561700  0.561700  1
  Nd  Nd15  1  0.561700  0.938300  0.938300  1
  Ag  Ag16  1  0.581030  0.580916  0.580916  1
  Ag  Ag17  1  0.580916  0.581030  0.257137  1
  Ag  Ag18  1  0.580916  0.257137  0.581030  1
  Ag  Ag19  1  0.257137  0.580916  0.580916  1
  Ir  Ir20  1  0.142120  0.141933  0.141933  1
  Ir  Ir21  1  0.141933  0.142120  0.574014  1
  Ir  Ir22  1  0.141933  0.574014  0.142120  1
  Ir  Ir23  1  0.574014  0.141933  0.141933  1
