# generated using pymatgen
data_Zn2Ni3AuO8
_symmetry_space_group_name_H-M   'P 1'
_cell_length_a   5.96794080
_cell_length_b   6.11647405
_cell_length_c   5.96794000
_cell_angle_alpha   60.80010674
_cell_angle_beta   59.99999337
_cell_angle_gamma   60.80010888
_symmetry_Int_Tables_number   1
_chemical_formula_structural   Zn2Ni3AuO8
_chemical_formula_sum   'Zn2 Ni3 Au1 O8'
_cell_volume   155.87725235
_cell_formula_units_Z   1
loop_
 _symmetry_equiv_pos_site_id
 _symmetry_equiv_pos_as_xyz
  1  'x, y, z'
loop_
 _atom_site_type_symbol
 _atom_site_label
 _atom_site_symmetry_multiplicity
 _atom_site_fract_x
 _atom_site_fract_y
 _atom_site_fract_z
 _atom_site_occupancy
  Zn  Zn0  1  0.487435  0.537694  0.487435  1
  Zn  Zn1  1  0.762565  0.712306  0.762565  1
  Ni  Ni2  1  0.125000  0.125000  0.125000  1
  Ni  Ni3  1  0.625000  0.125000  0.125000  1
  Ni  Ni4  1  0.125000  0.125000  0.625000  1
  Au  Au5  1  0.125000  0.625000  0.125000  1
  O  O6  1  0.886597  0.875940  0.886597  1
  O  O7  1  0.899135  0.374060  0.363403  1
  O  O8  1  0.358874  0.923378  0.358874  1
  O  O9  1  0.363403  0.374060  0.899135  1
  O  O10  1  0.891126  0.326622  0.891126  1
  O  O11  1  0.886597  0.875940  0.350865  1
  O  O12  1  0.350865  0.875940  0.886597  1
  O  O13  1  0.363403  0.374060  0.363403  1
