# generated using pymatgen
data_Pr8Y2Si5Hg
_symmetry_space_group_name_H-M   'P 1'
_cell_length_a   7.72650368
_cell_length_b   7.72650433
_cell_length_c   9.18686119
_cell_angle_alpha   114.86736473
_cell_angle_beta   114.86736718
_cell_angle_gamma   90.00000552
_symmetry_Int_Tables_number   1
_chemical_formula_structural   Pr8Y2Si5Hg
_chemical_formula_sum   'Pr8 Y2 Si5 Hg1'
_cell_volume   440.91967191
_cell_formula_units_Z   1
loop_
 _symmetry_equiv_pos_site_id
 _symmetry_equiv_pos_as_xyz
  1  'x, y, z'
loop_
 _atom_site_type_symbol
 _atom_site_label
 _atom_site_symmetry_multiplicity
 _atom_site_fract_x
 _atom_site_fract_y
 _atom_site_fract_z
 _atom_site_occupancy
  Pr  Pr0  1  0.974943  0.828967  0.284132  1
  Pr  Pr1  1  0.309188  0.455164  0.284132  1
  Pr  Pr2  1  0.828967  0.309188  0.284132  1
  Pr  Pr3  1  0.455164  0.974943  0.284132  1
  Pr  Pr4  1  0.044836  0.190812  0.715868  1
  Pr  Pr5  1  0.671033  0.525057  0.715868  1
  Pr  Pr6  1  0.190812  0.671033  0.715868  1
  Pr  Pr7  1  0.525057  0.044836  0.715868  1
  Y  Y8  1  0.516668  0.516668  0.033335  1
  Y  Y9  1  0.983332  0.983332  0.966665  1
  Si  Si10  1  0.250000  0.250000  0.500000  1
  Si  Si11  1  0.617195  0.882805  0.000000  1
  Si  Si12  1  0.382805  0.117195  0.000000  1
  Si  Si13  1  0.882805  0.382805  0.000000  1
  Si  Si14  1  0.117195  0.617195  0.000000  1
  Hg  Hg15  1  0.750000  0.750000  0.500000  1
