# generated using pymatgen
data_Tm4Al13Si5(OsRh)3
_symmetry_space_group_name_H-M   'P 1'
_cell_length_a   7.48506668
_cell_length_b   7.43691276
_cell_length_c   9.27441554
_cell_angle_alpha   90.03396298
_cell_angle_beta   89.93551048
_cell_angle_gamma   119.55911288
_symmetry_Int_Tables_number   1
_chemical_formula_structural   Tm4Al13Si5(OsRh)3
_chemical_formula_sum   'Tm4 Al13 Si5 Os3 Rh3'
_cell_volume   449.07367933
_cell_formula_units_Z   1
loop_
 _symmetry_equiv_pos_site_id
 _symmetry_equiv_pos_as_xyz
  1  'x, y, z'
loop_
 _atom_site_type_symbol
 _atom_site_label
 _atom_site_symmetry_multiplicity
 _atom_site_fract_x
 _atom_site_fract_y
 _atom_site_fract_z
 _atom_site_occupancy
  Tm  Tm0  1  0.993949  0.672569  0.246631  1
  Tm  Tm1  1  0.005737  0.334669  0.755582  1
  Tm  Tm2  1  0.684674  0.001912  0.246687  1
  Tm  Tm3  1  0.308420  0.990646  0.750798  1
  Al  Al4  1  0.341052  0.004230  0.419451  1
  Al  Al5  1  0.003531  0.332608  0.424761  1
  Al  Al6  1  0.664701  0.001410  0.576278  1
  Al  Al7  1  0.659823  0.996272  0.921553  1
  Al  Al8  1  0.343281  0.004815  0.080088  1
  Al  Al9  1  0.333388  0.331901  0.559692  1
  Al  Al10  1  0.661264  0.666573  0.440827  1
  Al  Al11  1  0.662682  0.665009  0.057921  1
  Al  Al12  1  0.339739  0.331892  0.942764  1
  Al  Al13  1  0.335219  0.553886  0.249333  1
  Al  Al14  1  0.665761  0.450992  0.750133  1
  Al  Al15  1  0.551933  0.341887  0.249532  1
  Al  Al16  1  0.451305  0.660268  0.749508  1
  Si  Si17  1  0.132145  0.125547  0.251136  1
  Si  Si18  1  0.864270  0.874026  0.750396  1
  Si  Si19  1  0.002879  0.330101  0.077741  1
  Si  Si20  1  0.993888  0.667330  0.929207  1
  Si  Si21  1  0.997338  0.664222  0.568768  1
  Os  Os22  1  0.690324  0.336329  0.001236  1
  Os  Os23  1  0.001606  0.999240  0.000100  1
  Os  Os24  1  0.000484  0.991613  0.501377  1
  Rh  Rh25  1  0.310565  0.662175  0.996471  1
  Rh  Rh26  1  0.318965  0.671095  0.502386  1
  Rh  Rh27  1  0.681077  0.336785  0.499646  1
