# generated using pymatgen
data_NaNb6FeS12
_symmetry_space_group_name_H-M   'P 1'
_cell_length_a   5.80386900
_cell_length_b   5.80386875
_cell_length_c   13.16791600
_cell_angle_alpha   90.00000000
_cell_angle_beta   90.00000000
_cell_angle_gamma   119.99999570
_symmetry_Int_Tables_number   1
_chemical_formula_structural   NaNb6FeS12
_chemical_formula_sum   'Na1 Nb6 Fe1 S12'
_cell_volume   384.13411829
_cell_formula_units_Z   1
loop_
 _symmetry_equiv_pos_site_id
 _symmetry_equiv_pos_as_xyz
  1  'x, y, z'
loop_
 _atom_site_type_symbol
 _atom_site_label
 _atom_site_symmetry_multiplicity
 _atom_site_fract_x
 _atom_site_fract_y
 _atom_site_fract_z
 _atom_site_occupancy
  Na  Na0  1  0.333333  0.666667  0.250000  1
  Nb  Nb1  1  0.000000  0.000000  0.533479  1
  Nb  Nb2  1  0.000000  0.000000  0.966521  1
  Nb  Nb3  1  0.333333  0.666667  0.966106  1
  Nb  Nb4  1  0.666667  0.333333  0.970704  1
  Nb  Nb5  1  0.666667  0.333333  0.529296  1
  Nb  Nb6  1  0.333333  0.666667  0.533894  1
  Fe  Fe7  1  0.666667  0.333333  0.750000  1
  S  S8  1  0.330640  0.331691  0.411867  1
  S  S9  1  0.668309  0.998948  0.411867  1
  S  S10  1  0.001052  0.669360  0.411867  1
  S  S11  1  0.337859  0.333212  0.650522  1
  S  S12  1  0.995354  0.662141  0.650522  1
  S  S13  1  0.666788  0.004646  0.650522  1
  S  S14  1  0.666788  0.662141  0.849478  1
  S  S15  1  0.337859  0.004646  0.849478  1
  S  S16  1  0.995354  0.333212  0.849478  1
  S  S17  1  0.668309  0.669360  0.088133  1
  S  S18  1  0.001052  0.331691  0.088133  1
  S  S19  1  0.330640  0.998948  0.088133  1
