# generated using pymatgen
data_NaHo9(Bi3C)2
_symmetry_space_group_name_H-M   'P 1'
_cell_length_a   6.47930900
_cell_length_b   9.09650846
_cell_length_c   9.09553901
_cell_angle_alpha   120.00606440
_cell_angle_beta   89.99817576
_cell_angle_gamma   90.00177242
_symmetry_Int_Tables_number   1
_chemical_formula_structural   NaHo9(Bi3C)2
_chemical_formula_sum   'Na1 Ho9 Bi6 C2'
_cell_volume   464.23293613
_cell_formula_units_Z   1
loop_
 _symmetry_equiv_pos_site_id
 _symmetry_equiv_pos_as_xyz
  1  'x, y, z'
loop_
 _atom_site_type_symbol
 _atom_site_label
 _atom_site_symmetry_multiplicity
 _atom_site_fract_x
 _atom_site_fract_y
 _atom_site_fract_z
 _atom_site_occupancy
  Na  Na0  1  0.500002  0.333323  0.666646  1
  Ho  Ho1  1  0.500003  0.666660  0.333329  1
  Ho  Ho2  1  0.999992  0.666655  0.333320  1
  Ho  Ho3  1  0.000009  0.333334  0.666665  1
  Ho  Ho4  1  0.750267  0.208030  0.000297  1
  Ho  Ho5  1  0.750280  0.792213  0.791907  1
  Ho  Ho6  1  0.750287  0.999708  0.207801  1
  Ho  Ho7  1  0.249729  0.792274  0.000302  1
  Ho  Ho8  1  0.249722  0.208082  0.207785  1
  Ho  Ho9  1  0.249719  0.999703  0.791910  1
  Bi  Bi10  1  0.750104  0.598731  0.000317  1
  Bi  Bi11  1  0.750094  0.401587  0.401304  1
  Bi  Bi12  1  0.750084  0.999676  0.598403  1
  Bi  Bi13  1  0.249901  0.401577  0.000308  1
  Bi  Bi14  1  0.249906  0.598728  0.598403  1
  Bi  Bi15  1  0.249903  0.999719  0.401300  1
  C  C16  1  0.500004  0.999995  0.000000  1
  C  C17  1  0.999996  0.000005  0.000002  1
