# generated using pymatgen
data_NaThTlF6
_symmetry_space_group_name_H-M   'P 1'
_cell_length_a   6.38477700
_cell_length_b   6.38477718
_cell_length_c   7.98125500
_cell_angle_alpha   90.00000000
_cell_angle_beta   90.00000000
_cell_angle_gamma   120.00000424
_symmetry_Int_Tables_number   1
_chemical_formula_structural   NaThTlF6
_chemical_formula_sum   'Na2 Th2 Tl2 F12'
_cell_volume   281.76904420
_cell_formula_units_Z   2
loop_
 _symmetry_equiv_pos_site_id
 _symmetry_equiv_pos_as_xyz
  1  'x, y, z'
loop_
 _atom_site_type_symbol
 _atom_site_label
 _atom_site_symmetry_multiplicity
 _atom_site_fract_x
 _atom_site_fract_y
 _atom_site_fract_z
 _atom_site_occupancy
  Na  Na0  1  0.000000  0.000000  0.229169  1
  Na  Na1  1  0.000000  0.000000  0.770831  1
  Th  Th2  1  0.333333  0.666667  0.117490  1
  Th  Th3  1  0.666667  0.333333  0.882510  1
  Tl  Tl4  1  0.666667  0.333333  0.394146  1
  Tl  Tl5  1  0.333333  0.666667  0.605854  1
  F  F6  1  0.267557  0.889219  0.314723  1
  F  F7  1  0.924639  0.613994  0.093480  1
  F  F8  1  0.386006  0.310644  0.093480  1
  F  F9  1  0.613994  0.689356  0.906520  1
  F  F10  1  0.889219  0.621662  0.685277  1
  F  F11  1  0.732443  0.110781  0.685277  1
  F  F12  1  0.310644  0.924639  0.906520  1
  F  F13  1  0.075361  0.386006  0.906520  1
  F  F14  1  0.110781  0.378338  0.314723  1
  F  F15  1  0.689356  0.075361  0.093480  1
  F  F16  1  0.621662  0.732443  0.314723  1
  F  F17  1  0.378338  0.267557  0.685277  1
