# generated using pymatgen
data_Dy15Th(CoAg)4
_symmetry_space_group_name_H-M   'P 1'
_cell_length_a   9.37721303
_cell_length_b   9.43642670
_cell_length_c   9.37721400
_cell_angle_alpha   60.20736308
_cell_angle_beta   60.00000364
_cell_angle_gamma   60.20736390
_symmetry_Int_Tables_number   1
_chemical_formula_structural   Dy15Th(CoAg)4
_chemical_formula_sum   'Dy15 Th1 Co4 Ag4'
_cell_volume   588.56484217
_cell_formula_units_Z   1
loop_
 _symmetry_equiv_pos_site_id
 _symmetry_equiv_pos_as_xyz
  1  'x, y, z'
loop_
 _atom_site_type_symbol
 _atom_site_label
 _atom_site_symmetry_multiplicity
 _atom_site_fract_x
 _atom_site_fract_y
 _atom_site_fract_z
 _atom_site_occupancy
  Dy  Dy0  1  0.687363  0.313477  0.687363  1
  Dy  Dy1  1  0.687363  0.313477  0.311798  1
  Dy  Dy2  1  0.936343  0.562219  0.565094  1
  Dy  Dy3  1  0.551853  0.149157  0.149495  1
  Dy  Dy4  1  0.149495  0.149157  0.551853  1
  Dy  Dy5  1  0.936873  0.937081  0.563023  1
  Dy  Dy6  1  0.312247  0.689724  0.312247  1
  Dy  Dy7  1  0.563023  0.937081  0.936873  1
  Dy  Dy8  1  0.563023  0.937081  0.563023  1
  Dy  Dy9  1  0.685782  0.689724  0.312247  1
  Dy  Dy10  1  0.565094  0.562219  0.936343  1
  Dy  Dy11  1  0.936343  0.562219  0.936343  1
  Dy  Dy12  1  0.312247  0.689724  0.685782  1
  Dy  Dy13  1  0.149495  0.149157  0.149495  1
  Dy  Dy14  1  0.311798  0.313477  0.687363  1
  Th  Th15  1  0.155333  0.534000  0.155333  1
  Co  Co16  1  0.355041  0.361845  0.928075  1
  Co  Co17  1  0.358381  0.924859  0.358381  1
  Co  Co18  1  0.928075  0.361845  0.355041  1
  Co  Co19  1  0.355041  0.361845  0.355041  1
  Ag  Ag20  1  0.918222  0.245336  0.918222  1
  Ag  Ag21  1  0.917054  0.918432  0.917054  1
  Ag  Ag22  1  0.917054  0.918432  0.247462  1
  Ag  Ag23  1  0.247462  0.918432  0.917054  1
