# generated using pymatgen
data_Li4Ni9MoAs5P2
_symmetry_space_group_name_H-M   'P 1'
_cell_length_a   9.34548734
_cell_length_b   9.35934533
_cell_length_c   3.69808600
_cell_angle_alpha   90.00000000
_cell_angle_beta   90.00000000
_cell_angle_gamma   120.56118051
_symmetry_Int_Tables_number   1
_chemical_formula_structural   Li4Ni9MoAs5P2
_chemical_formula_sum   'Li4 Ni9 Mo1 As5 P2'
_cell_volume   278.52957878
_cell_formula_units_Z   1
loop_
 _symmetry_equiv_pos_site_id
 _symmetry_equiv_pos_as_xyz
  1  'x, y, z'
loop_
 _atom_site_type_symbol
 _atom_site_label
 _atom_site_symmetry_multiplicity
 _atom_site_fract_x
 _atom_site_fract_y
 _atom_site_fract_z
 _atom_site_occupancy
  Li  Li0  1  0.440052  0.210870  0.500000  1
  Li  Li1  1  0.789160  0.232262  0.500000  1
  Li  Li2  1  0.352610  0.666236  0.000000  1
  Li  Li3  1  0.992591  0.982927  0.500000  1
  Ni  Ni4  1  0.288990  0.390920  0.500000  1
  Ni  Ni5  1  0.617841  0.887114  0.500000  1
  Ni  Ni6  1  0.090179  0.727260  0.500000  1
  Ni  Ni7  1  0.501416  0.460436  0.000000  1
  Ni  Ni8  1  0.544986  0.042933  0.000000  1
  Ni  Ni9  1  0.956902  0.508819  0.000000  1
  Ni  Ni10  1  0.725625  0.760512  0.000000  1
  Ni  Ni11  1  0.224931  0.951743  0.000000  1
  Ni  Ni12  1  0.045345  0.288949  0.000000  1
  Mo  Mo13  1  0.759745  0.555196  0.500000  1
  As  As14  1  0.238427  0.207940  0.000000  1
  As  As15  1  0.794576  0.036019  0.000000  1
  As  As16  1  0.666755  0.332857  0.000000  1
  As  As17  1  0.372658  0.908933  0.500000  1
  As  As18  1  0.092356  0.472853  0.500000  1
  P  P19  1  0.959735  0.752460  0.000000  1
  P  P20  1  0.545121  0.622762  0.500000  1
