# generated using pymatgen
data_Ta4Be2B4(IrRu)5
_symmetry_space_group_name_H-M   'P 1'
_cell_length_a   9.28702878
_cell_length_b   9.19029981
_cell_length_c   2.94702100
_cell_angle_alpha   90.00000000
_cell_angle_beta   90.00000000
_cell_angle_gamma   89.91082895
_symmetry_Int_Tables_number   1
_chemical_formula_structural   Ta4Be2B4(IrRu)5
_chemical_formula_sum   'Ta4 Be2 B4 Ir5 Ru5'
_cell_volume   251.52964367
_cell_formula_units_Z   1
loop_
 _symmetry_equiv_pos_site_id
 _symmetry_equiv_pos_as_xyz
  1  'x, y, z'
loop_
 _atom_site_type_symbol
 _atom_site_label
 _atom_site_symmetry_multiplicity
 _atom_site_fract_x
 _atom_site_fract_y
 _atom_site_fract_z
 _atom_site_occupancy
  Ta  Ta0  1  0.821311  0.675267  0.000000  1
  Ta  Ta1  1  0.175527  0.319571  0.000000  1
  Ta  Ta2  1  0.322527  0.828296  0.000000  1
  Ta  Ta3  1  0.678183  0.175910  0.000000  1
  Be  Be4  1  0.503796  0.499170  0.000000  1
  Be  Be5  1  0.999631  0.001004  0.000000  1
  B  B6  1  0.630096  0.877146  0.000000  1
  B  B7  1  0.369907  0.123121  0.000000  1
  B  B8  1  0.125491  0.625389  0.000000  1
  B  B9  1  0.870084  0.375534  0.000000  1
  Ir  Ir10  1  0.565225  0.709354  0.500000  1
  Ir  Ir11  1  0.433002  0.291600  0.500000  1
  Ir  Ir12  1  0.067140  0.791118  0.500000  1
  Ir  Ir13  1  0.933280  0.208713  0.500000  1
  Ir  Ir14  1  0.292307  0.567007  0.500000  1
  Ru  Ru15  1  0.710594  0.432602  0.500000  1
  Ru  Ru16  1  0.209431  0.067067  0.500000  1
  Ru  Ru17  1  0.790386  0.931299  0.500000  1
  Ru  Ru18  1  0.500632  0.001471  0.500000  1
  Ru  Ru19  1  0.001450  0.499362  0.500000  1
