# generated using pymatgen
data_La10CoRuI15
_symmetry_space_group_name_H-M   'P 1'
_cell_length_a   10.01844246
_cell_length_b   11.14339170
_cell_length_c   12.00602753
_cell_angle_alpha   92.52434414
_cell_angle_beta   113.44301543
_cell_angle_gamma   109.75315395
_symmetry_Int_Tables_number   1
_chemical_formula_structural   La10CoRuI15
_chemical_formula_sum   'La10 Co1 Ru1 I15'
_cell_volume   1132.34997489
_cell_formula_units_Z   1
loop_
 _symmetry_equiv_pos_site_id
 _symmetry_equiv_pos_as_xyz
  1  'x, y, z'
loop_
 _atom_site_type_symbol
 _atom_site_label
 _atom_site_symmetry_multiplicity
 _atom_site_fract_x
 _atom_site_fract_y
 _atom_site_fract_z
 _atom_site_occupancy
  La  La0  1  0.223293  0.580697  0.052598  1
  La  La1  1  0.785780  0.412246  0.942789  1
  La  La2  1  0.299992  0.906761  0.275212  1
  La  La3  1  0.696407  0.094634  0.725607  1
  La  La4  1  0.091010  0.544741  0.332381  1
  La  La5  1  0.910039  0.456037  0.669704  1
  La  La6  1  0.838282  0.746242  0.173366  1
  La  La7  1  0.156001  0.256035  0.828867  1
  La  La8  1  0.975231  0.795999  0.902187  1
  La  La9  1  0.025181  0.206701  0.097505  1
  Co  Co10  1  0.966986  0.320812  0.876957  1
  Ru  Ru11  1  0.031898  0.674653  0.120125  1
  I  I12  1  0.342671  0.442155  0.299093  1
  I  I13  1  0.657724  0.558203  0.701095  1
  I  I14  1  0.215355  0.736889  0.817860  1
  I  I15  1  0.784589  0.262757  0.182965  1
  I  I16  1  0.142687  0.384190  0.583239  1
  I  I17  1  0.856400  0.615385  0.417704  1
  I  I18  1  0.389538  0.801899  0.531304  1
  I  I19  1  0.613550  0.199608  0.470303  1
  I  I20  1  0.268483  0.088993  0.054253  1
  I  I21  1  0.731280  0.912845  0.945348  1
  I  I22  1  0.564841  0.842305  0.225978  1
  I  I23  1  0.432151  0.158200  0.773970  1
  I  I24  1  0.088042  0.039031  0.335966  1
  I  I25  1  0.911275  0.963513  0.664828  1
  I  I26  1  0.501316  0.498465  0.998795  1
