# generated using pymatgen
data_Y7Zr(Si3Pt)4
_symmetry_space_group_name_H-M   'P 1'
_cell_length_a   8.12689000
_cell_length_b   8.12689070
_cell_length_c   8.09734500
_cell_angle_alpha   90.00000000
_cell_angle_beta   90.00000000
_cell_angle_gamma   119.99999716
_symmetry_Int_Tables_number   1
_chemical_formula_structural   Y7Zr(Si3Pt)4
_chemical_formula_sum   'Y7 Zr1 Si12 Pt4'
_cell_volume   463.15044736
_cell_formula_units_Z   1
loop_
 _symmetry_equiv_pos_site_id
 _symmetry_equiv_pos_as_xyz
  1  'x, y, z'
loop_
 _atom_site_type_symbol
 _atom_site_label
 _atom_site_symmetry_multiplicity
 _atom_site_fract_x
 _atom_site_fract_y
 _atom_site_fract_z
 _atom_site_occupancy
  Y  Y0  1  0.000000  0.000000  0.750000  1
  Y  Y1  1  0.000801  0.500400  0.250000  1
  Y  Y2  1  0.499600  0.500400  0.250000  1
  Y  Y3  1  0.500349  0.000699  0.750000  1
  Y  Y4  1  0.499600  0.999199  0.250000  1
  Y  Y5  1  0.500349  0.499651  0.750000  1
  Y  Y6  1  0.999301  0.499651  0.750000  1
  Zr  Zr7  1  0.000000  0.000000  0.250000  1
  Si  Si8  1  0.164906  0.329810  0.002961  1
  Si  Si9  1  0.670190  0.835094  0.002961  1
  Si  Si10  1  0.164906  0.329810  0.497039  1
  Si  Si11  1  0.329685  0.164843  0.004408  1
  Si  Si12  1  0.164906  0.835094  0.002961  1
  Si  Si13  1  0.670190  0.835094  0.497039  1
  Si  Si14  1  0.835157  0.670315  0.004408  1
  Si  Si15  1  0.329685  0.164843  0.495592  1
  Si  Si16  1  0.164906  0.835094  0.497039  1
  Si  Si17  1  0.835157  0.670315  0.495592  1
  Si  Si18  1  0.835157  0.164843  0.004408  1
  Si  Si19  1  0.835157  0.164843  0.495592  1
  Pt  Pt20  1  0.333333  0.666667  0.999635  1
  Pt  Pt21  1  0.333333  0.666667  0.500365  1
  Pt  Pt22  1  0.666667  0.333333  0.001486  1
  Pt  Pt23  1  0.666667  0.333333  0.498514  1
