# generated using pymatgen
data_Tb10Dy2InCo4Rh
_symmetry_space_group_name_H-M   'P 1'
_cell_length_a   8.33658107
_cell_length_b   8.33997199
_cell_length_c   8.33997192
_cell_angle_alpha   110.88736711
_cell_angle_beta   110.57371100
_cell_angle_gamma   106.99676258
_symmetry_Int_Tables_number   1
_chemical_formula_structural   Tb10Dy2InCo4Rh
_chemical_formula_sum   'Tb10 Dy2 In1 Co4 Rh1'
_cell_volume   445.65542215
_cell_formula_units_Z   1
loop_
 _symmetry_equiv_pos_site_id
 _symmetry_equiv_pos_as_xyz
  1  'x, y, z'
loop_
 _atom_site_type_symbol
 _atom_site_label
 _atom_site_symmetry_multiplicity
 _atom_site_fract_x
 _atom_site_fract_y
 _atom_site_fract_z
 _atom_site_occupancy
  Tb  Tb0  1  0.017480  0.211619  0.805859  1
  Tb  Tb1  1  0.982520  0.788381  0.194141  1
  Tb  Tb2  1  0.186193  0.292714  0.478494  1
  Tb  Tb3  1  0.813807  0.707286  0.521506  1
  Tb  Tb4  1  0.186193  0.707699  0.893479  1
  Tb  Tb5  1  0.813807  0.292301  0.106521  1
  Tb  Tb6  1  0.315124  0.619804  0.305431  1
  Tb  Tb7  1  0.684876  0.380196  0.694569  1
  Tb  Tb8  1  0.315124  0.009695  0.695321  1
  Tb  Tb9  1  0.684876  0.990305  0.304679  1
  Dy  Dy10  1  0.405908  0.211523  0.194386  1
  Dy  Dy11  1  0.594092  0.788477  0.805614  1
  In  In12  1  0.500000  0.500000  0.000000  1
  Co  Co13  1  0.379690  0.000173  0.379517  1
  Co  Co14  1  0.620310  0.999827  0.620483  1
  Co  Co15  1  0.112241  0.612012  0.500229  1
  Co  Co16  1  0.887759  0.387988  0.499771  1
  Rh  Rh17  1  0.000000  0.000000  0.000000  1
