# generated using pymatgen
data_Na8Cd3Sn12Au
_symmetry_space_group_name_H-M   'P 1'
_cell_length_a   10.14600900
_cell_length_b   10.14600965
_cell_length_c   7.53706200
_cell_angle_alpha   90.00000000
_cell_angle_beta   90.00000000
_cell_angle_gamma   120.00000115
_symmetry_Int_Tables_number   1
_chemical_formula_structural   Na8Cd3Sn12Au
_chemical_formula_sum   'Na8 Cd3 Sn12 Au1'
_cell_volume   671.92875752
_cell_formula_units_Z   1
loop_
 _symmetry_equiv_pos_site_id
 _symmetry_equiv_pos_as_xyz
  1  'x, y, z'
loop_
 _atom_site_type_symbol
 _atom_site_label
 _atom_site_symmetry_multiplicity
 _atom_site_fract_x
 _atom_site_fract_y
 _atom_site_fract_z
 _atom_site_occupancy
  Na  Na0  1  0.525316  0.050630  0.249289  1
  Na  Na1  1  0.061704  0.530852  0.754503  1
  Na  Na2  1  0.469148  0.530852  0.754503  1
  Na  Na3  1  0.525316  0.474684  0.249289  1
  Na  Na4  1  0.469148  0.938296  0.754503  1
  Na  Na5  1  0.949370  0.474684  0.249289  1
  Na  Na6  1  0.000000  0.000000  0.749129  1
  Na  Na7  1  0.000000  0.000000  0.246378  1
  Cd  Cd8  1  0.333333  0.666667  0.432818  1
  Cd  Cd9  1  0.666667  0.333333  0.552393  1
  Cd  Cd10  1  0.666667  0.333333  0.948352  1
  Sn  Sn11  1  0.172913  0.827087  0.050047  1
  Sn  Sn12  1  0.831025  0.662050  0.552078  1
  Sn  Sn13  1  0.337950  0.168975  0.552078  1
  Sn  Sn14  1  0.832389  0.167611  0.952678  1
  Sn  Sn15  1  0.832389  0.664778  0.952678  1
  Sn  Sn16  1  0.831025  0.168975  0.552078  1
  Sn  Sn17  1  0.335222  0.167611  0.952678  1
  Sn  Sn18  1  0.654175  0.827087  0.050047  1
  Sn  Sn19  1  0.667024  0.833512  0.451067  1
  Sn  Sn20  1  0.166488  0.332976  0.451067  1
  Sn  Sn21  1  0.166488  0.833512  0.451067  1
  Sn  Sn22  1  0.172913  0.345825  0.050047  1
  Au  Au23  1  0.333333  0.666667  0.041944  1
