# generated using pymatgen
data_Y2Al9Ru5
_symmetry_space_group_name_H-M   'P 1'
_cell_length_a   6.18322775
_cell_length_b   6.18322728
_cell_length_c   7.98821635
_cell_angle_alpha   112.76931367
_cell_angle_beta   112.76931167
_cell_angle_gamma   89.99999921
_symmetry_Int_Tables_number   1
_chemical_formula_structural   Y2Al9Ru5
_chemical_formula_sum   'Y2 Al9 Ru5'
_cell_volume   255.60074102
_cell_formula_units_Z   1
loop_
 _symmetry_equiv_pos_site_id
 _symmetry_equiv_pos_as_xyz
  1  'x, y, z'
loop_
 _atom_site_type_symbol
 _atom_site_label
 _atom_site_symmetry_multiplicity
 _atom_site_fract_x
 _atom_site_fract_y
 _atom_site_fract_z
 _atom_site_occupancy
  Y  Y0  1  0.500000  0.000000  0.000000  1
  Y  Y1  1  0.000000  0.500000  0.000000  1
  Al  Al2  1  0.000000  0.000000  0.000000  1
  Al  Al3  1  0.439447  0.439447  0.301082  1
  Al  Al4  1  0.861634  0.439447  0.301082  1
  Al  Al5  1  0.439447  0.861634  0.301082  1
  Al  Al6  1  0.861634  0.861634  0.301082  1
  Al  Al7  1  0.138366  0.138366  0.698918  1
  Al  Al8  1  0.560553  0.138366  0.698918  1
  Al  Al9  1  0.138366  0.560553  0.698918  1
  Al  Al10  1  0.560553  0.560553  0.698918  1
  Ru  Ru11  1  0.500000  0.500000  0.000000  1
  Ru  Ru12  1  0.182314  0.182314  0.364628  1
  Ru  Ru13  1  0.750000  0.250000  0.499999  1
  Ru  Ru14  1  0.250000  0.750000  0.499999  1
  Ru  Ru15  1  0.817687  0.817687  0.635372  1
