# generated using pymatgen
data_Er5MgCuPd3
_symmetry_space_group_name_H-M   'P 1'
_cell_length_a   7.74759466
_cell_length_b   7.72715863
_cell_length_c   3.76962700
_cell_angle_alpha   90.00000000
_cell_angle_beta   90.00000000
_cell_angle_gamma   90.43066510
_symmetry_Int_Tables_number   1
_chemical_formula_structural   Er5MgCuPd3
_chemical_formula_sum   'Er5 Mg1 Cu1 Pd3'
_cell_volume   225.66948083
_cell_formula_units_Z   1
loop_
 _symmetry_equiv_pos_site_id
 _symmetry_equiv_pos_as_xyz
  1  'x, y, z'
loop_
 _atom_site_type_symbol
 _atom_site_label
 _atom_site_symmetry_multiplicity
 _atom_site_fract_x
 _atom_site_fract_y
 _atom_site_fract_z
 _atom_site_occupancy
  Er  Er0  1  0.817269  0.647863  0.500000  1
  Er  Er1  1  0.353912  0.819070  0.500000  1
  Er  Er2  1  0.180471  0.352663  0.500000  1
  Er  Er3  1  0.647083  0.181679  0.500000  1
  Er  Er4  1  0.000786  0.000500  0.000000  1
  Mg  Mg5  1  0.498552  0.499486  0.000000  1
  Cu  Cu6  1  0.123330  0.634207  0.000000  1
  Pd  Pd7  1  0.639732  0.873907  0.000000  1
  Pd  Pd8  1  0.360175  0.123713  0.000000  1
  Pd  Pd9  1  0.878691  0.366912  0.000000  1
