# generated using pymatgen
data_Dy2Lu2Ga16Co3
_symmetry_space_group_name_H-M   'P 1'
_cell_length_a   6.00872100
_cell_length_b   6.00872100
_cell_length_c   11.09435700
_cell_angle_alpha   90.00000000
_cell_angle_beta   90.00000000
_cell_angle_gamma   90.00000000
_symmetry_Int_Tables_number   1
_chemical_formula_structural   Dy2Lu2Ga16Co3
_chemical_formula_sum   'Dy2 Lu2 Ga16 Co3'
_cell_volume   400.55874244
_cell_formula_units_Z   1
loop_
 _symmetry_equiv_pos_site_id
 _symmetry_equiv_pos_as_xyz
  1  'x, y, z'
loop_
 _atom_site_type_symbol
 _atom_site_label
 _atom_site_symmetry_multiplicity
 _atom_site_fract_x
 _atom_site_fract_y
 _atom_site_fract_z
 _atom_site_occupancy
  Dy  Dy0  1  0.500000  0.000000  0.193570  1
  Dy  Dy1  1  0.000000  0.500000  0.193570  1
  Lu  Lu2  1  0.500000  0.000000  0.804235  1
  Lu  Lu3  1  0.000000  0.500000  0.804235  1
  Ga  Ga4  1  0.249621  0.249621  0.617380  1
  Ga  Ga5  1  0.750379  0.750379  0.617380  1
  Ga  Ga6  1  0.750379  0.249621  0.617380  1
  Ga  Ga7  1  0.249621  0.750379  0.617380  1
  Ga  Ga8  1  0.750136  0.750136  0.385349  1
  Ga  Ga9  1  0.249864  0.249864  0.385349  1
  Ga  Ga10  1  0.249864  0.750136  0.385349  1
  Ga  Ga11  1  0.750136  0.249864  0.385349  1
  Ga  Ga12  1  0.280055  0.280055  0.997128  1
  Ga  Ga13  1  0.719945  0.719945  0.997128  1
  Ga  Ga14  1  0.719945  0.280055  0.997128  1
  Ga  Ga15  1  0.280055  0.719945  0.997128  1
  Ga  Ga16  1  0.500000  0.500000  0.804973  1
  Ga  Ga17  1  0.500000  0.500000  0.193457  1
  Ga  Ga18  1  0.000000  0.000000  0.783860  1
  Ga  Ga19  1  0.000000  0.000000  0.218394  1
  Co  Co20  1  0.500000  0.000000  0.501670  1
  Co  Co21  1  0.000000  0.500000  0.501670  1
  Co  Co22  1  0.000000  0.000000  0.000941  1
