# generated using pymatgen
data_ErScCr2(Fe4P3)2
_symmetry_space_group_name_H-M   'P 1'
_cell_length_a   3.63213700
_cell_length_b   10.29745600
_cell_length_c   11.78089900
_cell_angle_alpha   90.00000000
_cell_angle_beta   90.00000000
_cell_angle_gamma   90.00000000
_symmetry_Int_Tables_number   1
_chemical_formula_structural   ErScCr2(Fe4P3)2
_chemical_formula_sum   'Er2 Sc2 Cr4 Fe16 P12'
_cell_volume   440.62648591
_cell_formula_units_Z   2
loop_
 _symmetry_equiv_pos_site_id
 _symmetry_equiv_pos_as_xyz
  1  'x, y, z'
loop_
 _atom_site_type_symbol
 _atom_site_label
 _atom_site_symmetry_multiplicity
 _atom_site_fract_x
 _atom_site_fract_y
 _atom_site_fract_z
 _atom_site_occupancy
  Er  Er0  1  0.750000  0.419711  0.294621  1
  Er  Er1  1  0.750000  0.080289  0.794621  1
  Sc  Sc2  1  0.250000  0.580964  0.704260  1
  Sc  Sc3  1  0.250000  0.919036  0.204260  1
  Cr  Cr4  1  0.250000  0.703789  0.989815  1
  Cr  Cr5  1  0.250000  0.796211  0.489815  1
  Cr  Cr6  1  0.750000  0.296976  0.012203  1
  Cr  Cr7  1  0.750000  0.203024  0.512203  1
  Fe  Fe8  1  0.250000  0.406155  0.491632  1
  Fe  Fe9  1  0.250000  0.093846  0.991632  1
  Fe  Fe10  1  0.750000  0.594703  0.511817  1
  Fe  Fe11  1  0.750000  0.905297  0.011817  1
  Fe  Fe12  1  0.250000  0.218085  0.175424  1
  Fe  Fe13  1  0.250000  0.281915  0.675424  1
  Fe  Fe14  1  0.750000  0.780449  0.824579  1
  Fe  Fe15  1  0.750000  0.719551  0.324579  1
  Fe  Fe16  1  0.250000  0.872430  0.701463  1
  Fe  Fe17  1  0.250000  0.627570  0.201463  1
  Fe  Fe18  1  0.750000  0.123478  0.297094  1
  Fe  Fe19  1  0.750000  0.376522  0.797094  1
  Fe  Fe20  1  0.250000  0.464773  0.930306  1
  Fe  Fe21  1  0.250000  0.035227  0.430306  1
  Fe  Fe22  1  0.750000  0.539055  0.066703  1
  Fe  Fe23  1  0.750000  0.960945  0.566703  1
  P  P24  1  0.250000  0.424928  0.112635  1
  P  P25  1  0.250000  0.075072  0.612635  1
  P  P26  1  0.750000  0.577468  0.883501  1
  P  P27  1  0.750000  0.922532  0.383501  1
  P  P28  1  0.250000  0.264273  0.870599  1
  P  P29  1  0.250000  0.235727  0.370599  1
  P  P30  1  0.750000  0.739171  0.131902  1
  P  P31  1  0.750000  0.760829  0.631902  1
  P  P32  1  0.250000  0.597289  0.393874  1
  P  P33  1  0.250000  0.902711  0.893874  1
  P  P34  1  0.750000  0.406655  0.607573  1
  P  P35  1  0.750000  0.093345  0.107573  1
