# generated using pymatgen
data_Ca4Lu2TaRuO12
_symmetry_space_group_name_H-M   'P 1'
_cell_length_a   5.57576586
_cell_length_b   5.77966724
_cell_length_c   8.01384109
_cell_angle_alpha   90.42964744
_cell_angle_beta   90.32631711
_cell_angle_gamma   90.05251811
_symmetry_Int_Tables_number   1
_chemical_formula_structural   Ca4Lu2TaRuO12
_chemical_formula_sum   'Ca4 Lu2 Ta1 Ru1 O12'
_cell_volume   258.24304607
_cell_formula_units_Z   1
loop_
 _symmetry_equiv_pos_site_id
 _symmetry_equiv_pos_as_xyz
  1  'x, y, z'
loop_
 _atom_site_type_symbol
 _atom_site_label
 _atom_site_symmetry_multiplicity
 _atom_site_fract_x
 _atom_site_fract_y
 _atom_site_fract_z
 _atom_site_occupancy
  Ca  Ca0  1  0.517502  0.552073  0.255023  1
  Ca  Ca1  1  0.987009  0.056376  0.253605  1
  Ca  Ca2  1  0.012992  0.943624  0.746394  1
  Ca  Ca3  1  0.482497  0.447928  0.744977  1
  Lu  Lu4  1  0.000000  0.500000  0.000000  1
  Lu  Lu5  1  0.500000  0.000000  0.500000  1
  Ta  Ta6  1  0.500000  0.000000  0.000000  1
  Ru  Ru7  1  0.000000  0.500000  0.500000  1
  O  O8  1  0.790094  0.810770  0.054404  1
  O  O9  1  0.684966  0.288306  0.060576  1
  O  O10  1  0.394270  0.960409  0.237923  1
  O  O11  1  0.105456  0.460563  0.264220  1
  O  O12  1  0.813670  0.784070  0.443119  1
  O  O13  1  0.713824  0.307914  0.447313  1
  O  O14  1  0.286175  0.692084  0.552687  1
  O  O15  1  0.186331  0.215929  0.556882  1
  O  O16  1  0.894545  0.539437  0.735780  1
  O  O17  1  0.605731  0.039592  0.762076  1
  O  O18  1  0.315035  0.711694  0.939423  1
  O  O19  1  0.209907  0.189229  0.945596  1
