# generated using pymatgen
data_Dy2YCd3Ge2Au
_symmetry_space_group_name_H-M   'P 1'
_cell_length_a   7.33992402
_cell_length_b   7.33992379
_cell_length_c   4.34218700
_cell_angle_alpha   90.00000000
_cell_angle_beta   90.00000000
_cell_angle_gamma   119.99158422
_symmetry_Int_Tables_number   1
_chemical_formula_structural   Dy2YCd3Ge2Au
_chemical_formula_sum   'Dy2 Y1 Cd3 Ge2 Au1'
_cell_volume   202.60916771
_cell_formula_units_Z   1
loop_
 _symmetry_equiv_pos_site_id
 _symmetry_equiv_pos_as_xyz
  1  'x, y, z'
loop_
 _atom_site_type_symbol
 _atom_site_label
 _atom_site_symmetry_multiplicity
 _atom_site_fract_x
 _atom_site_fract_y
 _atom_site_fract_z
 _atom_site_occupancy
  Dy  Dy0  1  0.584413  0.999984  0.000000  1
  Dy  Dy1  1  0.999984  0.584413  0.000000  1
  Y  Y2  1  0.415669  0.415669  0.000000  1
  Cd  Cd3  1  0.251091  0.999974  0.500000  1
  Cd  Cd4  1  0.999974  0.251091  0.500000  1
  Cd  Cd5  1  0.748925  0.748925  0.500000  1
  Ge  Ge6  1  0.333319  0.666788  0.500000  1
  Ge  Ge7  1  0.666788  0.333319  0.500000  1
  Au  Au8  1  0.999837  0.999837  0.000000  1
