# generated using pymatgen
data_HfSc(SbRh)2
_symmetry_space_group_name_H-M   'P 1'
_cell_length_a   6.32869800
_cell_length_b   4.47055000
_cell_length_c   8.91916900
_cell_angle_alpha   90.00000000
_cell_angle_beta   90.00000000
_cell_angle_gamma   90.00000000
_symmetry_Int_Tables_number   1
_chemical_formula_structural   HfSc(SbRh)2
_chemical_formula_sum   'Hf2 Sc2 Sb4 Rh4'
_cell_volume   252.34791544
_cell_formula_units_Z   2
loop_
 _symmetry_equiv_pos_site_id
 _symmetry_equiv_pos_as_xyz
  1  'x, y, z'
loop_
 _atom_site_type_symbol
 _atom_site_label
 _atom_site_symmetry_multiplicity
 _atom_site_fract_x
 _atom_site_fract_y
 _atom_site_fract_z
 _atom_site_occupancy
  Hf  Hf0  1  0.495660  0.500000  0.123519  1
  Hf  Hf1  1  0.995659  0.000000  0.876481  1
  Sc  Sc2  1  0.005277  0.000000  0.374029  1
  Sc  Sc3  1  0.505277  0.500000  0.625970  1
  Sb  Sb4  1  0.993341  0.500000  0.127803  1
  Sb  Sb5  1  0.504250  0.000000  0.377115  1
  Sb  Sb6  1  0.004249  0.500000  0.622884  1
  Sb  Sb7  1  0.493342  0.000000  0.872196  1
  Rh  Rh8  1  0.742933  0.000000  0.121104  1
  Rh  Rh9  1  0.258541  0.500000  0.370943  1
  Rh  Rh10  1  0.758541  0.000000  0.629055  1
  Rh  Rh11  1  0.242932  0.500000  0.878895  1
