# generated using pymatgen
data_U2Re2SiNi
_symmetry_space_group_name_H-M   'P 1'
_cell_length_a   5.34248100
_cell_length_b   5.38223363
_cell_length_c   7.92781300
_cell_angle_alpha   90.00000000
_cell_angle_beta   90.00000000
_cell_angle_gamma   119.75598185
_symmetry_Int_Tables_number   1
_chemical_formula_structural   U2Re2SiNi
_chemical_formula_sum   'U4 Re4 Si2 Ni2'
_cell_volume   197.90291908
_cell_formula_units_Z   2
loop_
 _symmetry_equiv_pos_site_id
 _symmetry_equiv_pos_as_xyz
  1  'x, y, z'
loop_
 _atom_site_type_symbol
 _atom_site_label
 _atom_site_symmetry_multiplicity
 _atom_site_fract_x
 _atom_site_fract_y
 _atom_site_fract_z
 _atom_site_occupancy
  U  U0  1  0.334287  0.671196  0.082303  1
  U  U1  1  0.334287  0.671196  0.417697  1
  U  U2  1  0.663092  0.328804  0.582303  1
  U  U3  1  0.663092  0.328804  0.917697  1
  Re  Re4  1  0.170026  0.344642  0.750000  1
  Re  Re5  1  0.171933  0.824549  0.750000  1
  Re  Re6  1  0.347383  0.175451  0.250000  1
  Re  Re7  1  0.825382  0.655358  0.250000  1
  Si  Si8  1  0.988826  0.000000  0.000000  1
  Si  Si9  1  0.988826  0.000000  0.500000  1
  Ni  Ni10  1  0.673367  0.833868  0.750000  1
  Ni  Ni11  1  0.839498  0.166132  0.250000  1
