# generated using pymatgen
data_Nb6Tc5Ge6W
_symmetry_space_group_name_H-M   'P 1'
_cell_length_a   7.73103052
_cell_length_b   7.71441854
_cell_length_c   7.73341805
_cell_angle_alpha   126.96206956
_cell_angle_beta   126.02468916
_cell_angle_gamma   79.18039341
_symmetry_Int_Tables_number   1
_chemical_formula_structural   Nb6Tc5Ge6W
_chemical_formula_sum   'Nb6 Tc5 Ge6 W1'
_cell_volume   288.06516099
_cell_formula_units_Z   1
loop_
 _symmetry_equiv_pos_site_id
 _symmetry_equiv_pos_as_xyz
  1  'x, y, z'
loop_
 _atom_site_type_symbol
 _atom_site_label
 _atom_site_symmetry_multiplicity
 _atom_site_fract_x
 _atom_site_fract_y
 _atom_site_fract_z
 _atom_site_occupancy
  Nb  Nb0  1  0.552366  0.110693  0.059618  1
  Nb  Nb1  1  0.453627  0.491086  0.540231  1
  Nb  Nb2  1  0.962257  0.500644  0.045945  1
  Nb  Nb3  1  0.044196  0.078085  0.544941  1
  Nb  Nb4  1  0.747705  0.898419  0.650749  1
  Nb  Nb5  1  0.252478  0.897459  0.154415  1
  Tc  Tc6  1  0.527455  0.240286  0.767252  1
  Tc  Tc7  1  0.964779  0.240198  0.209309  1
  Tc  Tc8  1  0.160631  0.753333  0.660201  1
  Tc  Tc9  1  0.866025  0.499597  0.616985  1
  Tc  Tc10  1  0.586148  0.754036  0.086878  1
  Ge  Ge11  1  0.770073  0.542472  0.267385  1
  Ge  Ge12  1  0.236508  0.450749  0.704118  1
  Ge  Ge13  1  0.337866  0.834905  0.509591  1
  Ge  Ge14  1  0.669274  0.162512  0.500454  1
  Ge  Ge15  1  0.830798  0.832509  0.001076  1
  Ge  Ge16  1  0.164124  0.158463  0.999766  1
  W  W17  1  0.373691  0.496758  0.123288  1
