# generated using pymatgen
data_K4VCl6
_symmetry_space_group_name_H-M   'P 1'
_cell_length_a   8.61610669
_cell_length_b   8.61610664
_cell_length_c   8.61610691
_cell_angle_alpha   89.37484845
_cell_angle_beta   89.37484565
_cell_angle_gamma   89.37484009
_symmetry_Int_Tables_number   1
_chemical_formula_structural   K4VCl6
_chemical_formula_sum   'K8 V2 Cl12'
_cell_volume   639.52306364
_cell_formula_units_Z   2
loop_
 _symmetry_equiv_pos_site_id
 _symmetry_equiv_pos_as_xyz
  1  'x, y, z'
loop_
 _atom_site_type_symbol
 _atom_site_label
 _atom_site_symmetry_multiplicity
 _atom_site_fract_x
 _atom_site_fract_y
 _atom_site_fract_z
 _atom_site_occupancy
  K  K0  1  0.250000  0.250000  0.250000  1
  K  K1  1  0.750000  0.750000  0.750000  1
  K  K2  1  0.871952  0.628048  0.250000  1
  K  K3  1  0.628048  0.250000  0.871952  1
  K  K4  1  0.250000  0.871953  0.628047  1
  K  K5  1  0.128047  0.371953  0.750000  1
  K  K6  1  0.371953  0.750000  0.128047  1
  K  K7  1  0.750000  0.128048  0.371952  1
  V  V8  1  0.000000  0.000000  0.000000  1
  V  V9  1  0.500000  0.500000  0.500000  1
  Cl  Cl10  1  0.944255  0.279692  0.066271  1
  Cl  Cl11  1  0.279692  0.066271  0.944255  1
  Cl  Cl12  1  0.066271  0.944255  0.279692  1
  Cl  Cl13  1  0.220308  0.555745  0.433729  1
  Cl  Cl14  1  0.555745  0.433729  0.220308  1
  Cl  Cl15  1  0.433729  0.220308  0.555745  1
  Cl  Cl16  1  0.055745  0.720308  0.933729  1
  Cl  Cl17  1  0.720308  0.933729  0.055745  1
  Cl  Cl18  1  0.933729  0.055745  0.720308  1
  Cl  Cl19  1  0.779692  0.444255  0.566271  1
  Cl  Cl20  1  0.444255  0.566271  0.779692  1
  Cl  Cl21  1  0.566271  0.779692  0.444255  1
