# generated using pymatgen
data_TbHf3(Al3Rh)6
_symmetry_space_group_name_H-M   'P 1'
_cell_length_a   7.47770200
_cell_length_b   7.46962413
_cell_length_c   9.28516300
_cell_angle_alpha   90.00000000
_cell_angle_beta   90.00000000
_cell_angle_gamma   119.69706066
_symmetry_Int_Tables_number   1
_chemical_formula_structural   TbHf3(Al3Rh)6
_chemical_formula_sum   'Tb1 Hf3 Al18 Rh6'
_cell_volume   450.51029902
_cell_formula_units_Z   1
loop_
 _symmetry_equiv_pos_site_id
 _symmetry_equiv_pos_as_xyz
  1  'x, y, z'
loop_
 _atom_site_type_symbol
 _atom_site_label
 _atom_site_symmetry_multiplicity
 _atom_site_fract_x
 _atom_site_fract_y
 _atom_site_fract_z
 _atom_site_occupancy
  Tb  Tb0  1  0.329139  0.006356  0.250000  1
  Hf  Hf1  1  0.993905  0.671601  0.750000  1
  Hf  Hf2  1  0.005660  0.328985  0.250000  1
  Hf  Hf3  1  0.671642  0.994188  0.750000  1
  Al  Al4  1  0.121251  0.122569  0.750000  1
  Al  Al5  1  0.871898  0.875754  0.250000  1
  Al  Al6  1  0.996586  0.334721  0.578428  1
  Al  Al7  1  0.000055  0.662430  0.426620  1
  Al  Al8  1  0.000055  0.662430  0.073380  1
  Al  Al9  1  0.335045  0.997193  0.918039  1
  Al  Al10  1  0.996586  0.334721  0.921572  1
  Al  Al11  1  0.668238  0.002422  0.073470  1
  Al  Al12  1  0.668238  0.002422  0.426530  1
  Al  Al13  1  0.335045  0.997193  0.581961  1
  Al  Al14  1  0.331214  0.333967  0.053906  1
  Al  Al15  1  0.669139  0.669044  0.938638  1
  Al  Al16  1  0.669139  0.669044  0.561362  1
  Al  Al17  1  0.331214  0.333967  0.446094  1
  Al  Al18  1  0.337877  0.553802  0.750000  1
  Al  Al19  1  0.666779  0.451914  0.250000  1
  Al  Al20  1  0.555763  0.339176  0.750000  1
  Al  Al21  1  0.445824  0.656326  0.250000  1
  Rh  Rh22  1  0.673311  0.327810  0.501609  1
  Rh  Rh23  1  0.327795  0.673110  0.502167  1
  Rh  Rh24  1  0.327795  0.673110  0.997833  1
  Rh  Rh25  1  0.673311  0.327810  0.998391  1
  Rh  Rh26  1  0.998746  0.998967  0.501892  1
  Rh  Rh27  1  0.998746  0.998967  0.998108  1
