# generated using pymatgen
data_Tb2ErTm17(CoSb2)4
_symmetry_space_group_name_H-M   'P 1'
_cell_length_a   7.77250301
_cell_length_b   8.72260100
_cell_length_c   12.05128001
_cell_angle_alpha   90.00000000
_cell_angle_beta   90.00549151
_cell_angle_gamma   90.00000000
_symmetry_Int_Tables_number   1
_chemical_formula_structural   Tb2ErTm17(CoSb2)4
_chemical_formula_sum   'Tb2 Er1 Tm17 Co4 Sb8'
_cell_volume   817.03390899
_cell_formula_units_Z   1
loop_
 _symmetry_equiv_pos_site_id
 _symmetry_equiv_pos_as_xyz
  1  'x, y, z'
loop_
 _atom_site_type_symbol
 _atom_site_label
 _atom_site_symmetry_multiplicity
 _atom_site_fract_x
 _atom_site_fract_y
 _atom_site_fract_z
 _atom_site_occupancy
  Tb  Tb0  1  0.123662  0.250000  0.192691  1
  Tb  Tb1  1  0.376506  0.250000  0.692634  1
  Er  Er2  1  0.877741  0.750000  0.808286  1
  Tm  Tm3  1  0.157146  0.750000  0.204231  1
  Tm  Tm4  1  0.656743  0.250000  0.295819  1
  Tm  Tm5  1  0.843319  0.250000  0.795915  1
  Tm  Tm6  1  0.342917  0.750000  0.704206  1
  Tm  Tm7  1  0.449931  0.750000  0.997962  1
  Tm  Tm8  1  0.948952  0.250000  0.501997  1
  Tm  Tm9  1  0.550662  0.250000  0.002088  1
  Tm  Tm10  1  0.049876  0.750000  0.498002  1
  Tm  Tm11  1  0.621875  0.750000  0.308966  1
  Tm  Tm12  1  0.823147  0.962423  0.065426  1
  Tm  Tm13  1  0.324084  0.035721  0.433758  1
  Tm  Tm14  1  0.176126  0.463663  0.933946  1
  Tm  Tm15  1  0.676870  0.537871  0.565253  1
  Tm  Tm16  1  0.176126  0.036337  0.933946  1
  Tm  Tm17  1  0.676870  0.962129  0.565253  1
  Tm  Tm18  1  0.823147  0.537577  0.065426  1
  Tm  Tm19  1  0.324084  0.464279  0.433758  1
  Co  Co20  1  0.432483  0.750000  0.491139  1
  Co  Co21  1  0.931594  0.250000  0.008287  1
  Co  Co22  1  0.568197  0.250000  0.508055  1
  Co  Co23  1  0.067664  0.750000  0.991194  1
  Sb  Sb24  1  0.929630  0.990444  0.328137  1
  Sb  Sb25  1  0.432976  0.007272  0.172349  1
  Sb  Sb26  1  0.067488  0.492292  0.672226  1
  Sb  Sb27  1  0.570046  0.509282  0.828168  1
  Sb  Sb28  1  0.067488  0.007708  0.672226  1
  Sb  Sb29  1  0.570046  0.990718  0.828168  1
  Sb  Sb30  1  0.929630  0.509556  0.328137  1
  Sb  Sb31  1  0.432976  0.492728  0.172349  1
