# generated using pymatgen
data_Ac3LaAu8
_symmetry_space_group_name_H-M   'P 1'
_cell_length_a   6.12548623
_cell_length_b   6.31013410
_cell_length_c   9.19808138
_cell_angle_alpha   108.86218188
_cell_angle_beta   69.99931581
_cell_angle_gamma   96.69341107
_symmetry_Int_Tables_number   1
_chemical_formula_structural   Ac3LaAu8
_chemical_formula_sum   'Ac3 La1 Au8'
_cell_volume   316.13957979
_cell_formula_units_Z   1
loop_
 _symmetry_equiv_pos_site_id
 _symmetry_equiv_pos_as_xyz
  1  'x, y, z'
loop_
 _atom_site_type_symbol
 _atom_site_label
 _atom_site_symmetry_multiplicity
 _atom_site_fract_x
 _atom_site_fract_y
 _atom_site_fract_z
 _atom_site_occupancy
  Ac  Ac0  1  0.422984  0.941665  0.590722  1
  Ac  Ac1  1  0.916601  0.446904  0.091484  1
  Ac  Ac2  1  0.162409  0.186085  0.340874  1
  La  La3  1  0.663351  0.688877  0.841948  1
  Au  Au4  1  0.626568  0.390217  0.466313  1
  Au  Au5  1  0.458291  0.240546  0.966975  1
  Au  Au6  1  0.370635  0.648395  0.213258  1
  Au  Au7  1  0.127838  0.897301  0.961190  1
  Au  Au8  1  0.207750  0.488102  0.718804  1
  Au  Au9  1  0.959153  0.731268  0.476026  1
  Au  Au10  1  0.704202  0.989345  0.209421  1
  Au  Au11  1  0.878384  0.143653  0.717736  1
