# generated using pymatgen
data_Ho3Sc3Sn6PtRh5
_symmetry_space_group_name_H-M   'P 1'
_cell_length_a   7.59096800
_cell_length_b   7.59096752
_cell_length_c   7.27392000
_cell_angle_alpha   90.00000000
_cell_angle_beta   90.00000000
_cell_angle_gamma   120.00001079
_symmetry_Int_Tables_number   1
_chemical_formula_structural   Ho3Sc3Sn6PtRh5
_chemical_formula_sum   'Ho3 Sc3 Sn6 Pt1 Rh5'
_cell_volume   362.98894517
_cell_formula_units_Z   1
loop_
 _symmetry_equiv_pos_site_id
 _symmetry_equiv_pos_as_xyz
  1  'x, y, z'
loop_
 _atom_site_type_symbol
 _atom_site_label
 _atom_site_symmetry_multiplicity
 _atom_site_fract_x
 _atom_site_fract_y
 _atom_site_fract_z
 _atom_site_occupancy
  Ho  Ho0  1  0.401235  0.998534  0.250106  1
  Ho  Ho1  1  0.597299  0.598765  0.250106  1
  Ho  Ho2  1  0.001466  0.402701  0.250106  1
  Sc  Sc3  1  0.395725  0.996685  0.751115  1
  Sc  Sc4  1  0.600959  0.604275  0.751115  1
  Sc  Sc5  1  0.003315  0.399041  0.751115  1
  Sn  Sn6  1  0.277698  0.276726  0.991361  1
  Sn  Sn7  1  0.999029  0.722302  0.991361  1
  Sn  Sn8  1  0.004085  0.738750  0.508612  1
  Sn  Sn9  1  0.734664  0.995915  0.508612  1
  Sn  Sn10  1  0.261250  0.265336  0.508612  1
  Sn  Sn11  1  0.723274  0.000971  0.991361  1
  Pt  Pt12  1  0.666667  0.333333  0.518062  1
  Rh  Rh13  1  0.000000  0.000000  0.765567  1
  Rh  Rh14  1  0.000000  0.000000  0.234791  1
  Rh  Rh15  1  0.666667  0.333333  0.978209  1
  Rh  Rh16  1  0.333333  0.666667  0.521290  1
  Rh  Rh17  1  0.333333  0.666667  0.978498  1
