# generated using pymatgen
data_VHg3(SeF3)2
_symmetry_space_group_name_H-M   'P 1'
_cell_length_a   7.74467396
_cell_length_b   7.75772120
_cell_length_c   5.11580996
_cell_angle_alpha   105.93110475
_cell_angle_beta   105.92481068
_cell_angle_gamma   55.06157530
_symmetry_Int_Tables_number   1
_chemical_formula_structural   VHg3(SeF3)2
_chemical_formula_sum   'V1 Hg3 Se2 F6'
_cell_volume   239.59699701
_cell_formula_units_Z   1
loop_
 _symmetry_equiv_pos_site_id
 _symmetry_equiv_pos_as_xyz
  1  'x, y, z'
loop_
 _atom_site_type_symbol
 _atom_site_label
 _atom_site_symmetry_multiplicity
 _atom_site_fract_x
 _atom_site_fract_y
 _atom_site_fract_z
 _atom_site_occupancy
  V  V0  1  0.000000  0.000000  0.499999  1
  Hg  Hg1  1  0.500000  0.500000  0.000000  1
  Hg  Hg2  1  0.500000  0.000000  0.499999  1
  Hg  Hg3  1  0.000000  0.500000  0.499999  1
  Se  Se4  1  0.692445  0.692700  0.134481  1
  Se  Se5  1  0.307555  0.307300  0.865519  1
  F  F6  1  0.732217  0.112242  0.280796  1
  F  F7  1  0.113435  0.730164  0.279977  1
  F  F8  1  0.094455  0.094196  0.293599  1
  F  F9  1  0.905545  0.905804  0.706401  1
  F  F10  1  0.886565  0.269836  0.720023  1
  F  F11  1  0.267783  0.887758  0.719204  1
