# generated using pymatgen
data_DyHo2Sc2Pb3
_symmetry_space_group_name_H-M   'P 1'
_cell_length_a   8.87943527
_cell_length_b   8.88320012
_cell_length_c   6.36154500
_cell_angle_alpha   90.00000000
_cell_angle_beta   90.00000000
_cell_angle_gamma   120.01402761
_symmetry_Int_Tables_number   1
_chemical_formula_structural   DyHo2Sc2Pb3
_chemical_formula_sum   'Dy2 Ho4 Sc4 Pb6'
_cell_volume   434.49683871
_cell_formula_units_Z   2
loop_
 _symmetry_equiv_pos_site_id
 _symmetry_equiv_pos_as_xyz
  1  'x, y, z'
loop_
 _atom_site_type_symbol
 _atom_site_label
 _atom_site_symmetry_multiplicity
 _atom_site_fract_x
 _atom_site_fract_y
 _atom_site_fract_z
 _atom_site_occupancy
  Dy  Dy0  1  0.238567  0.999914  0.250000  1
  Dy  Dy1  1  0.238567  0.238653  0.750000  1
  Ho  Ho2  1  0.999890  0.761227  0.750000  1
  Ho  Ho3  1  0.999890  0.238662  0.250000  1
  Ho  Ho4  1  0.761393  0.761518  0.250000  1
  Ho  Ho5  1  0.761393  0.999875  0.750000  1
  Sc  Sc6  1  0.333378  0.666690  0.000000  1
  Sc  Sc7  1  0.666718  0.333358  0.500000  1
  Sc  Sc8  1  0.666718  0.333358  0.000000  1
  Sc  Sc9  1  0.333378  0.666690  0.500000  1
  Pb  Pb10  1  0.601571  0.000027  0.250000  1
  Pb  Pb11  1  0.601571  0.601544  0.750000  1
  Pb  Pb12  1  0.999717  0.398733  0.750000  1
  Pb  Pb13  1  0.999717  0.600983  0.250000  1
  Pb  Pb14  1  0.398767  0.398974  0.250000  1
  Pb  Pb15  1  0.398767  0.999793  0.750000  1
