# generated using pymatgen
data_Y12CuNi4Hg
_symmetry_space_group_name_H-M   'P 1'
_cell_length_a   8.33946022
_cell_length_b   8.33946048
_cell_length_c   8.33946000
_cell_angle_alpha   112.05433409
_cell_angle_beta   109.55143566
_cell_angle_gamma   106.84966459
_symmetry_Int_Tables_number   1
_chemical_formula_structural   Y12CuNi4Hg
_chemical_formula_sum   'Y12 Cu1 Ni4 Hg1'
_cell_volume   445.54920050
_cell_formula_units_Z   1
loop_
 _symmetry_equiv_pos_site_id
 _symmetry_equiv_pos_as_xyz
  1  'x, y, z'
loop_
 _atom_site_type_symbol
 _atom_site_label
 _atom_site_symmetry_multiplicity
 _atom_site_fract_x
 _atom_site_fract_y
 _atom_site_fract_z
 _atom_site_occupancy
  Y  Y0  1  0.422482  0.232449  0.190019  1
  Y  Y1  1  0.577518  0.767551  0.809981  1
  Y  Y2  1  0.042432  0.232449  0.809967  1
  Y  Y3  1  0.957568  0.767551  0.190033  1
  Y  Y4  1  0.178263  0.280287  0.458542  1
  Y  Y5  1  0.821737  0.719713  0.541458  1
  Y  Y6  1  0.178254  0.719713  0.897976  1
  Y  Y7  1  0.821746  0.280287  0.102024  1
  Y  Y8  1  0.325753  0.634358  0.308605  1
  Y  Y9  1  0.674247  0.365642  0.691395  1
  Y  Y10  1  0.325739  0.017150  0.691412  1
  Y  Y11  1  0.674261  0.982850  0.308588  1
  Cu  Cu12  1  0.000000  0.000000  0.000000  1
  Ni  Ni13  1  0.346911  0.000000  0.346911  1
  Ni  Ni14  1  0.653089  0.000000  0.653089  1
  Ni  Ni15  1  0.118633  0.618625  0.499992  1
  Ni  Ni16  1  0.881367  0.381375  0.500008  1
  Hg  Hg17  1  0.500000  0.500000  0.000000  1
