# generated using pymatgen
data_YbU(TaS2)8
_symmetry_space_group_name_H-M   'P 1'
_cell_length_a   6.67549900
_cell_length_b   6.67549863
_cell_length_c   14.13236700
_cell_angle_alpha   90.00000000
_cell_angle_beta   90.00000000
_cell_angle_gamma   120.00000679
_symmetry_Int_Tables_number   1
_chemical_formula_structural   YbU(TaS2)8
_chemical_formula_sum   'Yb1 U1 Ta8 S16'
_cell_volume   545.39726430
_cell_formula_units_Z   1
loop_
 _symmetry_equiv_pos_site_id
 _symmetry_equiv_pos_as_xyz
  1  'x, y, z'
loop_
 _atom_site_type_symbol
 _atom_site_label
 _atom_site_symmetry_multiplicity
 _atom_site_fract_x
 _atom_site_fract_y
 _atom_site_fract_z
 _atom_site_occupancy
  Yb  Yb0  1  0.000000  0.000000  0.500000  1
  U  U1  1  0.000000  0.000000  0.000000  1
  Ta  Ta2  1  0.504465  0.495535  0.751102  1
  Ta  Ta3  1  0.008929  0.504465  0.248898  1
  Ta  Ta4  1  0.495535  0.991071  0.248898  1
  Ta  Ta5  1  0.504465  0.008929  0.751102  1
  Ta  Ta6  1  0.991071  0.495535  0.751102  1
  Ta  Ta7  1  0.495535  0.504465  0.248898  1
  Ta  Ta8  1  0.000000  0.000000  0.750890  1
  Ta  Ta9  1  0.000000  0.000000  0.249110  1
  S  S10  1  0.831513  0.168487  0.359471  1
  S  S11  1  0.831513  0.663026  0.359471  1
  S  S12  1  0.336974  0.168487  0.359471  1
  S  S13  1  0.664957  0.832478  0.862163  1
  S  S14  1  0.168487  0.336974  0.640529  1
  S  S15  1  0.167522  0.832478  0.862163  1
  S  S16  1  0.167522  0.335043  0.862163  1
  S  S17  1  0.832478  0.167522  0.137837  1
  S  S18  1  0.335043  0.167522  0.137837  1
  S  S19  1  0.663026  0.831513  0.640529  1
  S  S20  1  0.333333  0.666667  0.135526  1
  S  S21  1  0.666667  0.333333  0.637902  1
  S  S22  1  0.666667  0.333333  0.864474  1
  S  S23  1  0.333333  0.666667  0.362098  1
  S  S24  1  0.832478  0.664957  0.137837  1
  S  S25  1  0.168487  0.831513  0.640529  1
