# generated using pymatgen
data_Tb8Zn(Si4Au)3
_symmetry_space_group_name_H-M   'P 1'
_cell_length_a   8.19171900
_cell_length_b   8.19171910
_cell_length_c   8.22799800
_cell_angle_alpha   90.00000000
_cell_angle_beta   90.00000000
_cell_angle_gamma   120.00001173
_symmetry_Int_Tables_number   1
_chemical_formula_structural   Tb8Zn(Si4Au)3
_chemical_formula_sum   'Tb8 Zn1 Si12 Au3'
_cell_volume   478.16177565
_cell_formula_units_Z   1
loop_
 _symmetry_equiv_pos_site_id
 _symmetry_equiv_pos_as_xyz
  1  'x, y, z'
loop_
 _atom_site_type_symbol
 _atom_site_label
 _atom_site_symmetry_multiplicity
 _atom_site_fract_x
 _atom_site_fract_y
 _atom_site_fract_z
 _atom_site_occupancy
  Tb  Tb0  1  0.499296  0.998590  0.253316  1
  Tb  Tb1  1  0.498215  0.996433  0.747211  1
  Tb  Tb2  1  0.001410  0.500704  0.253316  1
  Tb  Tb3  1  0.003567  0.501785  0.747211  1
  Tb  Tb4  1  0.499296  0.500704  0.253316  1
  Tb  Tb5  1  0.498215  0.501785  0.747211  1
  Tb  Tb6  1  0.000000  0.000000  0.251848  1
  Tb  Tb7  1  0.000000  0.000000  0.747182  1
  Zn  Zn8  1  0.333333  0.666667  0.502422  1
  Si  Si9  1  0.163339  0.326680  0.995070  1
  Si  Si10  1  0.835818  0.671636  0.004139  1
  Si  Si11  1  0.673320  0.836661  0.995070  1
  Si  Si12  1  0.836242  0.672484  0.502652  1
  Si  Si13  1  0.328364  0.164182  0.004139  1
  Si  Si14  1  0.167137  0.334273  0.496262  1
  Si  Si15  1  0.163339  0.836661  0.995070  1
  Si  Si16  1  0.327516  0.163758  0.502652  1
  Si  Si17  1  0.835818  0.164182  0.004139  1
  Si  Si18  1  0.665727  0.832863  0.496262  1
  Si  Si19  1  0.836242  0.163758  0.502652  1
  Si  Si20  1  0.167137  0.832863  0.496262  1
  Au  Au21  1  0.333333  0.666667  0.004788  1
  Au  Au22  1  0.666667  0.333333  0.996881  1
  Au  Au23  1  0.666667  0.333333  0.500930  1
