# generated using pymatgen
data_PrTh(ZnIr)2
_symmetry_space_group_name_H-M   'P 1'
_cell_length_a   4.02061300
_cell_length_b   7.39987958
_cell_length_c   16.73046407
_cell_angle_alpha   90.35219820
_cell_angle_beta   90.00000000
_cell_angle_gamma   90.00000000
_symmetry_Int_Tables_number   1
_chemical_formula_structural   PrTh(ZnIr)2
_chemical_formula_sum   'Pr4 Th4 Zn8 Ir8'
_cell_volume   497.75623327
_cell_formula_units_Z   4
loop_
 _symmetry_equiv_pos_site_id
 _symmetry_equiv_pos_as_xyz
  1  'x, y, z'
loop_
 _atom_site_type_symbol
 _atom_site_label
 _atom_site_symmetry_multiplicity
 _atom_site_fract_x
 _atom_site_fract_y
 _atom_site_fract_z
 _atom_site_occupancy
  Pr  Pr0  1  0.250000  0.168746  0.939060  1
  Pr  Pr1  1  0.250000  0.555500  0.784595  1
  Pr  Pr2  1  0.750000  0.332231  0.441331  1
  Pr  Pr3  1  0.250000  0.673385  0.559863  1
  Th  Th4  1  0.750000  0.441442  0.216046  1
  Th  Th5  1  0.750000  0.946619  0.283978  1
  Th  Th6  1  0.750000  0.826083  0.059338  1
  Th  Th7  1  0.250000  0.055058  0.715667  1
  Zn  Zn8  1  0.250000  0.002367  0.441240  1
  Zn  Zn9  1  0.750000  0.495830  0.939380  1
  Zn  Zn10  1  0.750000  0.004817  0.558435  1
  Zn  Zn11  1  0.250000  0.615588  0.350145  1
  Zn  Zn12  1  0.750000  0.386792  0.651381  1
  Zn  Zn13  1  0.750000  0.880733  0.851228  1
  Zn  Zn14  1  0.250000  0.490755  0.059672  1
  Zn  Zn15  1  0.250000  0.114341  0.150756  1
  Ir  Ir16  1  0.250000  0.245988  0.567833  1
  Ir  Ir17  1  0.750000  0.251121  0.068385  1
  Ir  Ir18  1  0.250000  0.239244  0.308399  1
  Ir  Ir19  1  0.750000  0.249985  0.808323  1
  Ir  Ir20  1  0.250000  0.746084  0.941243  1
  Ir  Ir21  1  0.750000  0.774734  0.687485  1
  Ir  Ir22  1  0.750000  0.763077  0.429986  1
  Ir  Ir23  1  0.250000  0.739479  0.186231  1
