# generated using pymatgen
data_La4Al24Pt8Au
_symmetry_space_group_name_H-M   'P 1'
_cell_length_a   7.61890461
_cell_length_b   7.64936142
_cell_length_c   13.42102865
_cell_angle_alpha   84.57767366
_cell_angle_beta   79.16569358
_cell_angle_gamma   59.89854403
_symmetry_Int_Tables_number   1
_chemical_formula_structural   La4Al24Pt8Au
_chemical_formula_sum   'La4 Al24 Pt8 Au1'
_cell_volume   664.62711411
_cell_formula_units_Z   1
loop_
 _symmetry_equiv_pos_site_id
 _symmetry_equiv_pos_as_xyz
  1  'x, y, z'
loop_
 _atom_site_type_symbol
 _atom_site_label
 _atom_site_symmetry_multiplicity
 _atom_site_fract_x
 _atom_site_fract_y
 _atom_site_fract_z
 _atom_site_occupancy
  La  La0  1  0.393259  0.169455  0.808711  1
  La  La1  1  0.605136  0.831731  0.191876  1
  La  La2  1  0.734559  0.498308  0.808824  1
  La  La3  1  0.266722  0.501603  0.191075  1
  Al  Al4  1  0.686493  0.834353  0.947652  1
  Al  Al5  1  0.312164  0.166486  0.053695  1
  Al  Al6  1  0.146518  0.839497  0.557552  1
  Al  Al7  1  0.854138  0.166625  0.438804  1
  Al  Al8  1  0.488272  0.159538  0.556192  1
  Al  Al9  1  0.519461  0.833462  0.441300  1
  Al  Al10  1  0.214356  0.165570  0.334661  1
  Al  Al11  1  0.780881  0.838949  0.667336  1
  Al  Al12  1  0.440869  0.508162  0.666572  1
  Al  Al13  1  0.562734  0.492152  0.334784  1
  Al  Al14  1  0.110021  0.151882  0.666865  1
  Al  Al15  1  0.888974  0.841500  0.335671  1
  Al  Al16  1  0.349190  0.502930  0.947932  1
  Al  Al17  1  0.651700  0.496654  0.053375  1
  Al  Al18  1  0.014382  0.164748  0.958233  1
  Al  Al19  1  0.985084  0.835460  0.043548  1
  Al  Al20  1  0.187897  0.500240  0.437359  1
  Al  Al21  1  0.807344  0.499051  0.556530  1
  Al  Al22  1  0.736814  0.163744  0.184240  1
  Al  Al23  1  0.264201  0.835889  0.816112  1
  Al  Al24  1  0.061367  0.636960  0.818159  1
  Al  Al25  1  0.937631  0.365375  0.185755  1
  Al  Al26  1  0.859957  0.037882  0.815585  1
  Al  Al27  1  0.139128  0.962753  0.184388  1
  Pt  Pt28  1  0.878869  0.505140  0.364302  1
  Pt  Pt29  1  0.658529  0.170404  0.999335  1
  Pt  Pt30  1  0.342162  0.829677  0.999861  1
  Pt  Pt31  1  0.540065  0.166467  0.364103  1
  Pt  Pt32  1  0.460267  0.832960  0.635170  1
  Pt  Pt33  1  0.782354  0.171722  0.634267  1
  Pt  Pt34  1  0.217525  0.828518  0.364584  1
  Pt  Pt35  1  0.999687  0.500182  0.000341  1
  Au  Au36  1  0.121297  0.493964  0.635261  1
