# generated using pymatgen
data_Li2Yb2PaAgGe3
_symmetry_space_group_name_H-M   'P 1'
_cell_length_a   7.10767397
_cell_length_b   7.05539843
_cell_length_c   4.30641400
_cell_angle_alpha   90.00000000
_cell_angle_beta   90.00000000
_cell_angle_gamma   119.39260827
_symmetry_Int_Tables_number   1
_chemical_formula_structural   Li2Yb2PaAgGe3
_chemical_formula_sum   'Li2 Yb2 Pa1 Ag1 Ge3'
_cell_volume   188.15732850
_cell_formula_units_Z   1
loop_
 _symmetry_equiv_pos_site_id
 _symmetry_equiv_pos_as_xyz
  1  'x, y, z'
loop_
 _atom_site_type_symbol
 _atom_site_label
 _atom_site_symmetry_multiplicity
 _atom_site_fract_x
 _atom_site_fract_y
 _atom_site_fract_z
 _atom_site_occupancy
  Li  Li0  1  0.232219  0.999322  0.500000  1
  Li  Li1  1  0.996033  0.223895  0.500000  1
  Yb  Yb2  1  0.432274  0.432489  0.000000  1
  Yb  Yb3  1  0.578028  0.997276  0.000000  1
  Pa  Pa4  1  0.998034  0.578288  0.000000  1
  Ag  Ag5  1  0.756626  0.762555  0.500000  1
  Ge  Ge6  1  0.312539  0.663678  0.500000  1
  Ge  Ge7  1  0.687116  0.344901  0.500000  1
  Ge  Ge8  1  0.007131  0.997594  0.000000  1
