# generated using pymatgen
data_LiYbAsO4
_symmetry_space_group_name_H-M   'P 1'
_cell_length_a   5.02196600
_cell_length_b   6.48212900
_cell_length_c   11.29450200
_cell_angle_alpha   90.00000000
_cell_angle_beta   90.00000000
_cell_angle_gamma   90.00000000
_symmetry_Int_Tables_number   1
_chemical_formula_structural   LiYbAsO4
_chemical_formula_sum   'Li4 Yb4 As4 O16'
_cell_volume   367.67027877
_cell_formula_units_Z   4
loop_
 _symmetry_equiv_pos_site_id
 _symmetry_equiv_pos_as_xyz
  1  'x, y, z'
loop_
 _atom_site_type_symbol
 _atom_site_label
 _atom_site_symmetry_multiplicity
 _atom_site_fract_x
 _atom_site_fract_y
 _atom_site_fract_z
 _atom_site_occupancy
  Li  Li0  1  0.000000  0.000000  0.000000  1
  Li  Li1  1  0.500000  0.000000  0.500000  1
  Li  Li2  1  0.000000  0.500000  0.000000  1
  Li  Li3  1  0.500000  0.500000  0.500000  1
  Yb  Yb4  1  0.982277  0.250000  0.276241  1
  Yb  Yb5  1  0.517723  0.250000  0.776241  1
  Yb  Yb6  1  0.017723  0.750001  0.723759  1
  Yb  Yb7  1  0.482277  0.750001  0.223759  1
  As  As8  1  0.085491  0.250000  0.585092  1
  As  As9  1  0.414509  0.250000  0.085092  1
  As  As10  1  0.914509  0.750001  0.414908  1
  As  As11  1  0.585491  0.750001  0.914908  1
  O  O12  1  0.754763  0.250000  0.088609  1
  O  O13  1  0.245237  0.750001  0.911391  1
  O  O14  1  0.745237  0.250000  0.588609  1
  O  O15  1  0.254763  0.750001  0.411391  1
  O  O16  1  0.731469  0.750001  0.052861  1
  O  O17  1  0.268531  0.250000  0.947139  1
  O  O18  1  0.231469  0.250000  0.447139  1
  O  O19  1  0.768531  0.750001  0.552860  1
  O  O20  1  0.226654  0.458165  0.658596  1
  O  O21  1  0.726654  0.541836  0.841404  1
  O  O22  1  0.773346  0.958165  0.341404  1
  O  O23  1  0.273346  0.041836  0.158596  1
  O  O24  1  0.773346  0.541836  0.341404  1
  O  O25  1  0.273346  0.458165  0.158596  1
  O  O26  1  0.226654  0.041836  0.658596  1
  O  O27  1  0.726654  0.958165  0.841404  1
