# generated using pymatgen
data_Li2Ca10Sn4N3
_symmetry_space_group_name_H-M   'P 1'
_cell_length_a   4.90606800
_cell_length_b   4.90606800
_cell_length_c   18.72181500
_cell_angle_alpha   90.00000000
_cell_angle_beta   90.00000000
_cell_angle_gamma   90.00000000
_symmetry_Int_Tables_number   1
_chemical_formula_structural   Li2Ca10Sn4N3
_chemical_formula_sum   'Li2 Ca10 Sn4 N3'
_cell_volume   450.62478644
_cell_formula_units_Z   1
loop_
 _symmetry_equiv_pos_site_id
 _symmetry_equiv_pos_as_xyz
  1  'x, y, z'
loop_
 _atom_site_type_symbol
 _atom_site_label
 _atom_site_symmetry_multiplicity
 _atom_site_fract_x
 _atom_site_fract_y
 _atom_site_fract_z
 _atom_site_occupancy
  Li  Li0  1  0.500000  0.000000  0.000000  1
  Li  Li1  1  0.000000  0.500000  0.000000  1
  Ca  Ca2  1  0.500000  0.500000  0.885026  1
  Ca  Ca3  1  0.500000  0.500000  0.114974  1
  Ca  Ca4  1  0.500000  0.500000  0.373279  1
  Ca  Ca5  1  0.500000  0.500000  0.626721  1
  Ca  Ca6  1  0.500000  0.000000  0.245099  1
  Ca  Ca7  1  0.500000  0.000000  0.500000  1
  Ca  Ca8  1  0.500000  0.000000  0.754901  1
  Ca  Ca9  1  0.000000  0.500000  0.245099  1
  Ca  Ca10  1  0.000000  0.500000  0.500000  1
  Ca  Ca11  1  0.000000  0.500000  0.754901  1
  Sn  Sn12  1  0.000000  0.000000  0.912859  1
  Sn  Sn13  1  0.000000  0.000000  0.087141  1
  Sn  Sn14  1  0.000000  0.000000  0.367698  1
  Sn  Sn15  1  0.000000  0.000000  0.632302  1
  N  N16  1  0.500000  0.500000  0.234031  1
  N  N17  1  0.500000  0.500000  0.500000  1
  N  N18  1  0.500000  0.500000  0.765969  1
