# generated using pymatgen
data_HoErPa(SnIr)3
_symmetry_space_group_name_H-M   'P 1'
_cell_length_a   7.43943860
_cell_length_b   7.44186027
_cell_length_c   3.96489700
_cell_angle_alpha   90.00000000
_cell_angle_beta   90.00000000
_cell_angle_gamma   119.09779564
_symmetry_Int_Tables_number   1
_chemical_formula_structural   HoErPa(SnIr)3
_chemical_formula_sum   'Ho1 Er1 Pa1 Sn3 Ir3'
_cell_volume   191.80552759
_cell_formula_units_Z   1
loop_
 _symmetry_equiv_pos_site_id
 _symmetry_equiv_pos_as_xyz
  1  'x, y, z'
loop_
 _atom_site_type_symbol
 _atom_site_label
 _atom_site_symmetry_multiplicity
 _atom_site_fract_x
 _atom_site_fract_y
 _atom_site_fract_z
 _atom_site_occupancy
  Ho  Ho0  1  0.595269  0.999996  0.500000  1
  Er  Er1  1  0.000007  0.595480  0.500000  1
  Pa  Pa2  1  0.413100  0.413123  0.500000  1
  Sn  Sn3  1  0.755082  0.754858  0.000000  1
  Sn  Sn4  1  0.256757  0.986678  0.000000  1
  Sn  Sn5  1  0.986889  0.257079  0.000000  1
  Ir  Ir6  1  0.644239  0.336203  0.000000  1
  Ir  Ir7  1  0.335618  0.643869  0.000000  1
  Ir  Ir8  1  0.013038  0.012714  0.500000  1
