# generated using pymatgen
data_Dy3Y5(LuRu2)2
_symmetry_space_group_name_H-M   'P 1'
_cell_length_a   6.32373097
_cell_length_b   7.26781348
_cell_length_c   8.45822244
_cell_angle_alpha   96.80407621
_cell_angle_beta   112.01025333
_cell_angle_gamma   89.92003591
_symmetry_Int_Tables_number   1
_chemical_formula_structural   Dy3Y5(LuRu2)2
_chemical_formula_sum   'Dy3 Y5 Lu2 Ru4'
_cell_volume   357.47591831
_cell_formula_units_Z   1
loop_
 _symmetry_equiv_pos_site_id
 _symmetry_equiv_pos_as_xyz
  1  'x, y, z'
loop_
 _atom_site_type_symbol
 _atom_site_label
 _atom_site_symmetry_multiplicity
 _atom_site_fract_x
 _atom_site_fract_y
 _atom_site_fract_z
 _atom_site_occupancy
  Dy  Dy0  1  0.702362  0.687360  0.568022  1
  Dy  Dy1  1  0.865485  0.187187  0.567876  1
  Dy  Dy2  1  0.134472  0.812779  0.432094  1
  Y  Y3  1  0.523168  0.083236  0.814289  1
  Y  Y4  1  0.476723  0.916774  0.185822  1
  Y  Y5  1  0.708717  0.416820  0.185991  1
  Y  Y6  1  0.291502  0.583120  0.814079  1
  Y  Y7  1  0.297893  0.312513  0.432275  1
  Lu  Lu8  1  0.077693  0.250201  0.000177  1
  Lu  Lu9  1  0.922364  0.749760  0.999932  1
  Ru  Ru10  1  0.317848  0.576014  0.217520  1
  Ru  Ru11  1  0.682511  0.424712  0.782296  1
  Ru  Ru12  1  0.099664  0.925131  0.781813  1
  Ru  Ru13  1  0.899597  0.074393  0.217813  1
