# generated using pymatgen
data_Hf16Co4Re3Os
_symmetry_space_group_name_H-M   'P 1'
_cell_length_a   8.62159595
_cell_length_b   8.61193795
_cell_length_c   8.61193900
_cell_angle_alpha   59.99999981
_cell_angle_beta   60.03704914
_cell_angle_gamma   60.03705301
_symmetry_Int_Tables_number   1
_chemical_formula_structural   Hf16Co4Re3Os
_chemical_formula_sum   'Hf16 Co4 Re3 Os1'
_cell_volume   452.39468507
_cell_formula_units_Z   1
loop_
 _symmetry_equiv_pos_site_id
 _symmetry_equiv_pos_as_xyz
  1  'x, y, z'
loop_
 _atom_site_type_symbol
 _atom_site_label
 _atom_site_symmetry_multiplicity
 _atom_site_fract_x
 _atom_site_fract_y
 _atom_site_fract_z
 _atom_site_occupancy
  Hf  Hf0  1  0.696698  0.101100  0.101100  1
  Hf  Hf1  1  0.101153  0.696988  0.100929  1
  Hf  Hf2  1  0.101153  0.100929  0.696988  1
  Hf  Hf3  1  0.101153  0.100929  0.100929  1
  Hf  Hf4  1  0.314767  0.314919  0.685157  1
  Hf  Hf5  1  0.685002  0.685865  0.314566  1
  Hf  Hf6  1  0.314767  0.685157  0.314919  1
  Hf  Hf7  1  0.685002  0.314566  0.685865  1
  Hf  Hf8  1  0.685002  0.314566  0.314566  1
  Hf  Hf9  1  0.314767  0.685157  0.685157  1
  Hf  Hf10  1  0.954341  0.953664  0.545998  1
  Hf  Hf11  1  0.545937  0.545854  0.954104  1
  Hf  Hf12  1  0.954341  0.545998  0.953664  1
  Hf  Hf13  1  0.545937  0.954104  0.545854  1
  Hf  Hf14  1  0.545937  0.954104  0.954104  1
  Hf  Hf15  1  0.954341  0.545998  0.545998  1
  Co  Co16  1  0.329378  0.890207  0.890207  1
  Co  Co17  1  0.890459  0.329619  0.889960  1
  Co  Co18  1  0.890459  0.889960  0.329619  1
  Co  Co19  1  0.890459  0.889960  0.889960  1
  Re  Re20  1  0.333074  0.002202  0.332362  1
  Re  Re21  1  0.333074  0.332362  0.002202  1
  Re  Re22  1  0.333074  0.332362  0.332362  1
  Os  Os23  1  0.999723  0.333426  0.333426  1
