# generated using pymatgen
data_Ce2Nd3Tm3(CdRu)2
_symmetry_space_group_name_H-M   'P 1'
_cell_length_a   9.66269942
_cell_length_b   9.66269899
_cell_length_c   9.66269900
_cell_angle_alpha   59.99999654
_cell_angle_beta   59.99999802
_cell_angle_gamma   59.99999127
_symmetry_Int_Tables_number   1
_chemical_formula_structural   Ce2Nd3Tm3(CdRu)2
_chemical_formula_sum   'Ce4 Nd6 Tm6 Cd4 Ru4'
_cell_volume   637.94072492
_cell_formula_units_Z   2
loop_
 _symmetry_equiv_pos_site_id
 _symmetry_equiv_pos_as_xyz
  1  'x, y, z'
loop_
 _atom_site_type_symbol
 _atom_site_label
 _atom_site_symmetry_multiplicity
 _atom_site_fract_x
 _atom_site_fract_y
 _atom_site_fract_z
 _atom_site_occupancy
  Ce  Ce0  1  0.346223  0.346223  0.961333  1
  Ce  Ce1  1  0.346223  0.961333  0.346223  1
  Ce  Ce2  1  0.961333  0.346223  0.346223  1
  Ce  Ce3  1  0.346223  0.346223  0.346223  1
  Nd  Nd4  1  0.558578  0.558578  0.941422  1
  Nd  Nd5  1  0.941422  0.558578  0.941422  1
  Nd  Nd6  1  0.558578  0.941422  0.941422  1
  Nd  Nd7  1  0.941422  0.941422  0.558578  1
  Nd  Nd8  1  0.558578  0.941422  0.558578  1
  Nd  Nd9  1  0.941422  0.558578  0.558578  1
  Tm  Tm10  1  0.185155  0.185155  0.814845  1
  Tm  Tm11  1  0.814845  0.185155  0.814845  1
  Tm  Tm12  1  0.185154  0.814846  0.814845  1
  Tm  Tm13  1  0.814845  0.814846  0.185155  1
  Tm  Tm14  1  0.185154  0.814845  0.185154  1
  Tm  Tm15  1  0.814845  0.185155  0.185155  1
  Cd  Cd16  1  0.579363  0.579363  0.261910  1
  Cd  Cd17  1  0.579363  0.261910  0.579363  1
  Cd  Cd18  1  0.261910  0.579363  0.579363  1
  Cd  Cd19  1  0.579363  0.579363  0.579363  1
  Ru  Ru20  1  0.143909  0.143909  0.568274  1
  Ru  Ru21  1  0.143909  0.568274  0.143909  1
  Ru  Ru22  1  0.568274  0.143909  0.143909  1
  Ru  Ru23  1  0.143909  0.143909  0.143909  1
