# generated using pymatgen
data_La7Yb3(Si9Hg)2
_symmetry_space_group_name_H-M   'P 1'
_cell_length_a   4.21478920
_cell_length_b   4.27289780
_cell_length_c   35.93915300
_cell_angle_alpha   86.42867753
_cell_angle_beta   86.32813080
_cell_angle_gamma   90.01223388
_symmetry_Int_Tables_number   1
_chemical_formula_structural   La7Yb3(Si9Hg)2
_chemical_formula_sum   'La7 Yb3 Si18 Hg2'
_cell_volume   644.65251977
_cell_formula_units_Z   1
loop_
 _symmetry_equiv_pos_site_id
 _symmetry_equiv_pos_as_xyz
  1  'x, y, z'
loop_
 _atom_site_type_symbol
 _atom_site_label
 _atom_site_symmetry_multiplicity
 _atom_site_fract_x
 _atom_site_fract_y
 _atom_site_fract_z
 _atom_site_occupancy
  La  La0  1  0.948436  0.449574  0.101233  1
  La  La1  1  0.349541  0.849897  0.300909  1
  La  La2  1  0.752281  0.253027  0.494457  1
  La  La3  1  0.149405  0.648944  0.701450  1
  La  La4  1  0.547222  0.047428  0.905805  1
  La  La5  1  0.998797  0.998335  0.002550  1
  La  La6  1  0.399882  0.399667  0.200498  1
  Yb  Yb7  1  0.802549  0.801322  0.397181  1
  Yb  Yb8  1  0.203665  0.203481  0.593620  1
  Yb  Yb9  1  0.600355  0.600206  0.798703  1
  Si  Si10  1  0.465069  0.965490  0.067919  1
  Si  Si11  1  0.866342  0.366537  0.267380  1
  Si  Si12  1  0.268627  0.769314  0.461789  1
  Si  Si13  1  0.668549  0.166523  0.667573  1
  Si  Si14  1  0.066031  0.563805  0.872029  1
  Si  Si15  1  0.915452  0.916543  0.167787  1
  Si  Si16  1  0.317160  0.317861  0.365574  1
  Si  Si17  1  0.719065  0.720062  0.558679  1
  Si  Si18  1  0.116842  0.118501  0.763866  1
  Si  Si19  1  0.514961  0.515551  0.969699  1
  Si  Si20  1  0.432373  0.932317  0.134372  1
  Si  Si21  1  0.833634  0.332406  0.333586  1
  Si  Si22  1  0.235525  0.737218  0.527216  1
  Si  Si23  1  0.633289  0.131413  0.732253  1
  Si  Si24  1  0.031789  0.531132  0.936931  1
  Si  Si25  1  0.481560  0.481939  0.035577  1
  Si  Si26  1  0.882952  0.883371  0.234663  1
  Si  Si27  1  0.287294  0.285491  0.430091  1
  Hg  Hg28  1  0.687075  0.686533  0.628712  1
  Hg  Hg29  1  0.081479  0.083308  0.833500  1
