# generated using pymatgen
data_Nd3Gd3(RuO7)2
_symmetry_space_group_name_H-M   'P 1'
_cell_length_a   6.53704498
_cell_length_b   6.55344675
_cell_length_c   7.56341100
_cell_angle_alpha   90.00000000
_cell_angle_beta   90.00000000
_cell_angle_gamma   110.90369043
_symmetry_Int_Tables_number   1
_chemical_formula_structural   Nd3Gd3(RuO7)2
_chemical_formula_sum   'Nd3 Gd3 Ru2 O14'
_cell_volume   302.69148850
_cell_formula_units_Z   1
loop_
 _symmetry_equiv_pos_site_id
 _symmetry_equiv_pos_as_xyz
  1  'x, y, z'
loop_
 _atom_site_type_symbol
 _atom_site_label
 _atom_site_symmetry_multiplicity
 _atom_site_fract_x
 _atom_site_fract_y
 _atom_site_fract_z
 _atom_site_occupancy
  Nd  Nd0  1  0.474751  0.916985  0.750000  1
  Nd  Nd1  1  0.000067  0.001464  0.499358  1
  Nd  Nd2  1  0.000067  0.001464  0.000642  1
  Gd  Gd3  1  0.521492  0.073963  0.250000  1
  Gd  Gd4  1  0.923217  0.478145  0.750000  1
  Gd  Gd5  1  0.075070  0.522388  0.250000  1
  Ru  Ru6  1  0.501024  0.499570  0.498622  1
  Ru  Ru7  1  0.501024  0.499570  0.001378  1
  O  O8  1  0.584858  0.579567  0.750000  1
  O  O9  1  0.414110  0.414804  0.250000  1
  O  O10  1  0.845356  0.117078  0.750000  1
  O  O11  1  0.159913  0.886584  0.250000  1
  O  O12  1  0.101274  0.838505  0.750000  1
  O  O13  1  0.889316  0.163278  0.250000  1
  O  O14  1  0.435323  0.182386  0.965867  1
  O  O15  1  0.566854  0.817056  0.459114  1
  O  O16  1  0.187181  0.445485  0.961829  1
  O  O17  1  0.814872  0.558390  0.461318  1
  O  O18  1  0.435323  0.182386  0.534133  1
  O  O19  1  0.566854  0.817056  0.040886  1
  O  O20  1  0.814872  0.558390  0.038682  1
  O  O21  1  0.187181  0.445485  0.538171  1
