# generated using pymatgen
data_LiTm9(Sn3C)2
_symmetry_space_group_name_H-M   'P 1'
_cell_length_a   8.85467600
_cell_length_b   8.85467482
_cell_length_c   6.27550200
_cell_angle_alpha   90.00000000
_cell_angle_beta   90.00000000
_cell_angle_gamma   120.00000439
_symmetry_Int_Tables_number   1
_chemical_formula_structural   LiTm9(Sn3C)2
_chemical_formula_sum   'Li1 Tm9 Sn6 C2'
_cell_volume   426.11260000
_cell_formula_units_Z   1
loop_
 _symmetry_equiv_pos_site_id
 _symmetry_equiv_pos_as_xyz
  1  'x, y, z'
loop_
 _atom_site_type_symbol
 _atom_site_label
 _atom_site_symmetry_multiplicity
 _atom_site_fract_x
 _atom_site_fract_y
 _atom_site_fract_z
 _atom_site_occupancy
  Li  Li0  1  0.666667  0.333333  0.500000  1
  Tm  Tm1  1  0.333333  0.666667  0.500000  1
  Tm  Tm2  1  0.333333  0.666667  0.000000  1
  Tm  Tm3  1  0.666667  0.333333  0.000000  1
  Tm  Tm4  1  0.787714  0.787886  0.248905  1
  Tm  Tm5  1  0.212114  0.999828  0.248905  1
  Tm  Tm6  1  0.000172  0.212286  0.248905  1
  Tm  Tm7  1  0.212114  0.212286  0.751095  1
  Tm  Tm8  1  0.787714  0.999828  0.751095  1
  Tm  Tm9  1  0.000172  0.787886  0.751095  1
  Sn  Sn10  1  0.412159  0.409088  0.251865  1
  Sn  Sn11  1  0.590912  0.003072  0.251865  1
  Sn  Sn12  1  0.996928  0.587841  0.251865  1
  Sn  Sn13  1  0.590912  0.587841  0.748135  1
  Sn  Sn14  1  0.412159  0.003072  0.748135  1
  Sn  Sn15  1  0.996928  0.409088  0.748135  1
  C  C16  1  0.000000  0.000000  0.500000  1
  C  C17  1  0.000000  0.000000  0.000000  1
