# generated using pymatgen
data_CaEr3Ir8
_symmetry_space_group_name_H-M   'P 1'
_cell_length_a   5.34151000
_cell_length_b   5.34150919
_cell_length_c   8.70000700
_cell_angle_alpha   90.00000000
_cell_angle_beta   90.00000000
_cell_angle_gamma   119.99999261
_symmetry_Int_Tables_number   1
_chemical_formula_structural   CaEr3Ir8
_chemical_formula_sum   'Ca1 Er3 Ir8'
_cell_volume   214.97021560
_cell_formula_units_Z   1
loop_
 _symmetry_equiv_pos_site_id
 _symmetry_equiv_pos_as_xyz
  1  'x, y, z'
loop_
 _atom_site_type_symbol
 _atom_site_label
 _atom_site_symmetry_multiplicity
 _atom_site_fract_x
 _atom_site_fract_y
 _atom_site_fract_z
 _atom_site_occupancy
  Ca  Ca0  1  0.333333  0.666667  0.436335  1
  Er  Er1  1  0.333333  0.666667  0.074139  1
  Er  Er2  1  0.666667  0.333333  0.562124  1
  Er  Er3  1  0.666667  0.333333  0.930888  1
  Ir  Ir4  1  0.000000  0.000000  0.999525  1
  Ir  Ir5  1  0.000000  0.000000  0.499399  1
  Ir  Ir6  1  0.830186  0.660373  0.247976  1
  Ir  Ir7  1  0.170059  0.829941  0.751221  1
  Ir  Ir8  1  0.659883  0.829941  0.751221  1
  Ir  Ir9  1  0.339627  0.169814  0.247976  1
  Ir  Ir10  1  0.830186  0.169814  0.247976  1
  Ir  Ir11  1  0.170059  0.340117  0.751221  1
