# generated using pymatgen
data_DyLu4Nb2P12Ir17
_symmetry_space_group_name_H-M   'P 1'
_cell_length_a   12.57412100
_cell_length_b   12.77985144
_cell_length_c   3.98091000
_cell_angle_alpha   90.00000000
_cell_angle_beta   90.00000000
_cell_angle_gamma   119.46889757
_symmetry_Int_Tables_number   1
_chemical_formula_structural   DyLu4Nb2P12Ir17
_chemical_formula_sum   'Dy1 Lu4 Nb2 P12 Ir17'
_cell_volume   556.94957061
_cell_formula_units_Z   1
loop_
 _symmetry_equiv_pos_site_id
 _symmetry_equiv_pos_as_xyz
  1  'x, y, z'
loop_
 _atom_site_type_symbol
 _atom_site_label
 _atom_site_symmetry_multiplicity
 _atom_site_fract_x
 _atom_site_fract_y
 _atom_site_fract_z
 _atom_site_occupancy
  Dy  Dy0  1  0.815449  0.000000  0.000000  1
  Lu  Lu1  1  0.330236  0.660851  0.500000  1
  Lu  Lu2  1  0.669386  0.339149  0.500000  1
  Lu  Lu3  1  0.998519  0.813727  0.000000  1
  Lu  Lu4  1  0.184792  0.186273  0.000000  1
  Nb  Nb5  1  0.997742  0.451197  0.500000  1
  Nb  Nb6  1  0.546544  0.548803  0.500000  1
  P  P7  1  0.003249  0.643364  0.500000  1
  P  P8  1  0.359886  0.356636  0.500000  1
  P  P9  1  0.645983  0.000000  0.500000  1
  P  P10  1  0.514097  0.683325  0.000000  1
  P  P11  1  0.309174  0.823806  0.000000  1
  P  P12  1  0.163538  0.481653  0.000000  1
  P  P13  1  0.485368  0.176194  0.000000  1
  P  P14  1  0.681885  0.518347  0.000000  1
  P  P15  1  0.830772  0.316675  0.000000  1
  P  P16  1  0.000805  0.175321  0.500000  1
  P  P17  1  0.825483  0.824679  0.500000  1
  P  P18  1  0.180842  0.000000  0.500000  1
  Ir  Ir19  1  0.504350  0.862605  0.000000  1
  Ir  Ir20  1  0.128899  0.641641  0.000000  1
  Ir  Ir21  1  0.354035  0.494636  0.000000  1
  Ir  Ir22  1  0.487259  0.358359  0.000000  1
  Ir  Ir23  1  0.859401  0.505364  0.000000  1
  Ir  Ir24  1  0.641746  0.137395  0.000000  1
  Ir  Ir25  1  0.464409  0.000000  0.500000  1
  Ir  Ir26  1  0.997936  0.282447  0.000000  1
  Ir  Ir27  1  0.715488  0.717553  0.000000  1
  Ir  Ir28  1  0.291082  0.000000  0.000000  1
  Ir  Ir29  1  0.624144  0.806670  0.500000  1
  Ir  Ir30  1  0.199970  0.823268  0.500000  1
  Ir  Ir31  1  0.178066  0.366739  0.500000  1
  Ir  Ir32  1  0.376702  0.176732  0.500000  1
  Ir  Ir33  1  0.811325  0.633261  0.500000  1
  Ir  Ir34  1  0.817474  0.193330  0.500000  1
  Ir  Ir35  1  0.003964  0.000000  0.500000  1
