# generated using pymatgen
data_NaLiTa3Ni9P7
_symmetry_space_group_name_H-M   'P 1'
_cell_length_a   9.25479000
_cell_length_b   9.25479079
_cell_length_c   3.62733200
_cell_angle_alpha   90.00000000
_cell_angle_beta   90.00000000
_cell_angle_gamma   120.00001149
_symmetry_Int_Tables_number   1
_chemical_formula_structural   NaLiTa3Ni9P7
_chemical_formula_sum   'Na1 Li1 Ta3 Ni9 P7'
_cell_volume   269.06119259
_cell_formula_units_Z   1
loop_
 _symmetry_equiv_pos_site_id
 _symmetry_equiv_pos_as_xyz
  1  'x, y, z'
loop_
 _atom_site_type_symbol
 _atom_site_label
 _atom_site_symmetry_multiplicity
 _atom_site_fract_x
 _atom_site_fract_y
 _atom_site_fract_z
 _atom_site_occupancy
  Na  Na0  1  0.666667  0.333333  0.500000  1
  Li  Li1  1  0.333333  0.666667  0.000000  1
  Ta  Ta2  1  0.873739  0.774303  0.500000  1
  Ta  Ta3  1  0.900563  0.126261  0.500000  1
  Ta  Ta4  1  0.225697  0.099437  0.500000  1
  Ni  Ni5  1  0.711424  0.874060  0.000000  1
  Ni  Ni6  1  0.162635  0.288576  0.000000  1
  Ni  Ni7  1  0.125940  0.837365  0.000000  1
  Ni  Ni8  1  0.627401  0.566770  0.000000  1
  Ni  Ni9  1  0.939370  0.372599  0.000000  1
  Ni  Ni10  1  0.433230  0.060630  0.000000  1
  Ni  Ni11  1  0.555768  0.942512  0.500000  1
  Ni  Ni12  1  0.386744  0.444232  0.500000  1
  Ni  Ni13  1  0.057488  0.613256  0.500000  1
  P  P14  1  0.577902  0.708334  0.500000  1
  P  P15  1  0.130432  0.422098  0.500000  1
  P  P16  1  0.291666  0.869568  0.500000  1
  P  P17  1  0.000000  0.000000  0.000000  1
  P  P18  1  0.884783  0.582113  0.000000  1
  P  P19  1  0.697330  0.115217  0.000000  1
  P  P20  1  0.417887  0.302670  0.000000  1
