# generated using pymatgen
data_CeCu3AgPt
_symmetry_space_group_name_H-M   'P 1'
_cell_length_a   5.21497276
_cell_length_b   5.21497292
_cell_length_c   5.21497185
_cell_angle_alpha   59.15845377
_cell_angle_beta   59.15844775
_cell_angle_gamma   59.15845235
_symmetry_Int_Tables_number   1
_chemical_formula_structural   CeCu3AgPt
_chemical_formula_sum   'Ce1 Cu3 Ag1 Pt1'
_cell_volume   98.36286150
_cell_formula_units_Z   1
loop_
 _symmetry_equiv_pos_site_id
 _symmetry_equiv_pos_as_xyz
  1  'x, y, z'
loop_
 _atom_site_type_symbol
 _atom_site_label
 _atom_site_symmetry_multiplicity
 _atom_site_fract_x
 _atom_site_fract_y
 _atom_site_fract_z
 _atom_site_occupancy
  Ce  Ce0  1  0.001006  0.001006  0.001006  1
  Cu  Cu1  1  0.870249  0.374864  0.374864  1
  Cu  Cu2  1  0.374864  0.870249  0.374864  1
  Cu  Cu3  1  0.374864  0.374864  0.870249  1
  Ag  Ag4  1  0.754998  0.754998  0.754998  1
  Pt  Pt5  1  0.374017  0.374017  0.374017  1
