# generated using pymatgen
data_Nd6Zn4Pt13
_symmetry_space_group_name_H-M   'P 1'
_cell_length_a   8.39872291
_cell_length_b   8.39872368
_cell_length_c   8.39872400
_cell_angle_alpha   109.47121658
_cell_angle_beta   109.47121845
_cell_angle_gamma   109.47122777
_symmetry_Int_Tables_number   1
_chemical_formula_structural   Nd6Zn4Pt13
_chemical_formula_sum   'Nd6 Zn4 Pt13'
_cell_volume   456.05577573
_cell_formula_units_Z   1
loop_
 _symmetry_equiv_pos_site_id
 _symmetry_equiv_pos_as_xyz
  1  'x, y, z'
loop_
 _atom_site_type_symbol
 _atom_site_label
 _atom_site_symmetry_multiplicity
 _atom_site_fract_x
 _atom_site_fract_y
 _atom_site_fract_z
 _atom_site_occupancy
  Nd  Nd0  1  0.699189  0.699189  0.000000  1
  Nd  Nd1  1  0.300811  0.000000  0.300811  1
  Nd  Nd2  1  0.000000  0.300811  0.300811  1
  Nd  Nd3  1  0.300811  0.300811  0.000000  1
  Nd  Nd4  1  0.699189  0.000000  0.699189  1
  Nd  Nd5  1  0.000000  0.699189  0.699189  1
  Zn  Zn6  1  0.000000  0.000000  0.500000  1
  Zn  Zn7  1  0.000000  0.500000  0.000000  1
  Zn  Zn8  1  0.500000  0.000000  0.000000  1
  Zn  Zn9  1  0.500000  0.500000  0.500000  1
  Pt  Pt10  1  0.330206  0.330206  0.660412  1
  Pt  Pt11  1  0.669794  0.000000  0.330206  1
  Pt  Pt12  1  0.000000  0.669794  0.330206  1
  Pt  Pt13  1  0.669794  0.330206  0.000000  1
  Pt  Pt14  1  0.330206  0.660412  0.330206  1
  Pt  Pt15  1  0.000000  0.330206  0.669794  1
  Pt  Pt16  1  0.330206  0.669794  0.000000  1
  Pt  Pt17  1  0.330206  0.000000  0.669794  1
  Pt  Pt18  1  0.660412  0.330206  0.330206  1
  Pt  Pt19  1  0.669794  0.669794  0.339588  1
  Pt  Pt20  1  0.669794  0.339588  0.669794  1
  Pt  Pt21  1  0.339588  0.669794  0.669794  1
  Pt  Pt22  1  0.000000  0.000000  0.000000  1
