# generated using pymatgen
data_Ti2SiIr4Rh
_symmetry_space_group_name_H-M   'P 1'
_cell_length_a   3.94917700
_cell_length_b   5.43263400
_cell_length_c   10.64151700
_cell_angle_alpha   90.00000000
_cell_angle_beta   90.00000000
_cell_angle_gamma   90.00000000
_symmetry_Int_Tables_number   1
_chemical_formula_structural   Ti2SiIr4Rh
_chemical_formula_sum   'Ti4 Si2 Ir8 Rh2'
_cell_volume   228.30771607
_cell_formula_units_Z   2
loop_
 _symmetry_equiv_pos_site_id
 _symmetry_equiv_pos_as_xyz
  1  'x, y, z'
loop_
 _atom_site_type_symbol
 _atom_site_label
 _atom_site_symmetry_multiplicity
 _atom_site_fract_x
 _atom_site_fract_y
 _atom_site_fract_z
 _atom_site_occupancy
  Ti  Ti0  1  0.500000  0.325316  0.140084  1
  Ti  Ti1  1  0.500000  0.674684  0.859916  1
  Ti  Ti2  1  0.500000  0.825316  0.359916  1
  Ti  Ti3  1  0.500000  0.174684  0.640084  1
  Si  Si4  1  0.000000  0.000000  0.000000  1
  Si  Si5  1  0.000000  0.500000  0.500000  1
  Ir  Ir6  1  0.000000  0.072477  0.244123  1
  Ir  Ir7  1  0.000000  0.927523  0.755877  1
  Ir  Ir8  1  0.000000  0.572477  0.255877  1
  Ir  Ir9  1  0.000000  0.427523  0.744123  1
  Ir  Ir10  1  0.500000  0.317496  0.393809  1
  Ir  Ir11  1  0.500000  0.682504  0.606191  1
  Ir  Ir12  1  0.500000  0.817496  0.106191  1
  Ir  Ir13  1  0.500000  0.182504  0.893809  1
  Rh  Rh14  1  0.000000  0.000000  0.500000  1
  Rh  Rh15  1  0.000000  0.500000  0.000000  1
