# generated using pymatgen
data_Sc4CrReOs6
_symmetry_space_group_name_H-M   'P 1'
_cell_length_a   5.22866489
_cell_length_b   5.18000791
_cell_length_c   8.63136700
_cell_angle_alpha   90.00000000
_cell_angle_beta   90.00000000
_cell_angle_gamma   121.60670104
_symmetry_Int_Tables_number   1
_chemical_formula_structural   Sc4CrReOs6
_chemical_formula_sum   'Sc4 Cr1 Re1 Os6'
_cell_volume   199.09939619
_cell_formula_units_Z   1
loop_
 _symmetry_equiv_pos_site_id
 _symmetry_equiv_pos_as_xyz
  1  'x, y, z'
loop_
 _atom_site_type_symbol
 _atom_site_label
 _atom_site_symmetry_multiplicity
 _atom_site_fract_x
 _atom_site_fract_y
 _atom_site_fract_z
 _atom_site_occupancy
  Sc  Sc0  1  0.337164  0.664723  0.436499  1
  Sc  Sc1  1  0.667625  0.337488  0.566549  1
  Sc  Sc2  1  0.667625  0.337488  0.933451  1
  Sc  Sc3  1  0.337164  0.664723  0.063501  1
  Cr  Cr4  1  0.167253  0.335221  0.750000  1
  Re  Re5  1  0.336668  0.165681  0.250000  1
  Os  Os6  1  0.168443  0.821310  0.750000  1
  Os  Os7  1  0.824556  0.653322  0.250000  1
  Os  Os8  1  0.642301  0.815260  0.750000  1
  Os  Os9  1  0.014085  0.017914  0.995318  1
  Os  Os10  1  0.823032  0.168957  0.250000  1
  Os  Os11  1  0.014085  0.017914  0.504682  1
