# generated using pymatgen
data_HoErGa3Co14
_symmetry_space_group_name_H-M   'P 1'
_cell_length_a   6.33844294
_cell_length_b   6.33844302
_cell_length_c   6.33844206
_cell_angle_alpha   82.62354250
_cell_angle_beta   82.62354493
_cell_angle_gamma   82.62355136
_symmetry_Int_Tables_number   1
_chemical_formula_structural   HoErGa3Co14
_chemical_formula_sum   'Ho1 Er1 Ga3 Co14'
_cell_volume   248.82833461
_cell_formula_units_Z   1
loop_
 _symmetry_equiv_pos_site_id
 _symmetry_equiv_pos_as_xyz
  1  'x, y, z'
loop_
 _atom_site_type_symbol
 _atom_site_label
 _atom_site_symmetry_multiplicity
 _atom_site_fract_x
 _atom_site_fract_y
 _atom_site_fract_z
 _atom_site_occupancy
  Ho  Ho0  1  0.659431  0.659431  0.659431  1
  Er  Er1  1  0.331727  0.331727  0.331727  1
  Ga  Ga2  1  0.156559  0.651315  0.651315  1
  Ga  Ga3  1  0.651315  0.651315  0.156559  1
  Ga  Ga4  1  0.651315  0.156559  0.651315  1
  Co  Co5  1  0.908158  0.908158  0.908158  1
  Co  Co6  1  0.094661  0.094661  0.094661  1
  Co  Co7  1  0.004744  0.004744  0.496048  1
  Co  Co8  1  0.004744  0.496048  0.004744  1
  Co  Co9  1  0.496048  0.004744  0.004744  1
  Co  Co10  1  0.288183  0.713002  0.001674  1
  Co  Co11  1  0.713002  0.001674  0.288183  1
  Co  Co12  1  0.001674  0.288183  0.713002  1
  Co  Co13  1  0.288183  0.001674  0.713002  1
  Co  Co14  1  0.001674  0.713002  0.288183  1
  Co  Co15  1  0.713002  0.288183  0.001674  1
  Co  Co16  1  0.855016  0.340285  0.340285  1
  Co  Co17  1  0.340285  0.340285  0.855016  1
  Co  Co18  1  0.340285  0.855016  0.340285  1
