# generated using pymatgen
data_La2Dy2B4I5
_symmetry_space_group_name_H-M   'P 1'
_cell_length_a   9.85849680
_cell_length_b   9.85849649
_cell_length_c   9.75158492
_cell_angle_alpha   75.51391684
_cell_angle_beta   75.51391648
_cell_angle_gamma   25.30174272
_symmetry_Int_Tables_number   1
_chemical_formula_structural   La2Dy2B4I5
_chemical_formula_sum   'La2 Dy2 B4 I5'
_cell_volume   391.51969296
_cell_formula_units_Z   1
loop_
 _symmetry_equiv_pos_site_id
 _symmetry_equiv_pos_as_xyz
  1  'x, y, z'
loop_
 _atom_site_type_symbol
 _atom_site_label
 _atom_site_symmetry_multiplicity
 _atom_site_fract_x
 _atom_site_fract_y
 _atom_site_fract_z
 _atom_site_occupancy
  La  La0  1  0.134795  0.134795  0.931007  1
  La  La1  1  0.867101  0.867101  0.067450  1
  Dy  Dy2  1  0.503474  0.503474  0.753754  1
  Dy  Dy3  1  0.498557  0.498557  0.245137  1
  B  B4  1  0.315529  0.686295  0.999493  1
  B  B5  1  0.686295  0.315529  0.999493  1
  B  B6  1  0.000730  0.000730  0.097836  1
  B  B7  1  0.001144  0.001144  0.901103  1
  I  I8  1  0.669625  0.669625  0.664566  1
  I  I9  1  0.332465  0.332465  0.334345  1
  I  I10  1  0.332119  0.332119  0.830130  1
  I  I11  1  0.670289  0.670289  0.167108  1
  I  I12  1  0.002177  0.002177  0.498777  1
