# generated using pymatgen
data_Tm3Th(InPd2)2
_symmetry_space_group_name_H-M   'P 1'
_cell_length_a   7.76927594
_cell_length_b   7.76927594
_cell_length_c   3.69300400
_cell_angle_alpha   90.00000000
_cell_angle_beta   90.00000000
_cell_angle_gamma   90.66019809
_symmetry_Int_Tables_number   1
_chemical_formula_structural   Tm3Th(InPd2)2
_chemical_formula_sum   'Tm3 Th1 In2 Pd4'
_cell_volume   222.90101171
_cell_formula_units_Z   1
loop_
 _symmetry_equiv_pos_site_id
 _symmetry_equiv_pos_as_xyz
  1  'x, y, z'
loop_
 _atom_site_type_symbol
 _atom_site_label
 _atom_site_symmetry_multiplicity
 _atom_site_fract_x
 _atom_site_fract_y
 _atom_site_fract_z
 _atom_site_occupancy
  Tm  Tm0  1  0.826124  0.667304  0.500000  1
  Tm  Tm1  1  0.167304  0.326124  0.500000  1
  Tm  Tm2  1  0.675127  0.175127  0.500000  1
  Th  Th3  1  0.329457  0.829457  0.500000  1
  In  In4  1  0.993522  0.003674  0.000000  1
  In  In5  1  0.503674  0.493522  0.000000  1
  Pd  Pd6  1  0.372719  0.130162  0.000000  1
  Pd  Pd7  1  0.873044  0.373044  0.000000  1
  Pd  Pd8  1  0.128867  0.628867  0.000000  1
  Pd  Pd9  1  0.630162  0.872719  0.000000  1
