# generated using pymatgen
data_Ba7NaUInS12
_symmetry_space_group_name_H-M   'P 1'
_cell_length_a   8.63771644
_cell_length_b   8.63771600
_cell_length_c   8.63771647
_cell_angle_alpha   90.24744459
_cell_angle_beta   90.24744433
_cell_angle_gamma   90.24745293
_symmetry_Int_Tables_number   1
_chemical_formula_structural   Ba7NaUInS12
_chemical_formula_sum   'Ba7 Na1 U1 In1 S12'
_cell_volume   644.44316494
_cell_formula_units_Z   1
loop_
 _symmetry_equiv_pos_site_id
 _symmetry_equiv_pos_as_xyz
  1  'x, y, z'
loop_
 _atom_site_type_symbol
 _atom_site_label
 _atom_site_symmetry_multiplicity
 _atom_site_fract_x
 _atom_site_fract_y
 _atom_site_fract_z
 _atom_site_occupancy
  Ba  Ba0  1  0.873781  0.613197  0.262364  1
  Ba  Ba1  1  0.262364  0.873781  0.613197  1
  Ba  Ba2  1  0.613197  0.262364  0.873781  1
  Ba  Ba3  1  0.732531  0.131765  0.379403  1
  Ba  Ba4  1  0.379403  0.732531  0.131765  1
  Ba  Ba5  1  0.131765  0.379403  0.732531  1
  Ba  Ba6  1  0.741297  0.741297  0.741297  1
  Na  Na7  1  0.262724  0.262724  0.262724  1
  U  U8  1  0.005300  0.005300  0.005300  1
  In  In9  1  0.494145  0.494145  0.494145  1
  S  S10  1  0.204200  0.559803  0.416811  1
  S  S11  1  0.416811  0.204200  0.559803  1
  S  S12  1  0.559803  0.416811  0.204200  1
  S  S13  1  0.933159  0.054038  0.716997  1
  S  S14  1  0.716997  0.933159  0.054038  1
  S  S15  1  0.054038  0.716997  0.933159  1
  S  S16  1  0.795161  0.433223  0.581915  1
  S  S17  1  0.581915  0.795161  0.433223  1
  S  S18  1  0.433223  0.581915  0.795161  1
  S  S19  1  0.069499  0.950678  0.288008  1
  S  S20  1  0.288008  0.069499  0.950678  1
  S  S21  1  0.950678  0.288008  0.069499  1
