# generated using pymatgen
data_TbY(Al3Ir)3
_symmetry_space_group_name_H-M   'P 1'
_cell_length_a   7.55943386
_cell_length_b   7.55832374
_cell_length_c   9.49421200
_cell_angle_alpha   89.99990534
_cell_angle_beta   90.00015425
_cell_angle_gamma   119.56516439
_symmetry_Int_Tables_number   1
_chemical_formula_structural   TbY(Al3Ir)3
_chemical_formula_sum   'Tb2 Y2 Al18 Ir6'
_cell_volume   471.83552408
_cell_formula_units_Z   2
loop_
 _symmetry_equiv_pos_site_id
 _symmetry_equiv_pos_as_xyz
  1  'x, y, z'
loop_
 _atom_site_type_symbol
 _atom_site_label
 _atom_site_symmetry_multiplicity
 _atom_site_fract_x
 _atom_site_fract_y
 _atom_site_fract_z
 _atom_site_occupancy
  Tb  Tb0  1  0.670538  0.994811  0.249997  1
  Tb  Tb1  1  0.329462  0.005189  0.750003  1
  Y  Y2  1  0.994738  0.670377  0.250001  1
  Y  Y3  1  0.005262  0.329623  0.749999  1
  Al  Al4  1  0.128274  0.128314  0.249998  1
  Al  Al5  1  0.871726  0.871686  0.750002  1
  Al  Al6  1  0.001155  0.334996  0.073249  1
  Al  Al7  1  0.998845  0.665004  0.926751  1
  Al  Al8  1  0.998845  0.665005  0.573249  1
  Al  Al9  1  0.334704  0.001054  0.426662  1
  Al  Al10  1  0.001155  0.334995  0.426751  1
  Al  Al11  1  0.665296  0.998946  0.573338  1
  Al  Al12  1  0.665296  0.998946  0.926662  1
  Al  Al13  1  0.334704  0.001054  0.073338  1
  Al  Al14  1  0.333521  0.333639  0.551838  1
  Al  Al15  1  0.666479  0.666361  0.448162  1
  Al  Al16  1  0.666480  0.666361  0.051838  1
  Al  Al17  1  0.333520  0.333639  0.948162  1
  Al  Al18  1  0.338863  0.547328  0.249999  1
  Al  Al19  1  0.661137  0.452672  0.750001  1
  Al  Al20  1  0.547427  0.338961  0.250000  1
  Al  Al21  1  0.452573  0.661039  0.750000  1
  Ir  Ir22  1  0.671984  0.328034  0.000045  1
  Ir  Ir23  1  0.328016  0.671966  0.999955  1
  Ir  Ir24  1  0.328017  0.671966  0.500044  1
  Ir  Ir25  1  0.671983  0.328034  0.499956  1
  Ir  Ir26  1  0.000000  0.000000  0.000000  1
  Ir  Ir27  1  0.000000  0.000000  0.500000  1
