# generated using pymatgen
data_Be5Nb6PRu6
_symmetry_space_group_name_H-M   'P 1'
_cell_length_a   7.35685675
_cell_length_b   7.35597110
_cell_length_c   7.35659272
_cell_angle_alpha   126.32677787
_cell_angle_beta   129.18001626
_cell_angle_gamma   77.04639419
_symmetry_Int_Tables_number   1
_chemical_formula_structural   Be5Nb6PRu6
_chemical_formula_sum   'Be5 Nb6 P1 Ru6'
_cell_volume   241.34154669
_cell_formula_units_Z   1
loop_
 _symmetry_equiv_pos_site_id
 _symmetry_equiv_pos_as_xyz
  1  'x, y, z'
loop_
 _atom_site_type_symbol
 _atom_site_label
 _atom_site_symmetry_multiplicity
 _atom_site_fract_x
 _atom_site_fract_y
 _atom_site_fract_z
 _atom_site_occupancy
  Be  Be0  1  0.750206  0.497158  0.246918  1
  Be  Be1  1  0.250083  0.496783  0.747146  1
  Be  Be2  1  0.332381  0.830097  0.498486  1
  Be  Be3  1  0.665686  0.163378  0.495804  1
  Be  Be4  1  0.834236  0.829897  0.994742  1
  Nb  Nb5  1  0.553980  0.089628  0.043908  1
  Nb  Nb6  1  0.457367  0.503265  0.553640  1
  Nb  Nb7  1  0.949670  0.502837  0.045298  1
  Nb  Nb8  1  0.045247  0.089335  0.535686  1
  Nb  Nb9  1  0.742053  0.898237  0.646239  1
  Nb  Nb10  1  0.251106  0.897330  0.155886  1
  P  P11  1  0.167341  0.163497  0.997362  1
  Ru  Ru12  1  0.500056  0.245683  0.745637  1
  Ru  Ru13  1  0.999576  0.245417  0.246090  1
  Ru  Ru14  1  0.125763  0.747683  0.622527  1
  Ru  Ru15  1  0.874095  0.495004  0.620639  1
  Ru  Ru16  1  0.625740  0.747471  0.121553  1
  Ru  Ru17  1  0.375415  0.499501  0.124642  1
