# generated using pymatgen
data_Nd16Cd3InRu4
_symmetry_space_group_name_H-M   'P 1'
_cell_length_a   9.96842684
_cell_length_b   9.96837258
_cell_length_c   9.96837331
_cell_angle_alpha   59.43935987
_cell_angle_beta   59.44003256
_cell_angle_gamma   59.44002903
_symmetry_Int_Tables_number   1
_chemical_formula_structural   Nd16Cd3InRu4
_chemical_formula_sum   'Nd16 Cd3 In1 Ru4'
_cell_volume   691.49581419
_cell_formula_units_Z   1
loop_
 _symmetry_equiv_pos_site_id
 _symmetry_equiv_pos_as_xyz
  1  'x, y, z'
loop_
 _atom_site_type_symbol
 _atom_site_label
 _atom_site_symmetry_multiplicity
 _atom_site_fract_x
 _atom_site_fract_y
 _atom_site_fract_z
 _atom_site_occupancy
  Nd  Nd0  1  0.596463  0.596438  0.596438  1
  Nd  Nd1  1  0.596173  0.596190  0.210390  1
  Nd  Nd2  1  0.596173  0.210390  0.596190  1
  Nd  Nd3  1  0.210384  0.596179  0.596179  1
  Nd  Nd4  1  0.059024  0.440461  0.440461  1
  Nd  Nd5  1  0.442090  0.058723  0.058723  1
  Nd  Nd6  1  0.440466  0.059024  0.440457  1
  Nd  Nd7  1  0.058723  0.442095  0.058720  1
  Nd  Nd8  1  0.440466  0.440457  0.059024  1
  Nd  Nd9  1  0.058723  0.058720  0.442095  1
  Nd  Nd10  1  0.189356  0.812060  0.812060  1
  Nd  Nd11  1  0.810021  0.190633  0.190633  1
  Nd  Nd12  1  0.812084  0.189342  0.812079  1
  Nd  Nd13  1  0.190616  0.810016  0.190600  1
  Nd  Nd14  1  0.812084  0.812079  0.189342  1
  Nd  Nd15  1  0.190616  0.190600  0.810016  1
  Cd  Cd16  1  0.829098  0.829092  0.510808  1
  Cd  Cd17  1  0.829098  0.510808  0.829092  1
  Cd  Cd18  1  0.510811  0.829091  0.829091  1
  In  In19  1  0.829581  0.829617  0.829617  1
  Ru  Ru20  1  0.387273  0.387345  0.387345  1
  Ru  Ru21  1  0.387865  0.387864  0.834929  1
  Ru  Ru22  1  0.387865  0.834929  0.387864  1
  Ru  Ru23  1  0.834949  0.387847  0.387847  1
