# generated using pymatgen
data_MnAl2(SeO3)4
_symmetry_space_group_name_H-M   'P 1'
_cell_length_a   4.61730300
_cell_length_b   8.45003137
_cell_length_c   15.26028392
_cell_angle_alpha   71.70373101
_cell_angle_beta   89.99937284
_cell_angle_gamma   89.99918120
_symmetry_Int_Tables_number   1
_chemical_formula_structural   MnAl2(SeO3)4
_chemical_formula_sum   'Mn2 Al4 Se8 O24'
_cell_volume   565.30072667
_cell_formula_units_Z   2
loop_
 _symmetry_equiv_pos_site_id
 _symmetry_equiv_pos_as_xyz
  1  'x, y, z'
loop_
 _atom_site_type_symbol
 _atom_site_label
 _atom_site_symmetry_multiplicity
 _atom_site_fract_x
 _atom_site_fract_y
 _atom_site_fract_z
 _atom_site_occupancy
  Mn  Mn0  1  0.000000  0.000000  0.000000  1
  Mn  Mn1  1  0.500000  0.000000  0.500000  1
  Al  Al2  1  0.525082  0.138499  0.790215  1
  Al  Al3  1  0.974907  0.138502  0.290216  1
  Al  Al4  1  0.474918  0.861501  0.209785  1
  Al  Al5  1  0.025093  0.861498  0.709784  1
  Se  Se6  1  0.553948  0.788646  0.874196  1
  Se  Se7  1  0.946056  0.788646  0.374197  1
  Se  Se8  1  0.446052  0.211354  0.125804  1
  Se  Se9  1  0.053944  0.211354  0.625803  1
  Se  Se10  1  0.016386  0.343058  0.863816  1
  Se  Se11  1  0.483596  0.343059  0.363820  1
  Se  Se12  1  0.983614  0.656942  0.136184  1
  Se  Se13  1  0.516404  0.656941  0.636180  1
  O  O14  1  0.743212  0.323257  0.790343  1
  O  O15  1  0.756776  0.323256  0.290347  1
  O  O16  1  0.256788  0.676743  0.209657  1
  O  O17  1  0.243224  0.676744  0.709653  1
  O  O18  1  0.830732  0.731183  0.816543  1
  O  O19  1  0.669275  0.731183  0.316544  1
  O  O20  1  0.169268  0.268817  0.183457  1
  O  O21  1  0.330725  0.268817  0.683456  1
  O  O22  1  0.235038  0.166131  0.872054  1
  O  O23  1  0.264952  0.166131  0.372057  1
  O  O24  1  0.764962  0.833869  0.127946  1
  O  O25  1  0.735048  0.833869  0.627943  1
  O  O26  1  0.687621  0.966970  0.895881  1
  O  O27  1  0.812375  0.966972  0.395881  1
  O  O28  1  0.312379  0.033030  0.104119  1
  O  O29  1  0.187625  0.033028  0.604119  1
  O  O30  1  0.334848  0.924002  0.786852  1
  O  O31  1  0.165155  0.924004  0.286852  1
  O  O32  1  0.665152  0.075998  0.213148  1
  O  O33  1  0.834845  0.075996  0.713148  1
  O  O34  1  0.871673  0.258584  0.971440  1
  O  O35  1  0.628306  0.258587  0.471443  1
  O  O36  1  0.128327  0.741416  0.028560  1
  O  O37  1  0.371694  0.741413  0.528557  1
