# generated using pymatgen
data_Tb3Lu5Tc2(B12Ru)2
_symmetry_space_group_name_H-M   'P 1'
_cell_length_a   3.63185100
_cell_length_b   9.08029020
_cell_length_c   11.47103213
_cell_angle_alpha   89.87648860
_cell_angle_beta   90.00000000
_cell_angle_gamma   90.00000000
_symmetry_Int_Tables_number   1
_chemical_formula_structural   Tb3Lu5Tc2(B12Ru)2
_chemical_formula_sum   'Tb3 Lu5 Tc2 B24 Ru2'
_cell_volume   378.29381331
_cell_formula_units_Z   1
loop_
 _symmetry_equiv_pos_site_id
 _symmetry_equiv_pos_as_xyz
  1  'x, y, z'
loop_
 _atom_site_type_symbol
 _atom_site_label
 _atom_site_symmetry_multiplicity
 _atom_site_fract_x
 _atom_site_fract_y
 _atom_site_fract_z
 _atom_site_occupancy
  Tb  Tb0  1  0.000000  0.323755  0.415422  1
  Tb  Tb1  1  0.000000  0.676098  0.584797  1
  Tb  Tb2  1  0.000000  0.820665  0.086958  1
  Lu  Lu3  1  0.000000  0.180037  0.912580  1
  Lu  Lu4  1  0.000000  0.942296  0.370608  1
  Lu  Lu5  1  0.000000  0.057939  0.629555  1
  Lu  Lu6  1  0.000000  0.442967  0.129383  1
  Lu  Lu7  1  0.000000  0.556347  0.870387  1
  Tc  Tc8  1  0.000000  0.638880  0.319247  1
  Tc  Tc9  1  0.000000  0.360376  0.681559  1
  B  B10  1  0.500000  0.553445  0.432549  1
  B  B11  1  0.500000  0.446207  0.567802  1
  B  B12  1  0.500000  0.054698  0.066244  1
  B  B13  1  0.500000  0.946916  0.932785  1
  B  B14  1  0.500000  0.750173  0.418387  1
  B  B15  1  0.500000  0.249772  0.582077  1
  B  B16  1  0.500000  0.249861  0.080256  1
  B  B17  1  0.500000  0.750206  0.918238  1
  B  B18  1  0.500000  0.792108  0.264990  1
  B  B19  1  0.500000  0.207321  0.736112  1
  B  B20  1  0.500000  0.291036  0.233863  1
  B  B21  1  0.500000  0.709067  0.765762  1
  B  B22  1  0.500000  0.629832  0.184356  1
  B  B23  1  0.500000  0.369057  0.816418  1
  B  B24  1  0.500000  0.129722  0.314484  1
  B  B25  1  0.500000  0.870753  0.685539  1
  B  B26  1  0.500000  0.982775  0.212224  1
  B  B27  1  0.500000  0.018713  0.788145  1
  B  B28  1  0.500000  0.481684  0.286613  1
  B  B29  1  0.500000  0.517794  0.713575  1
  B  B30  1  0.500000  0.600449  0.027388  1
  B  B31  1  0.500000  0.397773  0.972083  1
  B  B32  1  0.500000  0.100367  0.472211  1
  B  B33  1  0.500000  0.899789  0.527949  1
  Ru  Ru34  1  0.000000  0.138336  0.178509  1
  Ru  Ru35  1  0.000000  0.862784  0.820945  1
