# generated using pymatgen
data_Hf18ReMo7IrS
_symmetry_space_group_name_H-M   'P 1'
_cell_length_a   8.69098400
_cell_length_b   8.69098320
_cell_length_c   8.56842200
_cell_angle_alpha   90.00000000
_cell_angle_beta   90.00000000
_cell_angle_gamma   120.00000306
_symmetry_Int_Tables_number   1
_chemical_formula_structural   Hf18ReMo7IrS
_chemical_formula_sum   'Hf18 Re1 Mo7 Ir1 S1'
_cell_volume   560.49188171
_cell_formula_units_Z   1
loop_
 _symmetry_equiv_pos_site_id
 _symmetry_equiv_pos_as_xyz
  1  'x, y, z'
loop_
 _atom_site_type_symbol
 _atom_site_label
 _atom_site_symmetry_multiplicity
 _atom_site_fract_x
 _atom_site_fract_y
 _atom_site_fract_z
 _atom_site_occupancy
  Hf  Hf0  1  0.198066  0.801934  0.447969  1
  Hf  Hf1  1  0.198066  0.396132  0.447969  1
  Hf  Hf2  1  0.603868  0.801934  0.447969  1
  Hf  Hf3  1  0.802636  0.197364  0.549586  1
  Hf  Hf4  1  0.802636  0.605273  0.549586  1
  Hf  Hf5  1  0.394727  0.197364  0.549586  1
  Hf  Hf6  1  0.804561  0.195439  0.949863  1
  Hf  Hf7  1  0.804561  0.609123  0.949863  1
  Hf  Hf8  1  0.390877  0.195439  0.949863  1
  Hf  Hf9  1  0.196559  0.803441  0.053020  1
  Hf  Hf10  1  0.196559  0.393117  0.053020  1
  Hf  Hf11  1  0.606883  0.803441  0.053020  1
  Hf  Hf12  1  0.542334  0.457666  0.248882  1
  Hf  Hf13  1  0.542334  0.084669  0.248882  1
  Hf  Hf14  1  0.915331  0.457666  0.248882  1
  Hf  Hf15  1  0.455623  0.544377  0.750926  1
  Hf  Hf16  1  0.455623  0.911246  0.750926  1
  Hf  Hf17  1  0.088754  0.544377  0.750926  1
  Re  Re18  1  0.000000  0.000000  0.001664  1
  Mo  Mo19  1  0.888455  0.111545  0.250725  1
  Mo  Mo20  1  0.888455  0.776908  0.250725  1
  Mo  Mo21  1  0.223092  0.111545  0.250725  1
  Mo  Mo22  1  0.110193  0.889807  0.749159  1
  Mo  Mo23  1  0.110193  0.220385  0.749159  1
  Mo  Mo24  1  0.779615  0.889807  0.749159  1
  Mo  Mo25  1  0.000000  0.000000  0.497458  1
  Ir  Ir26  1  0.333333  0.666667  0.248955  1
  S  S27  1  0.666667  0.333333  0.751529  1
