# generated using pymatgen
data_Tm7LuB24MoRh3
_symmetry_space_group_name_H-M   'P 1'
_cell_length_a   3.62484000
_cell_length_b   9.11285569
_cell_length_c   11.47375872
_cell_angle_alpha   90.22182119
_cell_angle_beta   90.00000000
_cell_angle_gamma   90.00000000
_symmetry_Int_Tables_number   1
_chemical_formula_structural   Tm7LuB24MoRh3
_chemical_formula_sum   'Tm7 Lu1 B24 Mo1 Rh3'
_cell_volume   379.00574476
_cell_formula_units_Z   1
loop_
 _symmetry_equiv_pos_site_id
 _symmetry_equiv_pos_as_xyz
  1  'x, y, z'
loop_
 _atom_site_type_symbol
 _atom_site_label
 _atom_site_symmetry_multiplicity
 _atom_site_fract_x
 _atom_site_fract_y
 _atom_site_fract_z
 _atom_site_occupancy
  Tm  Tm0  1  0.500000  0.318366  0.410743  1
  Tm  Tm1  1  0.500000  0.677410  0.584841  1
  Tm  Tm2  1  0.500000  0.178483  0.917041  1
  Tm  Tm3  1  0.500000  0.823668  0.086983  1
  Tm  Tm4  1  0.500000  0.444811  0.125966  1
  Tm  Tm5  1  0.500000  0.557161  0.871870  1
  Tm  Tm6  1  0.500000  0.055914  0.628599  1
  Lu  Lu7  1  0.500000  0.945062  0.373890  1
  B  B8  1  0.000000  0.105694  0.472572  1
  B  B9  1  0.000000  0.893062  0.529726  1
  B  B10  1  0.000000  0.395004  0.969197  1
  B  B11  1  0.000000  0.608653  0.028675  1
  B  B12  1  0.000000  0.131498  0.317750  1
  B  B13  1  0.000000  0.866514  0.683327  1
  B  B14  1  0.000000  0.368235  0.816324  1
  B  B15  1  0.000000  0.633292  0.183641  1
  B  B16  1  0.000000  0.051235  0.064410  1
  B  B17  1  0.000000  0.946487  0.933423  1
  B  B18  1  0.000000  0.445414  0.564995  1
  B  B19  1  0.000000  0.553447  0.434344  1
  B  B20  1  0.000000  0.483214  0.287370  1
  B  B21  1  0.000000  0.517637  0.712045  1
  B  B22  1  0.000000  0.017627  0.787254  1
  B  B23  1  0.000000  0.979321  0.214529  1
  B  B24  1  0.000000  0.251292  0.078190  1
  B  B25  1  0.000000  0.751138  0.919942  1
  B  B26  1  0.000000  0.249929  0.578963  1
  B  B27  1  0.000000  0.749825  0.421325  1
  B  B28  1  0.000000  0.295710  0.236470  1
  B  B29  1  0.000000  0.705614  0.763245  1
  B  B30  1  0.000000  0.207059  0.736228  1
  B  B31  1  0.000000  0.792879  0.265990  1
  Mo  Mo32  1  0.500000  0.137943  0.179337  1
  Rh  Rh33  1  0.500000  0.860667  0.820446  1
  Rh  Rh34  1  0.500000  0.361143  0.678902  1
  Rh  Rh35  1  0.500000  0.639594  0.321447  1
