# generated using pymatgen
data_ErHfBiRh5
_symmetry_space_group_name_H-M   'P 1'
_cell_length_a   4.19654300
_cell_length_b   5.71996121
_cell_length_c   11.35774500
_cell_angle_alpha   89.65248459
_cell_angle_beta   90.00000000
_cell_angle_gamma   90.00000000
_symmetry_Int_Tables_number   1
_chemical_formula_structural   ErHfBiRh5
_chemical_formula_sum   'Er2 Hf2 Bi2 Rh10'
_cell_volume   272.62701387
_cell_formula_units_Z   2
loop_
 _symmetry_equiv_pos_site_id
 _symmetry_equiv_pos_as_xyz
  1  'x, y, z'
loop_
 _atom_site_type_symbol
 _atom_site_label
 _atom_site_symmetry_multiplicity
 _atom_site_fract_x
 _atom_site_fract_y
 _atom_site_fract_z
 _atom_site_occupancy
  Er  Er0  1  0.500000  0.186699  0.642405  1
  Er  Er1  1  0.500000  0.813301  0.357595  1
  Hf  Hf2  1  0.500000  0.680323  0.856895  1
  Hf  Hf3  1  0.500000  0.319677  0.143105  1
  Bi  Bi4  1  0.000000  0.500000  0.500000  1
  Bi  Bi5  1  0.000000  0.000000  0.000000  1
  Rh  Rh6  1  0.500000  0.213841  0.889582  1
  Rh  Rh7  1  0.500000  0.786159  0.110418  1
  Rh  Rh8  1  0.500000  0.706286  0.623614  1
  Rh  Rh9  1  0.500000  0.293714  0.376386  1
  Rh  Rh10  1  0.000000  0.450856  0.756064  1
  Rh  Rh11  1  0.000000  0.549144  0.243936  1
  Rh  Rh12  1  0.000000  0.000000  0.500000  1
  Rh  Rh13  1  0.000000  0.500000  0.000000  1
  Rh  Rh14  1  0.000000  0.059061  0.243628  1
  Rh  Rh15  1  0.000000  0.940939  0.756372  1
