# generated using pymatgen
data_K2V(Si2O5)3
_symmetry_space_group_name_H-M   'P 1'
_cell_length_a   7.04584213
_cell_length_b   7.29857214
_cell_length_c   7.58236977
_cell_angle_alpha   99.34927395
_cell_angle_beta   105.87212978
_cell_angle_gamma   112.90207921
_symmetry_Int_Tables_number   1
_chemical_formula_structural   K2V(Si2O5)3
_chemical_formula_sum   'K2 V1 Si6 O15'
_cell_volume   329.19711584
_cell_formula_units_Z   1
loop_
 _symmetry_equiv_pos_site_id
 _symmetry_equiv_pos_as_xyz
  1  'x, y, z'
loop_
 _atom_site_type_symbol
 _atom_site_label
 _atom_site_symmetry_multiplicity
 _atom_site_fract_x
 _atom_site_fract_y
 _atom_site_fract_z
 _atom_site_occupancy
  K  K0  1  0.287061  0.716304  0.822033  1
  K  K1  1  0.712939  0.283696  0.177967  1
  V  V2  1  0.000000  0.000000  0.000000  1
  Si  Si3  1  0.700432  0.813160  0.256265  1
  Si  Si4  1  0.299568  0.186840  0.743735  1
  Si  Si5  1  0.145783  0.831762  0.367377  1
  Si  Si6  1  0.854217  0.168238  0.632623  1
  Si  Si7  1  0.317505  0.497072  0.311116  1
  Si  Si8  1  0.682495  0.502928  0.688884  1
  O  O9  1  0.453223  0.610057  0.180879  1
  O  O10  1  0.546777  0.389943  0.819121  1
  O  O11  1  0.204415  0.636753  0.387268  1
  O  O12  1  0.795585  0.363247  0.612732  1
  O  O13  1  0.877748  0.731799  0.816146  1
  O  O14  1  0.122252  0.268201  0.183854  1
  O  O15  1  0.883616  0.734688  0.351376  1
  O  O16  1  0.116384  0.265312  0.648624  1
  O  O17  1  0.737962  0.901900  0.081061  1
  O  O18  1  0.500000  0.500000  0.500000  1
  O  O19  1  0.297594  0.009724  0.577976  1
  O  O20  1  0.702406  0.990276  0.422024  1
  O  O21  1  0.824772  0.087691  0.812203  1
  O  O22  1  0.175228  0.912309  0.187797  1
  O  O23  1  0.262038  0.098100  0.918939  1
