# generated using pymatgen
data_Y6Co13Ni3(P6Os)2
_symmetry_space_group_name_H-M   'P 1'
_cell_length_a   3.74165300
_cell_length_b   10.50178739
_cell_length_c   12.25088645
_cell_angle_alpha   89.96898921
_cell_angle_beta   90.00000000
_cell_angle_gamma   90.00000000
_symmetry_Int_Tables_number   1
_chemical_formula_structural   Y6Co13Ni3(P6Os)2
_chemical_formula_sum   'Y6 Co13 Ni3 P12 Os2'
_cell_volume   481.38680398
_cell_formula_units_Z   1
loop_
 _symmetry_equiv_pos_site_id
 _symmetry_equiv_pos_as_xyz
  1  'x, y, z'
loop_
 _atom_site_type_symbol
 _atom_site_label
 _atom_site_symmetry_multiplicity
 _atom_site_fract_x
 _atom_site_fract_y
 _atom_site_fract_z
 _atom_site_occupancy
  Y  Y0  1  0.000000  0.500222  0.523126  1
  Y  Y1  1  0.500000  0.999844  0.476831  1
  Y  Y2  1  0.500000  0.815439  0.206275  1
  Y  Y3  1  0.500000  0.184180  0.206523  1
  Y  Y4  1  0.000000  0.684611  0.793687  1
  Y  Y5  1  0.000000  0.315508  0.792727  1
  Co  Co6  1  0.000000  0.499298  0.986923  1
  Co  Co7  1  0.500000  0.999684  0.013643  1
  Co  Co8  1  0.500000  0.667841  0.990811  1
  Co  Co9  1  0.000000  0.168259  0.010522  1
  Co  Co10  1  0.000000  0.832914  0.009996  1
  Co  Co11  1  0.500000  0.299210  0.430786  1
  Co  Co12  1  0.500000  0.700856  0.430723  1
  Co  Co13  1  0.000000  0.200519  0.569532  1
  Co  Co14  1  0.000000  0.799342  0.569390  1
  Co  Co15  1  0.500000  0.879576  0.710206  1
  Co  Co16  1  0.500000  0.119948  0.709096  1
  Co  Co17  1  0.000000  0.620712  0.289748  1
  Co  Co18  1  0.000000  0.380099  0.291502  1
  Ni  Ni19  1  0.500000  0.500025  0.702079  1
  Ni  Ni20  1  0.000000  0.999875  0.297123  1
  Ni  Ni21  1  0.500000  0.330982  0.988404  1
  P  P22  1  0.500000  0.502036  0.880587  1
  P  P23  1  0.000000  0.000308  0.118092  1
  P  P24  1  0.500000  0.500586  0.349603  1
  P  P25  1  0.000000  0.999718  0.650561  1
  P  P26  1  0.500000  0.310290  0.614931  1
  P  P27  1  0.500000  0.690204  0.615217  1
  P  P28  1  0.000000  0.189803  0.384874  1
  P  P29  1  0.000000  0.809774  0.384561  1
  P  P30  1  0.500000  0.846506  0.894162  1
  P  P31  1  0.500000  0.150781  0.892190  1
  P  P32  1  0.000000  0.653049  0.105853  1
  P  P33  1  0.000000  0.348151  0.109130  1
  Os  Os34  1  0.500000  0.498967  0.158285  1
  Os  Os35  1  0.000000  0.000882  0.842302  1
