# generated using pymatgen
data_Ho8InHg3Au8
_symmetry_space_group_name_H-M   'P 1'
_cell_length_a   7.95612900
_cell_length_b   7.95612900
_cell_length_c   7.37249400
_cell_angle_alpha   90.00000000
_cell_angle_beta   90.00000000
_cell_angle_gamma   90.00000000
_symmetry_Int_Tables_number   1
_chemical_formula_structural   Ho8InHg3Au8
_chemical_formula_sum   'Ho8 In1 Hg3 Au8'
_cell_volume   466.67878663
_cell_formula_units_Z   1
loop_
 _symmetry_equiv_pos_site_id
 _symmetry_equiv_pos_as_xyz
  1  'x, y, z'
loop_
 _atom_site_type_symbol
 _atom_site_label
 _atom_site_symmetry_multiplicity
 _atom_site_fract_x
 _atom_site_fract_y
 _atom_site_fract_z
 _atom_site_occupancy
  Ho  Ho0  1  0.838404  0.158904  0.500343  1
  Ho  Ho1  1  0.161596  0.841096  0.500343  1
  Ho  Ho2  1  0.341096  0.338404  0.999657  1
  Ho  Ho3  1  0.658904  0.661596  0.999657  1
  Ho  Ho4  1  0.682034  0.686698  0.501028  1
  Ho  Ho5  1  0.317966  0.313302  0.501028  1
  Ho  Ho6  1  0.186698  0.817966  0.998972  1
  Ho  Ho7  1  0.813302  0.182034  0.998972  1
  In  In8  1  0.000000  0.500000  0.250000  1
  Hg  Hg9  1  0.500000  0.000000  0.250000  1
  Hg  Hg10  1  0.000000  0.500000  0.750000  1
  Hg  Hg11  1  0.500000  0.000000  0.750000  1
  Au  Au12  1  0.630055  0.374767  0.274682  1
  Au  Au13  1  0.369945  0.625233  0.274682  1
  Au  Au14  1  0.126851  0.127302  0.774731  1
  Au  Au15  1  0.873149  0.872698  0.774731  1
  Au  Au16  1  0.372698  0.626851  0.725269  1
  Au  Au17  1  0.627302  0.373149  0.725269  1
  Au  Au18  1  0.874767  0.869945  0.225318  1
  Au  Au19  1  0.125233  0.130055  0.225318  1
