# generated using pymatgen
data_CsPu(PO4)2
_symmetry_space_group_name_H-M   'P 1'
_cell_length_a   5.33841550
_cell_length_b   5.33841484
_cell_length_c   9.12948959
_cell_angle_alpha   87.40892679
_cell_angle_beta   87.40892775
_cell_angle_gamma   62.57883834
_symmetry_Int_Tables_number   1
_chemical_formula_structural   CsPu(PO4)2
_chemical_formula_sum   'Cs1 Pu1 P2 O8'
_cell_volume   230.62273449
_cell_formula_units_Z   1
loop_
 _symmetry_equiv_pos_site_id
 _symmetry_equiv_pos_as_xyz
  1  'x, y, z'
loop_
 _atom_site_type_symbol
 _atom_site_label
 _atom_site_symmetry_multiplicity
 _atom_site_fract_x
 _atom_site_fract_y
 _atom_site_fract_z
 _atom_site_occupancy
  Cs  Cs0  1  0.000000  0.000000  0.000000  1
  Pu  Pu1  1  0.000000  0.000000  0.500000  1
  P  P2  1  0.643246  0.643246  0.697416  1
  P  P3  1  0.356754  0.356754  0.302584  1
  O  O4  1  0.224089  0.678319  0.340477  1
  O  O5  1  0.221988  0.221988  0.418089  1
  O  O6  1  0.317154  0.317154  0.145557  1
  O  O7  1  0.678319  0.224089  0.340477  1
  O  O8  1  0.682846  0.682846  0.854443  1
  O  O9  1  0.778012  0.778012  0.581911  1
  O  O10  1  0.321681  0.775911  0.659523  1
  O  O11  1  0.775911  0.321681  0.659523  1
