# generated using pymatgen
data_HoTm3(Si5Ir3)2
_symmetry_space_group_name_H-M   'P 1'
_cell_length_a   8.13746702
_cell_length_b   8.13677673
_cell_length_c   8.13677700
_cell_angle_alpha   138.21561920
_cell_angle_beta   103.91831717
_cell_angle_gamma   90.78970036
_symmetry_Int_Tables_number   1
_chemical_formula_structural   HoTm3(Si5Ir3)2
_chemical_formula_sum   'Ho1 Tm3 Si10 Ir6'
_cell_volume   332.55054146
_cell_formula_units_Z   1
loop_
 _symmetry_equiv_pos_site_id
 _symmetry_equiv_pos_as_xyz
  1  'x, y, z'
loop_
 _atom_site_type_symbol
 _atom_site_label
 _atom_site_symmetry_multiplicity
 _atom_site_fract_x
 _atom_site_fract_y
 _atom_site_fract_z
 _atom_site_occupancy
  Ho  Ho0  1  0.859783  0.631472  0.228311  1
  Tm  Tm1  1  0.140445  0.368445  0.772001  1
  Tm  Tm2  1  0.403585  0.131574  0.272010  1
  Tm  Tm3  1  0.596412  0.868421  0.727991  1
  Si  Si4  1  0.499949  0.749799  0.249724  1
  Si  Si5  1  0.499949  0.250224  0.750150  1
  Si  Si6  1  0.225298  0.975182  0.749866  1
  Si  Si7  1  0.774694  0.524890  0.749979  1
  Si  Si8  1  0.774694  0.024716  0.249805  1
  Si  Si9  1  0.225298  0.475431  0.250115  1
  Si  Si10  1  0.049673  0.893836  0.155837  1
  Si  Si11  1  0.950553  0.106276  0.844277  1
  Si  Si12  1  0.737582  0.393252  0.344330  1
  Si  Si13  1  0.262017  0.606353  0.655663  1
  Ir  Ir14  1  0.999918  0.749825  0.749994  1
  Ir  Ir15  1  0.999918  0.249924  0.250094  1
  Ir  Ir16  1  0.246044  0.860749  0.385295  1
  Ir  Ir17  1  0.754736  0.139951  0.614784  1
  Ir  Ir18  1  0.474738  0.359883  0.114857  1
  Ir  Ir19  1  0.524713  0.639794  0.884919  1
