# generated using pymatgen
data_ErZn7Ag5
_symmetry_space_group_name_H-M   'P 1'
_cell_length_a   7.04190907
_cell_length_b   7.04190843
_cell_length_c   7.04190839
_cell_angle_alpha   97.38901378
_cell_angle_beta   97.92042662
_cell_angle_gamma   137.18877966
_symmetry_Int_Tables_number   1
_chemical_formula_structural   ErZn7Ag5
_chemical_formula_sum   'Er1 Zn7 Ag5'
_cell_volume   220.93671702
_cell_formula_units_Z   1
loop_
 _symmetry_equiv_pos_site_id
 _symmetry_equiv_pos_as_xyz
  1  'x, y, z'
loop_
 _atom_site_type_symbol
 _atom_site_label
 _atom_site_symmetry_multiplicity
 _atom_site_fract_x
 _atom_site_fract_y
 _atom_site_fract_z
 _atom_site_occupancy
  Er  Er0  1  0.999851  0.000000  0.999851  1
  Zn  Zn1  1  0.001751  0.497876  0.998363  1
  Zn  Zn2  1  0.500488  0.502124  0.503875  1
  Zn  Zn3  1  0.001751  0.003388  0.503875  1
  Zn  Zn4  1  0.500488  0.996612  0.998363  1
  Zn  Zn5  1  0.287897  0.500000  0.787897  1
  Zn  Zn6  1  0.498530  0.714656  0.213185  1
  Zn  Zn7  1  0.498530  0.285344  0.783874  1
  Ag  Ag8  1  0.703402  0.500000  0.203402  1
  Ag  Ag9  1  0.349697  0.000000  0.349697  1
  Ag  Ag10  1  0.000628  0.655159  0.655787  1
  Ag  Ag11  1  0.000628  0.344841  0.345469  1
  Ag  Ag12  1  0.656361  0.000000  0.656361  1
