# generated using pymatgen
data_PrNd3IrRh3O14
_symmetry_space_group_name_H-M   'P 1'
_cell_length_a   7.40092606
_cell_length_b   7.40325166
_cell_length_c   7.40092600
_cell_angle_alpha   60.01039113
_cell_angle_beta   60.00000028
_cell_angle_gamma   60.01039362
_symmetry_Int_Tables_number   1
_chemical_formula_structural   PrNd3IrRh3O14
_chemical_formula_sum   'Pr1 Nd3 Ir1 Rh3 O14'
_cell_volume   286.77932917
_cell_formula_units_Z   1
loop_
 _symmetry_equiv_pos_site_id
 _symmetry_equiv_pos_as_xyz
  1  'x, y, z'
loop_
 _atom_site_type_symbol
 _atom_site_label
 _atom_site_symmetry_multiplicity
 _atom_site_fract_x
 _atom_site_fract_y
 _atom_site_fract_z
 _atom_site_occupancy
  Pr  Pr0  1  0.125000  0.625000  0.125000  1
  Nd  Nd1  1  0.625000  0.125000  0.125000  1
  Nd  Nd2  1  0.125000  0.125000  0.625000  1
  Nd  Nd3  1  0.125000  0.125000  0.125000  1
  Ir  Ir4  1  0.625000  0.125000  0.625000  1
  Rh  Rh5  1  0.125000  0.625000  0.625000  1
  Rh  Rh6  1  0.625000  0.625000  0.125000  1
  Rh  Rh7  1  0.625000  0.625000  0.625000  1
  O  O8  1  0.704635  0.711431  0.291966  1
  O  O9  1  0.297958  0.291822  0.705109  1
  O  O10  1  0.705109  0.291822  0.705109  1
  O  O11  1  0.291966  0.711431  0.291966  1
  O  O12  1  0.291966  0.711431  0.704635  1
  O  O13  1  0.705109  0.291822  0.297958  1
  O  O14  1  0.545365  0.538569  0.958034  1
  O  O15  1  0.952042  0.958178  0.544891  1
  O  O16  1  0.544891  0.958178  0.544891  1
  O  O17  1  0.958034  0.538569  0.958034  1
  O  O18  1  0.958034  0.538569  0.545365  1
  O  O19  1  0.544891  0.958178  0.952042  1
  O  O20  1  0.251331  0.246007  0.251331  1
  O  O21  1  0.998669  0.003993  0.998669  1
