# generated using pymatgen
data_Hf4Be3SiPt4
_symmetry_space_group_name_H-M   'P 1'
_cell_length_a   3.85946700
_cell_length_b   6.36154571
_cell_length_c   7.45235131
_cell_angle_alpha   90.15698905
_cell_angle_beta   90.00000000
_cell_angle_gamma   90.00000000
_symmetry_Int_Tables_number   1
_chemical_formula_structural   Hf4Be3SiPt4
_chemical_formula_sum   'Hf4 Be3 Si1 Pt4'
_cell_volume   182.97075206
_cell_formula_units_Z   1
loop_
 _symmetry_equiv_pos_site_id
 _symmetry_equiv_pos_as_xyz
  1  'x, y, z'
loop_
 _atom_site_type_symbol
 _atom_site_label
 _atom_site_symmetry_multiplicity
 _atom_site_fract_x
 _atom_site_fract_y
 _atom_site_fract_z
 _atom_site_occupancy
  Hf  Hf0  1  0.750000  0.481486  0.313171  1
  Hf  Hf1  1  0.250000  0.020490  0.817048  1
  Hf  Hf2  1  0.750000  0.974809  0.189294  1
  Hf  Hf3  1  0.250000  0.530210  0.683286  1
  Be  Be4  1  0.250000  0.287950  0.118663  1
  Be  Be5  1  0.250000  0.778747  0.378001  1
  Be  Be6  1  0.750000  0.709451  0.886754  1
  Si  Si7  1  0.750000  0.231302  0.618990  1
  Pt  Pt8  1  0.250000  0.664897  0.060865  1
  Pt  Pt9  1  0.250000  0.152414  0.417598  1
  Pt  Pt10  1  0.750000  0.835673  0.570790  1
  Pt  Pt11  1  0.750000  0.332570  0.945540  1
