# generated using pymatgen
data_Ho3MgGa4Pd
_symmetry_space_group_name_H-M   'P 1'
_cell_length_a   7.03112800
_cell_length_b   6.95130007
_cell_length_c   4.37958600
_cell_angle_alpha   90.00000000
_cell_angle_beta   90.00000000
_cell_angle_gamma   120.38061657
_symmetry_Int_Tables_number   1
_chemical_formula_structural   Ho3MgGa4Pd
_chemical_formula_sum   'Ho3 Mg1 Ga4 Pd1'
_cell_volume   184.66145447
_cell_formula_units_Z   1
loop_
 _symmetry_equiv_pos_site_id
 _symmetry_equiv_pos_as_xyz
  1  'x, y, z'
loop_
 _atom_site_type_symbol
 _atom_site_label
 _atom_site_symmetry_multiplicity
 _atom_site_fract_x
 _atom_site_fract_y
 _atom_site_fract_z
 _atom_site_occupancy
  Ho  Ho0  1  0.588187  0.000000  0.000000  1
  Ho  Ho1  1  0.422683  0.419793  0.000000  1
  Ho  Ho2  1  0.002890  0.580207  0.000000  1
  Mg  Mg3  1  0.228446  0.000000  0.500000  1
  Ga  Ga4  1  0.001424  0.243810  0.500000  1
  Ga  Ga5  1  0.672228  0.334542  0.500000  1
  Ga  Ga6  1  0.337687  0.665458  0.500000  1
  Ga  Ga7  1  0.757613  0.756191  0.500000  1
  Pd  Pd8  1  0.988841  0.000000  0.000000  1
