# generated using pymatgen
data_NaLu(NbSe2)8
_symmetry_space_group_name_H-M   'P 1'
_cell_length_a   7.02478000
_cell_length_b   7.02478006
_cell_length_c   14.93211400
_cell_angle_alpha   90.00000000
_cell_angle_beta   90.00000000
_cell_angle_gamma   119.99999974
_symmetry_Int_Tables_number   1
_chemical_formula_structural   NaLu(NbSe2)8
_chemical_formula_sum   'Na1 Lu1 Nb8 Se16'
_cell_volume   638.14208731
_cell_formula_units_Z   1
loop_
 _symmetry_equiv_pos_site_id
 _symmetry_equiv_pos_as_xyz
  1  'x, y, z'
loop_
 _atom_site_type_symbol
 _atom_site_label
 _atom_site_symmetry_multiplicity
 _atom_site_fract_x
 _atom_site_fract_y
 _atom_site_fract_z
 _atom_site_occupancy
  Na  Na0  1  0.000000  0.000000  0.000000  1
  Lu  Lu1  1  0.000000  0.000000  0.500000  1
  Nb  Nb2  1  0.983808  0.491904  0.266349  1
  Nb  Nb3  1  0.016192  0.508096  0.733651  1
  Nb  Nb4  1  0.491904  0.508096  0.733651  1
  Nb  Nb5  1  0.508096  0.016192  0.266349  1
  Nb  Nb6  1  0.000000  0.000000  0.732532  1
  Nb  Nb7  1  0.000000  0.000000  0.267468  1
  Nb  Nb8  1  0.508096  0.491904  0.266349  1
  Nb  Nb9  1  0.491904  0.983808  0.733651  1
  Se  Se10  1  0.333333  0.666667  0.617164  1
  Se  Se11  1  0.666667  0.333333  0.150254  1
  Se  Se12  1  0.666667  0.333333  0.382836  1
  Se  Se13  1  0.333333  0.666667  0.849746  1
  Se  Se14  1  0.170342  0.340686  0.377635  1
  Se  Se15  1  0.832572  0.167428  0.843562  1
  Se  Se16  1  0.334858  0.167428  0.843562  1
  Se  Se17  1  0.659314  0.829658  0.377635  1
  Se  Se18  1  0.170342  0.829658  0.377635  1
  Se  Se19  1  0.832572  0.665142  0.843562  1
  Se  Se20  1  0.167428  0.334858  0.156438  1
  Se  Se21  1  0.829658  0.170342  0.622365  1
  Se  Se22  1  0.340686  0.170342  0.622365  1
  Se  Se23  1  0.665142  0.832572  0.156438  1
  Se  Se24  1  0.167428  0.832572  0.156438  1
  Se  Se25  1  0.829658  0.659314  0.622365  1
