# generated using pymatgen
data_Er4Sc4Co(B8Ir)3
_symmetry_space_group_name_H-M   'P 1'
_cell_length_a   3.51961500
_cell_length_b   8.97539896
_cell_length_c   11.33214448
_cell_angle_alpha   89.92419755
_cell_angle_beta   90.00000000
_cell_angle_gamma   90.00000000
_symmetry_Int_Tables_number   1
_chemical_formula_structural   Er4Sc4Co(B8Ir)3
_chemical_formula_sum   'Er4 Sc4 Co1 B24 Ir3'
_cell_volume   357.98155087
_cell_formula_units_Z   1
loop_
 _symmetry_equiv_pos_site_id
 _symmetry_equiv_pos_as_xyz
  1  'x, y, z'
loop_
 _atom_site_type_symbol
 _atom_site_label
 _atom_site_symmetry_multiplicity
 _atom_site_fract_x
 _atom_site_fract_y
 _atom_site_fract_z
 _atom_site_occupancy
  Er  Er0  1  0.500000  0.317244  0.410942  1
  Er  Er1  1  0.500000  0.680695  0.585601  1
  Er  Er2  1  0.500000  0.179360  0.917945  1
  Er  Er3  1  0.500000  0.823705  0.087334  1
  Sc  Sc4  1  0.500000  0.440509  0.125505  1
  Sc  Sc5  1  0.500000  0.554969  0.876533  1
  Sc  Sc6  1  0.500000  0.055054  0.623812  1
  Sc  Sc7  1  0.500000  0.947953  0.372284  1
  Co  Co8  1  0.500000  0.141661  0.182079  1
  B  B9  1  0.000000  0.100989  0.471866  1
  B  B10  1  0.000000  0.899923  0.526357  1
  B  B11  1  0.000000  0.398057  0.973570  1
  B  B12  1  0.000000  0.600404  0.027678  1
  B  B13  1  0.000000  0.130438  0.316054  1
  B  B14  1  0.000000  0.869723  0.680871  1
  B  B15  1  0.000000  0.369808  0.819371  1
  B  B16  1  0.000000  0.629955  0.181741  1
  B  B17  1  0.000000  0.055263  0.067727  1
  B  B18  1  0.000000  0.946064  0.935309  1
  B  B19  1  0.000000  0.445218  0.565290  1
  B  B20  1  0.000000  0.554173  0.433822  1
  B  B21  1  0.000000  0.480360  0.285051  1
  B  B22  1  0.000000  0.518616  0.715117  1
  B  B23  1  0.000000  0.018823  0.785817  1
  B  B24  1  0.000000  0.984660  0.213252  1
  B  B25  1  0.000000  0.251167  0.082491  1
  B  B26  1  0.000000  0.746608  0.920743  1
  B  B27  1  0.000000  0.245820  0.579456  1
  B  B28  1  0.000000  0.755143  0.419048  1
  B  B29  1  0.000000  0.293123  0.234774  1
  B  B30  1  0.000000  0.704558  0.764160  1
  B  B31  1  0.000000  0.204511  0.735829  1
  B  B32  1  0.000000  0.796765  0.264066  1
  Ir  Ir33  1  0.500000  0.859087  0.818159  1
  Ir  Ir34  1  0.500000  0.359331  0.680773  1
  Ir  Ir35  1  0.500000  0.640262  0.319573  1
