# generated using pymatgen
data_Ho12TlFe2Co2Ag
_symmetry_space_group_name_H-M   'P 1'
_cell_length_a   8.32798422
_cell_length_b   8.32798395
_cell_length_c   8.32798508
_cell_angle_alpha   110.81889171
_cell_angle_beta   110.01846969
_cell_angle_gamma   107.59350837
_symmetry_Int_Tables_number   1
_chemical_formula_structural   Ho12TlFe2Co2Ag
_chemical_formula_sum   'Ho12 Tl1 Fe2 Co2 Ag1'
_cell_volume   444.24984210
_cell_formula_units_Z   1
loop_
 _symmetry_equiv_pos_site_id
 _symmetry_equiv_pos_as_xyz
  1  'x, y, z'
loop_
 _atom_site_type_symbol
 _atom_site_label
 _atom_site_symmetry_multiplicity
 _atom_site_fract_x
 _atom_site_fract_y
 _atom_site_fract_z
 _atom_site_occupancy
  Ho  Ho0  1  0.314050  0.615800  0.301746  1
  Ho  Ho1  1  0.685950  0.384200  0.698254  1
  Ho  Ho2  1  0.314050  0.012303  0.698254  1
  Ho  Ho3  1  0.685950  0.987697  0.301746  1
  Ho  Ho4  1  0.187397  0.293456  0.480852  1
  Ho  Ho5  1  0.812603  0.706544  0.519148  1
  Ho  Ho6  1  0.187397  0.706544  0.893941  1
  Ho  Ho7  1  0.812603  0.293456  0.106059  1
  Ho  Ho8  1  0.428043  0.219833  0.208211  1
  Ho  Ho9  1  0.571957  0.780167  0.791789  1
  Ho  Ho10  1  0.011623  0.219833  0.791789  1
  Ho  Ho11  1  0.988377  0.780167  0.208211  1
  Tl  Tl12  1  0.500000  0.500000  0.000000  1
  Fe  Fe13  1  0.108828  0.608828  0.500000  1
  Fe  Fe14  1  0.891172  0.391172  0.500000  1
  Co  Co15  1  0.382528  0.000000  0.382528  1
  Co  Co16  1  0.617472  0.000000  0.617472  1
  Ag  Ag17  1  0.000000  0.000000  0.000000  1
