# generated using pymatgen
data_CaLa5Pr6(GaRh)8
_symmetry_space_group_name_H-M   'P 1'
_cell_length_a   5.75558799
_cell_length_b   8.31145953
_cell_length_c   13.72902158
_cell_angle_alpha   90.02935937
_cell_angle_beta   89.97266175
_cell_angle_gamma   89.98995654
_symmetry_Int_Tables_number   1
_chemical_formula_structural   CaLa5Pr6(GaRh)8
_chemical_formula_sum   'Ca1 La5 Pr6 Ga8 Rh8'
_cell_volume   656.75965661
_cell_formula_units_Z   1
loop_
 _symmetry_equiv_pos_site_id
 _symmetry_equiv_pos_as_xyz
  1  'x, y, z'
loop_
 _atom_site_type_symbol
 _atom_site_label
 _atom_site_symmetry_multiplicity
 _atom_site_fract_x
 _atom_site_fract_y
 _atom_site_fract_z
 _atom_site_occupancy
  Ca  Ca0  1  0.850838  0.606181  0.602897  1
  La  La1  1  0.848247  0.896496  0.405581  1
  La  La2  1  0.142633  0.403003  0.407881  1
  La  La3  1  0.157669  0.099182  0.596983  1
  La  La4  1  0.152679  0.106036  0.904467  1
  La  La5  1  0.847216  0.897057  0.094048  1
  Pr  Pr6  1  0.631406  0.254741  0.248691  1
  Pr  Pr7  1  0.367503  0.743299  0.749662  1
  Pr  Pr8  1  0.362341  0.751626  0.247439  1
  Pr  Pr9  1  0.639569  0.250457  0.749720  1
  Pr  Pr10  1  0.145333  0.396607  0.098584  1
  Pr  Pr11  1  0.858292  0.601418  0.901984  1
  Ga  Ga12  1  0.135256  0.105556  0.250027  1
  Ga  Ga13  1  0.863039  0.895998  0.751137  1
  Ga  Ga14  1  0.857083  0.603670  0.249515  1
  Ga  Ga15  1  0.138961  0.397074  0.747349  1
  Ga  Ga16  1  0.632073  0.250454  0.000822  1
  Ga  Ga17  1  0.368113  0.747557  0.997575  1
  Ga  Ga18  1  0.380250  0.748046  0.502562  1
  Ga  Ga19  1  0.629429  0.251940  0.500089  1
  Rh  Rh20  1  0.356752  0.028132  0.089731  1
  Rh  Rh21  1  0.639269  0.969908  0.909348  1
  Rh  Rh22  1  0.643912  0.973397  0.592289  1
  Rh  Rh23  1  0.634090  0.529888  0.408354  1
  Rh  Rh24  1  0.358022  0.026900  0.408972  1
  Rh  Rh25  1  0.357430  0.466727  0.587941  1
  Rh  Rh26  1  0.364842  0.467969  0.906451  1
  Rh  Rh27  1  0.637750  0.530680  0.089896  1
