# generated using pymatgen
data_Ti8Al15Fe5Co2
_symmetry_space_group_name_H-M   'P 1'
_cell_length_a   8.45305225
_cell_length_b   8.45305156
_cell_length_c   8.45305194
_cell_angle_alpha   119.98076706
_cell_angle_beta   119.80332758
_cell_angle_gamma   90.18714870
_symmetry_Int_Tables_number   1
_chemical_formula_structural   Ti8Al15Fe5Co2
_chemical_formula_sum   'Ti8 Al15 Fe5 Co2'
_cell_volume   427.78925571
_cell_formula_units_Z   1
loop_
 _symmetry_equiv_pos_site_id
 _symmetry_equiv_pos_as_xyz
  1  'x, y, z'
loop_
 _atom_site_type_symbol
 _atom_site_label
 _atom_site_symmetry_multiplicity
 _atom_site_fract_x
 _atom_site_fract_y
 _atom_site_fract_z
 _atom_site_occupancy
  Ti  Ti0  1  0.785031  0.285633  0.064408  1
  Ti  Ti1  1  0.221225  0.285633  0.500603  1
  Ti  Ti2  1  0.214292  0.714292  0.500000  1
  Ti  Ti3  1  0.221225  0.720623  0.935592  1
  Ti  Ti4  1  0.785031  0.720623  0.499397  1
  Ti  Ti5  1  0.778593  0.278593  0.500000  1
  Ti  Ti6  1  0.378493  0.120990  0.742496  1
  Ti  Ti7  1  0.378493  0.635998  0.257504  1
  Al  Al8  1  0.996407  0.496407  0.500000  1
  Al  Al9  1  0.156357  0.341937  0.185579  1
  Al  Al10  1  0.156357  0.970778  0.814421  1
  Al  Al11  1  0.154634  0.343451  0.811183  1
  Al  Al12  1  0.532266  0.343451  0.188817  1
  Al  Al13  1  0.844683  0.656390  0.811707  1
  Al  Al14  1  0.844683  0.032976  0.188293  1
  Al  Al15  1  0.842295  0.657700  0.184595  1
  Al  Al16  1  0.473105  0.657700  0.815405  1
  Al  Al17  1  0.378960  0.120298  0.258661  1
  Al  Al18  1  0.861638  0.120298  0.741339  1
  Al  Al19  1  0.620349  0.877095  0.256747  1
  Al  Al20  1  0.620349  0.363602  0.743253  1
  Al  Al21  1  0.619622  0.878888  0.740733  1
  Al  Al22  1  0.138154  0.878888  0.259267  1
  Fe  Fe23  1  0.002330  0.999974  0.502246  1
  Fe  Fe24  1  0.497730  0.999974  0.997646  1
  Fe  Fe25  1  0.497752  0.497752  0.000000  1
  Fe  Fe26  1  0.497730  0.500084  0.497754  1
  Fe  Fe27  1  0.002330  0.500084  0.002354  1
  Co  Co28  1  0.000209  0.000209  0.000000  1
  Co  Co29  1  0.499675  0.999675  0.500000  1
