# generated using pymatgen
data_Nb5V6Si10Mo
_symmetry_space_group_name_H-M   'P 1'
_cell_length_a   4.93691448
_cell_length_b   7.77536055
_cell_length_c   9.38338243
_cell_angle_alpha   65.22652557
_cell_angle_beta   74.74787868
_cell_angle_gamma   89.99999716
_symmetry_Int_Tables_number   1
_chemical_formula_structural   Nb5V6Si10Mo
_chemical_formula_sum   'Nb5 V6 Si10 Mo1'
_cell_volume   313.01770144
_cell_formula_units_Z   1
loop_
 _symmetry_equiv_pos_site_id
 _symmetry_equiv_pos_as_xyz
  1  'x, y, z'
loop_
 _atom_site_type_symbol
 _atom_site_label
 _atom_site_symmetry_multiplicity
 _atom_site_fract_x
 _atom_site_fract_y
 _atom_site_fract_z
 _atom_site_occupancy
  Nb  Nb0  1  0.643702  0.257997  0.712595  1
  Nb  Nb1  1  0.142195  0.026840  0.715610  1
  Nb  Nb2  1  0.857612  0.975670  0.284775  1
  Nb  Nb3  1  0.064222  0.318696  0.871554  1
  Nb  Nb4  1  0.936146  0.680096  0.127709  1
  V  V5  1  0.939580  0.691368  0.618939  1
  V  V6  1  0.560908  0.308263  0.381267  1
  V  V7  1  0.057826  0.308263  0.381267  1
  V  V8  1  0.441481  0.691368  0.618939  1
  V  V9  1  0.437847  0.191973  0.124305  1
  V  V10  1  0.562355  0.809270  0.875290  1
  Si  Si11  1  0.435440  0.519520  0.129122  1
  Si  Si12  1  0.563745  0.483566  0.872509  1
  Si  Si13  1  0.067402  0.653225  0.865196  1
  Si  Si14  1  0.933493  0.347829  0.133012  1
  Si  Si15  1  0.255849  0.998212  0.002507  1
  Si  Si16  1  0.741644  0.998212  0.002507  1
  Si  Si17  1  0.218492  0.425734  0.563016  1
  Si  Si18  1  0.783558  0.580070  0.432884  1
  Si  Si19  1  0.287995  0.989620  0.424011  1
  Si  Si20  1  0.712883  0.006766  0.574235  1
  Mo  Mo21  1  0.355625  0.737443  0.288751  1
