# generated using pymatgen
data_Lu6MnAl24Os7
_symmetry_space_group_name_H-M   'P 1'
_cell_length_a   8.75358500
_cell_length_b   8.75358440
_cell_length_c   9.51391700
_cell_angle_alpha   90.00000000
_cell_angle_beta   90.00000000
_cell_angle_gamma   120.00000606
_symmetry_Int_Tables_number   1
_chemical_formula_structural   Lu6MnAl24Os7
_chemical_formula_sum   'Lu6 Mn1 Al24 Os7'
_cell_volume   631.33786907
_cell_formula_units_Z   1
loop_
 _symmetry_equiv_pos_site_id
 _symmetry_equiv_pos_as_xyz
  1  'x, y, z'
loop_
 _atom_site_type_symbol
 _atom_site_label
 _atom_site_symmetry_multiplicity
 _atom_site_fract_x
 _atom_site_fract_y
 _atom_site_fract_z
 _atom_site_occupancy
  Lu  Lu0  1  0.194990  0.389981  0.249788  1
  Lu  Lu1  1  0.805010  0.610019  0.750212  1
  Lu  Lu2  1  0.610019  0.805010  0.249788  1
  Lu  Lu3  1  0.389981  0.194990  0.750212  1
  Lu  Lu4  1  0.194990  0.805010  0.249788  1
  Lu  Lu5  1  0.805010  0.194990  0.750212  1
  Mn  Mn6  1  0.000000  0.000000  0.000000  1
  Al  Al7  1  0.333333  0.666667  0.018593  1
  Al  Al8  1  0.666667  0.333333  0.981407  1
  Al  Al9  1  0.666667  0.333333  0.521221  1
  Al  Al10  1  0.333333  0.666667  0.478779  1
  Al  Al11  1  0.163140  0.326280  0.576354  1
  Al  Al12  1  0.836860  0.673720  0.423646  1
  Al  Al13  1  0.673720  0.836860  0.576354  1
  Al  Al14  1  0.839894  0.679788  0.075806  1
  Al  Al15  1  0.326280  0.163140  0.423646  1
  Al  Al16  1  0.160106  0.320212  0.924194  1
  Al  Al17  1  0.163140  0.836860  0.576354  1
  Al  Al18  1  0.320212  0.160106  0.075806  1
  Al  Al19  1  0.836860  0.163140  0.423646  1
  Al  Al20  1  0.679788  0.839894  0.924194  1
  Al  Al21  1  0.839894  0.160106  0.075806  1
  Al  Al22  1  0.160106  0.839894  0.924194  1
  Al  Al23  1  0.561467  0.122933  0.249574  1
  Al  Al24  1  0.438533  0.877067  0.750426  1
  Al  Al25  1  0.877067  0.438533  0.249574  1
  Al  Al26  1  0.122933  0.561467  0.750426  1
  Al  Al27  1  0.561467  0.438533  0.249574  1
  Al  Al28  1  0.438533  0.561467  0.750426  1
  Al  Al29  1  0.000000  0.000000  0.243905  1
  Al  Al30  1  0.000000  0.000000  0.756095  1
  Os  Os31  1  0.500000  0.000000  0.000000  1
  Os  Os32  1  0.000000  0.500000  0.000000  1
  Os  Os33  1  0.500000  0.000000  0.500000  1
  Os  Os34  1  0.500000  0.500000  0.000000  1
  Os  Os35  1  0.000000  0.500000  0.500000  1
  Os  Os36  1  0.500000  0.500000  0.500000  1
  Os  Os37  1  0.000000  0.000000  0.500000  1
