# generated using pymatgen
data_Lu4Al3Tc2Os3
_symmetry_space_group_name_H-M   'P 1'
_cell_length_a   5.28318350
_cell_length_b   5.31938521
_cell_length_c   8.78275300
_cell_angle_alpha   90.00000000
_cell_angle_beta   90.00000000
_cell_angle_gamma   119.62673902
_symmetry_Int_Tables_number   1
_chemical_formula_structural   Lu4Al3Tc2Os3
_chemical_formula_sum   'Lu4 Al3 Tc2 Os3'
_cell_volume   214.55550387
_cell_formula_units_Z   1
loop_
 _symmetry_equiv_pos_site_id
 _symmetry_equiv_pos_as_xyz
  1  'x, y, z'
loop_
 _atom_site_type_symbol
 _atom_site_label
 _atom_site_symmetry_multiplicity
 _atom_site_fract_x
 _atom_site_fract_y
 _atom_site_fract_z
 _atom_site_occupancy
  Lu  Lu0  1  0.330309  0.672588  0.439366  1
  Lu  Lu1  1  0.667327  0.330350  0.560323  1
  Lu  Lu2  1  0.667327  0.330350  0.939677  1
  Lu  Lu3  1  0.330309  0.672588  0.060634  1
  Al  Al4  1  0.171235  0.336218  0.750000  1
  Al  Al5  1  0.335837  0.166143  0.250000  1
  Al  Al6  1  0.835358  0.664986  0.250000  1
  Tc  Tc7  1  0.188095  0.837031  0.750000  1
  Tc  Tc8  1  0.661022  0.834070  0.750000  1
  Os  Os9  1  0.989938  0.991265  0.998720  1
  Os  Os10  1  0.833304  0.173143  0.250000  1
  Os  Os11  1  0.989938  0.991265  0.501280  1
