# generated using pymatgen
data_Ho6InNiOs
_symmetry_space_group_name_H-M   'P 1'
_cell_length_a   8.41822310
_cell_length_b   8.41822377
_cell_length_c   8.41822342
_cell_angle_alpha   113.33058084
_cell_angle_beta   110.10647220
_cell_angle_gamma   105.08184459
_symmetry_Int_Tables_number   1
_chemical_formula_structural   Ho6InNiOs
_chemical_formula_sum   'Ho12 In2 Ni2 Os2'
_cell_volume   456.84514784
_cell_formula_units_Z   2
loop_
 _symmetry_equiv_pos_site_id
 _symmetry_equiv_pos_as_xyz
  1  'x, y, z'
loop_
 _atom_site_type_symbol
 _atom_site_label
 _atom_site_symmetry_multiplicity
 _atom_site_fract_x
 _atom_site_fract_y
 _atom_site_fract_z
 _atom_site_occupancy
  Ho  Ho0  1  0.439826  0.240429  0.199398  1
  Ho  Ho1  1  0.560174  0.759571  0.800602  1
  Ho  Ho2  1  0.041031  0.240429  0.800602  1
  Ho  Ho3  1  0.958969  0.759571  0.199398  1
  Ho  Ho4  1  0.184430  0.281999  0.466430  1
  Ho  Ho5  1  0.815570  0.718001  0.533570  1
  Ho  Ho6  1  0.184430  0.718001  0.902431  1
  Ho  Ho7  1  0.815570  0.281999  0.097569  1
  Ho  Ho8  1  0.328506  0.642625  0.314119  1
  Ho  Ho9  1  0.671494  0.357375  0.685881  1
  Ho  Ho10  1  0.328506  0.014388  0.685881  1
  Ho  Ho11  1  0.671494  0.985612  0.314119  1
  In  In12  1  0.500000  0.500000  0.000000  1
  In  In13  1  0.000000  0.000000  0.000000  1
  Ni  Ni14  1  0.115495  0.615495  0.500000  1
  Ni  Ni15  1  0.884505  0.384505  0.500000  1
  Os  Os16  1  0.331414  0.000000  0.331414  1
  Os  Os17  1  0.668586  0.000000  0.668586  1
