# generated using pymatgen
data_LiTbSm5RhBr12
_symmetry_space_group_name_H-M   'P 1'
_cell_length_a   9.36497464
_cell_length_b   9.35491388
_cell_length_c   9.48178023
_cell_angle_alpha   108.03522592
_cell_angle_beta   107.68859356
_cell_angle_gamma   107.67847696
_symmetry_Int_Tables_number   1
_chemical_formula_structural   LiTbSm5RhBr12
_chemical_formula_sum   'Li1 Tb1 Sm5 Rh1 Br12'
_cell_volume   676.11504846
_cell_formula_units_Z   1
loop_
 _symmetry_equiv_pos_site_id
 _symmetry_equiv_pos_as_xyz
  1  'x, y, z'
loop_
 _atom_site_type_symbol
 _atom_site_label
 _atom_site_symmetry_multiplicity
 _atom_site_fract_x
 _atom_site_fract_y
 _atom_site_fract_z
 _atom_site_occupancy
  Li  Li0  1  0.499715  0.499904  0.499415  1
  Tb  Tb1  1  0.883034  0.962967  0.672297  1
  Sm  Sm2  1  0.319123  0.113305  0.034944  1
  Sm  Sm3  1  0.035668  0.320213  0.111519  1
  Sm  Sm4  1  0.118105  0.037268  0.331566  1
  Sm  Sm5  1  0.680711  0.886539  0.965503  1
  Sm  Sm6  1  0.963618  0.678897  0.886347  1
  Rh  Rh7  1  0.999715  0.999469  0.999890  1
  Br  Br8  1  0.685669  0.220232  0.072287  1
  Br  Br9  1  0.071873  0.684570  0.217886  1
  Br  Br10  1  0.215518  0.070878  0.686387  1
  Br  Br11  1  0.314101  0.779308  0.927254  1
  Br  Br12  1  0.926743  0.310326  0.778133  1
  Br  Br13  1  0.780883  0.928070  0.317526  1
  Br  Br14  1  0.462691  0.171821  0.382489  1
  Br  Br15  1  0.384760  0.463509  0.171950  1
  Br  Br16  1  0.171043  0.384956  0.460489  1
  Br  Br17  1  0.542318  0.831335  0.617492  1
  Br  Br18  1  0.614977  0.536200  0.827471  1
  Br  Br19  1  0.829734  0.620232  0.539156  1
