# generated using pymatgen
data_HfZr5(ScSb8)2
_symmetry_space_group_name_H-M   'P 1'
_cell_length_a   3.91177900
_cell_length_b   10.18455564
_cell_length_c   15.07209208
_cell_angle_alpha   90.13811583
_cell_angle_beta   90.00000000
_cell_angle_gamma   90.00000000
_symmetry_Int_Tables_number   1
_chemical_formula_structural   HfZr5(ScSb8)2
_chemical_formula_sum   'Hf1 Zr5 Sc2 Sb16'
_cell_volume   600.46634793
_cell_formula_units_Z   1
loop_
 _symmetry_equiv_pos_site_id
 _symmetry_equiv_pos_as_xyz
  1  'x, y, z'
loop_
 _atom_site_type_symbol
 _atom_site_label
 _atom_site_symmetry_multiplicity
 _atom_site_fract_x
 _atom_site_fract_y
 _atom_site_fract_z
 _atom_site_occupancy
  Hf  Hf0  1  0.000000  0.166506  0.505284  1
  Zr  Zr1  1  0.000000  0.022606  0.249822  1
  Zr  Zr2  1  0.000000  0.977137  0.750148  1
  Zr  Zr3  1  0.000000  0.834165  0.494787  1
  Zr  Zr4  1  0.500000  0.332324  0.006532  1
  Zr  Zr5  1  0.500000  0.667689  0.993488  1
  Sc  Sc6  1  0.500000  0.521981  0.249976  1
  Sc  Sc7  1  0.500000  0.477574  0.749995  1
  Sb  Sb8  1  0.000000  0.513514  0.103794  1
  Sb  Sb9  1  0.000000  0.486482  0.896236  1
  Sb  Sb10  1  0.500000  0.013527  0.396795  1
  Sb  Sb11  1  0.500000  0.989875  0.603550  1
  Sb  Sb12  1  0.000000  0.734464  0.301380  1
  Sb  Sb13  1  0.000000  0.265281  0.698309  1
  Sb  Sb14  1  0.500000  0.234514  0.199772  1
  Sb  Sb15  1  0.500000  0.765086  0.800179  1
  Sb  Sb16  1  0.000000  0.882894  0.943084  1
  Sb  Sb17  1  0.000000  0.117085  0.056836  1
  Sb  Sb18  1  0.500000  0.377716  0.555831  1
  Sb  Sb19  1  0.500000  0.620237  0.443546  1
  Sb  Sb20  1  0.000000  0.663923  0.656128  1
  Sb  Sb21  1  0.000000  0.335282  0.344751  1
  Sb  Sb22  1  0.500000  0.158651  0.843197  1
  Sb  Sb23  1  0.500000  0.841485  0.156580  1
