# generated using pymatgen
data_Lu7Th3Sn8
_symmetry_space_group_name_H-M   'P 1'
_cell_length_a   8.03169800
_cell_length_b   8.10119002
_cell_length_c   15.30610002
_cell_angle_alpha   90.06687193
_cell_angle_beta   90.00000000
_cell_angle_gamma   90.00000000
_symmetry_Int_Tables_number   1
_chemical_formula_structural   Lu7Th3Sn8
_chemical_formula_sum   'Lu14 Th6 Sn16'
_cell_volume   995.91079627
_cell_formula_units_Z   2
loop_
 _symmetry_equiv_pos_site_id
 _symmetry_equiv_pos_as_xyz
  1  'x, y, z'
loop_
 _atom_site_type_symbol
 _atom_site_label
 _atom_site_symmetry_multiplicity
 _atom_site_fract_x
 _atom_site_fract_y
 _atom_site_fract_z
 _atom_site_occupancy
  Lu  Lu0  1  0.353678  0.837412  0.874618  1
  Lu  Lu1  1  0.853678  0.662588  0.625382  1
  Lu  Lu2  1  0.638378  0.163647  0.376178  1
  Lu  Lu3  1  0.138378  0.336353  0.123822  1
  Lu  Lu4  1  0.643108  0.162642  0.123614  1
  Lu  Lu5  1  0.143108  0.337358  0.376386  1
  Lu  Lu6  1  0.360424  0.839616  0.626386  1
  Lu  Lu7  1  0.860424  0.660384  0.873614  1
  Lu  Lu8  1  0.527195  0.324164  0.899771  1
  Lu  Lu9  1  0.027195  0.175836  0.600229  1
  Lu  Lu10  1  0.188667  0.501022  0.749457  1
  Lu  Lu11  1  0.688667  0.998978  0.750543  1
  Lu  Lu12  1  0.811173  0.499151  0.249775  1
  Lu  Lu13  1  0.311173  0.000849  0.250225  1
  Th  Th14  1  0.481037  0.677719  0.405592  1
  Th  Th15  1  0.981037  0.822281  0.094408  1
  Th  Th16  1  0.481783  0.676544  0.095145  1
  Th  Th17  1  0.981783  0.823456  0.404855  1
  Th  Th18  1  0.514591  0.323553  0.594433  1
  Th  Th19  1  0.014591  0.176447  0.905567  1
  Sn  Sn20  1  0.304213  0.040360  0.042288  1
  Sn  Sn21  1  0.804213  0.459640  0.457712  1
  Sn  Sn22  1  0.705140  0.966919  0.543833  1
  Sn  Sn23  1  0.205140  0.533081  0.956167  1
  Sn  Sn24  1  0.691567  0.957322  0.957163  1
  Sn  Sn25  1  0.191567  0.542678  0.542837  1
  Sn  Sn26  1  0.299403  0.042820  0.460603  1
  Sn  Sn27  1  0.799403  0.457180  0.039397  1
  Sn  Sn28  1  0.553053  0.622408  0.750500  1
  Sn  Sn29  1  0.053053  0.877592  0.749500  1
  Sn  Sn30  1  0.445140  0.374857  0.249234  1
  Sn  Sn31  1  0.945140  0.125143  0.250766  1
  Sn  Sn32  1  0.327449  0.149101  0.753201  1
  Sn  Sn33  1  0.827449  0.350899  0.746799  1
  Sn  Sn34  1  0.673999  0.856452  0.250052  1
  Sn  Sn35  1  0.173999  0.643548  0.249948  1
