# generated using pymatgen
data_Th4B16MoW3
_symmetry_space_group_name_H-M   'P 1'
_cell_length_a   6.13150402
_cell_length_b   11.85588802
_cell_length_c   3.76712800
_cell_angle_alpha   90.00000000
_cell_angle_beta   90.00000000
_cell_angle_gamma   90.00070489
_symmetry_Int_Tables_number   1
_chemical_formula_structural   Th4B16MoW3
_chemical_formula_sum   'Th4 B16 Mo1 W3'
_cell_volume   273.84920406
_cell_formula_units_Z   1
loop_
 _symmetry_equiv_pos_site_id
 _symmetry_equiv_pos_as_xyz
  1  'x, y, z'
loop_
 _atom_site_type_symbol
 _atom_site_label
 _atom_site_symmetry_multiplicity
 _atom_site_fract_x
 _atom_site_fract_y
 _atom_site_fract_z
 _atom_site_occupancy
  Th  Th0  1  0.623662  0.348559  0.000000  1
  Th  Th1  1  0.376373  0.651193  0.000000  1
  Th  Th2  1  0.123606  0.150740  0.000000  1
  Th  Th3  1  0.876105  0.849363  0.000000  1
  B  B4  1  0.782846  0.183473  0.500000  1
  B  B5  1  0.216721  0.816185  0.500000  1
  B  B6  1  0.283218  0.316032  0.500000  1
  B  B7  1  0.716795  0.683994  0.500000  1
  B  B8  1  0.861241  0.032268  0.500000  1
  B  B9  1  0.138765  0.968044  0.500000  1
  B  B10  1  0.361624  0.467964  0.500000  1
  B  B11  1  0.638466  0.531908  0.500000  1
  B  B12  1  0.887724  0.454291  0.500000  1
  B  B13  1  0.112151  0.545591  0.500000  1
  B  B14  1  0.388260  0.045710  0.500000  1
  B  B15  1  0.612198  0.954759  0.500000  1
  B  B16  1  0.974360  0.310139  0.500000  1
  B  B17  1  0.025586  0.689881  0.500000  1
  B  B18  1  0.474940  0.189658  0.500000  1
  B  B19  1  0.525586  0.810322  0.500000  1
  Mo  Mo20  1  0.629223  0.086324  0.000000  1
  W  W21  1  0.370530  0.913657  0.000000  1
  W  W22  1  0.129643  0.413887  0.000000  1
  W  W23  1  0.870380  0.586060  0.000000  1
