# generated using pymatgen
data_Hf3Ta(NiTe)8
_symmetry_space_group_name_H-M   'P 1'
_cell_length_a   3.68539400
_cell_length_b   6.44822848
_cell_length_c   18.05954339
_cell_angle_alpha   90.04467644
_cell_angle_beta   90.00000000
_cell_angle_gamma   90.00000000
_symmetry_Int_Tables_number   1
_chemical_formula_structural   Hf3Ta(NiTe)8
_chemical_formula_sum   'Hf3 Ta1 Ni8 Te8'
_cell_volume   429.17160046
_cell_formula_units_Z   1
loop_
 _symmetry_equiv_pos_site_id
 _symmetry_equiv_pos_as_xyz
  1  'x, y, z'
loop_
 _atom_site_type_symbol
 _atom_site_label
 _atom_site_symmetry_multiplicity
 _atom_site_fract_x
 _atom_site_fract_y
 _atom_site_fract_z
 _atom_site_occupancy
  Hf  Hf0  1  0.250000  0.906182  0.722063  1
  Hf  Hf1  1  0.750000  0.093939  0.278081  1
  Hf  Hf2  1  0.250000  0.406128  0.777942  1
  Ta  Ta3  1  0.750000  0.593858  0.223631  1
  Ni  Ni4  1  0.250000  0.290986  0.184449  1
  Ni  Ni5  1  0.750000  0.712218  0.816387  1
  Ni  Ni6  1  0.750000  0.212110  0.683540  1
  Ni  Ni7  1  0.250000  0.788165  0.314352  1
  Ni  Ni8  1  0.250000  0.896109  0.185079  1
  Ni  Ni9  1  0.750000  0.100635  0.815860  1
  Ni  Ni10  1  0.250000  0.399564  0.313758  1
  Ni  Ni11  1  0.750000  0.600284  0.684199  1
  Te  Te12  1  0.250000  0.593813  0.096656  1
  Te  Te13  1  0.750000  0.406120  0.906726  1
  Te  Te14  1  0.750000  0.905461  0.593263  1
  Te  Te15  1  0.250000  0.094471  0.406480  1
  Te  Te16  1  0.750000  0.593026  0.385118  1
  Te  Te17  1  0.250000  0.407306  0.610943  1
  Te  Te18  1  0.750000  0.092163  0.112496  1
  Te  Te19  1  0.250000  0.907460  0.888976  1
