# generated using pymatgen
data_Sc12ZnCo4Sn
_symmetry_space_group_name_H-M   'P 1'
_cell_length_a   7.75752809
_cell_length_b   7.75752866
_cell_length_c   7.75752842
_cell_angle_alpha   111.81387478
_cell_angle_beta   110.09657287
_cell_angle_gamma   106.54712090
_symmetry_Int_Tables_number   1
_chemical_formula_structural   Sc12ZnCo4Sn
_chemical_formula_sum   'Sc12 Zn1 Co4 Sn1'
_cell_volume   358.59271449
_cell_formula_units_Z   1
loop_
 _symmetry_equiv_pos_site_id
 _symmetry_equiv_pos_as_xyz
  1  'x, y, z'
loop_
 _atom_site_type_symbol
 _atom_site_label
 _atom_site_symmetry_multiplicity
 _atom_site_fract_x
 _atom_site_fract_y
 _atom_site_fract_z
 _atom_site_occupancy
  Sc  Sc0  1  0.433313  0.230259  0.203054  1
  Sc  Sc1  1  0.566687  0.769741  0.796946  1
  Sc  Sc2  1  0.027205  0.230259  0.796946  1
  Sc  Sc3  1  0.972795  0.769741  0.203054  1
  Sc  Sc4  1  0.184100  0.282426  0.466526  1
  Sc  Sc5  1  0.815900  0.717574  0.533474  1
  Sc  Sc6  1  0.184100  0.717574  0.901674  1
  Sc  Sc7  1  0.815900  0.282426  0.098326  1
  Sc  Sc8  1  0.322954  0.630987  0.308032  1
  Sc  Sc9  1  0.677046  0.369013  0.691968  1
  Sc  Sc10  1  0.322954  0.014922  0.691968  1
  Sc  Sc11  1  0.677046  0.985078  0.308032  1
  Zn  Zn12  1  0.000000  0.000000  0.000000  1
  Co  Co13  1  0.345733  0.000000  0.345733  1
  Co  Co14  1  0.654267  0.000000  0.654267  1
  Co  Co15  1  0.120535  0.620535  0.500000  1
  Co  Co16  1  0.879465  0.379465  0.500000  1
  Sn  Sn17  1  0.500000  0.500000  0.000000  1
