# generated using pymatgen
data_HoEr2Fe8Co
_symmetry_space_group_name_H-M   'P 1'
_cell_length_a   8.61004057
_cell_length_b   8.61004201
_cell_length_c   8.61004143
_cell_angle_alpha   34.35944773
_cell_angle_beta   34.35944290
_cell_angle_gamma   34.35944589
_symmetry_Int_Tables_number   1
_chemical_formula_structural   HoEr2Fe8Co
_chemical_formula_sum   'Ho1 Er2 Fe8 Co1'
_cell_volume   181.33655442
_cell_formula_units_Z   1
loop_
 _symmetry_equiv_pos_site_id
 _symmetry_equiv_pos_as_xyz
  1  'x, y, z'
loop_
 _atom_site_type_symbol
 _atom_site_label
 _atom_site_symmetry_multiplicity
 _atom_site_fract_x
 _atom_site_fract_y
 _atom_site_fract_z
 _atom_site_occupancy
  Ho  Ho0  1  0.000000  0.000000  0.000000  1
  Er  Er1  1  0.141958  0.141958  0.141958  1
  Er  Er2  1  0.858042  0.858042  0.858042  1
  Fe  Fe3  1  0.418095  0.418095  0.918030  1
  Fe  Fe4  1  0.918030  0.418095  0.418095  1
  Fe  Fe5  1  0.581905  0.081970  0.581905  1
  Fe  Fe6  1  0.581905  0.581905  0.081970  1
  Fe  Fe7  1  0.418095  0.918030  0.418095  1
  Fe  Fe8  1  0.081970  0.581905  0.581905  1
  Fe  Fe9  1  0.332793  0.332793  0.332793  1
  Fe  Fe10  1  0.667207  0.667207  0.667207  1
  Co  Co11  1  0.500000  0.500000  0.500000  1
