# generated using pymatgen
data_Nd3CdPd2PtAu2
_symmetry_space_group_name_H-M   'P 1'
_cell_length_a   7.72588387
_cell_length_b   7.71123836
_cell_length_c   3.98154000
_cell_angle_alpha   90.00000000
_cell_angle_beta   90.00000000
_cell_angle_gamma   120.91604789
_symmetry_Int_Tables_number   1
_chemical_formula_structural   Nd3CdPd2PtAu2
_chemical_formula_sum   'Nd3 Cd1 Pd2 Pt1 Au2'
_cell_volume   203.50294687
_cell_formula_units_Z   1
loop_
 _symmetry_equiv_pos_site_id
 _symmetry_equiv_pos_as_xyz
  1  'x, y, z'
loop_
 _atom_site_type_symbol
 _atom_site_label
 _atom_site_symmetry_multiplicity
 _atom_site_fract_x
 _atom_site_fract_y
 _atom_site_fract_z
 _atom_site_occupancy
  Nd  Nd0  1  0.598156  0.006673  0.000000  1
  Nd  Nd1  1  0.016224  0.603051  0.000000  1
  Nd  Nd2  1  0.376765  0.382095  0.000000  1
  Cd  Cd3  1  0.745873  0.743673  0.500000  1
  Pd  Pd4  1  0.669670  0.343112  0.500000  1
  Pd  Pd5  1  0.993526  0.993603  0.000000  1
  Pt  Pt6  1  0.344368  0.669813  0.500000  1
  Au  Au7  1  0.261509  0.999480  0.500000  1
  Au  Au8  1  0.993908  0.258499  0.500000  1
