# generated using pymatgen
data_Mg3Si(PPd4)5
_symmetry_space_group_name_H-M   'P 1'
_cell_length_a   8.57598470
_cell_length_b   8.57687666
_cell_length_c   8.57687781
_cell_angle_alpha   59.99309604
_cell_angle_beta   60.00344102
_cell_angle_gamma   60.00344015
_symmetry_Int_Tables_number   1
_chemical_formula_structural   Mg3Si(PPd4)5
_chemical_formula_sum   'Mg3 Si1 P5 Pd20'
_cell_volume   446.09494610
_cell_formula_units_Z   1
loop_
 _symmetry_equiv_pos_site_id
 _symmetry_equiv_pos_as_xyz
  1  'x, y, z'
loop_
 _atom_site_type_symbol
 _atom_site_label
 _atom_site_symmetry_multiplicity
 _atom_site_fract_x
 _atom_site_fract_y
 _atom_site_fract_z
 _atom_site_occupancy
  Mg  Mg0  1  0.998139  0.001861  0.001861  1
  Mg  Mg1  1  0.751275  0.748725  0.748725  1
  Mg  Mg2  1  0.251275  0.248725  0.248725  1
  Si  Si3  1  0.733305  0.266695  0.266695  1
  P  P4  1  0.735201  0.733205  0.264799  1
  P  P5  1  0.735201  0.264799  0.733205  1
  P  P6  1  0.266795  0.733205  0.264799  1
  P  P7  1  0.265835  0.734165  0.734165  1
  P  P8  1  0.266795  0.264799  0.733205  1
  Pd  Pd9  1  0.340367  0.001542  0.001542  1
  Pd  Pd10  1  0.998458  0.659633  0.343450  1
  Pd  Pd11  1  0.341994  0.000021  0.658006  1
  Pd  Pd12  1  0.999979  0.658006  0.000021  1
  Pd  Pd13  1  0.656683  0.343317  0.998393  1
  Pd  Pd14  1  0.617382  0.619305  0.145930  1
  Pd  Pd15  1  0.383072  0.851405  0.382451  1
  Pd  Pd16  1  0.148595  0.616928  0.616928  1
  Pd  Pd17  1  0.656683  0.998393  0.343317  1
  Pd  Pd18  1  0.998458  0.343450  0.659633  1
  Pd  Pd19  1  0.656550  0.001542  0.001542  1
  Pd  Pd20  1  0.001607  0.998393  0.343317  1
  Pd  Pd21  1  0.617382  0.145930  0.619305  1
  Pd  Pd22  1  0.341994  0.658006  0.000021  1
  Pd  Pd23  1  0.380695  0.382618  0.382618  1
  Pd  Pd24  1  0.617549  0.616928  0.616928  1
  Pd  Pd25  1  0.383072  0.382451  0.851405  1
  Pd  Pd26  1  0.999979  0.000021  0.658006  1
  Pd  Pd27  1  0.854070  0.382618  0.382618  1
  Pd  Pd28  1  0.001607  0.343317  0.998393  1
