# generated using pymatgen
data_Co3AsBrO8
_symmetry_space_group_name_H-M   'P 1'
_cell_length_a   5.71937602
_cell_length_b   6.87659085
_cell_length_c   5.71898013
_cell_angle_alpha   66.67210680
_cell_angle_beta   120.11349988
_cell_angle_gamma   88.93494144
_symmetry_Int_Tables_number   1
_chemical_formula_structural   Co3AsBrO8
_chemical_formula_sum   'Co3 As1 Br1 O8'
_cell_volume   171.85039424
_cell_formula_units_Z   1
loop_
 _symmetry_equiv_pos_site_id
 _symmetry_equiv_pos_as_xyz
  1  'x, y, z'
loop_
 _atom_site_type_symbol
 _atom_site_label
 _atom_site_symmetry_multiplicity
 _atom_site_fract_x
 _atom_site_fract_y
 _atom_site_fract_z
 _atom_site_occupancy
  Co  Co0  1  0.000000  0.000000  0.500000  1
  Co  Co1  1  0.000000  0.000000  0.000000  1
  Co  Co2  1  0.500000  0.000000  0.000000  1
  As  As3  1  0.500000  0.000000  0.500000  1
  Br  Br4  1  0.000000  0.500000  0.500000  1
  O  O5  1  0.392383  0.843679  0.764311  1
  O  O6  1  0.607617  0.156321  0.235689  1
  O  O7  1  0.888941  0.838829  0.272487  1
  O  O8  1  0.111059  0.161171  0.727513  1
  O  O9  1  0.888075  0.842129  0.771642  1
  O  O10  1  0.386631  0.842156  0.270159  1
  O  O11  1  0.111925  0.157871  0.228358  1
  O  O12  1  0.613369  0.157844  0.729841  1
