# generated using pymatgen
data_CaHo6Cd(Co3Sn11)2
_symmetry_space_group_name_H-M   'P 1'
_cell_length_a   9.66446700
_cell_length_b   9.66446544
_cell_length_c   10.02780500
_cell_angle_alpha   90.00000000
_cell_angle_beta   90.00000000
_cell_angle_gamma   119.99999507
_symmetry_Int_Tables_number   1
_chemical_formula_structural   CaHo6Cd(Co3Sn11)2
_chemical_formula_sum   'Ca1 Ho6 Cd1 Co6 Sn22'
_cell_volume   811.13338785
_cell_formula_units_Z   1
loop_
 _symmetry_equiv_pos_site_id
 _symmetry_equiv_pos_as_xyz
  1  'x, y, z'
loop_
 _atom_site_type_symbol
 _atom_site_label
 _atom_site_symmetry_multiplicity
 _atom_site_fract_x
 _atom_site_fract_y
 _atom_site_fract_z
 _atom_site_occupancy
  Ca  Ca0  1  0.000000  0.000000  0.000000  1
  Ho  Ho1  1  0.520656  0.479344  0.693297  1
  Ho  Ho2  1  0.520656  0.041310  0.693297  1
  Ho  Ho3  1  0.958690  0.479344  0.693297  1
  Ho  Ho4  1  0.041310  0.520656  0.306703  1
  Ho  Ho5  1  0.479344  0.958690  0.306703  1
  Ho  Ho6  1  0.479344  0.520656  0.306703  1
  Cd  Cd7  1  0.000000  0.000000  0.500000  1
  Co  Co8  1  0.169194  0.830806  0.801605  1
  Co  Co9  1  0.169194  0.338388  0.801605  1
  Co  Co10  1  0.661612  0.830806  0.801605  1
  Co  Co11  1  0.338388  0.169194  0.198395  1
  Co  Co12  1  0.830806  0.661612  0.198395  1
  Co  Co13  1  0.830806  0.169194  0.198395  1
  Sn  Sn14  1  0.666667  0.333333  0.181403  1
  Sn  Sn15  1  0.666667  0.333333  0.881382  1
  Sn  Sn16  1  0.333333  0.666667  0.118618  1
  Sn  Sn17  1  0.345899  0.345899  0.000000  1
  Sn  Sn18  1  0.000000  0.654101  0.000000  1
  Sn  Sn19  1  0.654101  0.000000  0.000000  1
  Sn  Sn20  1  0.654101  0.654101  0.000000  1
  Sn  Sn21  1  0.333333  0.666667  0.818597  1
  Sn  Sn22  1  0.435120  0.217560  0.453117  1
  Sn  Sn23  1  0.217560  0.782440  0.546883  1
  Sn  Sn24  1  0.217560  0.435120  0.546883  1
  Sn  Sn25  1  0.564880  0.782440  0.546883  1
  Sn  Sn26  1  0.116718  0.883282  0.270311  1
  Sn  Sn27  1  0.782440  0.564880  0.453117  1
  Sn  Sn28  1  0.782440  0.217560  0.453117  1
  Sn  Sn29  1  0.345899  0.000000  0.000000  1
  Sn  Sn30  1  0.116718  0.233435  0.270311  1
  Sn  Sn31  1  0.766565  0.883282  0.270311  1
  Sn  Sn32  1  0.233435  0.116718  0.729689  1
  Sn  Sn33  1  0.883282  0.766565  0.729689  1
  Sn  Sn34  1  0.883282  0.116718  0.729689  1
  Sn  Sn35  1  0.000000  0.345899  0.000000  1
