# generated using pymatgen
data_Dy5Lu5AlSb5
_symmetry_space_group_name_H-M   'P 1'
_cell_length_a   6.28571800
_cell_length_b   8.85210051
_cell_length_c   8.84911626
_cell_angle_alpha   120.01116248
_cell_angle_beta   90.00011506
_cell_angle_gamma   89.99977625
_symmetry_Int_Tables_number   1
_chemical_formula_structural   Dy5Lu5AlSb5
_chemical_formula_sum   'Dy5 Lu5 Al1 Sb5'
_cell_volume   426.36633021
_cell_formula_units_Z   1
loop_
 _symmetry_equiv_pos_site_id
 _symmetry_equiv_pos_as_xyz
  1  'x, y, z'
loop_
 _atom_site_type_symbol
 _atom_site_label
 _atom_site_symmetry_multiplicity
 _atom_site_fract_x
 _atom_site_fract_y
 _atom_site_fract_z
 _atom_site_occupancy
  Dy  Dy0  1  0.749991  0.248813  0.000000  1
  Dy  Dy1  1  0.750004  0.753420  0.763282  1
  Dy  Dy2  1  0.750004  0.990138  0.236718  1
  Dy  Dy3  1  0.250002  0.245203  0.244242  1
  Dy  Dy4  1  0.250002  0.000961  0.755758  1
  Lu  Lu5  1  0.501772  0.338469  0.673213  1
  Lu  Lu6  1  0.501772  0.665258  0.326787  1
  Lu  Lu7  1  0.998224  0.665263  0.326789  1
  Lu  Lu8  1  0.998224  0.338474  0.673211  1
  Lu  Lu9  1  0.249995  0.756933  0.000000  1
  Al  Al10  1  0.750008  0.602820  0.000000  1
  Sb  Sb11  1  0.750003  0.389604  0.391785  1
  Sb  Sb12  1  0.750003  0.997820  0.608215  1
  Sb  Sb13  1  0.249996  0.395880  0.000000  1
  Sb  Sb14  1  0.250001  0.609666  0.608385  1
  Sb  Sb15  1  0.250001  0.001281  0.391615  1
