# generated using pymatgen
data_TbHo6Cd(Sn11Os3)2
_symmetry_space_group_name_H-M   'P 1'
_cell_length_a   9.82293900
_cell_length_b   9.82293763
_cell_length_c   10.18560800
_cell_angle_alpha   90.00000000
_cell_angle_beta   90.00000000
_cell_angle_gamma   119.99999450
_symmetry_Int_Tables_number   1
_chemical_formula_structural   TbHo6Cd(Sn11Os3)2
_chemical_formula_sum   'Tb1 Ho6 Cd1 Sn22 Os6'
_cell_volume   851.13891524
_cell_formula_units_Z   1
loop_
 _symmetry_equiv_pos_site_id
 _symmetry_equiv_pos_as_xyz
  1  'x, y, z'
loop_
 _atom_site_type_symbol
 _atom_site_label
 _atom_site_symmetry_multiplicity
 _atom_site_fract_x
 _atom_site_fract_y
 _atom_site_fract_z
 _atom_site_occupancy
  Tb  Tb0  1  0.000000  0.000000  0.000000  1
  Ho  Ho1  1  0.517753  0.482247  0.693416  1
  Ho  Ho2  1  0.517753  0.035505  0.693416  1
  Ho  Ho3  1  0.964495  0.482247  0.693416  1
  Ho  Ho4  1  0.035505  0.517753  0.306584  1
  Ho  Ho5  1  0.482247  0.964495  0.306584  1
  Ho  Ho6  1  0.482247  0.517753  0.306584  1
  Cd  Cd7  1  0.000000  0.000000  0.500000  1
  Sn  Sn8  1  0.666667  0.333333  0.177248  1
  Sn  Sn9  1  0.666667  0.333333  0.873567  1
  Sn  Sn10  1  0.333333  0.666667  0.126433  1
  Sn  Sn11  1  0.350143  0.350143  0.000000  1
  Sn  Sn12  1  0.000000  0.649857  0.000000  1
  Sn  Sn13  1  0.649857  0.000000  0.000000  1
  Sn  Sn14  1  0.649857  0.649857  0.000000  1
  Sn  Sn15  1  0.333333  0.666667  0.822752  1
  Sn  Sn16  1  0.440404  0.220202  0.459940  1
  Sn  Sn17  1  0.220202  0.779798  0.540060  1
  Sn  Sn18  1  0.220202  0.440404  0.540060  1
  Sn  Sn19  1  0.559596  0.779798  0.540060  1
  Sn  Sn20  1  0.122259  0.877741  0.268643  1
  Sn  Sn21  1  0.779798  0.559596  0.459940  1
  Sn  Sn22  1  0.779798  0.220202  0.459940  1
  Sn  Sn23  1  0.350143  0.000000  0.000000  1
  Sn  Sn24  1  0.122259  0.244517  0.268643  1
  Sn  Sn25  1  0.755483  0.877741  0.268643  1
  Sn  Sn26  1  0.244517  0.122259  0.731357  1
  Sn  Sn27  1  0.877741  0.755483  0.731357  1
  Sn  Sn28  1  0.877741  0.122259  0.731357  1
  Sn  Sn29  1  0.000000  0.350143  0.000000  1
  Os  Os30  1  0.169105  0.830895  0.796555  1
  Os  Os31  1  0.169105  0.338212  0.796555  1
  Os  Os32  1  0.661788  0.830895  0.796555  1
  Os  Os33  1  0.338212  0.169105  0.203445  1
  Os  Os34  1  0.830895  0.661788  0.203445  1
  Os  Os35  1  0.830895  0.169105  0.203445  1
