# generated using pymatgen
data_NaGaHgF6
_symmetry_space_group_name_H-M   'P 1'
_cell_length_a   3.89921300
_cell_length_b   10.36431000
_cell_length_c   12.85907500
_cell_angle_alpha   90.00000000
_cell_angle_beta   90.00000000
_cell_angle_gamma   90.00000000
_symmetry_Int_Tables_number   1
_chemical_formula_structural   NaGaHgF6
_chemical_formula_sum   'Na4 Ga4 Hg4 F24'
_cell_volume   519.66932672
_cell_formula_units_Z   4
loop_
 _symmetry_equiv_pos_site_id
 _symmetry_equiv_pos_as_xyz
  1  'x, y, z'
loop_
 _atom_site_type_symbol
 _atom_site_label
 _atom_site_symmetry_multiplicity
 _atom_site_fract_x
 _atom_site_fract_y
 _atom_site_fract_z
 _atom_site_occupancy
  Na  Na0  1  0.250000  0.176380  0.915704  1
  Na  Na1  1  0.250000  0.323620  0.415704  1
  Na  Na2  1  0.750000  0.823620  0.084296  1
  Na  Na3  1  0.750000  0.676380  0.584296  1
  Ga  Ga4  1  0.250000  0.820411  0.836950  1
  Ga  Ga5  1  0.750000  0.179589  0.163050  1
  Ga  Ga6  1  0.250000  0.679589  0.336950  1
  Ga  Ga7  1  0.750000  0.320411  0.663050  1
  Hg  Hg8  1  0.750000  0.999843  0.380636  1
  Hg  Hg9  1  0.750000  0.500157  0.880636  1
  Hg  Hg10  1  0.250000  0.000157  0.619364  1
  Hg  Hg11  1  0.250000  0.499843  0.119364  1
  F  F12  1  0.750000  0.136320  0.643282  1
  F  F13  1  0.250000  0.100569  0.458907  1
  F  F14  1  0.750000  0.363680  0.143282  1
  F  F15  1  0.750000  0.144282  0.020753  1
  F  F16  1  0.750000  0.999417  0.198304  1
  F  F17  1  0.750000  0.286246  0.811093  1
  F  F18  1  0.250000  0.863680  0.356718  1
  F  F19  1  0.750000  0.899431  0.541093  1
  F  F20  1  0.250000  0.636320  0.856718  1
  F  F21  1  0.750000  0.813098  0.834202  1
  F  F22  1  0.750000  0.355718  0.520753  1
  F  F23  1  0.750000  0.686902  0.334202  1
  F  F24  1  0.250000  0.186902  0.165798  1
  F  F25  1  0.250000  0.786246  0.688907  1
  F  F26  1  0.250000  0.644282  0.479247  1
  F  F27  1  0.750000  0.600569  0.041093  1
  F  F28  1  0.250000  0.399431  0.958907  1
  F  F29  1  0.250000  0.000583  0.801696  1
  F  F30  1  0.250000  0.713754  0.188907  1
  F  F31  1  0.750000  0.500583  0.698304  1
  F  F32  1  0.250000  0.313098  0.665798  1
  F  F33  1  0.250000  0.499417  0.301696  1
  F  F34  1  0.250000  0.855718  0.979247  1
  F  F35  1  0.750000  0.213754  0.311093  1
