# generated using pymatgen
data_PrNd3Mn6(PtO10)2
_symmetry_space_group_name_H-M   'P 1'
_cell_length_a   5.93528009
_cell_length_b   7.60560120
_cell_length_c   8.80491037
_cell_angle_alpha   89.97354958
_cell_angle_beta   90.02008692
_cell_angle_gamma   90.00137325
_symmetry_Int_Tables_number   1
_chemical_formula_structural   PrNd3Mn6(PtO10)2
_chemical_formula_sum   'Pr1 Nd3 Mn6 Pt2 O20'
_cell_volume   397.46567992
_cell_formula_units_Z   1
loop_
 _symmetry_equiv_pos_site_id
 _symmetry_equiv_pos_as_xyz
  1  'x, y, z'
loop_
 _atom_site_type_symbol
 _atom_site_label
 _atom_site_symmetry_multiplicity
 _atom_site_fract_x
 _atom_site_fract_y
 _atom_site_fract_z
 _atom_site_occupancy
  Pr  Pr0  1  0.002965  0.360961  0.671182  1
  Nd  Nd1  1  0.002918  0.639543  0.328480  1
  Nd  Nd2  1  0.997080  0.860758  0.828939  1
  Nd  Nd3  1  0.997065  0.139097  0.171124  1
  Mn  Mn4  1  0.495565  0.086279  0.851226  1
  Mn  Mn5  1  0.495578  0.913303  0.148999  1
  Mn  Mn6  1  0.504427  0.587285  0.648906  1
  Mn  Mn7  1  0.504420  0.413448  0.350622  1
  Mn  Mn8  1  0.741513  0.500064  0.000315  1
  Mn  Mn9  1  0.258443  0.999632  0.499841  1
  Pt  Pt10  1  0.254204  0.500096  0.000201  1
  Pt  Pt11  1  0.745826  0.999669  0.499874  1
  O  O12  1  0.246251  0.900178  0.292586  1
  O  O13  1  0.246700  0.098441  0.707359  1
  O  O14  1  0.753844  0.400334  0.207385  1
  O  O15  1  0.753186  0.600478  0.793008  1
  O  O16  1  0.753425  0.100836  0.714143  1
  O  O17  1  0.754042  0.897863  0.285938  1
  O  O18  1  0.246820  0.603171  0.786352  1
  O  O19  1  0.245836  0.397858  0.214004  1
  O  O20  1  0.511283  0.344020  0.934317  1
  O  O21  1  0.511302  0.656085  0.065717  1
  O  O22  1  0.488785  0.843910  0.565541  1
  O  O23  1  0.488662  0.156015  0.434388  1
  O  O24  1  0.272877  0.000024  0.000113  1
  O  O25  1  0.726262  0.500861  0.499347  1
  O  O26  1  0.717426  0.999993  0.000151  1
  O  O27  1  0.283365  0.500800  0.499379  1
  O  O28  1  0.012413  0.161721  0.444226  1
  O  O29  1  0.012270  0.837261  0.555016  1
  O  O30  1  0.987741  0.662561  0.055094  1
  O  O31  1  0.987508  0.337457  0.946226  1
