# generated using pymatgen
data_Er10SiSn6
_symmetry_space_group_name_H-M   'P 1'
_cell_length_a   6.51587702
_cell_length_b   9.02001625
_cell_length_c   9.01993701
_cell_angle_alpha   120.00030127
_cell_angle_beta   90.00261401
_cell_angle_gamma   89.99478007
_symmetry_Int_Tables_number   1
_chemical_formula_structural   Er10SiSn6
_chemical_formula_sum   'Er10 Si1 Sn6'
_cell_volume   459.10604932
_cell_formula_units_Z   1
loop_
 _symmetry_equiv_pos_site_id
 _symmetry_equiv_pos_as_xyz
  1  'x, y, z'
loop_
 _atom_site_type_symbol
 _atom_site_label
 _atom_site_symmetry_multiplicity
 _atom_site_fract_x
 _atom_site_fract_y
 _atom_site_fract_z
 _atom_site_occupancy
  Er  Er0  1  0.500010  0.333331  0.666657  1
  Er  Er1  1  0.500010  0.666674  0.333343  1
  Er  Er2  1  0.000006  0.666643  0.333292  1
  Er  Er3  1  0.000006  0.333350  0.666708  1
  Er  Er4  1  0.747366  0.250602  0.000000  1
  Er  Er5  1  0.747341  0.749402  0.749395  1
  Er  Er6  1  0.747341  0.000007  0.250605  1
  Er  Er7  1  0.252643  0.749400  0.000000  1
  Er  Er8  1  0.252642  0.250597  0.250606  1
  Er  Er9  1  0.252642  0.999992  0.749394  1
  Si  Si10  1  0.499997  0.000004  0.000000  1
  Sn  Sn11  1  0.748563  0.608878  0.000000  1
  Sn  Sn12  1  0.748626  0.391120  0.391119  1
  Sn  Sn13  1  0.748626  0.000001  0.608881  1
  Sn  Sn14  1  0.251434  0.391121  0.000000  1
  Sn  Sn15  1  0.251372  0.608882  0.608887  1
  Sn  Sn16  1  0.251372  0.999995  0.391113  1
