# generated using pymatgen
data_MnNb8VTe8
_symmetry_space_group_name_H-M   'P 1'
_cell_length_a   4.89384000
_cell_length_b   11.37284900
_cell_length_c   20.11678200
_cell_angle_alpha   90.00000000
_cell_angle_beta   90.00000000
_cell_angle_gamma   90.00000000
_symmetry_Int_Tables_number   1
_chemical_formula_structural   MnNb8VTe8
_chemical_formula_sum   'Mn2 Nb16 V2 Te16'
_cell_volume   1119.63779149
_cell_formula_units_Z   2
loop_
 _symmetry_equiv_pos_site_id
 _symmetry_equiv_pos_as_xyz
  1  'x, y, z'
loop_
 _atom_site_type_symbol
 _atom_site_label
 _atom_site_symmetry_multiplicity
 _atom_site_fract_x
 _atom_site_fract_y
 _atom_site_fract_z
 _atom_site_occupancy
  Mn  Mn0  1  0.249401  0.500000  0.500000  1
  Mn  Mn1  1  0.750599  0.000000  0.000000  1
  Nb  Nb2  1  0.498988  0.563580  0.386836  1
  Nb  Nb3  1  0.498988  0.436420  0.613164  1
  Nb  Nb4  1  0.501012  0.063580  0.113164  1
  Nb  Nb5  1  0.501012  0.936420  0.886836  1
  Nb  Nb6  1  0.498751  0.700364  0.535528  1
  Nb  Nb7  1  0.498751  0.299636  0.464472  1
  Nb  Nb8  1  0.501249  0.200364  0.964472  1
  Nb  Nb9  1  0.501249  0.799636  0.035528  1
  Nb  Nb10  1  0.002104  0.686480  0.445132  1
  Nb  Nb11  1  0.002104  0.313520  0.554868  1
  Nb  Nb12  1  0.997896  0.186480  0.054868  1
  Nb  Nb13  1  0.997896  0.813520  0.945132  1
  Nb  Nb14  1  0.001650  0.403546  0.394782  1
  Nb  Nb15  1  0.001650  0.596454  0.605218  1
  Nb  Nb16  1  0.998350  0.903546  0.105218  1
  Nb  Nb17  1  0.998350  0.096454  0.894782  1
  V  V18  1  0.749427  0.500000  0.500000  1
  V  V19  1  0.250573  0.000000  0.000000  1
  Te  Te20  1  0.001793  0.834452  0.559931  1
  Te  Te21  1  0.001793  0.165548  0.440069  1
  Te  Te22  1  0.998207  0.334452  0.940069  1
  Te  Te23  1  0.998207  0.665548  0.059931  1
  Te  Te24  1  0.498403  0.338159  0.324319  1
  Te  Te25  1  0.498403  0.661841  0.675681  1
  Te  Te26  1  0.501597  0.838159  0.175681  1
  Te  Te27  1  0.501597  0.161841  0.824319  1
  Te  Te28  1  0.499263  0.812033  0.408341  1
  Te  Te29  1  0.499263  0.187967  0.591659  1
  Te  Te30  1  0.500737  0.312033  0.091659  1
  Te  Te31  1  0.500737  0.687967  0.908341  1
  Te  Te32  1  0.002126  0.605871  0.310684  1
  Te  Te33  1  0.002126  0.394129  0.689316  1
  Te  Te34  1  0.997874  0.105871  0.189316  1
  Te  Te35  1  0.997874  0.894129  0.810684  1
