# generated using pymatgen
data_Pr3Nd3NiBr10
_symmetry_space_group_name_H-M   'P 1'
_cell_length_a   7.62332464
_cell_length_b   9.53143100
_cell_length_c   9.56481500
_cell_angle_alpha   107.31444947
_cell_angle_beta   96.53045666
_cell_angle_gamma   104.87899146
_symmetry_Int_Tables_number   1
_chemical_formula_structural   Pr3Nd3NiBr10
_chemical_formula_sum   'Pr3 Nd3 Ni1 Br10'
_cell_volume   627.48552399
_cell_formula_units_Z   1
loop_
 _symmetry_equiv_pos_site_id
 _symmetry_equiv_pos_as_xyz
  1  'x, y, z'
loop_
 _atom_site_type_symbol
 _atom_site_label
 _atom_site_symmetry_multiplicity
 _atom_site_fract_x
 _atom_site_fract_y
 _atom_site_fract_z
 _atom_site_occupancy
  Pr  Pr0  1  0.130326  0.049772  0.755121  1
  Pr  Pr1  1  0.868662  0.949904  0.244715  1
  Pr  Pr2  1  0.960345  0.295090  0.090678  1
  Nd  Nd3  1  0.646783  0.867546  0.823751  1
  Nd  Nd4  1  0.352892  0.131334  0.175953  1
  Nd  Nd5  1  0.039225  0.706080  0.909636  1
  Ni  Ni6  1  0.000051  0.999794  0.000760  1
  Br  Br7  1  0.341634  0.446219  0.264210  1
  Br  Br8  1  0.661080  0.553562  0.736266  1
  Br  Br9  1  0.754065  0.922943  0.550464  1
  Br  Br10  1  0.084361  0.369142  0.825145  1
  Br  Br11  1  0.917834  0.632921  0.173729  1
  Br  Br12  1  0.453356  0.823925  0.083340  1
  Br  Br13  1  0.545091  0.175672  0.915797  1
  Br  Br14  1  0.773030  0.249456  0.342049  1
  Br  Br15  1  0.225450  0.750085  0.658985  1
  Br  Br16  1  0.245816  0.076557  0.449402  1
