# generated using pymatgen
data_LiNd2Si(PPd4)5
_symmetry_space_group_name_H-M   'P 1'
_cell_length_a   8.69015302
_cell_length_b   8.69115004
_cell_length_c   8.69115006
_cell_angle_alpha   59.99241293
_cell_angle_beta   60.00378708
_cell_angle_gamma   60.00378536
_symmetry_Int_Tables_number   1
_chemical_formula_structural   LiNd2Si(PPd4)5
_chemical_formula_sum   'Li1 Nd2 Si1 P5 Pd20'
_cell_volume   464.15909248
_cell_formula_units_Z   1
loop_
 _symmetry_equiv_pos_site_id
 _symmetry_equiv_pos_as_xyz
  1  'x, y, z'
loop_
 _atom_site_type_symbol
 _atom_site_label
 _atom_site_symmetry_multiplicity
 _atom_site_fract_x
 _atom_site_fract_y
 _atom_site_fract_z
 _atom_site_occupancy
  Li  Li0  1  0.999644  0.000356  0.000356  1
  Nd  Nd1  1  0.250367  0.249633  0.249633  1
  Nd  Nd2  1  0.750367  0.749633  0.749633  1
  Si  Si3  1  0.738798  0.261202  0.261202  1
  P  P4  1  0.260123  0.739877  0.739877  1
  P  P5  1  0.261162  0.738838  0.259853  1
  P  P6  1  0.740147  0.259853  0.738838  1
  P  P7  1  0.261162  0.259853  0.738838  1
  P  P8  1  0.740147  0.738838  0.259853  1
  Pd  Pd9  1  0.384855  0.386605  0.386605  1
  Pd  Pd10  1  0.613665  0.613734  0.613734  1
  Pd  Pd11  1  0.386266  0.386335  0.841135  1
  Pd  Pd12  1  0.386266  0.841135  0.386335  1
  Pd  Pd13  1  0.613395  0.615145  0.158064  1
  Pd  Pd14  1  0.613395  0.158064  0.615145  1
  Pd  Pd15  1  0.841936  0.386605  0.386605  1
  Pd  Pd16  1  0.158865  0.613734  0.613734  1
  Pd  Pd17  1  0.344140  0.000606  0.000606  1
  Pd  Pd18  1  0.654648  0.000606  0.000606  1
  Pd  Pd19  1  0.999394  0.345352  0.655860  1
  Pd  Pd20  1  0.999394  0.655860  0.345352  1
  Pd  Pd21  1  0.001935  0.345919  0.998065  1
  Pd  Pd22  1  0.654081  0.998065  0.345919  1
  Pd  Pd23  1  0.999803  0.654888  0.000197  1
  Pd  Pd24  1  0.345112  0.000197  0.654888  1
  Pd  Pd25  1  0.001935  0.998065  0.345919  1
  Pd  Pd26  1  0.999803  0.000197  0.654888  1
  Pd  Pd27  1  0.654081  0.345919  0.998065  1
  Pd  Pd28  1  0.345112  0.654888  0.000197  1
