# generated using pymatgen
data_Nd5CoRuO12
_symmetry_space_group_name_H-M   'P 1'
_cell_length_a   7.02054232
_cell_length_b   7.02054137
_cell_length_c   7.55596456
_cell_angle_alpha   74.48357459
_cell_angle_beta   74.48357846
_cell_angle_gamma   50.94117585
_symmetry_Int_Tables_number   1
_chemical_formula_structural   Nd5CoRuO12
_chemical_formula_sum   'Nd5 Co1 Ru1 O12'
_cell_volume   276.19563587
_cell_formula_units_Z   1
loop_
 _symmetry_equiv_pos_site_id
 _symmetry_equiv_pos_as_xyz
  1  'x, y, z'
loop_
 _atom_site_type_symbol
 _atom_site_label
 _atom_site_symmetry_multiplicity
 _atom_site_fract_x
 _atom_site_fract_y
 _atom_site_fract_z
 _atom_site_occupancy
  Nd  Nd0  1  0.318976  0.295232  0.356214  1
  Nd  Nd1  1  0.704768  0.681024  0.643786  1
  Nd  Nd2  1  0.696714  0.687676  0.165288  1
  Nd  Nd3  1  0.312324  0.303286  0.834712  1
  Nd  Nd4  1  0.000443  0.999557  0.500000  1
  Co  Co5  1  0.743676  0.256324  0.000000  1
  Ru  Ru6  1  0.230302  0.769698  0.000000  1
  O  O7  1  0.103027  0.594941  0.575692  1
  O  O8  1  0.982160  0.016597  0.165894  1
  O  O9  1  0.405059  0.896973  0.424308  1
  O  O10  1  0.503607  0.497662  0.169967  1
  O  O11  1  0.104848  0.581887  0.078149  1
  O  O12  1  0.911732  0.399530  0.420561  1
  O  O13  1  0.983403  0.017840  0.834106  1
  O  O14  1  0.600470  0.088267  0.579439  1
  O  O15  1  0.502338  0.496393  0.830033  1
  O  O16  1  0.579989  0.101951  0.077929  1
  O  O17  1  0.418113  0.895152  0.921851  1
  O  O18  1  0.898049  0.420011  0.922071  1
