# generated using pymatgen
data_Nb3Co6SiB2
_symmetry_space_group_name_H-M   'P 1'
_cell_length_a   4.85848200
_cell_length_b   4.85848351
_cell_length_c   13.02312400
_cell_angle_alpha   90.00000000
_cell_angle_beta   90.00000000
_cell_angle_gamma   120.00000335
_symmetry_Int_Tables_number   1
_chemical_formula_structural   Nb3Co6SiB2
_chemical_formula_sum   'Nb6 Co12 Si2 B4'
_cell_volume   266.22395054
_cell_formula_units_Z   2
loop_
 _symmetry_equiv_pos_site_id
 _symmetry_equiv_pos_as_xyz
  1  'x, y, z'
loop_
 _atom_site_type_symbol
 _atom_site_label
 _atom_site_symmetry_multiplicity
 _atom_site_fract_x
 _atom_site_fract_y
 _atom_site_fract_z
 _atom_site_occupancy
  Nb  Nb0  1  0.333333  0.666667  0.250000  1
  Nb  Nb1  1  0.666667  0.333333  0.750000  1
  Nb  Nb2  1  0.333333  0.666667  0.041460  1
  Nb  Nb3  1  0.666667  0.333333  0.541460  1
  Nb  Nb4  1  0.666667  0.333333  0.958540  1
  Nb  Nb5  1  0.333333  0.666667  0.458540  1
  Co  Co6  1  0.832228  0.664456  0.141919  1
  Co  Co7  1  0.167772  0.832228  0.641919  1
  Co  Co8  1  0.664456  0.832228  0.641919  1
  Co  Co9  1  0.335544  0.167772  0.141919  1
  Co  Co10  1  0.832228  0.167772  0.141919  1
  Co  Co11  1  0.167772  0.335544  0.858081  1
  Co  Co12  1  0.167772  0.832228  0.858081  1
  Co  Co13  1  0.167772  0.335544  0.641919  1
  Co  Co14  1  0.664456  0.832228  0.858081  1
  Co  Co15  1  0.335544  0.167772  0.358081  1
  Co  Co16  1  0.832228  0.664456  0.358081  1
  Co  Co17  1  0.832228  0.167772  0.358081  1
  Si  Si18  1  0.000000  0.000000  0.000000  1
  Si  Si19  1  0.000000  0.000000  0.500000  1
  B  B20  1  0.000000  0.000000  0.250000  1
  B  B21  1  0.000000  0.000000  0.750000  1
  B  B22  1  0.333333  0.666667  0.750000  1
  B  B23  1  0.666667  0.333333  0.250000  1
