# generated using pymatgen
data_Ca7MnNbFeN9
_symmetry_space_group_name_H-M   'P 1'
_cell_length_a   10.01095700
_cell_length_b   6.09320556
_cell_length_c   9.04137240
_cell_angle_alpha   87.90456179
_cell_angle_beta   90.00000000
_cell_angle_gamma   90.00000000
_symmetry_Int_Tables_number   1
_chemical_formula_structural   Ca7MnNbFeN9
_chemical_formula_sum   'Ca14 Mn2 Nb2 Fe2 N18'
_cell_volume   551.14424491
_cell_formula_units_Z   2
loop_
 _symmetry_equiv_pos_site_id
 _symmetry_equiv_pos_as_xyz
  1  'x, y, z'
loop_
 _atom_site_type_symbol
 _atom_site_label
 _atom_site_symmetry_multiplicity
 _atom_site_fract_x
 _atom_site_fract_y
 _atom_site_fract_z
 _atom_site_occupancy
  Ca  Ca0  1  0.935771  0.423900  0.160828  1
  Ca  Ca1  1  0.078451  0.244713  0.493352  1
  Ca  Ca2  1  0.250000  0.089769  0.808038  1
  Ca  Ca3  1  0.437455  0.565289  0.836280  1
  Ca  Ca4  1  0.580761  0.751290  0.505250  1
  Ca  Ca5  1  0.581235  0.069204  0.826783  1
  Ca  Ca6  1  0.918765  0.069204  0.826783  1
  Ca  Ca7  1  0.420943  0.938987  0.168277  1
  Ca  Ca8  1  0.421549  0.244713  0.493352  1
  Ca  Ca9  1  0.079057  0.938987  0.168277  1
  Ca  Ca10  1  0.919239  0.751290  0.505250  1
  Ca  Ca11  1  0.062545  0.565289  0.836280  1
  Ca  Ca12  1  0.750000  0.910884  0.199992  1
  Ca  Ca13  1  0.564229  0.423900  0.160828  1
  Mn  Mn14  1  0.750000  0.672047  0.932657  1
  Mn  Mn15  1  0.250000  0.541366  0.275685  1
  Nb  Nb16  1  0.750000  0.282317  0.441980  1
  Nb  Nb17  1  0.250000  0.720737  0.562860  1
  Fe  Fe18  1  0.250000  0.328504  0.067266  1
  Fe  Fe19  1  0.750000  0.465250  0.722295  1
  N  N20  1  0.413726  0.228971  0.978135  1
  N  N21  1  0.250000  0.239313  0.276481  1
  N  N22  1  0.902517  0.111673  0.340326  1
  N  N23  1  0.608443  0.357266  0.623762  1
  N  N24  1  0.750000  0.557802  0.333801  1
  N  N25  1  0.250000  0.647329  0.084134  1
  N  N26  1  0.891557  0.357266  0.623762  1
  N  N27  1  0.391038  0.634772  0.370911  1
  N  N28  1  0.750000  0.375066  0.928712  1
  N  N29  1  0.097805  0.882961  0.657705  1
  N  N30  1  0.750000  0.771627  0.736300  1
  N  N31  1  0.108962  0.634772  0.370911  1
  N  N32  1  0.600489  0.767583  0.018376  1
  N  N33  1  0.250000  0.444772  0.669830  1
  N  N34  1  0.402195  0.882961  0.657705  1
  N  N35  1  0.597483  0.111673  0.340326  1
  N  N36  1  0.086274  0.228971  0.978135  1
  N  N37  1  0.899511  0.767583  0.018376  1
