# generated using pymatgen
data_Sc2Pa(GaIr)3
_symmetry_space_group_name_H-M   'P 1'
_cell_length_a   7.10821001
_cell_length_b   7.10821028
_cell_length_c   3.70551300
_cell_angle_alpha   90.00000000
_cell_angle_beta   90.00000000
_cell_angle_gamma   118.86954903
_symmetry_Int_Tables_number   1
_chemical_formula_structural   Sc2Pa(GaIr)3
_chemical_formula_sum   'Sc2 Pa1 Ga3 Ir3'
_cell_volume   163.95880645
_cell_formula_units_Z   1
loop_
 _symmetry_equiv_pos_site_id
 _symmetry_equiv_pos_as_xyz
  1  'x, y, z'
loop_
 _atom_site_type_symbol
 _atom_site_label
 _atom_site_symmetry_multiplicity
 _atom_site_fract_x
 _atom_site_fract_y
 _atom_site_fract_z
 _atom_site_occupancy
  Sc  Sc0  1  0.406128  0.003216  0.000000  1
  Sc  Sc1  1  0.003216  0.406128  0.000000  1
  Pa  Pa2  1  0.582087  0.582087  0.000000  1
  Ga  Ga3  1  0.016007  0.743445  0.500000  1
  Ga  Ga4  1  0.238306  0.238306  0.500000  1
  Ga  Ga5  1  0.743445  0.016007  0.500000  1
  Ir  Ir6  1  0.992498  0.992498  0.000000  1
  Ir  Ir7  1  0.668055  0.350258  0.500000  1
  Ir  Ir8  1  0.350258  0.668055  0.500000  1
