# generated using pymatgen
data_ZrTi4Al16GaPt5Rh2
_symmetry_space_group_name_H-M   'P 1'
_cell_length_a   8.61895535
_cell_length_b   8.65329834
_cell_length_c   8.65299900
_cell_angle_alpha   59.73895815
_cell_angle_beta   60.13042766
_cell_angle_gamma   60.12803764
_symmetry_Int_Tables_number   1
_chemical_formula_structural   ZrTi4Al16GaPt5Rh2
_chemical_formula_sum   'Zr1 Ti4 Al16 Ga1 Pt5 Rh2'
_cell_volume   456.31643154
_cell_formula_units_Z   1
loop_
 _symmetry_equiv_pos_site_id
 _symmetry_equiv_pos_as_xyz
  1  'x, y, z'
loop_
 _atom_site_type_symbol
 _atom_site_label
 _atom_site_symmetry_multiplicity
 _atom_site_fract_x
 _atom_site_fract_y
 _atom_site_fract_z
 _atom_site_occupancy
  Zr  Zr0  1  0.808344  0.191664  0.191668  1
  Ti  Ti1  1  0.790698  0.209334  0.793767  1
  Ti  Ti2  1  0.790729  0.793803  0.209293  1
  Ti  Ti3  1  0.206202  0.793767  0.209331  1
  Ti  Ti4  1  0.206190  0.209274  0.793815  1
  Al  Al5  1  0.875623  0.843939  0.843992  1
  Al  Al6  1  0.853627  0.823071  0.469695  1
  Al  Al7  1  0.436392  0.844059  0.844029  1
  Al  Al8  1  0.853683  0.469657  0.823085  1
  Al  Al9  1  0.177009  0.146319  0.146281  1
  Al  Al10  1  0.156043  0.124453  0.563565  1
  Al  Al11  1  0.155993  0.563563  0.124456  1
  Al  Al12  1  0.530289  0.146372  0.146416  1
  Al  Al13  1  0.623847  0.614679  0.614647  1
  Al  Al14  1  0.627684  0.625175  0.119450  1
  Al  Al15  1  0.146858  0.614565  0.614652  1
  Al  Al16  1  0.627634  0.119447  0.625171  1
  Al  Al17  1  0.374778  0.372304  0.372376  1
  Al  Al18  1  0.385319  0.376097  0.853154  1
  Al  Al19  1  0.385373  0.853141  0.376115  1
  Al  Al20  1  0.880582  0.372310  0.372278  1
  Ga  Ga21  1  0.040115  0.959953  0.959854  1
  Pt  Pt22  1  0.508719  0.994243  0.491242  1
  Pt  Pt23  1  0.508758  0.491225  0.994191  1
  Pt  Pt24  1  0.005783  0.491260  0.994206  1
  Pt  Pt25  1  0.005778  0.994203  0.491252  1
  Pt  Pt26  1  0.514130  0.485869  0.485846  1
  Rh  Rh27  1  0.011843  0.488151  0.488097  1
  Rh  Rh28  1  0.511980  0.988098  0.988071  1
