# generated using pymatgen
data_Sc20(SiSb3)3
_symmetry_space_group_name_H-M   'P 1'
_cell_length_a   7.52742900
_cell_length_b   8.65225100
_cell_length_c   11.09224800
_cell_angle_alpha   90.00000000
_cell_angle_beta   90.00329024
_cell_angle_gamma   90.00000000
_symmetry_Int_Tables_number   1
_chemical_formula_structural   Sc20(SiSb3)3
_chemical_formula_sum   'Sc20 Si3 Sb9'
_cell_volume   722.42929434
_cell_formula_units_Z   1
loop_
 _symmetry_equiv_pos_site_id
 _symmetry_equiv_pos_as_xyz
  1  'x, y, z'
loop_
 _atom_site_type_symbol
 _atom_site_label
 _atom_site_symmetry_multiplicity
 _atom_site_fract_x
 _atom_site_fract_y
 _atom_site_fract_z
 _atom_site_occupancy
  Sc  Sc0  1  0.813574  0.567964  0.062337  1
  Sc  Sc1  1  0.683649  0.945511  0.560655  1
  Sc  Sc2  1  0.192291  0.045774  0.935513  1
  Sc  Sc3  1  0.317152  0.446188  0.440276  1
  Sc  Sc4  1  0.192291  0.454226  0.935513  1
  Sc  Sc5  1  0.317152  0.053812  0.440276  1
  Sc  Sc6  1  0.813574  0.932036  0.062337  1
  Sc  Sc7  1  0.683649  0.554489  0.560655  1
  Sc  Sc8  1  0.170169  0.750000  0.217913  1
  Sc  Sc9  1  0.328127  0.750000  0.717753  1
  Sc  Sc10  1  0.819533  0.250000  0.769394  1
  Sc  Sc11  1  0.668683  0.250000  0.284193  1
  Sc  Sc12  1  0.461641  0.750000  0.003032  1
  Sc  Sc13  1  0.037545  0.750000  0.503460  1
  Sc  Sc14  1  0.523855  0.250000  0.995759  1
  Sc  Sc15  1  0.963651  0.250000  0.496196  1
  Sc  Sc16  1  0.646070  0.750000  0.292661  1
  Sc  Sc17  1  0.853588  0.750000  0.791813  1
  Sc  Sc18  1  0.353278  0.250000  0.708602  1
  Sc  Sc19  1  0.160007  0.250000  0.217240  1
  Si  Si20  1  0.410320  0.750000  0.476574  1
  Si  Si21  1  0.089006  0.750000  0.976849  1
  Si  Si22  1  0.590531  0.250000  0.525347  1
  Sb  Sb23  1  0.908731  0.250000  0.025529  1
  Sb  Sb24  1  0.935352  0.510722  0.325705  1
  Sb  Sb25  1  0.565091  0.988785  0.824872  1
  Sb  Sb26  1  0.064634  0.010746  0.674201  1
  Sb  Sb27  1  0.435889  0.490841  0.175283  1
  Sb  Sb28  1  0.064634  0.489254  0.674201  1
  Sb  Sb29  1  0.435889  0.009159  0.175283  1
  Sb  Sb30  1  0.935352  0.989278  0.325705  1
  Sb  Sb31  1  0.565091  0.511215  0.824872  1
