# generated using pymatgen
data_CeY2In3Ir2Pt
_symmetry_space_group_name_H-M   'P 1'
_cell_length_a   7.60717645
_cell_length_b   7.79370525
_cell_length_c   3.87323900
_cell_angle_alpha   90.00000000
_cell_angle_beta   90.00000000
_cell_angle_gamma   120.81448373
_symmetry_Int_Tables_number   1
_chemical_formula_structural   CeY2In3Ir2Pt
_chemical_formula_sum   'Ce1 Y2 In3 Ir2 Pt1'
_cell_volume   197.21919775
_cell_formula_units_Z   1
loop_
 _symmetry_equiv_pos_site_id
 _symmetry_equiv_pos_as_xyz
  1  'x, y, z'
loop_
 _atom_site_type_symbol
 _atom_site_label
 _atom_site_symmetry_multiplicity
 _atom_site_fract_x
 _atom_site_fract_y
 _atom_site_fract_z
 _atom_site_occupancy
  Ce  Ce0  1  0.000000  0.581796  0.000000  1
  Y  Y1  1  0.407935  0.408547  0.000000  1
  Y  Y2  1  0.592065  0.000612  0.000000  1
  In  In3  1  0.000000  0.251695  0.500000  1
  In  In4  1  0.731492  0.738924  0.500000  1
  In  In5  1  0.268508  0.007432  0.500000  1
  Ir  Ir6  1  0.314093  0.664759  0.500000  1
  Ir  Ir7  1  0.685907  0.350666  0.500000  1
  Pt  Pt8  1  0.000000  0.995571  0.000000  1
