# generated using pymatgen
data_Hf3Nb2Ga2Ge
_symmetry_space_group_name_H-M   'P 1'
_cell_length_a   7.93874701
_cell_length_b   7.93792997
_cell_length_c   5.44366800
_cell_angle_alpha   90.00000000
_cell_angle_beta   90.00000000
_cell_angle_gamma   119.99660080
_symmetry_Int_Tables_number   1
_chemical_formula_structural   Hf3Nb2Ga2Ge
_chemical_formula_sum   'Hf6 Nb4 Ga4 Ge2'
_cell_volume   297.09569749
_cell_formula_units_Z   2
loop_
 _symmetry_equiv_pos_site_id
 _symmetry_equiv_pos_as_xyz
  1  'x, y, z'
loop_
 _atom_site_type_symbol
 _atom_site_label
 _atom_site_symmetry_multiplicity
 _atom_site_fract_x
 _atom_site_fract_y
 _atom_site_fract_z
 _atom_site_occupancy
  Hf  Hf0  1  0.749480  0.748906  0.250000  1
  Hf  Hf1  1  0.749480  0.000574  0.750000  1
  Hf  Hf2  1  0.999964  0.249571  0.250000  1
  Hf  Hf3  1  0.249025  0.249707  0.750000  1
  Hf  Hf4  1  0.249025  0.999318  0.250000  1
  Hf  Hf5  1  0.999964  0.750392  0.750000  1
  Nb  Nb6  1  0.665633  0.332816  0.000000  1
  Nb  Nb7  1  0.665633  0.332816  0.500000  1
  Nb  Nb8  1  0.335246  0.667623  0.500000  1
  Nb  Nb9  1  0.335246  0.667623  0.000000  1
  Ga  Ga10  1  0.000549  0.397040  0.750000  1
  Ga  Ga11  1  0.000549  0.603509  0.250000  1
  Ga  Ga12  1  0.394676  0.394726  0.250000  1
  Ga  Ga13  1  0.394676  0.999950  0.750000  1
  Ge  Ge14  1  0.605427  0.000760  0.250000  1
  Ge  Ge15  1  0.605427  0.604667  0.750000  1
