# generated using pymatgen
data_HoCl19
_symmetry_space_group_name_H-M   'P 1'
_cell_length_a   8.75352240
_cell_length_b   11.04364406
_cell_length_c   8.33317700
_cell_angle_alpha   72.01688111
_cell_angle_beta   81.02450991
_cell_angle_gamma   90.05718931
_symmetry_Int_Tables_number   1
_chemical_formula_structural   HoCl19
_chemical_formula_sum   'Ho1 Cl19'
_cell_volume   755.80119070
_cell_formula_units_Z   1
loop_
 _symmetry_equiv_pos_site_id
 _symmetry_equiv_pos_as_xyz
  1  'x, y, z'
loop_
 _atom_site_type_symbol
 _atom_site_label
 _atom_site_symmetry_multiplicity
 _atom_site_fract_x
 _atom_site_fract_y
 _atom_site_fract_z
 _atom_site_occupancy
  Ho  Ho0  1  0.882813  0.584030  0.352277  1
  Cl  Cl1  1  0.411079  0.465630  0.580002  1
  Cl  Cl2  1  0.853197  0.523004  0.083062  1
  Cl  Cl3  1  0.672191  0.392151  0.573857  1
  Cl  Cl4  1  0.108109  0.638396  0.051952  1
  Cl  Cl5  1  0.089105  0.644873  0.494773  1
  Cl  Cl6  1  0.565187  0.299125  0.092498  1
  Cl  Cl7  1  0.917111  0.340941  0.555396  1
  Cl  Cl8  1  0.325453  0.732885  0.041467  1
  Cl  Cl9  1  0.151774  0.876974  0.539425  1
  Cl  Cl10  1  0.703779  0.096573  0.946658  1
  Cl  Cl11  1  0.837458  0.132774  0.391686  1
  Cl  Cl12  1  0.225799  0.961011  0.022786  1
  Cl  Cl13  1  0.205498  0.045881  0.572773  1
  Cl  Cl14  1  0.798448  0.955739  0.864806  1
  Cl  Cl15  1  0.764236  0.960562  0.387379  1
  Cl  Cl16  1  0.131267  0.133301  0.012739  1
  Cl  Cl17  1  0.659887  0.719489  0.368666  1
  Cl  Cl18  1  0.285830  0.308126  0.772398  1
  Cl  Cl19  1  0.411779  0.188535  0.295402  1
