# generated using pymatgen
data_Sm5Ni16(MoP4)3
_symmetry_space_group_name_H-M   'P 1'
_cell_length_a   12.26196300
_cell_length_b   12.26196335
_cell_length_c   3.76891600
_cell_angle_alpha   90.00000000
_cell_angle_beta   90.00000000
_cell_angle_gamma   120.00000714
_symmetry_Int_Tables_number   1
_chemical_formula_structural   Sm5Ni16(MoP4)3
_chemical_formula_sum   'Sm5 Ni16 Mo3 P12'
_cell_volume   490.75764506
_cell_formula_units_Z   1
loop_
 _symmetry_equiv_pos_site_id
 _symmetry_equiv_pos_as_xyz
  1  'x, y, z'
loop_
 _atom_site_type_symbol
 _atom_site_label
 _atom_site_symmetry_multiplicity
 _atom_site_fract_x
 _atom_site_fract_y
 _atom_site_fract_z
 _atom_site_occupancy
  Sm  Sm0  1  0.186319  0.186319  0.500000  1
  Sm  Sm1  1  0.813681  0.000000  0.500000  1
  Sm  Sm2  1  0.000000  0.813681  0.500000  1
  Sm  Sm3  1  0.333333  0.666667  0.000000  1
  Sm  Sm4  1  0.666667  0.333333  0.000000  1
  Ni  Ni5  1  0.719451  0.719451  0.500000  1
  Ni  Ni6  1  0.280549  0.000000  0.500000  1
  Ni  Ni7  1  0.000000  0.280549  0.500000  1
  Ni  Ni8  1  0.184090  0.377952  0.000000  1
  Ni  Ni9  1  0.622048  0.806138  0.000000  1
  Ni  Ni10  1  0.193862  0.815910  0.000000  1
  Ni  Ni11  1  0.806138  0.622048  0.000000  1
  Ni  Ni12  1  0.815910  0.193862  0.000000  1
  Ni  Ni13  1  0.377952  0.184090  0.000000  1
  Ni  Ni14  1  0.360035  0.483805  0.500000  1
  Ni  Ni15  1  0.516195  0.876230  0.500000  1
  Ni  Ni16  1  0.123770  0.639965  0.500000  1
  Ni  Ni17  1  0.876230  0.516195  0.500000  1
  Ni  Ni18  1  0.639965  0.123770  0.500000  1
  Ni  Ni19  1  0.483805  0.360035  0.500000  1
  Ni  Ni20  1  0.000000  0.000000  0.000000  1
  Mo  Mo21  1  0.560000  0.560000  0.000000  1
  Mo  Mo22  1  0.440000  0.000000  0.000000  1
  Mo  Mo23  1  0.000000  0.440000  0.000000  1
  P  P24  1  0.820026  0.820026  0.000000  1
  P  P25  1  0.179974  0.000000  0.000000  1
  P  P26  1  0.000000  0.179974  0.000000  1
  P  P27  1  0.164462  0.477138  0.500000  1
  P  P28  1  0.522862  0.687324  0.500000  1
  P  P29  1  0.312676  0.835538  0.500000  1
  P  P30  1  0.687324  0.522862  0.500000  1
  P  P31  1  0.835538  0.312676  0.500000  1
  P  P32  1  0.477138  0.164462  0.500000  1
  P  P33  1  0.367110  0.367110  0.000000  1
  P  P34  1  0.632890  0.000000  0.000000  1
  P  P35  1  0.000000  0.632890  0.000000  1
