# generated using pymatgen
data_Sr(Rh2Pb3)2
_symmetry_space_group_name_H-M   'P 1'
_cell_length_a   7.22132533
_cell_length_b   7.22132590
_cell_length_c   7.22132495
_cell_angle_alpha   119.66995914
_cell_angle_beta   119.66995808
_cell_angle_gamma   90.57260287
_symmetry_Int_Tables_number   1
_chemical_formula_structural   Sr(Rh2Pb3)2
_chemical_formula_sum   'Sr1 Rh4 Pb6'
_cell_volume   267.59216705
_cell_formula_units_Z   1
loop_
 _symmetry_equiv_pos_site_id
 _symmetry_equiv_pos_as_xyz
  1  'x, y, z'
loop_
 _atom_site_type_symbol
 _atom_site_label
 _atom_site_symmetry_multiplicity
 _atom_site_fract_x
 _atom_site_fract_y
 _atom_site_fract_z
 _atom_site_occupancy
  Sr  Sr0  1  0.000000  0.000000  0.000000  1
  Rh  Rh1  1  0.750807  0.401764  0.000000  1
  Rh  Rh2  1  0.401764  0.750807  0.000000  1
  Rh  Rh3  1  0.598237  0.598237  0.349042  1
  Rh  Rh4  1  0.249193  0.249193  0.650958  1
  Pb  Pb5  1  0.465881  0.123681  0.000000  1
  Pb  Pb6  1  0.123681  0.465881  0.000000  1
  Pb  Pb7  1  0.876319  0.876319  0.342200  1
  Pb  Pb8  1  0.500000  0.000000  0.500000  1
  Pb  Pb9  1  0.000000  0.500000  0.500000  1
  Pb  Pb10  1  0.534119  0.534119  0.657800  1
