# generated using pymatgen
data_LaNd4(B3Ru)2
_symmetry_space_group_name_H-M   'P 1'
_cell_length_a   5.61118940
_cell_length_b   5.61118967
_cell_length_c   8.73187402
_cell_angle_alpha   71.25812152
_cell_angle_beta   71.25811850
_cell_angle_gamma   60.00000581
_symmetry_Int_Tables_number   1
_chemical_formula_structural   LaNd4(B3Ru)2
_chemical_formula_sum   'La1 Nd4 B6 Ru2'
_cell_volume   221.10060022
_cell_formula_units_Z   1
loop_
 _symmetry_equiv_pos_site_id
 _symmetry_equiv_pos_as_xyz
  1  'x, y, z'
loop_
 _atom_site_type_symbol
 _atom_site_label
 _atom_site_symmetry_multiplicity
 _atom_site_fract_x
 _atom_site_fract_y
 _atom_site_fract_z
 _atom_site_occupancy
  La  La0  1  0.000000  0.000000  0.000000  1
  Nd  Nd1  1  0.249440  0.249440  0.251678  1
  Nd  Nd2  1  0.750560  0.750560  0.748322  1
  Nd  Nd3  1  0.417136  0.417136  0.748592  1
  Nd  Nd4  1  0.582864  0.582864  0.251408  1
  B  B5  1  0.171957  0.828043  0.500000  1
  B  B6  1  0.828043  0.500000  0.500000  1
  B  B7  1  0.500000  0.171957  0.500000  1
  B  B8  1  0.171957  0.500000  0.500000  1
  B  B9  1  0.500000  0.828043  0.500000  1
  B  B10  1  0.828043  0.171957  0.500000  1
  Ru  Ru11  1  0.114495  0.114495  0.656515  1
  Ru  Ru12  1  0.885505  0.885505  0.343485  1
