# generated using pymatgen
data_PrHo4Mn2O12
_symmetry_space_group_name_H-M   'P 1'
_cell_length_a   6.81476546
_cell_length_b   6.81476502
_cell_length_c   7.30418800
_cell_angle_alpha   74.52772364
_cell_angle_beta   74.52772466
_cell_angle_gamma   49.70749573
_symmetry_Int_Tables_number   1
_chemical_formula_structural   PrHo4Mn2O12
_chemical_formula_sum   'Pr1 Ho4 Mn2 O12'
_cell_volume   247.30159806
_cell_formula_units_Z   1
loop_
 _symmetry_equiv_pos_site_id
 _symmetry_equiv_pos_as_xyz
  1  'x, y, z'
loop_
 _atom_site_type_symbol
 _atom_site_label
 _atom_site_symmetry_multiplicity
 _atom_site_fract_x
 _atom_site_fract_y
 _atom_site_fract_z
 _atom_site_occupancy
  Pr  Pr0  1  0.000000  0.000000  0.500000  1
  Ho  Ho1  1  0.306278  0.306278  0.356140  1
  Ho  Ho2  1  0.693722  0.693722  0.643860  1
  Ho  Ho3  1  0.694449  0.694449  0.162887  1
  Ho  Ho4  1  0.305551  0.305551  0.837113  1
  Mn  Mn5  1  0.752975  0.247025  0.000000  1
  Mn  Mn6  1  0.247025  0.752975  0.000000  1
  O  O7  1  0.095999  0.584916  0.580558  1
  O  O8  1  0.999151  0.999151  0.173584  1
  O  O9  1  0.415084  0.904001  0.419442  1
  O  O10  1  0.500304  0.500304  0.181690  1
  O  O11  1  0.100090  0.577924  0.079091  1
  O  O12  1  0.904001  0.415084  0.419442  1
  O  O13  1  0.000849  0.000849  0.826416  1
  O  O14  1  0.584916  0.095998  0.580558  1
  O  O15  1  0.499696  0.499696  0.818310  1
  O  O16  1  0.577924  0.100090  0.079091  1
  O  O17  1  0.422076  0.899910  0.920909  1
  O  O18  1  0.899910  0.422076  0.920909  1
