# generated using pymatgen
data_Ba8FeCo(IrO5)4
_symmetry_space_group_name_H-M   'P 1'
_cell_length_a   7.35847488
_cell_length_b   7.35847468
_cell_length_c   13.27626101
_cell_angle_alpha   89.99965348
_cell_angle_beta   90.00034509
_cell_angle_gamma   133.00043787
_symmetry_Int_Tables_number   1
_chemical_formula_structural   Ba8FeCo(IrO5)4
_chemical_formula_sum   'Ba8 Fe1 Co1 Ir4 O20'
_cell_volume   525.74573949
_cell_formula_units_Z   1
loop_
 _symmetry_equiv_pos_site_id
 _symmetry_equiv_pos_as_xyz
  1  'x, y, z'
loop_
 _atom_site_type_symbol
 _atom_site_label
 _atom_site_symmetry_multiplicity
 _atom_site_fract_x
 _atom_site_fract_y
 _atom_site_fract_z
 _atom_site_occupancy
  Ba  Ba0  1  0.488025  0.511975  0.886222  1
  Ba  Ba1  1  0.007160  0.992840  0.116588  1
  Ba  Ba2  1  0.512087  0.487913  0.381209  1
  Ba  Ba3  1  0.994667  0.005333  0.615856  1
  Ba  Ba4  1  0.280132  0.719868  0.638492  1
  Ba  Ba5  1  0.215048  0.784952  0.355501  1
  Ba  Ba6  1  0.718043  0.281957  0.137855  1
  Ba  Ba7  1  0.783965  0.216035  0.853273  1
  Fe  Fe8  1  0.388060  0.611940  0.154414  1
  Co  Co9  1  0.605231  0.394770  0.650913  1
  Ir  Ir10  1  0.753827  0.246173  0.502643  1
  Ir  Ir11  1  0.246918  0.753082  0.999984  1
  Ir  Ir12  1  0.871181  0.128819  0.353047  1
  Ir  Ir13  1  0.128353  0.871647  0.850779  1
  O  O14  1  0.794113  0.205887  0.646500  1
  O  O15  1  0.714731  0.285269  0.351342  1
  O  O16  1  0.210222  0.789778  0.145879  1
  O  O17  1  0.285429  0.714571  0.849075  1
  O  O18  1  0.422578  0.130613  0.534845  1
  O  O19  1  0.632883  0.903361  0.468159  1
  O  O20  1  0.132371  0.421507  0.032954  1
  O  O21  1  0.904711  0.633489  0.966212  1
  O  O22  1  0.096639  0.367117  0.468159  1
  O  O23  1  0.869387  0.577422  0.534845  1
  O  O24  1  0.366511  0.095289  0.966212  1
  O  O25  1  0.578493  0.867629  0.032954  1
  O  O26  1  0.474248  0.525752  0.659884  1
  O  O27  1  0.016403  0.983597  0.344309  1
  O  O28  1  0.526651  0.473349  0.162381  1
  O  O29  1  0.982947  0.017053  0.842671  1
  O  O30  1  0.377144  0.109176  0.748608  1
  O  O31  1  0.621546  0.890528  0.249817  1
  O  O32  1  0.109472  0.378454  0.249817  1
  O  O33  1  0.890824  0.622856  0.748608  1
