# generated using pymatgen
data_Yb3Cu(BPt3)2
_symmetry_space_group_name_H-M   'P 1'
_cell_length_a   8.01408655
_cell_length_b   8.01408591
_cell_length_c   8.01408539
_cell_angle_alpha   40.25505610
_cell_angle_beta   40.25506220
_cell_angle_gamma   40.25506000
_symmetry_Int_Tables_number   1
_chemical_formula_structural   Yb3Cu(BPt3)2
_chemical_formula_sum   'Yb3 Cu1 B2 Pt6'
_cell_volume   193.74727751
_cell_formula_units_Z   1
loop_
 _symmetry_equiv_pos_site_id
 _symmetry_equiv_pos_as_xyz
  1  'x, y, z'
loop_
 _atom_site_type_symbol
 _atom_site_label
 _atom_site_symmetry_multiplicity
 _atom_site_fract_x
 _atom_site_fract_y
 _atom_site_fract_z
 _atom_site_occupancy
  Yb  Yb0  1  0.356974  0.356974  0.356974  1
  Yb  Yb1  1  0.500000  0.500000  0.500000  1
  Yb  Yb2  1  0.643026  0.643026  0.643026  1
  Cu  Cu3  1  0.000000  0.000000  0.000000  1
  B  B4  1  0.167974  0.167974  0.167974  1
  B  B5  1  0.832026  0.832026  0.832026  1
  Pt  Pt6  1  0.569388  0.068407  0.068407  1
  Pt  Pt7  1  0.068407  0.569388  0.068407  1
  Pt  Pt8  1  0.931593  0.931593  0.430612  1
  Pt  Pt9  1  0.068407  0.068407  0.569388  1
  Pt  Pt10  1  0.931593  0.430612  0.931593  1
  Pt  Pt11  1  0.430612  0.931593  0.931593  1
