# generated using pymatgen
data_Tb2Tm10InCo5
_symmetry_space_group_name_H-M   'P 1'
_cell_length_a   8.17892104
_cell_length_b   8.17892176
_cell_length_c   8.17063747
_cell_angle_alpha   111.05487859
_cell_angle_beta   110.74400169
_cell_angle_gamma   106.69443370
_symmetry_Int_Tables_number   1
_chemical_formula_structural   Tb2Tm10InCo5
_chemical_formula_sum   'Tb2 Tm10 In1 Co5'
_cell_volume   419.77607630
_cell_formula_units_Z   1
loop_
 _symmetry_equiv_pos_site_id
 _symmetry_equiv_pos_as_xyz
  1  'x, y, z'
loop_
 _atom_site_type_symbol
 _atom_site_label
 _atom_site_symmetry_multiplicity
 _atom_site_fract_x
 _atom_site_fract_y
 _atom_site_fract_z
 _atom_site_occupancy
  Tb  Tb0  1  0.288720  0.185858  0.474577  1
  Tb  Tb1  1  0.711280  0.814142  0.525423  1
  Tm  Tm2  1  0.287878  0.813407  0.101284  1
  Tm  Tm3  1  0.712122  0.186593  0.898716  1
  Tm  Tm4  1  0.620029  0.313542  0.304571  1
  Tm  Tm5  1  0.379971  0.686458  0.695429  1
  Tm  Tm6  1  0.008970  0.315458  0.695429  1
  Tm  Tm7  1  0.991030  0.684542  0.304571  1
  Tm  Tm8  1  0.211471  0.404753  0.190678  1
  Tm  Tm9  1  0.788529  0.595247  0.809322  1
  Tm  Tm10  1  0.214076  0.020794  0.809322  1
  Tm  Tm11  1  0.785924  0.979206  0.190678  1
  In  In12  1  0.500000  0.500000  0.000000  1
  Co  Co13  1  0.998860  0.376816  0.375675  1
  Co  Co14  1  0.001140  0.623184  0.624325  1
  Co  Co15  1  0.386840  0.886840  0.500000  1
  Co  Co16  1  0.613160  0.113160  0.500000  1
  Co  Co17  1  0.000000  0.000000  0.000000  1
