# generated using pymatgen
data_Tb3Nd4Y3Ir4
_symmetry_space_group_name_H-M   'P 1'
_cell_length_a   6.56193941
_cell_length_b   7.25602061
_cell_length_c   8.80088864
_cell_angle_alpha   97.09268824
_cell_angle_beta   112.01072679
_cell_angle_gamma   90.05693773
_symmetry_Int_Tables_number   1
_chemical_formula_structural   Tb3Nd4Y3Ir4
_chemical_formula_sum   'Tb3 Nd4 Y3 Ir4'
_cell_volume   385.01720346
_cell_formula_units_Z   1
loop_
 _symmetry_equiv_pos_site_id
 _symmetry_equiv_pos_as_xyz
  1  'x, y, z'
loop_
 _atom_site_type_symbol
 _atom_site_label
 _atom_site_symmetry_multiplicity
 _atom_site_fract_x
 _atom_site_fract_y
 _atom_site_fract_z
 _atom_site_occupancy
  Tb  Tb0  1  0.791634  0.315986  0.437052  1
  Tb  Tb1  1  0.429231  0.750086  0.999948  1
  Tb  Tb2  1  0.570301  0.249619  0.999693  1
  Nd  Nd3  1  0.976745  0.920672  0.190757  1
  Nd  Nd4  1  0.785934  0.580055  0.809596  1
  Nd  Nd5  1  0.023419  0.079255  0.809114  1
  Nd  Nd6  1  0.213701  0.420301  0.190289  1
  Y  Y7  1  0.644445  0.814853  0.435851  1
  Y  Y8  1  0.208280  0.684462  0.562865  1
  Y  Y9  1  0.355957  0.185055  0.564324  1
  Ir  Ir10  1  0.814505  0.572486  0.225661  1
  Ir  Ir11  1  0.589435  0.926741  0.775472  1
  Ir  Ir12  1  0.185351  0.427055  0.774757  1
  Ir  Ir13  1  0.411063  0.073374  0.224619  1
