# generated using pymatgen
data_Y8Si(Pd3Pt)6
_symmetry_space_group_name_H-M   'P 1'
_cell_length_a   8.36323300
_cell_length_b   8.35620000
_cell_length_c   8.36214700
_cell_angle_alpha   90.00000000
_cell_angle_beta   90.00000000
_cell_angle_gamma   90.00000000
_symmetry_Int_Tables_number   1
_chemical_formula_structural   Y8Si(Pd3Pt)6
_chemical_formula_sum   'Y8 Si1 Pd18 Pt6'
_cell_volume   584.38736866
_cell_formula_units_Z   1
loop_
 _symmetry_equiv_pos_site_id
 _symmetry_equiv_pos_as_xyz
  1  'x, y, z'
loop_
 _atom_site_type_symbol
 _atom_site_label
 _atom_site_symmetry_multiplicity
 _atom_site_fract_x
 _atom_site_fract_y
 _atom_site_fract_z
 _atom_site_occupancy
  Y  Y0  1  0.252468  0.252664  0.252998  1
  Y  Y1  1  0.747101  0.746684  0.746376  1
  Y  Y2  1  0.747101  0.746684  0.253624  1
  Y  Y3  1  0.747532  0.252664  0.747002  1
  Y  Y4  1  0.252468  0.252664  0.747002  1
  Y  Y5  1  0.252899  0.746684  0.253624  1
  Y  Y6  1  0.252899  0.746684  0.746376  1
  Y  Y7  1  0.747532  0.252664  0.252998  1
  Si  Si8  1  0.000000  0.004274  0.000000  1
  Pd  Pd9  1  0.258039  0.499974  0.000000  1
  Pd  Pd10  1  0.741961  0.499974  0.000000  1
  Pd  Pd11  1  0.000000  0.257915  0.500000  1
  Pd  Pd12  1  0.500000  0.256895  0.000000  1
  Pd  Pd13  1  0.000000  0.741096  0.500000  1
  Pd  Pd14  1  0.500000  0.741771  0.000000  1
  Pd  Pd15  1  0.500000  0.999985  0.257832  1
  Pd  Pd16  1  0.258347  0.000068  0.500000  1
  Pd  Pd17  1  0.500000  0.999985  0.742168  1
  Pd  Pd18  1  0.741653  0.000068  0.500000  1
  Pd  Pd19  1  0.000000  0.500097  0.258380  1
  Pd  Pd20  1  0.000000  0.500097  0.741620  1
  Pd  Pd21  1  0.500000  0.747331  0.500000  1
  Pd  Pd22  1  0.500000  0.500061  0.252693  1
  Pd  Pd23  1  0.500000  0.500061  0.747307  1
  Pd  Pd24  1  0.000000  0.720856  0.000000  1
  Pd  Pd25  1  0.000000  0.999024  0.282495  1
  Pd  Pd26  1  0.000000  0.999024  0.717505  1
  Pt  Pt27  1  0.252310  0.499857  0.500000  1
  Pt  Pt28  1  0.747690  0.499857  0.500000  1
  Pt  Pt29  1  0.500000  0.252746  0.500000  1
  Pt  Pt30  1  0.280122  0.998301  0.000000  1
  Pt  Pt31  1  0.719878  0.998301  0.000000  1
  Pt  Pt32  1  0.000000  0.284989  0.000000  1
