# generated using pymatgen
data_HoTm3Zn4(IrRh)2
_symmetry_space_group_name_H-M   'P 1'
_cell_length_a   4.02968700
_cell_length_b   6.92611367
_cell_length_c   8.04778589
_cell_angle_alpha   89.80254962
_cell_angle_beta   90.00000000
_cell_angle_gamma   90.00000000
_symmetry_Int_Tables_number   1
_chemical_formula_structural   HoTm3Zn4(IrRh)2
_chemical_formula_sum   'Ho1 Tm3 Zn4 Ir2 Rh2'
_cell_volume   224.61293544
_cell_formula_units_Z   1
loop_
 _symmetry_equiv_pos_site_id
 _symmetry_equiv_pos_as_xyz
  1  'x, y, z'
loop_
 _atom_site_type_symbol
 _atom_site_label
 _atom_site_symmetry_multiplicity
 _atom_site_fract_x
 _atom_site_fract_y
 _atom_site_fract_z
 _atom_site_occupancy
  Ho  Ho0  1  0.250000  0.534826  0.182356  1
  Tm  Tm1  1  0.750000  0.465196  0.817496  1
  Tm  Tm2  1  0.750000  0.962670  0.684111  1
  Tm  Tm3  1  0.250000  0.037320  0.316045  1
  Zn  Zn4  1  0.250000  0.638232  0.565515  1
  Zn  Zn5  1  0.750000  0.361504  0.435029  1
  Zn  Zn6  1  0.750000  0.861440  0.065572  1
  Zn  Zn7  1  0.250000  0.138736  0.934118  1
  Ir  Ir8  1  0.250000  0.756793  0.876023  1
  Ir  Ir9  1  0.750000  0.242627  0.123201  1
  Rh  Rh10  1  0.750000  0.745470  0.379365  1
  Rh  Rh11  1  0.250000  0.255187  0.621169  1
