# generated using pymatgen
data_Rb4EuO4
_symmetry_space_group_name_H-M   'P 1'
_cell_length_a   7.77213331
_cell_length_b   7.79113700
_cell_length_c   14.44412200
_cell_angle_alpha   90.00000000
_cell_angle_beta   104.21131011
_cell_angle_gamma   90.00000000
_symmetry_Int_Tables_number   1
_chemical_formula_structural   Rb4EuO4
_chemical_formula_sum   'Rb16 Eu4 O16'
_cell_volume   847.87896382
_cell_formula_units_Z   4
loop_
 _symmetry_equiv_pos_site_id
 _symmetry_equiv_pos_as_xyz
  1  'x, y, z'
loop_
 _atom_site_type_symbol
 _atom_site_label
 _atom_site_symmetry_multiplicity
 _atom_site_fract_x
 _atom_site_fract_y
 _atom_site_fract_z
 _atom_site_occupancy
  Rb  Rb0  1  0.862532  0.844741  0.080744  1
  Rb  Rb1  1  0.701434  0.437139  0.124735  1
  Rb  Rb2  1  0.510000  0.058344  0.131948  1
  Rb  Rb3  1  0.109408  0.239377  0.171820  1
  Rb  Rb4  1  0.890428  0.740947  0.328138  1
  Rb  Rb5  1  0.489651  0.557462  0.368476  1
  Rb  Rb6  1  0.300360  0.936571  0.375472  1
  Rb  Rb7  1  0.136379  0.343928  0.419205  1
  Rb  Rb8  1  0.864081  0.656217  0.579422  1
  Rb  Rb9  1  0.702566  0.063755  0.623650  1
  Rb  Rb10  1  0.510916  0.441513  0.632833  1
  Rb  Rb11  1  0.111360  0.259149  0.672410  1
  Rb  Rb12  1  0.888666  0.758471  0.827495  1
  Rb  Rb13  1  0.489248  0.942937  0.867096  1
  Rb  Rb14  1  0.297779  0.564461  0.876181  1
  Rb  Rb15  1  0.134560  0.156354  0.919953  1
  Eu  Eu16  1  0.280380  0.646846  0.118080  1
  Eu  Eu17  1  0.719197  0.147709  0.381842  1
  Eu  Eu18  1  0.281705  0.852696  0.616800  1
  Eu  Eu19  1  0.717487  0.353918  0.883073  1
  O  O20  1  0.222841  0.841721  0.006722  1
  O  O21  1  0.309572  0.397100  0.054658  1
  O  O22  1  0.550100  0.708918  0.197246  1
  O  O23  1  0.119398  0.603322  0.220133  1
  O  O24  1  0.879444  0.104377  0.279454  1
  O  O25  1  0.449045  0.209200  0.303123  1
  O  O26  1  0.691886  0.897950  0.445675  1
  O  O27  1  0.777982  0.342108  0.493498  1
  O  O28  1  0.220842  0.657660  0.505807  1
  O  O29  1  0.308007  0.102196  0.552616  1
  O  O30  1  0.551959  0.791595  0.695093  1
  O  O31  1  0.120946  0.893607  0.719361  1
  O  O32  1  0.880108  0.393281  0.781239  1
  O  O33  1  0.447144  0.292517  0.804654  1
  O  O34  1  0.691845  0.603615  0.947454  1
  O  O35  1  0.780746  0.158295  0.993893  1
