# generated using pymatgen
data_Sm4Ga10CoIr5
_symmetry_space_group_name_H-M   'P 1'
_cell_length_a   5.63760105
_cell_length_b   8.57515766
_cell_length_c   8.57515900
_cell_angle_alpha   96.51510819
_cell_angle_beta   109.16239247
_cell_angle_gamma   109.16238946
_symmetry_Int_Tables_number   1
_chemical_formula_structural   Sm4Ga10CoIr5
_chemical_formula_sum   'Sm4 Ga10 Co1 Ir5'
_cell_volume   358.33740278
_cell_formula_units_Z   1
loop_
 _symmetry_equiv_pos_site_id
 _symmetry_equiv_pos_as_xyz
  1  'x, y, z'
loop_
 _atom_site_type_symbol
 _atom_site_label
 _atom_site_symmetry_multiplicity
 _atom_site_fract_x
 _atom_site_fract_y
 _atom_site_fract_z
 _atom_site_occupancy
  Sm  Sm0  1  0.781130  0.417291  0.129996  1
  Sm  Sm1  1  0.718870  0.870004  0.582709  1
  Sm  Sm2  1  0.233746  0.583164  0.870240  1
  Sm  Sm3  1  0.266254  0.129760  0.416836  1
  Ga  Ga4  1  0.838181  0.743619  0.905229  1
  Ga  Ga5  1  0.661819  0.094771  0.256381  1
  Ga  Ga6  1  0.189984  0.256320  0.094906  1
  Ga  Ga7  1  0.310016  0.905094  0.743680  1
  Ga  Ga8  1  0.750000  0.201151  0.798849  1
  Ga  Ga9  1  0.250000  0.802456  0.197544  1
  Ga  Ga10  1  0.750000  0.499925  0.500075  1
  Ga  Ga11  1  0.250000  0.499851  0.500149  1
  Ga  Ga12  1  0.750000  0.799003  0.200997  1
  Ga  Ga13  1  0.250000  0.197602  0.802398  1
  Co  Co14  1  0.250000  0.999863  0.000137  1
  Ir  Ir15  1  0.591767  0.440282  0.744708  1
  Ir  Ir16  1  0.908233  0.255292  0.559718  1
  Ir  Ir17  1  0.407002  0.559889  0.255547  1
  Ir  Ir18  1  0.092998  0.744453  0.440111  1
  Ir  Ir19  1  0.750000  0.000209  0.999791  1
