# generated using pymatgen
data_DyY3Al16(GeIr3)2
_symmetry_space_group_name_H-M   'P 1'
_cell_length_a   7.56884027
_cell_length_b   7.56922423
_cell_length_c   9.46034500
_cell_angle_alpha   90.00000000
_cell_angle_beta   90.00000000
_cell_angle_gamma   119.72866358
_symmetry_Int_Tables_number   1
_chemical_formula_structural   DyY3Al16(GeIr3)2
_chemical_formula_sum   'Dy1 Y3 Al16 Ge2 Ir6'
_cell_volume   470.65130627
_cell_formula_units_Z   1
loop_
 _symmetry_equiv_pos_site_id
 _symmetry_equiv_pos_as_xyz
  1  'x, y, z'
loop_
 _atom_site_type_symbol
 _atom_site_label
 _atom_site_symmetry_multiplicity
 _atom_site_fract_x
 _atom_site_fract_y
 _atom_site_fract_z
 _atom_site_occupancy
  Dy  Dy0  1  0.324388  0.004534  0.250000  1
  Y  Y1  1  0.995427  0.675483  0.750000  1
  Y  Y2  1  0.004560  0.324516  0.250000  1
  Y  Y3  1  0.675485  0.995437  0.750000  1
  Al  Al4  1  0.000615  0.337379  0.573850  1
  Al  Al5  1  0.999453  0.662677  0.426050  1
  Al  Al6  1  0.999453  0.662677  0.073950  1
  Al  Al7  1  0.337375  0.000629  0.926225  1
  Al  Al8  1  0.000615  0.337379  0.926150  1
  Al  Al9  1  0.662557  0.999387  0.073966  1
  Al  Al10  1  0.662557  0.999387  0.426034  1
  Al  Al11  1  0.337375  0.000629  0.573775  1
  Al  Al12  1  0.335769  0.335711  0.058636  1
  Al  Al13  1  0.664226  0.664226  0.941455  1
  Al  Al14  1  0.664226  0.664226  0.558545  1
  Al  Al15  1  0.335769  0.335711  0.441364  1
  Al  Al16  1  0.335925  0.552710  0.750000  1
  Al  Al17  1  0.663938  0.447155  0.250000  1
  Al  Al18  1  0.552721  0.335925  0.750000  1
  Al  Al19  1  0.447293  0.664195  0.250000  1
  Ge  Ge20  1  0.134539  0.134544  0.750000  1
  Ge  Ge21  1  0.865650  0.865468  0.250000  1
  Ir  Ir22  1  0.670964  0.328974  0.499982  1
  Ir  Ir23  1  0.329002  0.671027  0.499980  1
  Ir  Ir24  1  0.329002  0.671027  0.000020  1
  Ir  Ir25  1  0.670964  0.328974  0.000018  1
  Ir  Ir26  1  0.000077  0.000007  0.499962  1
  Ir  Ir27  1  0.000077  0.000007  0.000038  1
