# generated using pymatgen
data_V13Ga3Ir16
_symmetry_space_group_name_H-M   'P 1'
_cell_length_a   8.73983115
_cell_length_b   8.73983082
_cell_length_c   6.66076000
_cell_angle_alpha   69.51352320
_cell_angle_beta   69.51352399
_cell_angle_gamma   80.64764527
_symmetry_Int_Tables_number   1
_chemical_formula_structural   V13Ga3Ir16
_chemical_formula_sum   'V13 Ga3 Ir16'
_cell_volume   445.99471960
_cell_formula_units_Z   1
loop_
 _symmetry_equiv_pos_site_id
 _symmetry_equiv_pos_as_xyz
  1  'x, y, z'
loop_
 _atom_site_type_symbol
 _atom_site_label
 _atom_site_symmetry_multiplicity
 _atom_site_fract_x
 _atom_site_fract_y
 _atom_site_fract_z
 _atom_site_occupancy
  V  V0  1  0.012827  0.262875  0.276126  1
  V  V1  1  0.262789  0.013717  0.276775  1
  V  V2  1  0.764115  0.513064  0.276258  1
  V  V3  1  0.513789  0.763776  0.277453  1
  V  V4  1  0.375321  0.624679  0.000000  1
  V  V5  1  0.124575  0.374620  0.497233  1
  V  V6  1  0.374853  0.124729  0.500241  1
  V  V7  1  0.875271  0.625147  0.499759  1
  V  V8  1  0.625380  0.875425  0.502767  1
  V  V9  1  0.737125  0.987173  0.723874  1
  V  V10  1  0.986283  0.737211  0.723225  1
  V  V11  1  0.486936  0.235885  0.723742  1
  V  V12  1  0.236224  0.486211  0.722547  1
  Ga  Ga13  1  0.874757  0.125243  0.000000  1
  Ga  Ga14  1  0.125295  0.874705  0.000000  1
  Ga  Ga15  1  0.624553  0.375447  0.000000  1
  Ir  Ir16  1  0.321879  0.323693  0.101745  1
  Ir  Ir17  1  0.053241  0.053014  0.640906  1
  Ir  Ir18  1  0.820451  0.819706  0.104637  1
  Ir  Ir19  1  0.549430  0.550762  0.644452  1
  Ir  Ir20  1  0.449238  0.450570  0.355548  1
  Ir  Ir21  1  0.180294  0.179549  0.895363  1
  Ir  Ir22  1  0.946986  0.946759  0.359094  1
  Ir  Ir23  1  0.676307  0.678121  0.898255  1
  Ir  Ir24  1  0.074121  0.572098  0.101292  1
  Ir  Ir25  1  0.569419  0.070370  0.104832  1
  Ir  Ir26  1  0.803062  0.303672  0.640518  1
  Ir  Ir27  1  0.300608  0.798984  0.645074  1
  Ir  Ir28  1  0.201016  0.699392  0.354926  1
  Ir  Ir29  1  0.696328  0.196938  0.359482  1
  Ir  Ir30  1  0.929630  0.430581  0.895168  1
  Ir  Ir31  1  0.427902  0.925879  0.898708  1
