# generated using pymatgen
data_Dy7Lu(InNi)2
_symmetry_space_group_name_H-M   'P 1'
_cell_length_a   9.57177980
_cell_length_b   9.58128329
_cell_length_c   9.55659615
_cell_angle_alpha   59.91450923
_cell_angle_beta   59.79386216
_cell_angle_gamma   59.96714560
_symmetry_Int_Tables_number   1
_chemical_formula_structural   Dy7Lu(InNi)2
_chemical_formula_sum   'Dy14 Lu2 In4 Ni4'
_cell_volume   618.20922033
_cell_formula_units_Z   2
loop_
 _symmetry_equiv_pos_site_id
 _symmetry_equiv_pos_as_xyz
  1  'x, y, z'
loop_
 _atom_site_type_symbol
 _atom_site_label
 _atom_site_symmetry_multiplicity
 _atom_site_fract_x
 _atom_site_fract_y
 _atom_site_fract_z
 _atom_site_occupancy
  Dy  Dy0  1  0.314765  0.686453  0.312329  1
  Dy  Dy1  1  0.934849  0.938500  0.562627  1
  Dy  Dy2  1  0.151966  0.152255  0.543523  1
  Dy  Dy3  1  0.562260  0.938898  0.559945  1
  Dy  Dy4  1  0.151862  0.151780  0.153944  1
  Dy  Dy5  1  0.312634  0.311962  0.686378  1
  Dy  Dy6  1  0.934849  0.564023  0.562627  1
  Dy  Dy7  1  0.562626  0.561618  0.938502  1
  Dy  Dy8  1  0.562626  0.937254  0.938502  1
  Dy  Dy9  1  0.934052  0.563561  0.938827  1
  Dy  Dy10  1  0.151862  0.542415  0.153944  1
  Dy  Dy11  1  0.312634  0.689027  0.686378  1
  Dy  Dy12  1  0.687840  0.312627  0.686907  1
  Dy  Dy13  1  0.546514  0.150254  0.152975  1
  Lu  Lu14  1  0.687887  0.313154  0.310796  1
  Lu  Lu15  1  0.687887  0.688164  0.310796  1
  In  In16  1  0.918654  0.917729  0.245887  1
  In  In17  1  0.245459  0.917732  0.919077  1
  In  In18  1  0.917800  0.247618  0.918133  1
  In  In19  1  0.917800  0.916448  0.918133  1
  Ni  Ni20  1  0.360873  0.354750  0.357110  1
  Ni  Ni21  1  0.923428  0.359609  0.357355  1
  Ni  Ni22  1  0.358001  0.356900  0.928201  1
  Ni  Ni23  1  0.360873  0.927268  0.357110  1
