# generated using pymatgen
data_Sm5Lu(BiO7)2
_symmetry_space_group_name_H-M   'P 1'
_cell_length_a   6.63774205
_cell_length_b   6.64104780
_cell_length_c   7.81191393
_cell_angle_alpha   106.90692210
_cell_angle_beta   89.80096004
_cell_angle_gamma   98.79549746
_symmetry_Int_Tables_number   1
_chemical_formula_structural   Sm5Lu(BiO7)2
_chemical_formula_sum   'Sm5 Lu1 Bi2 O14'
_cell_volume   325.29684384
_cell_formula_units_Z   1
loop_
 _symmetry_equiv_pos_site_id
 _symmetry_equiv_pos_as_xyz
  1  'x, y, z'
loop_
 _atom_site_type_symbol
 _atom_site_label
 _atom_site_symmetry_multiplicity
 _atom_site_fract_x
 _atom_site_fract_y
 _atom_site_fract_z
 _atom_site_occupancy
  Sm  Sm0  1  0.538970  0.994770  0.747140  1
  Sm  Sm1  1  0.269540  0.540701  0.884770  1
  Sm  Sm2  1  0.728477  0.462142  0.118174  1
  Sm  Sm3  1  0.734652  0.474784  0.611030  1
  Sm  Sm4  1  0.262381  0.521852  0.382192  1
  Lu  Lu5  1  0.463101  0.005903  0.252866  1
  Bi  Bi6  1  0.000534  0.000550  0.497829  1
  Bi  Bi7  1  0.000350  0.000197  0.003096  1
  O  O8  1  0.446882  0.659210  0.171183  1
  O  O9  1  0.555409  0.354473  0.834055  1
  O  O10  1  0.303697  0.929501  0.960025  1
  O  O11  1  0.698435  0.069851  0.054795  1
  O  O12  1  0.299838  0.929715  0.506453  1
  O  O13  1  0.701378  0.069033  0.477646  1
  O  O14  1  0.540381  0.351728  0.340902  1
  O  O15  1  0.450698  0.635750  0.652786  1
  O  O16  1  0.927294  0.668855  0.956905  1
  O  O17  1  0.072840  0.331616  0.044541  1
  O  O18  1  0.066608  0.343361  0.618725  1
  O  O19  1  0.927516  0.654358  0.384263  1
  O  O20  1  0.882177  0.910051  0.727031  1
  O  O21  1  0.128842  0.091598  0.273593  1
