# generated using pymatgen
data_Rh2Pb2O7
_symmetry_space_group_name_H-M   'P 1'
_cell_length_a   7.29657200
_cell_length_b   7.29657232
_cell_length_c   7.29657200
_cell_angle_alpha   119.99999853
_cell_angle_beta   90.00000000
_cell_angle_gamma   119.99999853
_symmetry_Int_Tables_number   1
_chemical_formula_structural   Rh2Pb2O7
_chemical_formula_sum   'Rh4 Pb4 O14'
_cell_volume   274.68924629
_cell_formula_units_Z   2
loop_
 _symmetry_equiv_pos_site_id
 _symmetry_equiv_pos_as_xyz
  1  'x, y, z'
loop_
 _atom_site_type_symbol
 _atom_site_label
 _atom_site_symmetry_multiplicity
 _atom_site_fract_x
 _atom_site_fract_y
 _atom_site_fract_z
 _atom_site_occupancy
  Rh  Rh0  1  0.000000  0.000000  0.000000  1
  Rh  Rh1  1  0.500000  0.000000  0.000000  1
  Rh  Rh2  1  0.500000  0.500000  0.000000  1
  Rh  Rh3  1  0.500000  0.500000  0.500000  1
  Pb  Pb4  1  0.000000  0.500000  0.000000  1
  Pb  Pb5  1  0.000000  0.500000  0.500000  1
  Pb  Pb6  1  0.000000  0.000000  0.500000  1
  Pb  Pb7  1  0.500000  0.000000  0.500000  1
  O  O8  1  0.417484  0.749999  0.082515  1
  O  O9  1  0.832515  0.749999  0.082516  1
  O  O10  1  0.832515  0.165032  0.082516  1
  O  O11  1  0.582516  0.665032  0.332516  1
  O  O12  1  0.582516  0.250000  0.332516  1
  O  O13  1  0.167484  0.250000  0.332516  1
  O  O14  1  0.125000  0.749999  0.375000  1
  O  O15  1  0.874999  0.250000  0.625000  1
  O  O16  1  0.832515  0.749999  0.667483  1
  O  O17  1  0.417484  0.334969  0.667484  1
  O  O18  1  0.417484  0.749999  0.667484  1
  O  O19  1  0.582515  0.250000  0.917484  1
  O  O20  1  0.167485  0.834969  0.917484  1
  O  O21  1  0.167485  0.250000  0.917484  1
