# generated using pymatgen
data_MgScNi3Ir
_symmetry_space_group_name_H-M   'P 1'
_cell_length_a   5.02050677
_cell_length_b   5.02050747
_cell_length_c   5.02050560
_cell_angle_alpha   57.75200609
_cell_angle_beta   57.75200021
_cell_angle_gamma   57.75200702
_symmetry_Int_Tables_number   1
_chemical_formula_structural   MgScNi3Ir
_chemical_formula_sum   'Mg1 Sc1 Ni3 Ir1'
_cell_volume   84.86005091
_cell_formula_units_Z   1
loop_
 _symmetry_equiv_pos_site_id
 _symmetry_equiv_pos_as_xyz
  1  'x, y, z'
loop_
 _atom_site_type_symbol
 _atom_site_label
 _atom_site_symmetry_multiplicity
 _atom_site_fract_x
 _atom_site_fract_y
 _atom_site_fract_z
 _atom_site_occupancy
  Mg  Mg0  1  0.002372  0.002372  0.002372  1
  Sc  Sc1  1  0.249178  0.249178  0.249178  1
  Ni  Ni2  1  0.624555  0.624555  0.124134  1
  Ni  Ni3  1  0.624555  0.124134  0.624555  1
  Ni  Ni4  1  0.124134  0.624555  0.624555  1
  Ir  Ir5  1  0.625207  0.625207  0.625207  1
