# generated using pymatgen
data_TbDy3C2Br3
_symmetry_space_group_name_H-M   'P 1'
_cell_length_a   3.69931200
_cell_length_b   10.76976600
_cell_length_c   20.51087800
_cell_angle_alpha   90.00000000
_cell_angle_beta   90.00000000
_cell_angle_gamma   90.00000000
_symmetry_Int_Tables_number   1
_chemical_formula_structural   TbDy3C2Br3
_chemical_formula_sum   'Tb4 Dy12 C8 Br12'
_cell_volume   817.16824172
_cell_formula_units_Z   4
loop_
 _symmetry_equiv_pos_site_id
 _symmetry_equiv_pos_as_xyz
  1  'x, y, z'
loop_
 _atom_site_type_symbol
 _atom_site_label
 _atom_site_symmetry_multiplicity
 _atom_site_fract_x
 _atom_site_fract_y
 _atom_site_fract_z
 _atom_site_occupancy
  Tb  Tb0  1  0.250000  0.864790  0.579747  1
  Tb  Tb1  1  0.750000  0.135210  0.420253  1
  Tb  Tb2  1  0.750000  0.635210  0.079747  1
  Tb  Tb3  1  0.250000  0.364790  0.920253  1
  Dy  Dy4  1  0.250000  0.864119  0.744376  1
  Dy  Dy5  1  0.750000  0.135881  0.255624  1
  Dy  Dy6  1  0.750000  0.635881  0.244376  1
  Dy  Dy7  1  0.250000  0.364119  0.755624  1
  Dy  Dy8  1  0.250000  0.869614  0.168727  1
  Dy  Dy9  1  0.750000  0.130386  0.831273  1
  Dy  Dy10  1  0.750000  0.630386  0.668727  1
  Dy  Dy11  1  0.250000  0.369614  0.331273  1
  Dy  Dy12  1  0.250000  0.901645  0.328237  1
  Dy  Dy13  1  0.750000  0.098355  0.671763  1
  Dy  Dy14  1  0.750000  0.598355  0.828237  1
  Dy  Dy15  1  0.250000  0.401645  0.171763  1
  C  C16  1  0.250000  0.613199  0.750277  1
  C  C17  1  0.750000  0.386801  0.249723  1
  C  C18  1  0.750000  0.886801  0.250277  1
  C  C19  1  0.250000  0.113199  0.749723  1
  C  C20  1  0.250000  0.634532  0.156696  1
  C  C21  1  0.750000  0.365468  0.843304  1
  C  C22  1  0.750000  0.865468  0.656696  1
  C  C23  1  0.250000  0.134532  0.343304  1
  Br  Br24  1  0.250000  0.610436  0.554998  1
  Br  Br25  1  0.750000  0.389564  0.445002  1
  Br  Br26  1  0.750000  0.889564  0.054998  1
  Br  Br27  1  0.250000  0.110436  0.945002  1
  Br  Br28  1  0.250000  0.628017  0.952397  1
  Br  Br29  1  0.750000  0.371983  0.047603  1
  Br  Br30  1  0.750000  0.871983  0.452397  1
  Br  Br31  1  0.250000  0.128017  0.547603  1
  Br  Br32  1  0.250000  0.637381  0.356911  1
  Br  Br33  1  0.750000  0.362619  0.643089  1
  Br  Br34  1  0.750000  0.862619  0.856911  1
  Br  Br35  1  0.250000  0.137381  0.143089  1
