# generated using pymatgen
data_U2ReMoC4
_symmetry_space_group_name_H-M   'P 1'
_cell_length_a   3.18744600
_cell_length_b   5.62489200
_cell_length_c   11.06133600
_cell_angle_alpha   90.00000000
_cell_angle_beta   90.00000000
_cell_angle_gamma   90.00000000
_symmetry_Int_Tables_number   1
_chemical_formula_structural   U2ReMoC4
_chemical_formula_sum   'U4 Re2 Mo2 C8'
_cell_volume   198.31913013
_cell_formula_units_Z   2
loop_
 _symmetry_equiv_pos_site_id
 _symmetry_equiv_pos_as_xyz
  1  'x, y, z'
loop_
 _atom_site_type_symbol
 _atom_site_label
 _atom_site_symmetry_multiplicity
 _atom_site_fract_x
 _atom_site_fract_y
 _atom_site_fract_z
 _atom_site_occupancy
  U  U0  1  0.250000  0.080326  0.857114  1
  U  U1  1  0.750000  0.919671  0.141065  1
  U  U2  1  0.250000  0.580326  0.642886  1
  U  U3  1  0.750000  0.419671  0.358935  1
  Re  Re4  1  0.750000  0.077044  0.602633  1
  Re  Re5  1  0.750000  0.577044  0.897367  1
  Mo  Mo6  1  0.250000  0.921475  0.399204  1
  Mo  Mo7  1  0.250000  0.421475  0.100796  1
  C  C8  1  0.250000  0.747178  0.991172  1
  C  C9  1  0.750000  0.252386  0.005233  1
  C  C10  1  0.250000  0.247178  0.508828  1
  C  C11  1  0.750000  0.752386  0.494767  1
  C  C12  1  0.250000  0.164286  0.243375  1
  C  C13  1  0.750000  0.337634  0.744817  1
  C  C14  1  0.250000  0.664286  0.256625  1
  C  C15  1  0.750000  0.837634  0.755183  1
