# generated using pymatgen
data_Nd5Gd3Te3AuO24
_symmetry_space_group_name_H-M   'P 1'
_cell_length_a   5.42757818
_cell_length_b   9.37965794
_cell_length_c   10.27351889
_cell_angle_alpha   89.46069981
_cell_angle_beta   90.27518892
_cell_angle_gamma   89.85558380
_symmetry_Int_Tables_number   1
_chemical_formula_structural   Nd5Gd3Te3AuO24
_chemical_formula_sum   'Nd5 Gd3 Te3 Au1 O24'
_cell_volume   522.98187048
_cell_formula_units_Z   1
loop_
 _symmetry_equiv_pos_site_id
 _symmetry_equiv_pos_as_xyz
  1  'x, y, z'
loop_
 _atom_site_type_symbol
 _atom_site_label
 _atom_site_symmetry_multiplicity
 _atom_site_fract_x
 _atom_site_fract_y
 _atom_site_fract_z
 _atom_site_occupancy
  Nd  Nd0  1  0.481901  0.899801  0.034994  1
  Nd  Nd1  1  0.977605  0.606200  0.961464  1
  Nd  Nd2  1  0.521246  0.394501  0.460929  1
  Nd  Nd3  1  0.023000  0.100508  0.539445  1
  Nd  Nd4  1  0.465354  0.781911  0.634117  1
  Gd  Gd5  1  0.964361  0.715335  0.361102  1
  Gd  Gd6  1  0.537372  0.285594  0.868431  1
  Gd  Gd7  1  0.039405  0.215929  0.134705  1
  Te  Te8  1  0.461042  0.502952  0.146388  1
  Te  Te9  1  0.038781  0.493779  0.645285  1
  Te  Te10  1  0.541736  0.003146  0.351447  1
  Au  Au11  1  0.958978  0.001745  0.858063  1
  O  O12  1  0.239845  0.584996  0.506640  1
  O  O13  1  0.747755  0.910896  0.488914  1
  O  O14  1  0.751886  0.097325  0.997557  1
  O  O15  1  0.258260  0.413021  0.008245  1
  O  O16  1  0.273228  0.885142  0.428666  1
  O  O17  1  0.772958  0.609528  0.565299  1
  O  O18  1  0.729487  0.387369  0.069527  1
  O  O19  1  0.236900  0.121189  0.935730  1
  O  O20  1  0.186447  0.635230  0.180643  1
  O  O21  1  0.680642  0.861971  0.820923  1
  O  O22  1  0.812845  0.137394  0.318873  1
  O  O23  1  0.312801  0.361987  0.681561  1
  O  O24  1  0.317110  0.359235  0.257879  1
  O  O25  1  0.802538  0.146508  0.737938  1
  O  O26  1  0.684694  0.859796  0.241050  1
  O  O27  1  0.176512  0.637492  0.757182  1
  O  O28  1  0.333339  0.054144  0.206613  1
  O  O29  1  0.831147  0.444325  0.791747  1
  O  O30  1  0.668536  0.552584  0.292195  1
  O  O31  1  0.171685  0.944845  0.707470  1
  O  O32  1  0.426703  0.147417  0.472674  1
  O  O33  1  0.927086  0.346998  0.526699  1
  O  O34  1  0.571643  0.650217  0.026042  1
  O  O35  1  0.075171  0.848990  0.983561  1
