# generated using pymatgen
data_Ti4MnCo9(SiB2)2
_symmetry_space_group_name_H-M   'P 1'
_cell_length_a   8.33631945
_cell_length_b   8.39426132
_cell_length_c   2.96885400
_cell_angle_alpha   90.00000000
_cell_angle_beta   90.00000000
_cell_angle_gamma   89.81942386
_symmetry_Int_Tables_number   1
_chemical_formula_structural   Ti4MnCo9(SiB2)2
_chemical_formula_sum   'Ti4 Mn1 Co9 Si2 B4'
_cell_volume   207.75118877
_cell_formula_units_Z   1
loop_
 _symmetry_equiv_pos_site_id
 _symmetry_equiv_pos_as_xyz
  1  'x, y, z'
loop_
 _atom_site_type_symbol
 _atom_site_label
 _atom_site_symmetry_multiplicity
 _atom_site_fract_x
 _atom_site_fract_y
 _atom_site_fract_z
 _atom_site_occupancy
  Ti  Ti0  1  0.831260  0.319668  0.000000  1
  Ti  Ti1  1  0.317556  0.175158  0.000000  1
  Ti  Ti2  1  0.675226  0.824778  0.000000  1
  Ti  Ti3  1  0.176344  0.674781  0.000000  1
  Mn  Mn4  1  0.069255  0.216235  0.500000  1
  Co  Co5  1  0.498190  0.000075  0.500000  1
  Co  Co6  1  0.001570  0.504684  0.500000  1
  Co  Co7  1  0.215163  0.925505  0.500000  1
  Co  Co8  1  0.781252  0.066109  0.500000  1
  Co  Co9  1  0.928822  0.785686  0.500000  1
  Co  Co10  1  0.432915  0.715919  0.500000  1
  Co  Co11  1  0.569914  0.284347  0.500000  1
  Co  Co12  1  0.715967  0.569546  0.500000  1
  Co  Co13  1  0.286931  0.435341  0.500000  1
  Si  Si14  1  0.999147  0.999915  0.000000  1
  Si  Si15  1  0.500895  0.499893  0.000000  1
  B  B16  1  0.619918  0.121659  0.000000  1
  B  B17  1  0.122249  0.381232  0.000000  1
  B  B18  1  0.879078  0.621108  0.000000  1
  B  B19  1  0.378347  0.878361  0.000000  1
