# generated using pymatgen
data_DyY3Pt4F28
_symmetry_space_group_name_H-M   'P 1'
_cell_length_a   5.54724401
_cell_length_b   8.91654647
_cell_length_c   12.03435507
_cell_angle_alpha   62.28163506
_cell_angle_beta   89.99203363
_cell_angle_gamma   89.99822437
_symmetry_Int_Tables_number   1
_chemical_formula_structural   DyY3Pt4F28
_chemical_formula_sum   'Dy1 Y3 Pt4 F28'
_cell_volume   526.93863617
_cell_formula_units_Z   1
loop_
 _symmetry_equiv_pos_site_id
 _symmetry_equiv_pos_as_xyz
  1  'x, y, z'
loop_
 _atom_site_type_symbol
 _atom_site_label
 _atom_site_symmetry_multiplicity
 _atom_site_fract_x
 _atom_site_fract_y
 _atom_site_fract_z
 _atom_site_occupancy
  Dy  Dy0  1  0.260283  0.814051  0.263823  1
  Y  Y1  1  0.739402  0.185549  0.736252  1
  Y  Y2  1  0.760452  0.184993  0.236288  1
  Y  Y3  1  0.239366  0.814310  0.763773  1
  Pt  Pt4  1  0.759120  0.726939  0.043190  1
  Pt  Pt5  1  0.240998  0.272709  0.957437  1
  Pt  Pt6  1  0.259138  0.273461  0.456907  1
  Pt  Pt7  1  0.740976  0.727035  0.542431  1
  F  F8  1  0.936284  0.705401  0.414301  1
  F  F9  1  0.064852  0.295551  0.585126  1
  F  F10  1  0.435372  0.295039  0.085470  1
  F  F11  1  0.564401  0.704735  0.915114  1
  F  F12  1  0.466483  0.726880  0.135616  1
  F  F13  1  0.534252  0.273546  0.865237  1
  F  F14  1  0.966004  0.273854  0.364819  1
  F  F15  1  0.033882  0.726142  0.634851  1
  F  F16  1  0.950575  0.742685  0.175271  1
  F  F17  1  0.050499  0.257567  0.824795  1
  F  F18  1  0.449712  0.258148  0.324361  1
  F  F19  1  0.549946  0.742004  0.675046  1
  F  F20  1  0.769463  0.478330  0.141930  1
  F  F21  1  0.230496  0.521319  0.858381  1
  F  F22  1  0.269448  0.522093  0.358332  1
  F  F23  1  0.730295  0.478499  0.641322  1
  F  F24  1  0.941156  0.280620  0.042740  1
  F  F25  1  0.058685  0.719001  0.957602  1
  F  F26  1  0.441579  0.719738  0.456460  1
  F  F27  1  0.558924  0.281268  0.542365  1
  F  F28  1  0.741150  0.975645  0.449880  1
  F  F29  1  0.259082  0.024761  0.549751  1
  F  F30  1  0.241050  0.024040  0.050744  1
  F  F31  1  0.759081  0.975593  0.950340  1
  F  F32  1  0.587164  0.968176  0.231736  1
  F  F33  1  0.411163  0.031440  0.768570  1
  F  F34  1  0.087965  0.030476  0.268254  1
  F  F35  1  0.911304  0.968403  0.731486  1
