# generated using pymatgen
data_Ir2Ru3RhW2
_symmetry_space_group_name_H-M   'P 1'
_cell_length_a   5.54044544
_cell_length_b   5.51956094
_cell_length_c   4.40812900
_cell_angle_alpha   90.00000000
_cell_angle_beta   90.00000000
_cell_angle_gamma   120.32539350
_symmetry_Int_Tables_number   1
_chemical_formula_structural   Ir2Ru3RhW2
_chemical_formula_sum   'Ir2 Ru3 Rh1 W2'
_cell_volume   116.35921523
_cell_formula_units_Z   1
loop_
 _symmetry_equiv_pos_site_id
 _symmetry_equiv_pos_as_xyz
  1  'x, y, z'
loop_
 _atom_site_type_symbol
 _atom_site_label
 _atom_site_symmetry_multiplicity
 _atom_site_fract_x
 _atom_site_fract_y
 _atom_site_fract_z
 _atom_site_occupancy
  Ir  Ir0  1  0.834985  0.667618  0.750000  1
  Ir  Ir1  1  0.331746  0.164942  0.750000  1
  Ru  Ru2  1  0.666121  0.836400  0.250000  1
  Ru  Ru3  1  0.167612  0.834286  0.250000  1
  Ru  Ru4  1  0.832661  0.165029  0.750000  1
  Rh  Rh5  1  0.164911  0.331813  0.250000  1
  W  W6  1  0.335583  0.669480  0.750000  1
  W  W7  1  0.666381  0.330432  0.250000  1
