# generated using pymatgen
data_Yb3Th(PaS5)2
_symmetry_space_group_name_H-M   'P 1'
_cell_length_a   7.41987800
_cell_length_b   8.03737023
_cell_length_c   11.60241700
_cell_angle_alpha   89.89604251
_cell_angle_beta   90.00000000
_cell_angle_gamma   90.00000000
_symmetry_Int_Tables_number   1
_chemical_formula_structural   Yb3Th(PaS5)2
_chemical_formula_sum   'Yb6 Th2 Pa4 S20'
_cell_volume   691.92415795
_cell_formula_units_Z   2
loop_
 _symmetry_equiv_pos_site_id
 _symmetry_equiv_pos_as_xyz
  1  'x, y, z'
loop_
 _atom_site_type_symbol
 _atom_site_label
 _atom_site_symmetry_multiplicity
 _atom_site_fract_x
 _atom_site_fract_y
 _atom_site_fract_z
 _atom_site_occupancy
  Yb  Yb0  1  0.968231  0.999628  0.326307  1
  Yb  Yb1  1  0.468231  0.000372  0.173693  1
  Yb  Yb2  1  0.537778  0.496464  0.817755  1
  Yb  Yb3  1  0.037778  0.503536  0.682245  1
  Yb  Yb4  1  0.037766  0.995896  0.678204  1
  Yb  Yb5  1  0.537766  0.004104  0.821796  1
  Th  Th6  1  0.456909  0.503758  0.164187  1
  Th  Th7  1  0.956909  0.496242  0.335813  1
  Pa  Pa8  1  0.424023  0.250087  0.496239  1
  Pa  Pa9  1  0.924023  0.749913  0.003761  1
  Pa  Pa10  1  0.069810  0.243864  0.984636  1
  Pa  Pa11  1  0.569810  0.756136  0.515364  1
  S  S12  1  0.047203  0.251592  0.496229  1
  S  S13  1  0.547203  0.748408  0.003771  1
  S  S14  1  0.453472  0.250861  0.998762  1
  S  S15  1  0.953472  0.749139  0.501238  1
  S  S16  1  0.650963  0.260723  0.307232  1
  S  S17  1  0.150963  0.739277  0.192768  1
  S  S18  1  0.843923  0.251547  0.810889  1
  S  S19  1  0.343923  0.748453  0.689111  1
  S  S20  1  0.675155  0.457188  0.578947  1
  S  S21  1  0.175155  0.542812  0.921053  1
  S  S22  1  0.834295  0.040318  0.091100  1
  S  S23  1  0.334295  0.959682  0.408900  1
  S  S24  1  0.329538  0.544610  0.406100  1
  S  S25  1  0.829538  0.455390  0.093900  1
  S  S26  1  0.174236  0.951579  0.914167  1
  S  S27  1  0.674236  0.048421  0.585833  1
  S  S28  1  0.316790  0.250580  0.715441  1
  S  S29  1  0.816790  0.749420  0.784559  1
  S  S30  1  0.179907  0.258519  0.213255  1
  S  S31  1  0.679907  0.741481  0.286745  1
