# generated using pymatgen
data_Tb4BC2Br3
_symmetry_space_group_name_H-M   'P 1'
_cell_length_a   9.65054276
_cell_length_b   3.67828500
_cell_length_c   12.43877502
_cell_angle_alpha   90.00000000
_cell_angle_beta   106.57312942
_cell_angle_gamma   90.00000000
_symmetry_Int_Tables_number   1
_chemical_formula_structural   Tb4BC2Br3
_chemical_formula_sum   'Tb8 B2 C4 Br6'
_cell_volume   423.20141727
_cell_formula_units_Z   2
loop_
 _symmetry_equiv_pos_site_id
 _symmetry_equiv_pos_as_xyz
  1  'x, y, z'
loop_
 _atom_site_type_symbol
 _atom_site_label
 _atom_site_symmetry_multiplicity
 _atom_site_fract_x
 _atom_site_fract_y
 _atom_site_fract_z
 _atom_site_occupancy
  Tb  Tb0  1  0.754953  0.250000  0.018524  1
  Tb  Tb1  1  0.542948  0.750000  0.194566  1
  Tb  Tb2  1  0.285305  0.250000  0.266252  1
  Tb  Tb3  1  0.623540  0.250000  0.459673  1
  Tb  Tb4  1  0.376459  0.750000  0.540327  1
  Tb  Tb5  1  0.714695  0.750000  0.733748  1
  Tb  Tb6  1  0.457052  0.250000  0.805434  1
  Tb  Tb7  1  0.245047  0.750000  0.981476  1
  B  B8  1  0.465859  0.250000  0.020672  1
  B  B9  1  0.534140  0.750000  0.979328  1
  C  C10  1  0.371981  0.250000  0.105356  1
  C  C11  1  0.450627  0.750000  0.365626  1
  C  C12  1  0.549372  0.250000  0.634375  1
  C  C13  1  0.628020  0.750000  0.894644  1
  Br  Br14  1  0.034473  0.750000  0.132173  1
  Br  Br15  1  0.784558  0.250000  0.270610  1
  Br  Br16  1  0.139408  0.250000  0.444287  1
  Br  Br17  1  0.860593  0.750000  0.555713  1
  Br  Br18  1  0.215442  0.750000  0.729389  1
  Br  Br19  1  0.965527  0.250000  0.867827  1
