# generated using pymatgen
data_Ti5Al16SiRh7
_symmetry_space_group_name_H-M   'P 1'
_cell_length_a   8.60338362
_cell_length_b   8.60338319
_cell_length_c   8.49245600
_cell_angle_alpha   60.42559513
_cell_angle_beta   60.42559677
_cell_angle_gamma   59.14880343
_symmetry_Int_Tables_number   1
_chemical_formula_structural   Ti5Al16SiRh7
_chemical_formula_sum   'Ti5 Al16 Si1 Rh7'
_cell_volume   444.33882752
_cell_formula_units_Z   1
loop_
 _symmetry_equiv_pos_site_id
 _symmetry_equiv_pos_as_xyz
  1  'x, y, z'
loop_
 _atom_site_type_symbol
 _atom_site_label
 _atom_site_symmetry_multiplicity
 _atom_site_fract_x
 _atom_site_fract_y
 _atom_site_fract_z
 _atom_site_occupancy
  Ti  Ti0  1  0.288941  0.709766  0.290234  1
  Ti  Ti1  1  0.709766  0.288941  0.290234  1
  Ti  Ti2  1  0.313837  0.313837  0.686163  1
  Ti  Ti3  1  0.709766  0.288941  0.711059  1
  Ti  Ti4  1  0.288941  0.709766  0.711059  1
  Al  Al5  1  0.883869  0.883870  0.351375  1
  Al  Al6  1  0.882161  0.377062  0.870389  1
  Al  Al7  1  0.377061  0.882161  0.870389  1
  Al  Al8  1  0.883869  0.883869  0.880886  1
  Al  Al9  1  0.129610  0.129611  0.622938  1
  Al  Al10  1  0.119114  0.648625  0.116131  1
  Al  Al11  1  0.648625  0.119114  0.116131  1
  Al  Al12  1  0.129611  0.129611  0.117839  1
  Al  Al13  1  0.658628  0.658628  0.071995  1
  Al  Al14  1  0.669646  0.034948  0.647702  1
  Al  Al15  1  0.034948  0.669646  0.647702  1
  Al  Al16  1  0.658628  0.658628  0.610747  1
  Al  Al17  1  0.352298  0.352298  0.965052  1
  Al  Al18  1  0.389253  0.928005  0.341372  1
  Al  Al19  1  0.928005  0.389253  0.341372  1
  Al  Al20  1  0.352298  0.352298  0.330354  1
  Si  Si21  1  0.524819  0.524819  0.475181  1
  Rh  Rh22  1  0.013059  0.013059  0.986941  1
  Rh  Rh23  1  0.011802  0.011802  0.488198  1
  Rh  Rh24  1  0.504047  0.010776  0.495953  1
  Rh  Rh25  1  0.010776  0.504047  0.495953  1
  Rh  Rh26  1  0.511802  0.511802  0.988198  1
  Rh  Rh27  1  0.010776  0.504047  0.989224  1
  Rh  Rh28  1  0.504047  0.010776  0.989224  1
