# generated using pymatgen
data_Nd4PaRh4
_symmetry_space_group_name_H-M   'P 1'
_cell_length_a   7.58773169
_cell_length_b   7.66185072
_cell_length_c   14.79428100
_cell_angle_alpha   90.21236243
_cell_angle_beta   90.16295312
_cell_angle_gamma   90.32284496
_symmetry_Int_Tables_number   1
_chemical_formula_structural   Nd4PaRh4
_chemical_formula_sum   'Nd16 Pa4 Rh16'
_cell_volume   860.05822713
_cell_formula_units_Z   4
loop_
 _symmetry_equiv_pos_site_id
 _symmetry_equiv_pos_as_xyz
  1  'x, y, z'
loop_
 _atom_site_type_symbol
 _atom_site_label
 _atom_site_symmetry_multiplicity
 _atom_site_fract_x
 _atom_site_fract_y
 _atom_site_fract_z
 _atom_site_occupancy
  Nd  Nd0  1  0.664632  0.159104  0.619123  1
  Nd  Nd1  1  0.833271  0.660159  0.122332  1
  Nd  Nd2  1  0.665837  0.160861  0.880007  1
  Nd  Nd3  1  0.163429  0.337578  0.619394  1
  Nd  Nd4  1  0.511034  0.678700  0.590868  1
  Nd  Nd5  1  0.014147  0.818838  0.905326  1
  Nd  Nd6  1  0.483291  0.315668  0.093069  1
  Nd  Nd7  1  0.991201  0.177964  0.408059  1
  Nd  Nd8  1  0.489551  0.320587  0.406534  1
  Nd  Nd9  1  0.984640  0.178237  0.086406  1
  Nd  Nd10  1  0.515766  0.676823  0.909287  1
  Nd  Nd11  1  0.008236  0.819903  0.593575  1
  Nd  Nd12  1  0.814366  0.512023  0.747834  1
  Nd  Nd13  1  0.326964  0.982225  0.748878  1
  Nd  Nd14  1  0.179077  0.478622  0.247873  1
  Nd  Nd15  1  0.690548  0.020777  0.249689  1
  Pa  Pa16  1  0.163622  0.341324  0.875659  1
  Pa  Pa17  1  0.335671  0.846680  0.122642  1
  Pa  Pa18  1  0.840544  0.656795  0.377352  1
  Pa  Pa19  1  0.339690  0.841845  0.376768  1
  Rh  Rh20  1  0.677642  0.934365  0.452784  1
  Rh  Rh21  1  0.209272  0.565637  0.037605  1
  Rh  Rh22  1  0.294026  0.057662  0.967617  1
  Rh  Rh23  1  0.816234  0.475602  0.527434  1
  Rh  Rh24  1  0.315092  0.021222  0.525409  1
  Rh  Rh25  1  0.867802  0.456859  0.952183  1
  Rh  Rh26  1  0.639436  0.958520  0.048960  1
  Rh  Rh27  1  0.175626  0.560329  0.452100  1
  Rh  Rh28  1  0.443618  0.366370  0.760137  1
  Rh  Rh29  1  0.971458  0.127638  0.756275  1
  Rh  Rh30  1  0.530072  0.646692  0.260366  1
  Rh  Rh31  1  0.048005  0.855541  0.258716  1
  Rh  Rh32  1  0.706053  0.864165  0.749735  1
  Rh  Rh33  1  0.191629  0.624946  0.760710  1
  Rh  Rh34  1  0.306585  0.109960  0.246851  1
  Rh  Rh35  1  0.791938  0.389775  0.262448  1
