# generated using pymatgen
data_Hf6N
_symmetry_space_group_name_H-M   'P 1'
_cell_length_a   5.56296200
_cell_length_b   5.56296114
_cell_length_c   10.28415700
_cell_angle_alpha   90.00000000
_cell_angle_beta   90.00000000
_cell_angle_gamma   119.99999320
_symmetry_Int_Tables_number   1
_chemical_formula_structural   Hf6N
_chemical_formula_sum   'Hf12 N2'
_cell_volume   275.62047652
_cell_formula_units_Z   2
loop_
 _symmetry_equiv_pos_site_id
 _symmetry_equiv_pos_as_xyz
  1  'x, y, z'
loop_
 _atom_site_type_symbol
 _atom_site_label
 _atom_site_symmetry_multiplicity
 _atom_site_fract_x
 _atom_site_fract_y
 _atom_site_fract_z
 _atom_site_occupancy
  Hf  Hf0  1  0.666847  0.660035  0.378038  1
  Hf  Hf1  1  0.333153  0.993188  0.878038  1
  Hf  Hf2  1  0.660035  0.993188  0.621962  1
  Hf  Hf3  1  0.660035  0.666847  0.878038  1
  Hf  Hf4  1  0.339965  0.333153  0.121962  1
  Hf  Hf5  1  0.993188  0.333153  0.378038  1
  Hf  Hf6  1  0.339965  0.006812  0.378038  1
  Hf  Hf7  1  0.666847  0.006812  0.121962  1
  Hf  Hf8  1  0.006812  0.339965  0.878038  1
  Hf  Hf9  1  0.333153  0.339965  0.621962  1
  Hf  Hf10  1  0.006812  0.666847  0.621962  1
  Hf  Hf11  1  0.993188  0.660035  0.121962  1
  N  N12  1  0.666667  0.333333  0.250000  1
  N  N13  1  0.333333  0.666667  0.750000  1
