# generated using pymatgen
data_Ho4Er2LuCo17P12
_symmetry_space_group_name_H-M   'P 1'
_cell_length_a   3.70997400
_cell_length_b   10.59256400
_cell_length_c   12.31321200
_cell_angle_alpha   90.00000000
_cell_angle_beta   90.00000000
_cell_angle_gamma   90.00000000
_symmetry_Int_Tables_number   1
_chemical_formula_structural   Ho4Er2LuCo17P12
_chemical_formula_sum   'Ho4 Er2 Lu1 Co17 P12'
_cell_volume   483.88629250
_cell_formula_units_Z   1
loop_
 _symmetry_equiv_pos_site_id
 _symmetry_equiv_pos_as_xyz
  1  'x, y, z'
loop_
 _atom_site_type_symbol
 _atom_site_label
 _atom_site_symmetry_multiplicity
 _atom_site_fract_x
 _atom_site_fract_y
 _atom_site_fract_z
 _atom_site_occupancy
  Ho  Ho0  1  0.750000  0.250000  0.468758  1
  Ho  Ho1  1  0.250000  0.750000  0.522201  1
  Ho  Ho2  1  0.250000  0.927426  0.792232  1
  Ho  Ho3  1  0.250000  0.572574  0.792232  1
  Er  Er4  1  0.750000  0.067037  0.204550  1
  Er  Er5  1  0.750000  0.432963  0.204550  1
  Lu  Lu6  1  0.250000  0.250000  0.845301  1
  Co  Co7  1  0.750000  0.750000  0.165057  1
  Co  Co8  1  0.250000  0.250000  0.296281  1
  Co  Co9  1  0.750000  0.750000  0.704929  1
  Co  Co10  1  0.750000  0.250000  0.018042  1
  Co  Co11  1  0.250000  0.750000  0.987680  1
  Co  Co12  1  0.250000  0.425209  0.013334  1
  Co  Co13  1  0.250000  0.074791  0.013334  1
  Co  Co14  1  0.750000  0.589778  0.001067  1
  Co  Co15  1  0.750000  0.910222  0.001067  1
  Co  Co16  1  0.250000  0.456616  0.563646  1
  Co  Co17  1  0.250000  0.043384  0.563646  1
  Co  Co18  1  0.750000  0.548692  0.428629  1
  Co  Co19  1  0.750000  0.951308  0.428629  1
  Co  Co20  1  0.250000  0.869481  0.292778  1
  Co  Co21  1  0.250000  0.630519  0.292778  1
  Co  Co22  1  0.750000  0.127166  0.697631  1
  Co  Co23  1  0.750000  0.372834  0.697631  1
  P  P24  1  0.250000  0.250000  0.118379  1
  P  P25  1  0.750000  0.750000  0.884595  1
  P  P26  1  0.250000  0.250000  0.635757  1
  P  P27  1  0.750000  0.750000  0.346276  1
  P  P28  1  0.250000  0.441232  0.380793  1
  P  P29  1  0.250000  0.058768  0.380793  1
  P  P30  1  0.750000  0.562275  0.612766  1
  P  P31  1  0.750000  0.937725  0.612766  1
  P  P32  1  0.250000  0.897117  0.113214  1
  P  P33  1  0.250000  0.602883  0.113214  1
  P  P34  1  0.750000  0.082354  0.902731  1
  P  P35  1  0.750000  0.417646  0.902731  1
