# generated using pymatgen
data_Cd3BiRu3RhO14
_symmetry_space_group_name_H-M   'P 1'
_cell_length_a   7.30291490
_cell_length_b   7.30291649
_cell_length_c   7.26292007
_cell_angle_alpha   59.43513103
_cell_angle_beta   59.43511925
_cell_angle_gamma   59.56615636
_symmetry_Int_Tables_number   1
_chemical_formula_structural   Cd3BiRu3RhO14
_chemical_formula_sum   'Cd3 Bi1 Ru3 Rh1 O14'
_cell_volume   270.64997806
_cell_formula_units_Z   1
loop_
 _symmetry_equiv_pos_site_id
 _symmetry_equiv_pos_as_xyz
  1  'x, y, z'
loop_
 _atom_site_type_symbol
 _atom_site_label
 _atom_site_symmetry_multiplicity
 _atom_site_fract_x
 _atom_site_fract_y
 _atom_site_fract_z
 _atom_site_occupancy
  Cd  Cd0  1  0.125000  0.625000  0.125000  1
  Cd  Cd1  1  0.625000  0.125000  0.125000  1
  Cd  Cd2  1  0.125000  0.125000  0.625000  1
  Bi  Bi3  1  0.125000  0.125000  0.125000  1
  Ru  Ru4  1  0.625000  0.625000  0.625000  1
  Ru  Ru5  1  0.125000  0.625000  0.625000  1
  Ru  Ru6  1  0.625000  0.125000  0.625000  1
  Rh  Rh7  1  0.625000  0.625000  0.125000  1
  O  O8  1  0.252042  0.252042  0.255771  1
  O  O9  1  0.291105  0.710085  0.294804  1
  O  O10  1  0.953041  0.953041  0.544373  1
  O  O11  1  0.558441  0.940229  0.565962  1
  O  O12  1  0.698738  0.698738  0.303022  1
  O  O13  1  0.940229  0.558441  0.565962  1
  O  O14  1  0.691559  0.309771  0.684038  1
  O  O15  1  0.296959  0.296959  0.705627  1
  O  O16  1  0.710085  0.291105  0.294804  1
  O  O17  1  0.309771  0.691559  0.684038  1
  O  O18  1  0.958895  0.539915  0.955196  1
  O  O19  1  0.551262  0.551262  0.946978  1
  O  O20  1  0.997958  0.997958  0.994229  1
  O  O21  1  0.539915  0.958895  0.955196  1
