# generated using pymatgen
data_Dy3Lu5Cd2IrRu
_symmetry_space_group_name_H-M   'P 1'
_cell_length_a   9.50568057
_cell_length_b   9.50580354
_cell_length_c   9.54869000
_cell_angle_alpha   59.85064466
_cell_angle_beta   59.85021414
_cell_angle_gamma   59.72101091
_symmetry_Int_Tables_number   1
_chemical_formula_structural   Dy3Lu5Cd2IrRu
_chemical_formula_sum   'Dy6 Lu10 Cd4 Ir2 Ru2'
_cell_volume   607.42880059
_cell_formula_units_Z   2
loop_
 _symmetry_equiv_pos_site_id
 _symmetry_equiv_pos_as_xyz
  1  'x, y, z'
loop_
 _atom_site_type_symbol
 _atom_site_label
 _atom_site_symmetry_multiplicity
 _atom_site_fract_x
 _atom_site_fract_y
 _atom_site_fract_z
 _atom_site_occupancy
  Dy  Dy0  1  0.189884  0.808037  0.811557  1
  Dy  Dy1  1  0.808035  0.189879  0.190541  1
  Dy  Dy2  1  0.808035  0.189879  0.811544  1
  Dy  Dy3  1  0.189884  0.808037  0.190521  1
  Dy  Dy4  1  0.809743  0.809765  0.190246  1
  Dy  Dy5  1  0.190493  0.190517  0.809495  1
  Lu  Lu6  1  0.598056  0.598048  0.597506  1
  Lu  Lu7  1  0.598056  0.598048  0.206390  1
  Lu  Lu8  1  0.597567  0.208906  0.596763  1
  Lu  Lu9  1  0.208937  0.597567  0.596748  1
  Lu  Lu10  1  0.063478  0.436684  0.438450  1
  Lu  Lu11  1  0.436686  0.063472  0.061385  1
  Lu  Lu12  1  0.436686  0.063472  0.438459  1
  Lu  Lu13  1  0.063478  0.436684  0.061388  1
  Lu  Lu14  1  0.436883  0.436874  0.063122  1
  Lu  Lu15  1  0.060872  0.060868  0.439129  1
  Cd  Cd16  1  0.830091  0.830062  0.830384  1
  Cd  Cd17  1  0.830091  0.830062  0.509462  1
  Cd  Cd18  1  0.830719  0.507568  0.830857  1
  Cd  Cd19  1  0.507554  0.830738  0.830854  1
  Ir  Ir20  1  0.393508  0.826967  0.389763  1
  Ir  Ir21  1  0.826972  0.393475  0.389776  1
  Ru  Ru22  1  0.392145  0.392196  0.388378  1
  Ru  Ru23  1  0.392145  0.392196  0.827282  1
