# generated using pymatgen
data_Dy16Tm3LuIr12
_symmetry_space_group_name_H-M   'P 1'
_cell_length_a   10.87784100
_cell_length_b   10.87784100
_cell_length_c   6.35681500
_cell_angle_alpha   90.00000000
_cell_angle_beta   90.00000000
_cell_angle_gamma   90.00000000
_symmetry_Int_Tables_number   1
_chemical_formula_structural   Dy16Tm3LuIr12
_chemical_formula_sum   'Dy16 Tm3 Lu1 Ir12'
_cell_volume   752.18554902
_cell_formula_units_Z   1
loop_
 _symmetry_equiv_pos_site_id
 _symmetry_equiv_pos_as_xyz
  1  'x, y, z'
loop_
 _atom_site_type_symbol
 _atom_site_label
 _atom_site_symmetry_multiplicity
 _atom_site_fract_x
 _atom_site_fract_y
 _atom_site_fract_z
 _atom_site_occupancy
  Dy  Dy0  1  0.290355  0.087584  0.377474  1
  Dy  Dy1  1  0.290495  0.912372  0.877407  1
  Dy  Dy2  1  0.709505  0.087628  0.877407  1
  Dy  Dy3  1  0.709645  0.912416  0.377474  1
  Dy  Dy4  1  0.587633  0.790573  0.877444  1
  Dy  Dy5  1  0.587675  0.209425  0.377406  1
  Dy  Dy6  1  0.412325  0.790575  0.377406  1
  Dy  Dy7  1  0.412367  0.209427  0.877444  1
  Dy  Dy8  1  0.209425  0.412325  0.622594  1
  Dy  Dy9  1  0.209427  0.587633  0.122556  1
  Dy  Dy10  1  0.790573  0.412367  0.122556  1
  Dy  Dy11  1  0.790575  0.587675  0.622594  1
  Dy  Dy12  1  0.912372  0.709505  0.122593  1
  Dy  Dy13  1  0.912416  0.290355  0.622526  1
  Dy  Dy14  1  0.087584  0.709645  0.622526  1
  Dy  Dy15  1  0.087628  0.290495  0.122593  1
  Tm  Tm16  1  0.000000  0.000000  0.000000  1
  Tm  Tm17  1  0.500000  0.500000  0.000000  1
  Tm  Tm18  1  0.500000  0.500000  0.500000  1
  Lu  Lu19  1  0.000000  0.000000  0.500000  1
  Ir  Ir20  1  0.847954  0.152052  0.250453  1
  Ir  Ir21  1  0.847948  0.847954  0.749547  1
  Ir  Ir22  1  0.152052  0.152046  0.749547  1
  Ir  Ir23  1  0.152046  0.847948  0.250453  1
  Ir  Ir24  1  0.652365  0.347632  0.750002  1
  Ir  Ir25  1  0.652368  0.652365  0.249998  1
  Ir  Ir26  1  0.347632  0.347635  0.249998  1
  Ir  Ir27  1  0.347635  0.652368  0.750002  1
  Ir  Ir28  1  0.500000  0.000000  0.121929  1
  Ir  Ir29  1  0.500000  0.000000  0.621926  1
  Ir  Ir30  1  0.000000  0.500000  0.878071  1
  Ir  Ir31  1  0.000000  0.500000  0.378074  1
