# generated using pymatgen
data_Sr3PtO6
_symmetry_space_group_name_H-M   'P 1'
_cell_length_a   6.13697600
_cell_length_b   5.89767057
_cell_length_c   10.32113847
_cell_angle_alpha   54.80445550
_cell_angle_beta   90.00000000
_cell_angle_gamma   90.00000000
_symmetry_Int_Tables_number   1
_chemical_formula_structural   Sr3PtO6
_chemical_formula_sum   'Sr6 Pt2 O12'
_cell_volume   305.27091960
_cell_formula_units_Z   2
loop_
 _symmetry_equiv_pos_site_id
 _symmetry_equiv_pos_as_xyz
  1  'x, y, z'
loop_
 _atom_site_type_symbol
 _atom_site_label
 _atom_site_symmetry_multiplicity
 _atom_site_fract_x
 _atom_site_fract_y
 _atom_site_fract_z
 _atom_site_occupancy
  Sr  Sr0  1  0.500000  0.500000  0.500000  1
  Sr  Sr1  1  0.949704  0.731123  0.254494  1
  Sr  Sr2  1  0.449704  0.268877  0.245506  1
  Sr  Sr3  1  0.000000  0.500000  0.000000  1
  Sr  Sr4  1  0.550296  0.731123  0.754494  1
  Sr  Sr5  1  0.050296  0.268877  0.745506  1
  Pt  Pt6  1  0.500000  0.000000  0.000000  1
  Pt  Pt7  1  0.000000  0.000000  0.500000  1
  O  O8  1  0.451764  0.119822  0.778525  1
  O  O9  1  0.234472  0.763083  0.064758  1
  O  O10  1  0.179580  0.316672  0.455910  1
  O  O11  1  0.679580  0.683328  0.044090  1
  O  O12  1  0.734472  0.236917  0.435242  1
  O  O13  1  0.951764  0.880178  0.721475  1
  O  O14  1  0.048236  0.119822  0.278525  1
  O  O15  1  0.265528  0.763083  0.564758  1
  O  O16  1  0.320420  0.316672  0.955910  1
  O  O17  1  0.820420  0.683328  0.544090  1
  O  O18  1  0.765528  0.236917  0.935242  1
  O  O19  1  0.548236  0.880178  0.221475  1
