# generated using pymatgen
data_AcYb2Cd3PdPt2
_symmetry_space_group_name_H-M   'P 1'
_cell_length_a   7.64534703
_cell_length_b   7.74139545
_cell_length_c   4.14174600
_cell_angle_alpha   90.00000000
_cell_angle_beta   90.00000000
_cell_angle_gamma   120.41645932
_symmetry_Int_Tables_number   1
_chemical_formula_structural   AcYb2Cd3PdPt2
_chemical_formula_sum   'Ac1 Yb2 Cd3 Pd1 Pt2'
_cell_volume   211.39401325
_cell_formula_units_Z   1
loop_
 _symmetry_equiv_pos_site_id
 _symmetry_equiv_pos_as_xyz
  1  'x, y, z'
loop_
 _atom_site_type_symbol
 _atom_site_label
 _atom_site_symmetry_multiplicity
 _atom_site_fract_x
 _atom_site_fract_y
 _atom_site_fract_z
 _atom_site_occupancy
  Ac  Ac0  1  0.000000  0.588195  0.500000  1
  Yb  Yb1  1  0.406736  0.406049  0.500000  1
  Yb  Yb2  1  0.593264  0.999313  0.500000  1
  Cd  Cd3  1  0.736994  0.750021  0.000000  1
  Cd  Cd4  1  0.263006  0.013026  0.000000  1
  Cd  Cd5  1  0.000000  0.239641  0.000000  1
  Pd  Pd6  1  0.000000  0.000961  0.500000  1
  Pt  Pt7  1  0.666202  0.334498  0.000000  1
  Pt  Pt8  1  0.333798  0.668296  0.000000  1
