# generated using pymatgen
data_Y4Rh3AuO14
_symmetry_space_group_name_H-M   'P 1'
_cell_length_a   7.26308923
_cell_length_b   7.29454741
_cell_length_c   7.29454800
_cell_angle_alpha   59.99999732
_cell_angle_beta   59.85661733
_cell_angle_gamma   59.85661901
_symmetry_Int_Tables_number   1
_chemical_formula_structural   Y4Rh3AuO14
_chemical_formula_sum   'Y4 Rh3 Au1 O14'
_cell_volume   272.68327009
_cell_formula_units_Z   1
loop_
 _symmetry_equiv_pos_site_id
 _symmetry_equiv_pos_as_xyz
  1  'x, y, z'
loop_
 _atom_site_type_symbol
 _atom_site_label
 _atom_site_symmetry_multiplicity
 _atom_site_fract_x
 _atom_site_fract_y
 _atom_site_fract_z
 _atom_site_occupancy
  Y  Y0  1  0.500000  0.500000  0.000000  1
  Y  Y1  1  0.500000  0.000000  0.500000  1
  Y  Y2  1  0.000000  0.500000  0.500000  1
  Y  Y3  1  0.500000  0.500000  0.500000  1
  Rh  Rh4  1  0.000000  0.000000  0.000000  1
  Rh  Rh5  1  0.000000  0.500000  0.000000  1
  Rh  Rh6  1  0.000000  0.000000  0.499999  1
  Au  Au7  1  0.500000  0.000000  0.000000  1
  O  O8  1  0.661280  0.091318  0.091317  1
  O  O9  1  0.087367  0.663020  0.086595  1
  O  O10  1  0.661279  0.656085  0.091318  1
  O  O11  1  0.912634  0.336981  0.336980  1
  O  O12  1  0.338721  0.908683  0.343914  1
  O  O13  1  0.912633  0.913404  0.336981  1
  O  O14  1  0.375691  0.374771  0.374770  1
  O  O15  1  0.624310  0.625230  0.625230  1
  O  O16  1  0.661279  0.091317  0.656086  1
  O  O17  1  0.087366  0.663019  0.663020  1
  O  O18  1  0.087367  0.086596  0.663019  1
  O  O19  1  0.912633  0.336980  0.913405  1
  O  O20  1  0.338720  0.908682  0.908683  1
  O  O21  1  0.338720  0.343914  0.908683  1
