# generated using pymatgen
data_Ho2Er2TlPd4Pb
_symmetry_space_group_name_H-M   'P 1'
_cell_length_a   7.85104101
_cell_length_b   7.84175201
_cell_length_c   3.63450200
_cell_angle_alpha   90.00000000
_cell_angle_beta   90.00000000
_cell_angle_gamma   90.00512615
_symmetry_Int_Tables_number   1
_chemical_formula_structural   Ho2Er2TlPd4Pb
_chemical_formula_sum   'Ho2 Er2 Tl1 Pd4 Pb1'
_cell_volume   223.76144607
_cell_formula_units_Z   1
loop_
 _symmetry_equiv_pos_site_id
 _symmetry_equiv_pos_as_xyz
  1  'x, y, z'
loop_
 _atom_site_type_symbol
 _atom_site_label
 _atom_site_symmetry_multiplicity
 _atom_site_fract_x
 _atom_site_fract_y
 _atom_site_fract_z
 _atom_site_occupancy
  Ho  Ho0  1  0.675491  0.167084  0.500000  1
  Ho  Ho1  1  0.167531  0.324769  0.500000  1
  Er  Er2  1  0.833302  0.675801  0.500000  1
  Er  Er3  1  0.324489  0.832742  0.500000  1
  Tl  Tl4  1  0.999950  0.999852  0.000000  1
  Pd  Pd5  1  0.373728  0.124319  0.000000  1
  Pd  Pd6  1  0.125533  0.627058  0.000000  1
  Pd  Pd7  1  0.625718  0.872979  0.000000  1
  Pd  Pd8  1  0.874143  0.375106  0.000000  1
  Pb  Pb9  1  0.500114  0.500289  0.000000  1
