# generated using pymatgen
data_CeYMgAlIr2
_symmetry_space_group_name_H-M   'P 1'
_cell_length_a   7.03153200
_cell_length_b   4.15555300
_cell_length_c   8.27575400
_cell_angle_alpha   90.00000000
_cell_angle_beta   90.00000000
_cell_angle_gamma   90.00000000
_symmetry_Int_Tables_number   1
_chemical_formula_structural   CeYMgAlIr2
_chemical_formula_sum   'Ce2 Y2 Mg2 Al2 Ir4'
_cell_volume   241.81673656
_cell_formula_units_Z   2
loop_
 _symmetry_equiv_pos_site_id
 _symmetry_equiv_pos_as_xyz
  1  'x, y, z'
loop_
 _atom_site_type_symbol
 _atom_site_label
 _atom_site_symmetry_multiplicity
 _atom_site_fract_x
 _atom_site_fract_y
 _atom_site_fract_z
 _atom_site_occupancy
  Ce  Ce0  1  0.035859  0.750000  0.820015  1
  Ce  Ce1  1  0.535859  0.750000  0.679985  1
  Y  Y2  1  0.961144  0.250000  0.184386  1
  Y  Y3  1  0.461144  0.250000  0.315614  1
  Mg  Mg4  1  0.138370  0.750000  0.435625  1
  Mg  Mg5  1  0.638370  0.750000  0.064375  1
  Al  Al6  1  0.866079  0.250000  0.555649  1
  Al  Al7  1  0.366079  0.250000  0.944351  1
  Ir  Ir8  1  0.744593  0.250000  0.860974  1
  Ir  Ir9  1  0.244593  0.250000  0.639026  1
  Ir  Ir10  1  0.253955  0.750000  0.106990  1
  Ir  Ir11  1  0.753955  0.750000  0.393010  1
