# generated using pymatgen
data_TbHfCo9CuP6
_symmetry_space_group_name_H-M   'P 1'
_cell_length_a   3.63603400
_cell_length_b   10.17618900
_cell_length_c   11.72646300
_cell_angle_alpha   90.00000000
_cell_angle_beta   90.00000000
_cell_angle_gamma   90.00000000
_symmetry_Int_Tables_number   1
_chemical_formula_structural   TbHfCo9CuP6
_chemical_formula_sum   'Tb2 Hf2 Co18 Cu2 P12'
_cell_volume   433.89049622
_cell_formula_units_Z   2
loop_
 _symmetry_equiv_pos_site_id
 _symmetry_equiv_pos_as_xyz
  1  'x, y, z'
loop_
 _atom_site_type_symbol
 _atom_site_label
 _atom_site_symmetry_multiplicity
 _atom_site_fract_x
 _atom_site_fract_y
 _atom_site_fract_z
 _atom_site_occupancy
  Tb  Tb0  1  0.750000  0.419476  0.295827  1
  Tb  Tb1  1  0.750000  0.080524  0.795827  1
  Hf  Hf2  1  0.250000  0.578180  0.701719  1
  Hf  Hf3  1  0.250000  0.921820  0.201719  1
  Co  Co4  1  0.750000  0.285718  0.008100  1
  Co  Co5  1  0.750000  0.214282  0.508100  1
  Co  Co6  1  0.250000  0.408699  0.490393  1
  Co  Co7  1  0.250000  0.091301  0.990393  1
  Co  Co8  1  0.750000  0.593174  0.522565  1
  Co  Co9  1  0.750000  0.906826  0.022565  1
  Co  Co10  1  0.250000  0.223211  0.176664  1
  Co  Co11  1  0.250000  0.276789  0.676664  1
  Co  Co12  1  0.750000  0.776383  0.825732  1
  Co  Co13  1  0.750000  0.723617  0.325732  1
  Co  Co14  1  0.250000  0.877868  0.698147  1
  Co  Co15  1  0.250000  0.622132  0.198147  1
  Co  Co16  1  0.750000  0.116653  0.297704  1
  Co  Co17  1  0.750000  0.383347  0.797704  1
  Co  Co18  1  0.250000  0.468267  0.927398  1
  Co  Co19  1  0.250000  0.031733  0.427398  1
  Co  Co20  1  0.750000  0.538628  0.063727  1
  Co  Co21  1  0.750000  0.961372  0.563727  1
  Cu  Cu22  1  0.250000  0.713136  0.991822  1
  Cu  Cu23  1  0.250000  0.786864  0.491822  1
  P  P24  1  0.250000  0.421799  0.109607  1
  P  P25  1  0.250000  0.078201  0.609607  1
  P  P26  1  0.750000  0.577483  0.879026  1
  P  P27  1  0.750000  0.922517  0.379026  1
  P  P28  1  0.250000  0.268063  0.870358  1
  P  P29  1  0.250000  0.231937  0.370358  1
  P  P30  1  0.750000  0.734695  0.140169  1
  P  P31  1  0.750000  0.765305  0.640169  1
  P  P32  1  0.250000  0.599950  0.391302  1
  P  P33  1  0.250000  0.900050  0.891302  1
  P  P34  1  0.750000  0.398237  0.609742  1
  P  P35  1  0.750000  0.101763  0.109742  1
