# generated using pymatgen
data_Tb(SbO3)3
_symmetry_space_group_name_H-M   'P 1'
_cell_length_a   5.55065430
_cell_length_b   5.55065392
_cell_length_c   11.59857700
_cell_angle_alpha   90.00000000
_cell_angle_beta   90.00000000
_cell_angle_gamma   106.69471881
_symmetry_Int_Tables_number   1
_chemical_formula_structural   Tb(SbO3)3
_chemical_formula_sum   'Tb2 Sb6 O18'
_cell_volume   342.28674443
_cell_formula_units_Z   2
loop_
 _symmetry_equiv_pos_site_id
 _symmetry_equiv_pos_as_xyz
  1  'x, y, z'
loop_
 _atom_site_type_symbol
 _atom_site_label
 _atom_site_symmetry_multiplicity
 _atom_site_fract_x
 _atom_site_fract_y
 _atom_site_fract_z
 _atom_site_occupancy
  Tb  Tb0  1  0.751356  0.248644  0.750000  1
  Tb  Tb1  1  0.248644  0.751356  0.250000  1
  Sb  Sb2  1  0.123238  0.876762  0.907430  1
  Sb  Sb3  1  0.876762  0.123238  0.407430  1
  Sb  Sb4  1  0.876762  0.123238  0.092570  1
  Sb  Sb5  1  0.123238  0.876762  0.592570  1
  Sb  Sb6  1  0.500000  0.500000  0.000000  1
  Sb  Sb7  1  0.500000  0.500000  0.500000  1
  O  O8  1  0.952914  0.047086  0.250000  1
  O  O9  1  0.047086  0.952914  0.750000  1
  O  O10  1  0.106124  0.893876  0.076846  1
  O  O11  1  0.893876  0.106124  0.576846  1
  O  O12  1  0.893876  0.106124  0.923154  1
  O  O13  1  0.106124  0.893876  0.423154  1
  O  O14  1  0.339023  0.660977  0.879142  1
  O  O15  1  0.660977  0.339023  0.379142  1
  O  O16  1  0.423628  0.190160  0.604036  1
  O  O17  1  0.576372  0.809840  0.104036  1
  O  O18  1  0.190160  0.423628  0.395964  1
  O  O19  1  0.809840  0.576372  0.895964  1
  O  O20  1  0.576372  0.809840  0.395964  1
  O  O21  1  0.423628  0.190160  0.895964  1
  O  O22  1  0.809840  0.576372  0.604036  1
  O  O23  1  0.190160  0.423628  0.104036  1
  O  O24  1  0.339023  0.660977  0.620858  1
  O  O25  1  0.660977  0.339023  0.120858  1
