# generated using pymatgen
data_Er7TmMn2(OsC4)2
_symmetry_space_group_name_H-M   'P 1'
_cell_length_a   5.02188700
_cell_length_b   6.36985644
_cell_length_c   9.63711918
_cell_angle_alpha   90.56659095
_cell_angle_beta   90.00000000
_cell_angle_gamma   90.00000000
_symmetry_Int_Tables_number   1
_chemical_formula_structural   Er7TmMn2(OsC4)2
_chemical_formula_sum   'Er7 Tm1 Mn2 Os2 C8'
_cell_volume   308.26383378
_cell_formula_units_Z   1
loop_
 _symmetry_equiv_pos_site_id
 _symmetry_equiv_pos_as_xyz
  1  'x, y, z'
loop_
 _atom_site_type_symbol
 _atom_site_label
 _atom_site_symmetry_multiplicity
 _atom_site_fract_x
 _atom_site_fract_y
 _atom_site_fract_z
 _atom_site_occupancy
  Er  Er0  1  0.750000  0.317045  0.443210  1
  Er  Er1  1  0.750000  0.819986  0.052623  1
  Er  Er2  1  0.250000  0.179881  0.947329  1
  Er  Er3  1  0.250000  0.525609  0.217369  1
  Er  Er4  1  0.750000  0.474618  0.782733  1
  Er  Er5  1  0.750000  0.974412  0.715259  1
  Er  Er6  1  0.250000  0.025349  0.284714  1
  Tm  Tm7  1  0.250000  0.682337  0.557240  1
  Mn  Mn8  1  0.250000  0.726966  0.862533  1
  Mn  Mn9  1  0.750000  0.273080  0.137276  1
  Os  Os10  1  0.750000  0.775553  0.362442  1
  Os  Os11  1  0.250000  0.224523  0.637745  1
  C  C12  1  0.250000  0.468419  0.764656  1
  C  C13  1  0.750000  0.531849  0.235121  1
  C  C14  1  0.750000  0.046432  0.254232  1
  C  C15  1  0.250000  0.953314  0.745333  1
  C  C16  1  0.250000  0.814568  0.040939  1
  C  C17  1  0.750000  0.185428  0.958987  1
  C  C18  1  0.750000  0.676203  0.552161  1
  C  C19  1  0.250000  0.324431  0.448096  1
