# generated using pymatgen
data_Y24InGa15
_symmetry_space_group_name_H-M   'P 1'
_cell_length_a   11.13364947
_cell_length_b   11.13364981
_cell_length_c   11.13365000
_cell_angle_alpha   116.58831790
_cell_angle_beta   116.58831876
_cell_angle_gamma   96.01831879
_symmetry_Int_Tables_number   1
_chemical_formula_structural   Y24InGa15
_chemical_formula_sum   'Y24 In1 Ga15'
_cell_volume   1020.11319771
_cell_formula_units_Z   1
loop_
 _symmetry_equiv_pos_site_id
 _symmetry_equiv_pos_as_xyz
  1  'x, y, z'
loop_
 _atom_site_type_symbol
 _atom_site_label
 _atom_site_symmetry_multiplicity
 _atom_site_fract_x
 _atom_site_fract_y
 _atom_site_fract_z
 _atom_site_occupancy
  Y  Y0  1  0.145500  0.645500  0.500000  1
  Y  Y1  1  0.645500  0.145500  0.500000  1
  Y  Y2  1  0.854500  0.354500  0.500000  1
  Y  Y3  1  0.354500  0.854500  0.500000  1
  Y  Y4  1  0.668994  0.170654  0.839649  1
  Y  Y5  1  0.331006  0.829346  0.160351  1
  Y  Y6  1  0.170654  0.331006  0.501659  1
  Y  Y7  1  0.829346  0.668994  0.498341  1
  Y  Y8  1  0.067402  0.932133  0.270209  1
  Y  Y9  1  0.661924  0.797193  0.729791  1
  Y  Y10  1  0.567080  0.291352  0.138388  1
  Y  Y11  1  0.152964  0.428691  0.861612  1
  Y  Y12  1  0.797193  0.067402  0.135269  1
  Y  Y13  1  0.932133  0.661924  0.864731  1
  Y  Y14  1  0.428691  0.567080  0.275728  1
  Y  Y15  1  0.291352  0.152964  0.724272  1
  Y  Y16  1  0.932598  0.067867  0.729791  1
  Y  Y17  1  0.338076  0.202807  0.270209  1
  Y  Y18  1  0.432920  0.708648  0.861612  1
  Y  Y19  1  0.847036  0.571309  0.138388  1
  Y  Y20  1  0.202807  0.932598  0.864731  1
  Y  Y21  1  0.067867  0.338076  0.135269  1
  Y  Y22  1  0.571309  0.432920  0.724272  1
  Y  Y23  1  0.708648  0.847036  0.275728  1
  In  In24  1  0.500000  0.500000  0.000000  1
  Ga  Ga25  1  0.748791  0.748791  0.000000  1
  Ga  Ga26  1  0.251209  0.251209  0.000000  1
  Ga  Ga27  1  0.000000  0.000000  0.000000  1
  Ga  Ga28  1  0.117922  0.618335  0.736257  1
  Ga  Ga29  1  0.882078  0.381665  0.263743  1
  Ga  Ga30  1  0.618335  0.882078  0.500413  1
  Ga  Ga31  1  0.381665  0.117922  0.499587  1
  Ga  Ga32  1  0.876845  0.377883  0.854346  1
  Ga  Ga33  1  0.523537  0.022500  0.145654  1
  Ga  Ga34  1  0.377883  0.523537  0.501038  1
  Ga  Ga35  1  0.022500  0.876845  0.498962  1
  Ga  Ga36  1  0.123155  0.622117  0.145654  1
  Ga  Ga37  1  0.476463  0.977500  0.854346  1
  Ga  Ga38  1  0.622117  0.476463  0.498962  1
  Ga  Ga39  1  0.977500  0.123155  0.501038  1
