# generated using pymatgen
data_Hf5ZrTi4Ga5Te
_symmetry_space_group_name_H-M   'P 1'
_cell_length_a   7.95651400
_cell_length_b   7.96577425
_cell_length_c   5.44271800
_cell_angle_alpha   90.00000000
_cell_angle_beta   90.00000000
_cell_angle_gamma   119.96155208
_symmetry_Int_Tables_number   1
_chemical_formula_structural   Hf5ZrTi4Ga5Te
_chemical_formula_sum   'Hf5 Zr1 Ti4 Ga5 Te1'
_cell_volume   298.85836601
_cell_formula_units_Z   1
loop_
 _symmetry_equiv_pos_site_id
 _symmetry_equiv_pos_as_xyz
  1  'x, y, z'
loop_
 _atom_site_type_symbol
 _atom_site_label
 _atom_site_symmetry_multiplicity
 _atom_site_fract_x
 _atom_site_fract_y
 _atom_site_fract_z
 _atom_site_occupancy
  Hf  Hf0  1  0.230759  0.000000  0.250000  1
  Hf  Hf1  1  0.011741  0.253173  0.250000  1
  Hf  Hf2  1  0.997104  0.752109  0.750000  1
  Hf  Hf3  1  0.758568  0.746827  0.250000  1
  Hf  Hf4  1  0.244995  0.247891  0.750000  1
  Zr  Zr5  1  0.759895  0.000000  0.750000  1
  Ti  Ti6  1  0.329014  0.658741  0.995764  1
  Ti  Ti7  1  0.670275  0.341259  0.995764  1
  Ti  Ti8  1  0.670275  0.341259  0.504236  1
  Ti  Ti9  1  0.329014  0.658741  0.504236  1
  Ga  Ga10  1  0.392658  0.000000  0.750000  1
  Ga  Ga11  1  0.003281  0.601105  0.250000  1
  Ga  Ga12  1  0.999340  0.398784  0.750000  1
  Ga  Ga13  1  0.402175  0.398895  0.250000  1
  Ga  Ga14  1  0.600555  0.601216  0.750000  1
  Te  Te15  1  0.600352  0.000000  0.250000  1
