# generated using pymatgen
data_CaTb7(Si3Ir)4
_symmetry_space_group_name_H-M   'P 1'
_cell_length_a   8.18155300
_cell_length_b   8.19934113
_cell_length_c   8.03030900
_cell_angle_alpha   90.00000000
_cell_angle_beta   90.00000000
_cell_angle_gamma   119.92826482
_symmetry_Int_Tables_number   1
_chemical_formula_structural   CaTb7(Si3Ir)4
_chemical_formula_sum   'Ca1 Tb7 Si12 Ir4'
_cell_volume   466.86473358
_cell_formula_units_Z   1
loop_
 _symmetry_equiv_pos_site_id
 _symmetry_equiv_pos_as_xyz
  1  'x, y, z'
loop_
 _atom_site_type_symbol
 _atom_site_label
 _atom_site_symmetry_multiplicity
 _atom_site_fract_x
 _atom_site_fract_y
 _atom_site_fract_z
 _atom_site_occupancy
  Ca  Ca0  1  0.509093  0.018183  0.250000  1
  Tb  Tb1  1  0.491836  0.983674  0.750000  1
  Tb  Tb2  1  0.982299  0.490475  0.250000  1
  Tb  Tb3  1  0.017863  0.509210  0.750000  1
  Tb  Tb4  1  0.508177  0.490475  0.250000  1
  Tb  Tb5  1  0.491346  0.509210  0.750000  1
  Tb  Tb6  1  0.999710  0.999421  0.250000  1
  Tb  Tb7  1  0.999839  0.999678  0.750000  1
  Si  Si8  1  0.165704  0.331408  0.001109  1
  Si  Si9  1  0.834085  0.668170  0.997040  1
  Si  Si10  1  0.665932  0.833390  0.002412  1
  Si  Si11  1  0.834085  0.668170  0.502960  1
  Si  Si12  1  0.334174  0.166928  0.996537  1
  Si  Si13  1  0.165704  0.331408  0.498891  1
  Si  Si14  1  0.167460  0.833390  0.002412  1
  Si  Si15  1  0.334174  0.166928  0.503463  1
  Si  Si16  1  0.832754  0.166928  0.996537  1
  Si  Si17  1  0.665932  0.833390  0.497588  1
  Si  Si18  1  0.832754  0.166928  0.503463  1
  Si  Si19  1  0.167460  0.833390  0.497588  1
  Ir  Ir20  1  0.331737  0.663474  0.023284  1
  Ir  Ir21  1  0.668074  0.336147  0.970620  1
  Ir  Ir22  1  0.668074  0.336147  0.529380  1
  Ir  Ir23  1  0.331737  0.663474  0.476716  1
