# generated using pymatgen
data_Ga2Cl3
_symmetry_space_group_name_H-M   'P 1'
_cell_length_a   11.48263000
_cell_length_b   6.78176811
_cell_length_c   8.58843803
_cell_angle_alpha   89.90203857
_cell_angle_beta   90.00000000
_cell_angle_gamma   90.00000000
_symmetry_Int_Tables_number   1
_chemical_formula_structural   Ga2Cl3
_chemical_formula_sum   'Ga8 Cl12'
_cell_volume   668.80245413
_cell_formula_units_Z   4
loop_
 _symmetry_equiv_pos_site_id
 _symmetry_equiv_pos_as_xyz
  1  'x, y, z'
loop_
 _atom_site_type_symbol
 _atom_site_label
 _atom_site_symmetry_multiplicity
 _atom_site_fract_x
 _atom_site_fract_y
 _atom_site_fract_z
 _atom_site_occupancy
  Ga  Ga0  1  0.500000  0.000000  0.500000  1
  Ga  Ga1  1  0.500000  0.500000  0.000000  1
  Ga  Ga2  1  0.000000  0.000000  0.500000  1
  Ga  Ga3  1  0.000000  0.500000  0.000000  1
  Ga  Ga4  1  0.250000  0.037265  0.961243  1
  Ga  Ga5  1  0.750000  0.852200  0.768128  1
  Ga  Ga6  1  0.750000  0.962735  0.038757  1
  Ga  Ga7  1  0.250000  0.147800  0.231872  1
  Cl  Cl8  1  0.595621  0.664391  0.694147  1
  Cl  Cl9  1  0.404379  0.335609  0.305853  1
  Cl  Cl10  1  0.904379  0.664391  0.694147  1
  Cl  Cl11  1  0.750000  0.292535  0.073657  1
  Cl  Cl12  1  0.093516  0.148626  0.823313  1
  Cl  Cl13  1  0.593516  0.851374  0.176687  1
  Cl  Cl14  1  0.906484  0.851374  0.176687  1
  Cl  Cl15  1  0.406484  0.148626  0.823313  1
  Cl  Cl16  1  0.095621  0.335609  0.305853  1
  Cl  Cl17  1  0.750000  0.101330  0.590600  1
  Cl  Cl18  1  0.250000  0.898670  0.409400  1
  Cl  Cl19  1  0.250000  0.707465  0.926343  1
