# generated using pymatgen
data_RbLi6RhO6
_symmetry_space_group_name_H-M   'P 1'
_cell_length_a   5.36310210
_cell_length_b   5.36308321
_cell_length_c   5.36311869
_cell_angle_alpha   101.17036537
_cell_angle_beta   101.16918763
_cell_angle_gamma   101.17031416
_symmetry_Int_Tables_number   1
_chemical_formula_structural   RbLi6RhO6
_chemical_formula_sum   'Rb1 Li6 Rh1 O6'
_cell_volume   144.12018696
_cell_formula_units_Z   1
loop_
 _symmetry_equiv_pos_site_id
 _symmetry_equiv_pos_as_xyz
  1  'x, y, z'
loop_
 _atom_site_type_symbol
 _atom_site_label
 _atom_site_symmetry_multiplicity
 _atom_site_fract_x
 _atom_site_fract_y
 _atom_site_fract_z
 _atom_site_occupancy
  Rb  Rb0  1  0.500000  0.500000  0.500000  1
  Li  Li1  1  0.663046  0.336957  0.000004  1
  Li  Li2  1  0.336955  0.663044  0.999996  1
  Li  Li3  1  0.663047  0.000002  0.336956  1
  Li  Li4  1  0.999999  0.663042  0.336959  1
  Li  Li5  1  0.336955  0.999998  0.663045  1
  Li  Li6  1  0.000001  0.336960  0.663042  1
  Rh  Rh7  1  0.000000  0.000000  0.000000  1
  O  O8  1  0.726693  0.726693  0.081402  1
  O  O9  1  0.918598  0.273313  0.273312  1
  O  O10  1  0.273309  0.918598  0.273308  1
  O  O11  1  0.726692  0.081403  0.726692  1
  O  O12  1  0.081403  0.726688  0.726688  1
  O  O13  1  0.273307  0.273307  0.918598  1
