# generated using pymatgen
data_Zr5GaSnSb2
_symmetry_space_group_name_H-M   'P 1'
_cell_length_a   8.70042900
_cell_length_b   8.69624399
_cell_length_c   5.89608400
_cell_angle_alpha   90.00000000
_cell_angle_beta   90.00000000
_cell_angle_gamma   120.01591690
_symmetry_Int_Tables_number   1
_chemical_formula_structural   Zr5GaSnSb2
_chemical_formula_sum   'Zr10 Ga2 Sn2 Sb4'
_cell_volume   386.27535352
_cell_formula_units_Z   2
loop_
 _symmetry_equiv_pos_site_id
 _symmetry_equiv_pos_as_xyz
  1  'x, y, z'
loop_
 _atom_site_type_symbol
 _atom_site_label
 _atom_site_symmetry_multiplicity
 _atom_site_fract_x
 _atom_site_fract_y
 _atom_site_fract_z
 _atom_site_occupancy
  Zr  Zr0  1  0.000550  0.265129  0.250000  1
  Zr  Zr1  1  0.729382  0.000000  0.750000  1
  Zr  Zr2  1  0.735421  0.734871  0.250000  1
  Zr  Zr3  1  0.665966  0.332589  0.501697  1
  Zr  Zr4  1  0.000780  0.731318  0.750000  1
  Zr  Zr5  1  0.269462  0.268682  0.750000  1
  Zr  Zr6  1  0.333376  0.667411  0.998303  1
  Zr  Zr7  1  0.665966  0.332589  0.998303  1
  Zr  Zr8  1  0.333376  0.667411  0.501697  1
  Zr  Zr9  1  0.265370  0.000000  0.250000  1
  Ga  Ga10  1  0.999161  0.000000  0.995067  1
  Ga  Ga11  1  0.999161  0.000000  0.504933  1
  Sn  Sn12  1  0.999897  0.386230  0.750000  1
  Sn  Sn13  1  0.613667  0.613770  0.750000  1
  Sb  Sb14  1  0.610961  0.000000  0.250000  1
  Sb  Sb15  1  0.387281  0.000000  0.750000  1
  Sb  Sb16  1  0.390866  0.391508  0.250000  1
  Sb  Sb17  1  0.999359  0.608492  0.250000  1
