# generated using pymatgen
data_Pr15Sm(HoPb4)4
_symmetry_space_group_name_H-M   'P 1'
_cell_length_a   8.40500261
_cell_length_b   8.53145259
_cell_length_c   16.25987098
_cell_angle_alpha   89.99332622
_cell_angle_beta   89.68151069
_cell_angle_gamma   90.03042438
_symmetry_Int_Tables_number   1
_chemical_formula_structural   Pr15Sm(HoPb4)4
_chemical_formula_sum   'Pr15 Sm1 Ho4 Pb16'
_cell_volume   1165.92645260
_cell_formula_units_Z   1
loop_
 _symmetry_equiv_pos_site_id
 _symmetry_equiv_pos_as_xyz
  1  'x, y, z'
loop_
 _atom_site_type_symbol
 _atom_site_label
 _atom_site_symmetry_multiplicity
 _atom_site_fract_x
 _atom_site_fract_y
 _atom_site_fract_z
 _atom_site_occupancy
  Pr  Pr0  1  0.125738  0.342507  0.879578  1
  Pr  Pr1  1  0.374612  0.843476  0.119174  1
  Pr  Pr2  1  0.869802  0.658224  0.382661  1
  Pr  Pr3  1  0.373474  0.840819  0.380148  1
  Pr  Pr4  1  0.874377  0.657567  0.118925  1
  Pr  Pr5  1  0.624933  0.156927  0.880181  1
  Pr  Pr6  1  0.125959  0.342799  0.618696  1
  Pr  Pr7  1  0.470521  0.678735  0.599200  1
  Pr  Pr8  1  0.967288  0.822477  0.898829  1
  Pr  Pr9  1  0.531057  0.322219  0.099974  1
  Pr  Pr10  1  0.030335  0.178891  0.400883  1
  Pr  Pr11  1  0.527505  0.320109  0.402892  1
  Pr  Pr12  1  0.031959  0.178366  0.100561  1
  Pr  Pr13  1  0.468325  0.677934  0.898189  1
  Pr  Pr14  1  0.972893  0.822985  0.599422  1
  Sm  Sm15  1  0.629822  0.156087  0.622640  1
  Ho  Ho16  1  0.793423  0.495786  0.749216  1
  Ho  Ho17  1  0.295294  0.003662  0.749042  1
  Ho  Ho18  1  0.204936  0.503711  0.249837  1
  Ho  Ho19  1  0.705957  0.996602  0.251129  1
  Pb  Pb20  1  0.714690  0.970320  0.457843  1
  Pb  Pb21  1  0.217389  0.531733  0.045527  1
  Pb  Pb22  1  0.281444  0.030822  0.953024  1
  Pb  Pb23  1  0.780117  0.461594  0.546890  1
  Pb  Pb24  1  0.293585  0.036244  0.546315  1
  Pb  Pb25  1  0.781615  0.468681  0.952890  1
  Pb  Pb26  1  0.718367  0.969724  0.046332  1
  Pb  Pb27  1  0.213993  0.533346  0.453698  1
  Pb  Pb28  1  0.432756  0.372263  0.748010  1
  Pb  Pb29  1  0.931647  0.124862  0.748445  1
  Pb  Pb30  1  0.568419  0.623996  0.249771  1
  Pb  Pb31  1  0.067266  0.873923  0.250594  1
  Pb  Pb32  1  0.659924  0.847486  0.748303  1
  Pb  Pb33  1  0.160005  0.653808  0.749259  1
  Pb  Pb34  1  0.340106  0.154335  0.250975  1
  Pb  Pb35  1  0.840470  0.346983  0.250951  1
