# generated using pymatgen
data_Ta8BeSiTe8
_symmetry_space_group_name_H-M   'P 1'
_cell_length_a   4.82914100
_cell_length_b   10.85607200
_cell_length_c   18.82027500
_cell_angle_alpha   90.00000000
_cell_angle_beta   90.00000000
_cell_angle_gamma   90.00000000
_symmetry_Int_Tables_number   1
_chemical_formula_structural   Ta8BeSiTe8
_chemical_formula_sum   'Ta16 Be2 Si2 Te16'
_cell_volume   986.66237207
_cell_formula_units_Z   2
loop_
 _symmetry_equiv_pos_site_id
 _symmetry_equiv_pos_as_xyz
  1  'x, y, z'
loop_
 _atom_site_type_symbol
 _atom_site_label
 _atom_site_symmetry_multiplicity
 _atom_site_fract_x
 _atom_site_fract_y
 _atom_site_fract_z
 _atom_site_occupancy
  Ta  Ta0  1  0.494008  0.563893  0.384495  1
  Ta  Ta1  1  0.494008  0.436107  0.615505  1
  Ta  Ta2  1  0.505992  0.063893  0.115505  1
  Ta  Ta3  1  0.505992  0.936107  0.884495  1
  Ta  Ta4  1  0.493707  0.701665  0.535555  1
  Ta  Ta5  1  0.493707  0.298335  0.464445  1
  Ta  Ta6  1  0.506293  0.201665  0.964445  1
  Ta  Ta7  1  0.506293  0.798335  0.035555  1
  Ta  Ta8  1  0.005748  0.687343  0.443599  1
  Ta  Ta9  1  0.005748  0.312657  0.556401  1
  Ta  Ta10  1  0.994252  0.187343  0.056401  1
  Ta  Ta11  1  0.994252  0.812657  0.943599  1
  Ta  Ta12  1  0.006252  0.402225  0.392842  1
  Ta  Ta13  1  0.006252  0.597775  0.607158  1
  Ta  Ta14  1  0.993748  0.902225  0.107158  1
  Ta  Ta15  1  0.993748  0.097775  0.892842  1
  Be  Be16  1  0.249852  0.500000  0.500000  1
  Be  Be17  1  0.750148  0.000000  0.000000  1
  Si  Si18  1  0.750035  0.500000  0.500000  1
  Si  Si19  1  0.249965  0.000000  0.000000  1
  Te  Te20  1  0.000319  0.849682  0.563123  1
  Te  Te21  1  0.000319  0.150318  0.436877  1
  Te  Te22  1  0.999681  0.349682  0.936877  1
  Te  Te23  1  0.999681  0.650318  0.063123  1
  Te  Te24  1  0.499104  0.331727  0.313939  1
  Te  Te25  1  0.499104  0.668273  0.686061  1
  Te  Te26  1  0.500896  0.831727  0.186061  1
  Te  Te27  1  0.500896  0.168273  0.813939  1
  Te  Te28  1  0.498985  0.825180  0.401644  1
  Te  Te29  1  0.498985  0.174820  0.598356  1
  Te  Te30  1  0.501015  0.325180  0.098356  1
  Te  Te31  1  0.501015  0.674820  0.901644  1
  Te  Te32  1  0.001496  0.608193  0.299094  1
  Te  Te33  1  0.001496  0.391807  0.700906  1
  Te  Te34  1  0.998504  0.108193  0.200906  1
  Te  Te35  1  0.998504  0.891807  0.799094  1
