# generated using pymatgen
data_Li2MgSnSe4
_symmetry_space_group_name_H-M   'P 1'
_cell_length_a   7.26724100
_cell_length_b   6.86968743
_cell_length_c   10.93604042
_cell_angle_alpha   51.24138244
_cell_angle_beta   90.00000000
_cell_angle_gamma   90.00000000
_symmetry_Int_Tables_number   1
_chemical_formula_structural   Li2MgSnSe4
_chemical_formula_sum   'Li4 Mg2 Sn2 Se8'
_cell_volume   425.74003654
_cell_formula_units_Z   2
loop_
 _symmetry_equiv_pos_site_id
 _symmetry_equiv_pos_as_xyz
  1  'x, y, z'
loop_
 _atom_site_type_symbol
 _atom_site_label
 _atom_site_symmetry_multiplicity
 _atom_site_fract_x
 _atom_site_fract_y
 _atom_site_fract_z
 _atom_site_occupancy
  Li  Li0  1  0.340629  0.161481  0.229904  1
  Li  Li1  1  0.659371  0.161481  0.729904  1
  Li  Li2  1  0.829952  0.917697  0.476550  1
  Li  Li3  1  0.170048  0.917697  0.976550  1
  Mg  Mg4  1  0.173112  0.418342  0.473519  1
  Mg  Mg5  1  0.826888  0.418342  0.973519  1
  Sn  Sn6  1  0.671227  0.665747  0.228119  1
  Sn  Sn7  1  0.328773  0.665747  0.728119  1
  Se  Se8  1  0.338447  0.545582  0.223005  1
  Se  Se9  1  0.661553  0.545582  0.723005  1
  Se  Se10  1  0.833488  0.294008  0.476046  1
  Se  Se11  1  0.166512  0.294008  0.976046  1
  Se  Se12  1  0.834311  0.792188  0.979630  1
  Se  Se13  1  0.165689  0.792188  0.479630  1
  Se  Se14  1  0.675496  0.039884  0.228327  1
  Se  Se15  1  0.324504  0.039884  0.728327  1
