# generated using pymatgen
data_Sm8SiPt24
_symmetry_space_group_name_H-M   'P 1'
_cell_length_a   8.42555900
_cell_length_b   8.41327300
_cell_length_c   8.44859500
_cell_angle_alpha   90.00000000
_cell_angle_beta   90.00000000
_cell_angle_gamma   90.00000000
_symmetry_Int_Tables_number   1
_chemical_formula_structural   Sm8SiPt24
_chemical_formula_sum   'Sm8 Si1 Pt24'
_cell_volume   598.89156641
_cell_formula_units_Z   1
loop_
 _symmetry_equiv_pos_site_id
 _symmetry_equiv_pos_as_xyz
  1  'x, y, z'
loop_
 _atom_site_type_symbol
 _atom_site_label
 _atom_site_symmetry_multiplicity
 _atom_site_fract_x
 _atom_site_fract_y
 _atom_site_fract_z
 _atom_site_occupancy
  Sm  Sm0  1  0.252599  0.252694  0.252649  1
  Sm  Sm1  1  0.747401  0.747306  0.747351  1
  Sm  Sm2  1  0.747401  0.747306  0.252649  1
  Sm  Sm3  1  0.747401  0.252694  0.747351  1
  Sm  Sm4  1  0.252599  0.252694  0.747351  1
  Sm  Sm5  1  0.252599  0.747306  0.252649  1
  Sm  Sm6  1  0.252599  0.747306  0.747351  1
  Sm  Sm7  1  0.747401  0.252694  0.252649  1
  Si  Si8  1  0.000000  0.000000  0.000000  1
  Pt  Pt9  1  0.500000  0.000000  0.258335  1
  Pt  Pt10  1  0.258259  0.000000  0.500000  1
  Pt  Pt11  1  0.500000  0.000000  0.741665  1
  Pt  Pt12  1  0.741741  0.000000  0.500000  1
  Pt  Pt13  1  0.000000  0.500000  0.258288  1
  Pt  Pt14  1  0.000000  0.500000  0.741712  1
  Pt  Pt15  1  0.500000  0.252559  0.500000  1
  Pt  Pt16  1  0.500000  0.747441  0.500000  1
  Pt  Pt17  1  0.500000  0.500000  0.252426  1
  Pt  Pt18  1  0.500000  0.500000  0.747574  1
  Pt  Pt19  1  0.258423  0.500000  0.000000  1
  Pt  Pt20  1  0.741577  0.500000  0.000000  1
  Pt  Pt21  1  0.000000  0.258052  0.500000  1
  Pt  Pt22  1  0.500000  0.258309  0.000000  1
  Pt  Pt23  1  0.000000  0.741948  0.500000  1
  Pt  Pt24  1  0.500000  0.741691  0.000000  1
  Pt  Pt25  1  0.252208  0.500000  0.500000  1
  Pt  Pt26  1  0.747792  0.500000  0.500000  1
  Pt  Pt27  1  0.282725  0.000000  0.000000  1
  Pt  Pt28  1  0.717275  0.000000  0.000000  1
  Pt  Pt29  1  0.000000  0.282683  0.000000  1
  Pt  Pt30  1  0.000000  0.717317  0.000000  1
  Pt  Pt31  1  0.000000  0.000000  0.282305  1
  Pt  Pt32  1  0.000000  0.000000  0.717695  1
