# generated using pymatgen
data_Nb4Ge2B4IrRu9
_symmetry_space_group_name_H-M   'P 1'
_cell_length_a   9.39462840
_cell_length_b   9.39275840
_cell_length_c   2.96597600
_cell_angle_alpha   90.00000000
_cell_angle_beta   90.00000000
_cell_angle_gamma   90.03354053
_symmetry_Int_Tables_number   1
_chemical_formula_structural   Nb4Ge2B4IrRu9
_chemical_formula_sum   'Nb4 Ge2 B4 Ir1 Ru9'
_cell_volume   261.72205181
_cell_formula_units_Z   1
loop_
 _symmetry_equiv_pos_site_id
 _symmetry_equiv_pos_as_xyz
  1  'x, y, z'
loop_
 _atom_site_type_symbol
 _atom_site_label
 _atom_site_symmetry_multiplicity
 _atom_site_fract_x
 _atom_site_fract_y
 _atom_site_fract_z
 _atom_site_occupancy
  Nb  Nb0  1  0.826691  0.676565  0.000000  1
  Nb  Nb1  1  0.176964  0.322526  0.000000  1
  Nb  Nb2  1  0.319414  0.824948  0.000000  1
  Nb  Nb3  1  0.677160  0.177419  0.000000  1
  Ge  Ge4  1  0.498338  0.494340  0.000000  1
  Ge  Ge5  1  0.000414  0.000479  0.000000  1
  B  B6  1  0.625172  0.880240  0.000000  1
  B  B7  1  0.374746  0.123311  0.000000  1
  B  B8  1  0.123767  0.624023  0.000000  1
  B  B9  1  0.876447  0.375820  0.000000  1
  Ir  Ir10  1  0.568123  0.715278  0.500000  1
  Ru  Ru11  1  0.432152  0.283213  0.500000  1
  Ru  Ru12  1  0.067651  0.785138  0.500000  1
  Ru  Ru13  1  0.931142  0.214951  0.500000  1
  Ru  Ru14  1  0.286984  0.569208  0.500000  1
  Ru  Ru15  1  0.714418  0.434731  0.500000  1
  Ru  Ru16  1  0.214468  0.067704  0.500000  1
  Ru  Ru17  1  0.785360  0.931268  0.500000  1
  Ru  Ru18  1  0.499435  0.999324  0.500000  1
  Ru  Ru19  1  0.001153  0.499515  0.500000  1
