# generated using pymatgen
data_Ba4Ho(ReO6)2
_symmetry_space_group_name_H-M   'P 1'
_cell_length_a   10.12704564
_cell_length_b   10.12704552
_cell_length_c   10.12704580
_cell_angle_alpha   33.83393073
_cell_angle_beta   33.83393140
_cell_angle_gamma   33.83393151
_symmetry_Int_Tables_number   1
_chemical_formula_structural   Ba4Ho(ReO6)2
_chemical_formula_sum   'Ba4 Ho1 Re2 O12'
_cell_volume   286.92520830
_cell_formula_units_Z   1
loop_
 _symmetry_equiv_pos_site_id
 _symmetry_equiv_pos_as_xyz
  1  'x, y, z'
loop_
 _atom_site_type_symbol
 _atom_site_label
 _atom_site_symmetry_multiplicity
 _atom_site_fract_x
 _atom_site_fract_y
 _atom_site_fract_z
 _atom_site_occupancy
  Ba  Ba0  1  0.711177  0.711177  0.711177  1
  Ba  Ba1  1  0.288823  0.288823  0.288823  1
  Ba  Ba2  1  0.866376  0.866376  0.866376  1
  Ba  Ba3  1  0.133624  0.133624  0.133624  1
  Ho  Ho4  1  0.000000  0.000000  0.000000  1
  Re  Re5  1  0.579043  0.579043  0.579043  1
  Re  Re6  1  0.420957  0.420957  0.420957  1
  O  O7  1  0.223805  0.686789  0.223805  1
  O  O8  1  0.223805  0.223805  0.686789  1
  O  O9  1  0.686789  0.223805  0.223805  1
  O  O10  1  0.776195  0.313211  0.776195  1
  O  O11  1  0.776195  0.776195  0.313211  1
  O  O12  1  0.313211  0.776195  0.776195  1
  O  O13  1  0.388980  0.858469  0.388980  1
  O  O14  1  0.388980  0.388980  0.858469  1
  O  O15  1  0.858469  0.388980  0.388980  1
  O  O16  1  0.611020  0.141531  0.611020  1
  O  O17  1  0.611020  0.611020  0.141531  1
  O  O18  1  0.141531  0.611020  0.611020  1
