# generated using pymatgen
data_Th2Mn3Co7Ni2P7
_symmetry_space_group_name_H-M   'P 1'
_cell_length_a   9.11277302
_cell_length_b   9.11967977
_cell_length_c   3.72345200
_cell_angle_alpha   90.00000000
_cell_angle_beta   90.00000000
_cell_angle_gamma   119.99163511
_symmetry_Int_Tables_number   1
_chemical_formula_structural   Th2Mn3Co7Ni2P7
_chemical_formula_sum   'Th2 Mn3 Co7 Ni2 P7'
_cell_volume   268.00514646
_cell_formula_units_Z   1
loop_
 _symmetry_equiv_pos_site_id
 _symmetry_equiv_pos_as_xyz
  1  'x, y, z'
loop_
 _atom_site_type_symbol
 _atom_site_label
 _atom_site_symmetry_multiplicity
 _atom_site_fract_x
 _atom_site_fract_y
 _atom_site_fract_z
 _atom_site_occupancy
  Th  Th0  1  0.333695  0.668078  0.000000  1
  Th  Th1  1  0.001791  0.999735  0.500000  1
  Mn  Mn2  1  0.783121  0.237999  0.500000  1
  Mn  Mn3  1  0.761887  0.543926  0.500000  1
  Mn  Mn4  1  0.451148  0.215304  0.500000  1
  Co  Co5  1  0.232883  0.964298  0.000000  1
  Co  Co6  1  0.544421  0.059005  0.000000  1
  Co  Co7  1  0.941651  0.485929  0.000000  1
  Co  Co8  1  0.514652  0.456452  0.000000  1
  Co  Co9  1  0.615963  0.900786  0.500000  1
  Co  Co10  1  0.099345  0.715517  0.500000  1
  Co  Co11  1  0.283505  0.383191  0.500000  1
  Ni  Ni12  1  0.037983  0.270129  0.000000  1
  Ni  Ni13  1  0.730474  0.766544  0.000000  1
  P  P14  1  0.767997  0.033520  0.000000  1
  P  P15  1  0.969380  0.736592  0.000000  1
  P  P16  1  0.267912  0.229184  0.000000  1
  P  P17  1  0.375092  0.938726  0.500000  1
  P  P18  1  0.063399  0.441118  0.500000  1
  P  P19  1  0.558485  0.621275  0.500000  1
  P  P20  1  0.665215  0.332692  0.000000  1
