# generated using pymatgen
data_Tb2HoPa(InPd2)2
_symmetry_space_group_name_H-M   'P 1'
_cell_length_a   7.80952226
_cell_length_b   7.80952158
_cell_length_c   3.68082700
_cell_angle_alpha   90.00000000
_cell_angle_beta   90.00000000
_cell_angle_gamma   91.59518919
_symmetry_Int_Tables_number   1
_chemical_formula_structural   Tb2HoPa(InPd2)2
_chemical_formula_sum   'Tb2 Ho1 Pa1 In2 Pd4'
_cell_volume   224.40160649
_cell_formula_units_Z   1
loop_
 _symmetry_equiv_pos_site_id
 _symmetry_equiv_pos_as_xyz
  1  'x, y, z'
loop_
 _atom_site_type_symbol
 _atom_site_label
 _atom_site_symmetry_multiplicity
 _atom_site_fract_x
 _atom_site_fract_y
 _atom_site_fract_z
 _atom_site_occupancy
  Tb  Tb0  1  0.825217  0.669910  0.500000  1
  Tb  Tb1  1  0.169910  0.325217  0.500000  1
  Ho  Ho2  1  0.675382  0.175382  0.500000  1
  Pa  Pa3  1  0.330847  0.830847  0.500000  1
  In  In4  1  0.996024  0.999608  0.000000  1
  In  In5  1  0.499608  0.496024  0.000000  1
  Pd  Pd6  1  0.369022  0.118332  0.000000  1
  Pd  Pd7  1  0.876105  0.376105  0.000000  1
  Pd  Pd8  1  0.139553  0.639553  0.000000  1
  Pd  Pd9  1  0.618332  0.869022  0.000000  1
