# generated using pymatgen
data_Sc3CO2
_symmetry_space_group_name_H-M   'P 1'
_cell_length_a   5.57899893
_cell_length_b   3.22319693
_cell_length_c   5.58412005
_cell_angle_alpha   73.15506015
_cell_angle_beta   120.24122826
_cell_angle_gamma   73.23849279
_symmetry_Int_Tables_number   1
_chemical_formula_structural   Sc3CO2
_chemical_formula_sum   'Sc3 C1 O2'
_cell_volume   70.64984024
_cell_formula_units_Z   1
loop_
 _symmetry_equiv_pos_site_id
 _symmetry_equiv_pos_as_xyz
  1  'x, y, z'
loop_
 _atom_site_type_symbol
 _atom_site_label
 _atom_site_symmetry_multiplicity
 _atom_site_fract_x
 _atom_site_fract_y
 _atom_site_fract_z
 _atom_site_occupancy
  Sc  Sc0  1  0.355348  0.307861  0.282133  1
  Sc  Sc1  1  0.694696  0.306936  0.942464  1
  Sc  Sc2  1  0.016144  0.308688  0.621908  1
  C  C3  1  0.855458  0.807886  0.782249  1
  O  O4  1  0.521876  0.808401  0.115270  1
  O  O5  1  0.188589  0.807462  0.448777  1
