# generated using pymatgen
data_Tb2SmAl2Co9B4
_symmetry_space_group_name_H-M   'P 1'
_cell_length_a   5.18087904
_cell_length_b   5.18037210
_cell_length_c   9.58984100
_cell_angle_alpha   89.99985310
_cell_angle_beta   89.99995844
_cell_angle_gamma   120.00030605
_symmetry_Int_Tables_number   1
_chemical_formula_structural   Tb2SmAl2Co9B4
_chemical_formula_sum   'Tb2 Sm1 Al2 Co9 B4'
_cell_volume   222.89745381
_cell_formula_units_Z   1
loop_
 _symmetry_equiv_pos_site_id
 _symmetry_equiv_pos_as_xyz
  1  'x, y, z'
loop_
 _atom_site_type_symbol
 _atom_site_label
 _atom_site_symmetry_multiplicity
 _atom_site_fract_x
 _atom_site_fract_y
 _atom_site_fract_z
 _atom_site_occupancy
  Tb  Tb0  1  0.000003  0.000009  0.340542  1
  Tb  Tb1  1  0.999993  0.999994  0.659577  1
  Sm  Sm2  1  0.999985  0.999995  0.000096  1
  Al  Al3  1  0.333420  0.666679  0.999957  1
  Al  Al4  1  0.666560  0.333314  0.999957  1
  Co  Co5  1  0.499996  0.000001  0.500026  1
  Co  Co6  1  0.499997  0.500002  0.500016  1
  Co  Co7  1  0.999996  0.500001  0.500007  1
  Co  Co8  1  0.499999  0.000004  0.207721  1
  Co  Co9  1  0.500001  0.500009  0.207777  1
  Co  Co10  1  0.999997  0.500006  0.207727  1
  Co  Co11  1  0.499991  0.999995  0.792219  1
  Co  Co12  1  0.499990  0.499993  0.792183  1
  Co  Co13  1  0.999991  0.499993  0.792248  1
  B  B14  1  0.333322  0.666719  0.349369  1
  B  B15  1  0.666672  0.333289  0.349369  1
  B  B16  1  0.666729  0.333331  0.650606  1
  B  B17  1  0.333259  0.666663  0.650606  1
