# generated using pymatgen
data_Ce8Ta3Si16Mo9
_symmetry_space_group_name_H-M   'P 1'
_cell_length_a   6.90820054
_cell_length_b   7.02837073
_cell_length_c   13.10444600
_cell_angle_alpha   90.00000000
_cell_angle_beta   90.00000000
_cell_angle_gamma   89.99322676
_symmetry_Int_Tables_number   1
_chemical_formula_structural   Ce8Ta3Si16Mo9
_chemical_formula_sum   'Ce8 Ta3 Si16 Mo9'
_cell_volume   636.26533153
_cell_formula_units_Z   1
loop_
 _symmetry_equiv_pos_site_id
 _symmetry_equiv_pos_as_xyz
  1  'x, y, z'
loop_
 _atom_site_type_symbol
 _atom_site_label
 _atom_site_symmetry_multiplicity
 _atom_site_fract_x
 _atom_site_fract_y
 _atom_site_fract_z
 _atom_site_occupancy
  Ce  Ce0  1  0.496516  0.337004  0.093148  1
  Ce  Ce1  1  0.996991  0.163393  0.406733  1
  Ce  Ce2  1  0.503007  0.663831  0.592367  1
  Ce  Ce3  1  0.002622  0.835381  0.907146  1
  Ce  Ce4  1  0.503007  0.663831  0.907633  1
  Ce  Ce5  1  0.002622  0.835381  0.592854  1
  Ce  Ce6  1  0.496516  0.337004  0.406852  1
  Ce  Ce7  1  0.996991  0.163393  0.093267  1
  Ta  Ta8  1  0.665555  0.004021  0.750000  1
  Ta  Ta9  1  0.165257  0.495853  0.750000  1
  Ta  Ta10  1  0.333668  0.996773  0.250000  1
  Si  Si11  1  0.657365  0.044338  0.544751  1
  Si  Si12  1  0.157253  0.455606  0.955185  1
  Si  Si13  1  0.343311  0.956561  0.045209  1
  Si  Si14  1  0.844021  0.545648  0.451813  1
  Si  Si15  1  0.343311  0.956561  0.454791  1
  Si  Si16  1  0.844021  0.545648  0.048187  1
  Si  Si17  1  0.657365  0.044338  0.955249  1
  Si  Si18  1  0.157253  0.455606  0.544815  1
  Si  Si19  1  0.541150  0.368864  0.750000  1
  Si  Si20  1  0.039783  0.130955  0.750000  1
  Si  Si21  1  0.463365  0.631116  0.250000  1
  Si  Si22  1  0.957086  0.861015  0.250000  1
  Si  Si23  1  0.801896  0.624732  0.750000  1
  Si  Si24  1  0.302917  0.874537  0.750000  1
  Si  Si25  1  0.192939  0.377301  0.250000  1
  Si  Si26  1  0.696958  0.126607  0.250000  1
  Mo  Mo27  1  0.834815  0.332849  0.625323  1
  Mo  Mo28  1  0.334261  0.167482  0.873538  1
  Mo  Mo29  1  0.168610  0.667137  0.126762  1
  Mo  Mo30  1  0.664488  0.834879  0.373500  1
  Mo  Mo31  1  0.168610  0.667137  0.373238  1
  Mo  Mo32  1  0.664488  0.834879  0.126500  1
  Mo  Mo33  1  0.834815  0.332849  0.874677  1
  Mo  Mo34  1  0.334261  0.167482  0.626462  1
  Mo  Mo35  1  0.832904  0.500011  0.250000  1
