# generated using pymatgen
data_Eu2Dy(LuPt2)2
_symmetry_space_group_name_H-M   'P 1'
_cell_length_a   7.62665800
_cell_length_b   7.70362800
_cell_length_c   14.96232400
_cell_angle_alpha   90.00000000
_cell_angle_beta   90.00000000
_cell_angle_gamma   90.00000000
_symmetry_Int_Tables_number   1
_chemical_formula_structural   Eu2Dy(LuPt2)2
_chemical_formula_sum   'Eu8 Dy4 Lu8 Pt16'
_cell_volume   879.08046611
_cell_formula_units_Z   4
loop_
 _symmetry_equiv_pos_site_id
 _symmetry_equiv_pos_as_xyz
  1  'x, y, z'
loop_
 _atom_site_type_symbol
 _atom_site_label
 _atom_site_symmetry_multiplicity
 _atom_site_fract_x
 _atom_site_fract_y
 _atom_site_fract_z
 _atom_site_occupancy
  Eu  Eu0  1  0.997769  0.820181  0.403946  1
  Eu  Eu1  1  0.497784  0.679852  0.096043  1
  Eu  Eu2  1  0.502216  0.320148  0.596043  1
  Eu  Eu3  1  0.002231  0.179819  0.903946  1
  Eu  Eu4  1  0.000111  0.179130  0.594220  1
  Eu  Eu5  1  0.500107  0.320885  0.905786  1
  Eu  Eu6  1  0.499893  0.679115  0.405786  1
  Eu  Eu7  1  0.999889  0.820870  0.094220  1
  Dy  Dy8  1  0.343570  0.165014  0.377683  1
  Dy  Dy9  1  0.843572  0.334982  0.122313  1
  Dy  Dy10  1  0.156428  0.665018  0.622313  1
  Dy  Dy11  1  0.656430  0.834986  0.877683  1
  Lu  Lu12  1  0.680058  0.992211  0.250083  1
  Lu  Lu13  1  0.180045  0.507795  0.249928  1
  Lu  Lu14  1  0.819955  0.492205  0.749928  1
  Lu  Lu15  1  0.319942  0.007789  0.750083  1
  Lu  Lu16  1  0.657474  0.833960  0.624640  1
  Lu  Lu17  1  0.157461  0.666028  0.875358  1
  Lu  Lu18  1  0.842539  0.333972  0.375358  1
  Lu  Lu19  1  0.342526  0.166040  0.124640  1
  Pt  Pt20  1  0.812406  0.628373  0.250820  1
  Pt  Pt21  1  0.312365  0.871651  0.249205  1
  Pt  Pt22  1  0.687635  0.128349  0.749205  1
  Pt  Pt23  1  0.187594  0.371627  0.750820  1
  Pt  Pt24  1  0.544546  0.366483  0.249971  1
  Pt  Pt25  1  0.044526  0.133500  0.250036  1
  Pt  Pt26  1  0.955474  0.866500  0.750036  1
  Pt  Pt27  1  0.455454  0.633517  0.749971  1
  Pt  Pt28  1  0.826187  0.541354  0.547238  1
  Pt  Pt29  1  0.326127  0.958691  0.952750  1
  Pt  Pt30  1  0.673873  0.041309  0.452750  1
  Pt  Pt31  1  0.173813  0.458646  0.047238  1
  Pt  Pt32  1  0.164529  0.460419  0.450200  1
  Pt  Pt33  1  0.664558  0.039623  0.049780  1
  Pt  Pt34  1  0.335442  0.960377  0.549780  1
  Pt  Pt35  1  0.835471  0.539581  0.950200  1
