# generated using pymatgen
data_Er16NiAg4Rh3
_symmetry_space_group_name_H-M   'P 1'
_cell_length_a   9.45502625
_cell_length_b   9.40406116
_cell_length_c   9.45502700
_cell_angle_alpha   59.82056353
_cell_angle_beta   60.00000088
_cell_angle_gamma   59.82056933
_symmetry_Int_Tables_number   1
_chemical_formula_structural   Er16NiAg4Rh3
_chemical_formula_sum   'Er16 Ni1 Ag4 Rh3'
_cell_volume   592.84717724
_cell_formula_units_Z   1
loop_
 _symmetry_equiv_pos_site_id
 _symmetry_equiv_pos_as_xyz
  1  'x, y, z'
loop_
 _atom_site_type_symbol
 _atom_site_label
 _atom_site_symmetry_multiplicity
 _atom_site_fract_x
 _atom_site_fract_y
 _atom_site_fract_z
 _atom_site_occupancy
  Er  Er0  1  0.185868  0.190581  0.811776  1
  Er  Er1  1  0.435387  0.063830  0.065396  1
  Er  Er2  1  0.435387  0.063830  0.435387  1
  Er  Er3  1  0.065563  0.435132  0.065563  1
  Er  Er4  1  0.645271  0.064187  0.645271  1
  Er  Er5  1  0.188258  0.810689  0.812795  1
  Er  Er6  1  0.065396  0.063830  0.435387  1
  Er  Er7  1  0.811776  0.190581  0.185868  1
  Er  Er8  1  0.812795  0.810689  0.188258  1
  Er  Er9  1  0.650581  0.642871  0.055967  1
  Er  Er10  1  0.650581  0.642871  0.650581  1
  Er  Er11  1  0.065563  0.435132  0.433742  1
  Er  Er12  1  0.055967  0.642871  0.650581  1
  Er  Er13  1  0.811776  0.190581  0.811776  1
  Er  Er14  1  0.433742  0.435132  0.065563  1
  Er  Er15  1  0.188258  0.810689  0.188258  1
  Ni  Ni16  1  0.857465  0.427605  0.857465  1
  Ag  Ag17  1  0.417450  0.747650  0.417450  1
  Ag  Ag18  1  0.416524  0.419676  0.747277  1
  Ag  Ag19  1  0.747277  0.419676  0.416524  1
  Ag  Ag20  1  0.416524  0.419676  0.416524  1
  Rh  Rh21  1  0.855964  0.857407  0.430666  1
  Rh  Rh22  1  0.430666  0.857407  0.855964  1
  Rh  Rh23  1  0.855964  0.857407  0.855964  1
