# generated using pymatgen
data_Ce4HoIrPb3
_symmetry_space_group_name_H-M   'P 1'
_cell_length_a   9.62918009
_cell_length_b   9.62918224
_cell_length_c   6.43710400
_cell_angle_alpha   90.00000000
_cell_angle_beta   90.00000000
_cell_angle_gamma   119.48276902
_symmetry_Int_Tables_number   1
_chemical_formula_structural   Ce4HoIrPb3
_chemical_formula_sum   'Ce8 Ho2 Ir2 Pb6'
_cell_volume   519.56499804
_cell_formula_units_Z   2
loop_
 _symmetry_equiv_pos_site_id
 _symmetry_equiv_pos_as_xyz
  1  'x, y, z'
loop_
 _atom_site_type_symbol
 _atom_site_label
 _atom_site_symmetry_multiplicity
 _atom_site_fract_x
 _atom_site_fract_y
 _atom_site_fract_z
 _atom_site_occupancy
  Ce  Ce0  1  0.240370  0.000268  0.250000  1
  Ce  Ce1  1  0.759630  0.999732  0.750000  1
  Ce  Ce2  1  0.333004  0.666996  0.500000  1
  Ce  Ce3  1  0.666996  0.333004  0.500000  1
  Ce  Ce4  1  0.000268  0.240370  0.250000  1
  Ce  Ce5  1  0.999732  0.759630  0.750000  1
  Ce  Ce6  1  0.333004  0.666996  0.000000  1
  Ce  Ce7  1  0.666996  0.333004  0.000000  1
  Ho  Ho8  1  0.245427  0.245427  0.750000  1
  Ho  Ho9  1  0.754573  0.754573  0.250000  1
  Ir  Ir10  1  0.000000  0.000000  0.000000  1
  Ir  Ir11  1  0.000000  0.000000  0.500000  1
  Pb  Pb12  1  0.399381  0.399381  0.250000  1
  Pb  Pb13  1  0.600619  0.600619  0.750000  1
  Pb  Pb14  1  0.001517  0.397385  0.750000  1
  Pb  Pb15  1  0.602615  0.998483  0.250000  1
  Pb  Pb16  1  0.397385  0.001517  0.750000  1
  Pb  Pb17  1  0.998483  0.602615  0.250000  1
