# generated using pymatgen
data_Lu3Sb3Ir2Ru
_symmetry_space_group_name_H-M   'P 1'
_cell_length_a   7.38833900
_cell_length_b   7.38833989
_cell_length_c   3.89861300
_cell_angle_alpha   90.00000000
_cell_angle_beta   90.00000000
_cell_angle_gamma   120.00000051
_symmetry_Int_Tables_number   1
_chemical_formula_structural   Lu3Sb3Ir2Ru
_chemical_formula_sum   'Lu3 Sb3 Ir2 Ru1'
_cell_volume   184.30386218
_cell_formula_units_Z   1
loop_
 _symmetry_equiv_pos_site_id
 _symmetry_equiv_pos_as_xyz
  1  'x, y, z'
loop_
 _atom_site_type_symbol
 _atom_site_label
 _atom_site_symmetry_multiplicity
 _atom_site_fract_x
 _atom_site_fract_y
 _atom_site_fract_z
 _atom_site_occupancy
  Lu  Lu0  1  0.000000  0.401379  0.500000  1
  Lu  Lu1  1  0.598621  0.598621  0.500000  1
  Lu  Lu2  1  0.401379  0.000000  0.500000  1
  Sb  Sb3  1  0.000000  0.736744  0.000000  1
  Sb  Sb4  1  0.263256  0.263256  0.000000  1
  Sb  Sb5  1  0.736744  0.000000  0.000000  1
  Ir  Ir6  1  0.333333  0.666667  0.000000  1
  Ir  Ir7  1  0.666667  0.333333  0.000000  1
  Ru  Ru8  1  0.000000  0.000000  0.500000  1
