# generated using pymatgen
data_Dy16CdNi4Hg3
_symmetry_space_group_name_H-M   'P 1'
_cell_length_a   9.51680221
_cell_length_b   9.51137609
_cell_length_c   9.51137600
_cell_angle_alpha   60.00000030
_cell_angle_beta   60.01885934
_cell_angle_gamma   60.01885854
_symmetry_Int_Tables_number   1
_chemical_formula_structural   Dy16CdNi4Hg3
_chemical_formula_sum   'Dy16 Cd1 Ni4 Hg3'
_cell_volume   608.95680697
_cell_formula_units_Z   1
loop_
 _symmetry_equiv_pos_site_id
 _symmetry_equiv_pos_as_xyz
  1  'x, y, z'
loop_
 _atom_site_type_symbol
 _atom_site_label
 _atom_site_symmetry_multiplicity
 _atom_site_fract_x
 _atom_site_fract_y
 _atom_site_fract_z
 _atom_site_occupancy
  Dy  Dy0  1  0.600022  0.599071  0.599071  1
  Dy  Dy1  1  0.600022  0.599071  0.201837  1
  Dy  Dy2  1  0.600022  0.201837  0.599071  1
  Dy  Dy3  1  0.199920  0.600027  0.600027  1
  Dy  Dy4  1  0.060716  0.438861  0.438861  1
  Dy  Dy5  1  0.437289  0.062065  0.062065  1
  Dy  Dy6  1  0.437289  0.062065  0.438581  1
  Dy  Dy7  1  0.060716  0.438861  0.061563  1
  Dy  Dy8  1  0.437289  0.438581  0.062065  1
  Dy  Dy9  1  0.060716  0.061563  0.438861  1
  Dy  Dy10  1  0.184894  0.814175  0.814175  1
  Dy  Dy11  1  0.812911  0.186629  0.186629  1
  Dy  Dy12  1  0.812911  0.186629  0.813831  1
  Dy  Dy13  1  0.184894  0.814175  0.186756  1
  Dy  Dy14  1  0.812911  0.813831  0.186629  1
  Dy  Dy15  1  0.184894  0.186756  0.814175  1
  Cd  Cd16  1  0.508644  0.830452  0.830452  1
  Ni  Ni17  1  0.392357  0.392430  0.392430  1
  Ni  Ni18  1  0.392357  0.392430  0.822784  1
  Ni  Ni19  1  0.392357  0.822784  0.392430  1
  Ni  Ni20  1  0.822893  0.392369  0.392369  1
  Hg  Hg21  1  0.834660  0.835668  0.835668  1
  Hg  Hg22  1  0.834660  0.835668  0.494004  1
  Hg  Hg23  1  0.834660  0.494004  0.835668  1
