# generated using pymatgen
data_Ca6Sb7Pd16Au
_symmetry_space_group_name_H-M   'P 1'
_cell_length_a   9.39444026
_cell_length_b   9.39443982
_cell_length_c   9.39443900
_cell_angle_alpha   59.99999936
_cell_angle_beta   60.00000093
_cell_angle_gamma   60.00000109
_symmetry_Int_Tables_number   1
_chemical_formula_structural   Ca6Sb7Pd16Au
_chemical_formula_sum   'Ca6 Sb7 Pd16 Au1'
_cell_volume   586.26997834
_cell_formula_units_Z   1
loop_
 _symmetry_equiv_pos_site_id
 _symmetry_equiv_pos_as_xyz
  1  'x, y, z'
loop_
 _atom_site_type_symbol
 _atom_site_label
 _atom_site_symmetry_multiplicity
 _atom_site_fract_x
 _atom_site_fract_y
 _atom_site_fract_z
 _atom_site_occupancy
  Ca  Ca0  1  0.720676  0.279324  0.279324  1
  Ca  Ca1  1  0.279324  0.720676  0.720676  1
  Ca  Ca2  1  0.279324  0.720676  0.279324  1
  Ca  Ca3  1  0.720676  0.279324  0.720676  1
  Ca  Ca4  1  0.279324  0.279324  0.720676  1
  Ca  Ca5  1  0.720676  0.720676  0.279324  1
  Sb  Sb6  1  0.000000  0.000000  0.000000  1
  Sb  Sb7  1  0.500000  0.000000  0.000000  1
  Sb  Sb8  1  0.000000  0.500000  0.500000  1
  Sb  Sb9  1  0.000000  0.500000  0.000000  1
  Sb  Sb10  1  0.500000  0.000000  0.500000  1
  Sb  Sb11  1  0.000000  0.000000  0.500000  1
  Sb  Sb12  1  0.500000  0.500000  0.000000  1
  Pd  Pd13  1  0.118899  0.118899  0.118899  1
  Pd  Pd14  1  0.881101  0.881101  0.881101  1
  Pd  Pd15  1  0.118899  0.118899  0.643303  1
  Pd  Pd16  1  0.118899  0.643303  0.118899  1
  Pd  Pd17  1  0.881101  0.881101  0.356697  1
  Pd  Pd18  1  0.881101  0.356697  0.881101  1
  Pd  Pd19  1  0.643303  0.118899  0.118899  1
  Pd  Pd20  1  0.356697  0.881101  0.881101  1
  Pd  Pd21  1  0.331469  0.331469  0.331469  1
  Pd  Pd22  1  0.668531  0.668531  0.668531  1
  Pd  Pd23  1  0.331469  0.331469  0.005591  1
  Pd  Pd24  1  0.331469  0.005591  0.331469  1
  Pd  Pd25  1  0.668531  0.668531  0.994409  1
  Pd  Pd26  1  0.668531  0.994409  0.668531  1
  Pd  Pd27  1  0.005591  0.331469  0.331469  1
  Pd  Pd28  1  0.994409  0.668531  0.668531  1
  Au  Au29  1  0.500000  0.500000  0.500000  1
