# generated using pymatgen
data_UMo(P2O7)2
_symmetry_space_group_name_H-M   'P 1'
_cell_length_a   8.73010365
_cell_length_b   5.20409822
_cell_length_c   7.25590298
_cell_angle_alpha   73.38372055
_cell_angle_beta   89.39609573
_cell_angle_gamma   90.16345057
_symmetry_Int_Tables_number   1
_chemical_formula_structural   UMo(P2O7)2
_chemical_formula_sum   'U1 Mo1 P4 O14'
_cell_volume   315.86317729
_cell_formula_units_Z   1
loop_
 _symmetry_equiv_pos_site_id
 _symmetry_equiv_pos_as_xyz
  1  'x, y, z'
loop_
 _atom_site_type_symbol
 _atom_site_label
 _atom_site_symmetry_multiplicity
 _atom_site_fract_x
 _atom_site_fract_y
 _atom_site_fract_z
 _atom_site_occupancy
  U  U0  1  0.050653  0.792708  0.727313  1
  Mo  Mo1  1  0.550957  0.210173  0.273989  1
  P  P2  1  0.373624  0.608490  0.507949  1
  P  P3  1  0.295751  0.249643  0.892510  1
  P  P4  1  0.857095  0.387869  0.482361  1
  P  P5  1  0.775422  0.754582  0.113425  1
  O  O6  1  0.159453  0.436350  0.909063  1
  O  O7  1  0.227214  0.017325  0.823890  1
  O  O8  1  0.730258  0.998037  0.173734  1
  O  O9  1  0.387264  0.149798  0.071238  1
  O  O10  1  0.979986  0.164359  0.522164  1
  O  O11  1  0.696076  0.280236  0.491636  1
  O  O12  1  0.378122  0.433081  0.374516  1
  O  O13  1  0.648691  0.571189  0.085371  1
  O  O14  1  0.484732  0.839057  0.474280  1
  O  O15  1  0.407485  0.421092  0.726171  1
  O  O16  1  0.896923  0.577952  0.271434  1
  O  O17  1  0.882630  0.558288  0.623283  1
  O  O18  1  0.204648  0.709926  0.522653  1
  O  O19  1  0.885107  0.839846  0.933020  1
