# generated using pymatgen
data_Zr16AlCo4Tc3
_symmetry_space_group_name_H-M   'P 1'
_cell_length_a   8.73020660
_cell_length_b   8.76795970
_cell_length_c   8.76796000
_cell_angle_alpha   59.99999885
_cell_angle_beta   59.85684474
_cell_angle_gamma   59.85684045
_symmetry_Int_Tables_number   1
_chemical_formula_structural   Zr16AlCo4Tc3
_chemical_formula_sum   'Zr16 Al1 Co4 Tc3'
_cell_volume   473.54743787
_cell_formula_units_Z   1
loop_
 _symmetry_equiv_pos_site_id
 _symmetry_equiv_pos_as_xyz
  1  'x, y, z'
loop_
 _atom_site_type_symbol
 _atom_site_label
 _atom_site_symmetry_multiplicity
 _atom_site_fract_x
 _atom_site_fract_y
 _atom_site_fract_z
 _atom_site_occupancy
  Zr  Zr0  1  0.052417  0.649195  0.649195  1
  Zr  Zr1  1  0.647415  0.050409  0.651089  1
  Zr  Zr2  1  0.647415  0.651089  0.050409  1
  Zr  Zr3  1  0.647415  0.651089  0.651089  1
  Zr  Zr4  1  0.801540  0.805669  0.196395  1
  Zr  Zr5  1  0.199779  0.202494  0.798864  1
  Zr  Zr6  1  0.801540  0.196395  0.805669  1
  Zr  Zr7  1  0.199779  0.798864  0.202494  1
  Zr  Zr8  1  0.199779  0.798864  0.798864  1
  Zr  Zr9  1  0.801540  0.196395  0.196395  1
  Zr  Zr10  1  0.438026  0.434737  0.063619  1
  Zr  Zr11  1  0.074334  0.054455  0.435605  1
  Zr  Zr12  1  0.438026  0.063619  0.434737  1
  Zr  Zr13  1  0.074334  0.435605  0.054455  1
  Zr  Zr14  1  0.074334  0.435605  0.435605  1
  Zr  Zr15  1  0.438026  0.063619  0.063619  1
  Al  Al16  1  0.724227  0.425258  0.425258  1
  Co  Co17  1  0.420712  0.859762  0.859762  1
  Co  Co18  1  0.857171  0.422610  0.860109  1
  Co  Co19  1  0.857171  0.860109  0.422610  1
  Co  Co20  1  0.857171  0.860109  0.860109  1
  Tc  Tc21  1  0.415949  0.749609  0.417221  1
  Tc  Tc22  1  0.415949  0.417221  0.749609  1
  Tc  Tc23  1  0.415949  0.417221  0.417221  1
