# generated using pymatgen
data_Zr16Fe4ReRh3
_symmetry_space_group_name_H-M   'P 1'
_cell_length_a   8.69324609
_cell_length_b   8.69912487
_cell_length_c   8.69912600
_cell_angle_alpha   60.00000332
_cell_angle_beta   59.97763072
_cell_angle_gamma   59.97763300
_symmetry_Int_Tables_number   1
_chemical_formula_structural   Zr16Fe4ReRh3
_chemical_formula_sum   'Zr16 Fe4 Re1 Rh3'
_cell_volume   465.01959978
_cell_formula_units_Z   1
loop_
 _symmetry_equiv_pos_site_id
 _symmetry_equiv_pos_as_xyz
  1  'x, y, z'
loop_
 _atom_site_type_symbol
 _atom_site_label
 _atom_site_symmetry_multiplicity
 _atom_site_fract_x
 _atom_site_fract_y
 _atom_site_fract_z
 _atom_site_occupancy
  Zr  Zr0  1  0.060026  0.646658  0.646658  1
  Zr  Zr1  1  0.649721  0.052053  0.649113  1
  Zr  Zr2  1  0.649721  0.649113  0.052053  1
  Zr  Zr3  1  0.649721  0.649113  0.649113  1
  Zr  Zr4  1  0.803283  0.799272  0.198723  1
  Zr  Zr5  1  0.197901  0.198267  0.801916  1
  Zr  Zr6  1  0.803283  0.198723  0.799272  1
  Zr  Zr7  1  0.197901  0.801916  0.198267  1
  Zr  Zr8  1  0.197901  0.801916  0.801916  1
  Zr  Zr9  1  0.803283  0.198723  0.198723  1
  Zr  Zr10  1  0.437523  0.436976  0.062750  1
  Zr  Zr11  1  0.057508  0.067997  0.437247  1
  Zr  Zr12  1  0.437523  0.062750  0.436976  1
  Zr  Zr13  1  0.057508  0.437247  0.067997  1
  Zr  Zr14  1  0.057508  0.437247  0.437247  1
  Zr  Zr15  1  0.437523  0.062750  0.062750  1
  Fe  Fe16  1  0.416288  0.861237  0.861237  1
  Fe  Fe17  1  0.861706  0.419210  0.859541  1
  Fe  Fe18  1  0.861706  0.859541  0.419210  1
  Fe  Fe19  1  0.861706  0.859541  0.859541  1
  Re  Re20  1  0.741267  0.419578  0.419578  1
  Rh  Rh21  1  0.419831  0.749293  0.415439  1
  Rh  Rh22  1  0.419831  0.415439  0.749293  1
  Rh  Rh23  1  0.419831  0.415439  0.415439  1
