# generated using pymatgen
data_Ac9Pr7(YPb4)4
_symmetry_space_group_name_H-M   'P 1'
_cell_length_a   8.65607551
_cell_length_b   16.61319436
_cell_length_c   8.68632600
_cell_angle_alpha   90.17256500
_cell_angle_beta   90.21424222
_cell_angle_gamma   90.11006089
_symmetry_Int_Tables_number   1
_chemical_formula_structural   Ac9Pr7(YPb4)4
_chemical_formula_sum   'Ac9 Pr7 Y4 Pb16'
_cell_volume   1249.12094452
_cell_formula_units_Z   1
loop_
 _symmetry_equiv_pos_site_id
 _symmetry_equiv_pos_as_xyz
  1  'x, y, z'
loop_
 _atom_site_type_symbol
 _atom_site_label
 _atom_site_symmetry_multiplicity
 _atom_site_fract_x
 _atom_site_fract_y
 _atom_site_fract_z
 _atom_site_occupancy
  Ac  Ac0  1  0.127196  0.617590  0.343709  1
  Ac  Ac1  1  0.470004  0.598265  0.679016  1
  Ac  Ac2  1  0.971416  0.903549  0.822273  1
  Ac  Ac3  1  0.528486  0.098280  0.321924  1
  Ac  Ac4  1  0.030346  0.399591  0.177099  1
  Ac  Ac5  1  0.529097  0.400513  0.321963  1
  Ac  Ac6  1  0.028604  0.098545  0.177438  1
  Ac  Ac7  1  0.471698  0.902999  0.678626  1
  Ac  Ac8  1  0.970018  0.598373  0.822485  1
  Pr  Pr9  1  0.628746  0.620127  0.155348  1
  Pr  Pr10  1  0.129150  0.880191  0.344385  1
  Pr  Pr11  1  0.370447  0.120149  0.845028  1
  Pr  Pr12  1  0.871630  0.379120  0.655030  1
  Pr  Pr13  1  0.373798  0.377946  0.845998  1
  Pr  Pr14  1  0.871270  0.120795  0.655605  1
  Pr  Pr15  1  0.629248  0.881753  0.154660  1
  Y  Y16  1  0.789984  0.750975  0.496050  1
  Y  Y17  1  0.293085  0.750930  0.004365  1
  Y  Y18  1  0.208440  0.248959  0.504483  1
  Y  Y19  1  0.708629  0.249994  0.995376  1
  Pb  Pb20  1  0.711607  0.452418  0.962681  1
  Pb  Pb21  1  0.208335  0.047633  0.537837  1
  Pb  Pb22  1  0.290926  0.953183  0.038796  1
  Pb  Pb23  1  0.781608  0.546416  0.465559  1
  Pb  Pb24  1  0.294894  0.545890  0.030338  1
  Pb  Pb25  1  0.791669  0.952967  0.462221  1
  Pb  Pb26  1  0.708954  0.048294  0.960919  1
  Pb  Pb27  1  0.210371  0.447758  0.541419  1
  Pb  Pb28  1  0.436698  0.753002  0.367862  1
  Pb  Pb29  1  0.928924  0.752483  0.126109  1
  Pb  Pb30  1  0.567134  0.249533  0.632042  1
  Pb  Pb31  1  0.067455  0.249867  0.868384  1
  Pb  Pb32  1  0.661686  0.750840  0.853407  1
  Pb  Pb33  1  0.162294  0.752061  0.651422  1
  Pb  Pb34  1  0.338100  0.249353  0.147627  1
  Pb  Pb35  1  0.838049  0.249657  0.352516  1
