# generated using pymatgen
data_Sm2Tm2ReB12Ru
_symmetry_space_group_name_H-M   'P 1'
_cell_length_a   3.68185000
_cell_length_b   9.16645950
_cell_length_c   11.59331207
_cell_angle_alpha   89.82000221
_cell_angle_beta   90.00000000
_cell_angle_gamma   90.00000000
_symmetry_Int_Tables_number   1
_chemical_formula_structural   Sm2Tm2ReB12Ru
_chemical_formula_sum   'Sm4 Tm4 Re2 B24 Ru2'
_cell_volume   391.26689036
_cell_formula_units_Z   2
loop_
 _symmetry_equiv_pos_site_id
 _symmetry_equiv_pos_as_xyz
  1  'x, y, z'
loop_
 _atom_site_type_symbol
 _atom_site_label
 _atom_site_symmetry_multiplicity
 _atom_site_fract_x
 _atom_site_fract_y
 _atom_site_fract_z
 _atom_site_occupancy
  Sm  Sm0  1  0.000000  0.323901  0.415463  1
  Sm  Sm1  1  0.000000  0.676099  0.584537  1
  Sm  Sm2  1  0.000000  0.821335  0.086719  1
  Sm  Sm3  1  0.000000  0.178665  0.913281  1
  Tm  Tm4  1  0.000000  0.942968  0.370559  1
  Tm  Tm5  1  0.000000  0.057032  0.629441  1
  Tm  Tm6  1  0.000000  0.443151  0.129721  1
  Tm  Tm7  1  0.000000  0.556849  0.870279  1
  Re  Re8  1  0.000000  0.639528  0.318692  1
  Re  Re9  1  0.000000  0.360472  0.681308  1
  B  B10  1  0.500000  0.554480  0.431445  1
  B  B11  1  0.500000  0.445520  0.568555  1
  B  B12  1  0.500000  0.055349  0.068730  1
  B  B13  1  0.500000  0.944651  0.931270  1
  B  B14  1  0.500000  0.750366  0.417043  1
  B  B15  1  0.500000  0.249634  0.582957  1
  B  B16  1  0.500000  0.250078  0.083005  1
  B  B17  1  0.500000  0.749922  0.916995  1
  B  B18  1  0.500000  0.791987  0.265326  1
  B  B19  1  0.500000  0.208013  0.734674  1
  B  B20  1  0.500000  0.290871  0.234044  1
  B  B21  1  0.500000  0.709129  0.765956  1
  B  B22  1  0.500000  0.630224  0.184725  1
  B  B23  1  0.500000  0.369776  0.815275  1
  B  B24  1  0.500000  0.129842  0.314292  1
  B  B25  1  0.500000  0.870158  0.685708  1
  B  B26  1  0.500000  0.984147  0.212952  1
  B  B27  1  0.500000  0.015853  0.787048  1
  B  B28  1  0.500000  0.483454  0.286353  1
  B  B29  1  0.500000  0.516546  0.713647  1
  B  B30  1  0.500000  0.599703  0.027066  1
  B  B31  1  0.500000  0.400297  0.972934  1
  B  B32  1  0.500000  0.099319  0.472715  1
  B  B33  1  0.500000  0.900681  0.527285  1
  Ru  Ru34  1  0.000000  0.139102  0.180247  1
  Ru  Ru35  1  0.000000  0.860898  0.819753  1
