# generated using pymatgen
data_Th4Ga18(RuRh)3
_symmetry_space_group_name_H-M   'P 1'
_cell_length_a   7.67462559
_cell_length_b   7.67462491
_cell_length_c   9.58575430
_cell_angle_alpha   89.98561527
_cell_angle_beta   89.98560992
_cell_angle_gamma   119.23985806
_symmetry_Int_Tables_number   1
_chemical_formula_structural   Th4Ga18(RuRh)3
_chemical_formula_sum   'Th4 Ga18 Ru3 Rh3'
_cell_volume   492.65975560
_cell_formula_units_Z   1
loop_
 _symmetry_equiv_pos_site_id
 _symmetry_equiv_pos_as_xyz
  1  'x, y, z'
loop_
 _atom_site_type_symbol
 _atom_site_label
 _atom_site_symmetry_multiplicity
 _atom_site_fract_x
 _atom_site_fract_y
 _atom_site_fract_z
 _atom_site_occupancy
  Th  Th0  1  0.997738  0.673677  0.250717  1
  Th  Th1  1  0.000245  0.325552  0.749367  1
  Th  Th2  1  0.674448  0.999755  0.250633  1
  Th  Th3  1  0.326323  0.002262  0.749283  1
  Ga  Ga4  1  0.132378  0.132699  0.249930  1
  Ga  Ga5  1  0.867301  0.867622  0.750070  1
  Ga  Ga6  1  0.007640  0.336155  0.078421  1
  Ga  Ga7  1  0.992734  0.664145  0.921423  1
  Ga  Ga8  1  0.991219  0.662769  0.578088  1
  Ga  Ga9  1  0.337231  0.008781  0.421912  1
  Ga  Ga10  1  0.006942  0.336210  0.422099  1
  Ga  Ga11  1  0.663790  0.993058  0.577901  1
  Ga  Ga12  1  0.663845  0.992360  0.921578  1
  Ga  Ga13  1  0.335855  0.007266  0.078578  1
  Ga  Ga14  1  0.337158  0.335341  0.556956  1
  Ga  Ga15  1  0.664659  0.662842  0.443044  1
  Ga  Ga16  1  0.664806  0.664974  0.057684  1
  Ga  Ga17  1  0.335026  0.335194  0.942316  1
  Ga  Ga18  1  0.340462  0.546718  0.249872  1
  Ga  Ga19  1  0.659282  0.452926  0.749228  1
  Ga  Ga20  1  0.547074  0.340718  0.250772  1
  Ga  Ga21  1  0.453282  0.659538  0.750128  1
  Ru  Ru22  1  0.673417  0.326583  0.500000  1
  Ru  Ru23  1  0.000248  0.999752  0.000000  1
  Ru  Ru24  1  0.999817  0.000183  0.500000  1
  Rh  Rh25  1  0.672573  0.327427  0.000000  1
  Rh  Rh26  1  0.327438  0.672562  0.000000  1
  Rh  Rh27  1  0.327072  0.672928  0.500000  1
