# generated using pymatgen
data_K5Tl3Fe8P8(O7F2)4
_symmetry_space_group_name_H-M   'P 1'
_cell_length_a   6.94419900
_cell_length_b   10.57902200
_cell_length_c   11.41415900
_cell_angle_alpha   90.00000000
_cell_angle_beta   90.00000000
_cell_angle_gamma   90.00000000
_symmetry_Int_Tables_number   1
_chemical_formula_structural   K5Tl3Fe8P8(O7F2)4
_chemical_formula_sum   'K5 Tl3 Fe8 P8 O28 F8'
_cell_volume   838.51646779
_cell_formula_units_Z   1
loop_
 _symmetry_equiv_pos_site_id
 _symmetry_equiv_pos_as_xyz
  1  'x, y, z'
loop_
 _atom_site_type_symbol
 _atom_site_label
 _atom_site_symmetry_multiplicity
 _atom_site_fract_x
 _atom_site_fract_y
 _atom_site_fract_z
 _atom_site_occupancy
  K  K0  1  0.494098  0.431000  0.827548  1
  K  K1  1  0.498629  0.936112  0.172926  1
  K  K2  1  0.002297  0.436011  0.327339  1
  K  K3  1  0.997202  0.064455  0.327830  1
  K  K4  1  0.501219  0.564895  0.174730  1
  Tl  Tl5  1  0.507131  0.065435  0.826856  1
  Tl  Tl6  1  0.994152  0.567647  0.674820  1
  Tl  Tl7  1  0.007950  0.931148  0.673170  1
  Fe  Fe8  1  0.999429  0.251005  0.836457  1
  Fe  Fe9  1  0.499492  0.748060  0.663442  1
  Fe  Fe10  1  0.000103  0.749741  0.164323  1
  Fe  Fe11  1  0.498917  0.250491  0.335330  1
  Fe  Fe12  1  0.999531  0.000737  0.003242  1
  Fe  Fe13  1  0.501135  0.500560  0.497483  1
  Fe  Fe14  1  0.498529  0.999405  0.496383  1
  Fe  Fe15  1  0.001439  0.499791  0.002370  1
  P  P16  1  0.217250  0.249323  0.577617  1
  P  P17  1  0.284228  0.747832  0.923995  1
  P  P18  1  0.716523  0.750513  0.923735  1
  P  P19  1  0.783168  0.251427  0.577162  1
  P  P20  1  0.780506  0.752321  0.416662  1
  P  P21  1  0.718907  0.253525  0.082110  1
  P  P22  1  0.281809  0.249501  0.080553  1
  P  P23  1  0.219493  0.747557  0.416701  1
  O  O24  1  0.000308  0.250868  0.518710  1
  O  O25  1  0.500356  0.750645  0.983778  1
  O  O26  1  0.999843  0.749951  0.469646  1
  O  O27  1  0.500875  0.255821  0.025833  1
  O  O28  1  0.173447  0.328596  0.987947  1
  O  O29  1  0.326804  0.827057  0.509352  1
  O  O30  1  0.673281  0.672812  0.509318  1
  O  O31  1  0.827057  0.173275  0.990439  1
  O  O32  1  0.827317  0.670139  0.013704  1
  O  O33  1  0.673593  0.170883  0.486747  1
  O  O34  1  0.327089  0.329428  0.486985  1
  O  O35  1  0.172089  0.828312  0.013302  1
  O  O36  1  0.280035  0.110306  0.580562  1
  O  O37  1  0.223644  0.608576  0.920143  1
  O  O38  1  0.781147  0.889087  0.919271  1
  O  O39  1  0.719294  0.389952  0.581537  1
  O  O40  1  0.718109  0.891216  0.413885  1
  O  O41  1  0.783279  0.391874  0.086393  1
  O  O42  1  0.221815  0.110184  0.083163  1
  O  O43  1  0.281711  0.608679  0.414425  1
  O  O44  1  0.202432  0.308579  0.699591  1
  O  O45  1  0.301419  0.807699  0.802201  1
  O  O46  1  0.697386  0.689654  0.802762  1
  O  O47  1  0.799451  0.191822  0.699051  1
  O  O48  1  0.789382  0.691446  0.295192  1
  O  O49  1  0.705720  0.191445  0.202846  1
  O  O50  1  0.290606  0.309627  0.202306  1
  O  O51  1  0.210965  0.808249  0.295167  1
  F  F52  1  0.107149  0.075128  0.845829  1
  F  F53  1  0.395078  0.572332  0.655503  1
  F  F54  1  0.607048  0.924033  0.653327  1
  F  F55  1  0.878353  0.423498  0.847796  1
  F  F56  1  0.883111  0.923946  0.156474  1
  F  F57  1  0.618727  0.423301  0.344272  1
  F  F58  1  0.380973  0.076992  0.343512  1
  F  F59  1  0.117970  0.576098  0.156246  1
