# generated using pymatgen
data_Ce8ZnCo2Si12Rh
_symmetry_space_group_name_H-M   'P 1'
_cell_length_a   8.11302623
_cell_length_b   8.11039337
_cell_length_c   8.26164024
_cell_angle_alpha   90.02485842
_cell_angle_beta   89.97772706
_cell_angle_gamma   120.01676959
_symmetry_Int_Tables_number   1
_chemical_formula_structural   Ce8ZnCo2Si12Rh
_chemical_formula_sum   'Ce8 Zn1 Co2 Si12 Rh1'
_cell_volume   470.70438921
_cell_formula_units_Z   1
loop_
 _symmetry_equiv_pos_site_id
 _symmetry_equiv_pos_as_xyz
  1  'x, y, z'
loop_
 _atom_site_type_symbol
 _atom_site_label
 _atom_site_symmetry_multiplicity
 _atom_site_fract_x
 _atom_site_fract_y
 _atom_site_fract_z
 _atom_site_occupancy
  Ce  Ce0  1  0.999980  0.000021  0.250219  1
  Ce  Ce1  1  0.999972  0.000020  0.750291  1
  Ce  Ce2  1  0.504942  0.495088  0.246666  1
  Ce  Ce3  1  0.504929  0.009848  0.246642  1
  Ce  Ce4  1  0.990122  0.495069  0.246662  1
  Ce  Ce5  1  0.504883  0.495136  0.753238  1
  Ce  Ce6  1  0.504875  0.009753  0.753277  1
  Ce  Ce7  1  0.990213  0.495097  0.753234  1
  Zn  Zn8  1  0.333350  0.666717  0.495429  1
  Co  Co9  1  0.666653  0.333278  0.504426  1
  Co  Co10  1  0.666627  0.333262  0.998155  1
  Si  Si11  1  0.164351  0.835705  0.500657  1
  Si  Si12  1  0.164356  0.328604  0.500716  1
  Si  Si13  1  0.671325  0.835639  0.500652  1
  Si  Si14  1  0.828204  0.171739  0.499451  1
  Si  Si15  1  0.828218  0.656518  0.499549  1
  Si  Si16  1  0.343574  0.171798  0.499462  1
  Si  Si17  1  0.830344  0.169614  0.000170  1
  Si  Si18  1  0.830346  0.660755  0.000117  1
  Si  Si19  1  0.339295  0.169662  0.000167  1
  Si  Si20  1  0.165410  0.834629  0.000027  1
  Si  Si21  1  0.165414  0.330738  0.999995  1
  Si  Si22  1  0.669238  0.834594  0.000044  1
  Rh  Rh23  1  0.333376  0.666718  0.000753  1
