# generated using pymatgen
data_LaYbYGa8Ag3
_symmetry_space_group_name_H-M   'P 1'
_cell_length_a   4.39622542
_cell_length_b   8.44336052
_cell_length_c   8.44336108
_cell_angle_alpha   70.01476058
_cell_angle_beta   74.90997658
_cell_angle_gamma   74.90998745
_symmetry_Int_Tables_number   1
_chemical_formula_structural   LaYbYGa8Ag3
_chemical_formula_sum   'La1 Yb1 Y1 Ga8 Ag3'
_cell_volume   279.26180795
_cell_formula_units_Z   1
loop_
 _symmetry_equiv_pos_site_id
 _symmetry_equiv_pos_as_xyz
  1  'x, y, z'
loop_
 _atom_site_type_symbol
 _atom_site_label
 _atom_site_symmetry_multiplicity
 _atom_site_fract_x
 _atom_site_fract_y
 _atom_site_fract_z
 _atom_site_occupancy
  La  La0  1  0.999968  0.000032  0.000032  1
  Yb  Yb1  1  0.303619  0.696381  0.696381  1
  Y  Y2  1  0.699154  0.300846  0.300846  1
  Ga  Ga3  1  0.338301  0.292236  0.031160  1
  Ga  Ga4  1  0.663970  0.703218  0.968843  1
  Ga  Ga5  1  0.338301  0.031160  0.292236  1
  Ga  Ga6  1  0.663970  0.968843  0.703218  1
  Ga  Ga7  1  0.142986  0.574650  0.139378  1
  Ga  Ga8  1  0.854620  0.427535  0.863226  1
  Ga  Ga9  1  0.142986  0.139378  0.574650  1
  Ga  Ga10  1  0.854620  0.863226  0.427535  1
  Ag  Ag11  1  0.498940  0.305637  0.696484  1
  Ag  Ag12  1  0.498940  0.696484  0.305637  1
  Ag  Ag13  1  0.999627  0.500373  0.500373  1
