# generated using pymatgen
data_LiSm2Tm(B6Os)2
_symmetry_space_group_name_H-M   'P 1'
_cell_length_a   3.62255300
_cell_length_b   9.02254530
_cell_length_c   11.46707626
_cell_angle_alpha   89.76363489
_cell_angle_beta   90.00000000
_cell_angle_gamma   90.00000000
_symmetry_Int_Tables_number   1
_chemical_formula_structural   LiSm2Tm(B6Os)2
_chemical_formula_sum   'Li2 Sm4 Tm2 B24 Os4'
_cell_volume   374.79416813
_cell_formula_units_Z   2
loop_
 _symmetry_equiv_pos_site_id
 _symmetry_equiv_pos_as_xyz
  1  'x, y, z'
loop_
 _atom_site_type_symbol
 _atom_site_label
 _atom_site_symmetry_multiplicity
 _atom_site_fract_x
 _atom_site_fract_y
 _atom_site_fract_z
 _atom_site_occupancy
  Li  Li0  1  0.000000  0.945044  0.374432  1
  Li  Li1  1  0.000000  0.054956  0.625569  1
  Sm  Sm2  1  0.000000  0.315851  0.415954  1
  Sm  Sm3  1  0.000000  0.684149  0.584046  1
  Sm  Sm4  1  0.000000  0.824493  0.087694  1
  Sm  Sm5  1  0.000000  0.175507  0.912306  1
  Tm  Tm6  1  0.000000  0.442209  0.131771  1
  Tm  Tm7  1  0.000000  0.557791  0.868228  1
  B  B8  1  0.500000  0.555917  0.431968  1
  B  B9  1  0.500000  0.444083  0.568032  1
  B  B10  1  0.500000  0.054616  0.069636  1
  B  B11  1  0.500000  0.945384  0.930364  1
  B  B12  1  0.500000  0.759811  0.416454  1
  B  B13  1  0.500000  0.240189  0.583546  1
  B  B14  1  0.500000  0.249134  0.083839  1
  B  B15  1  0.500000  0.750866  0.916161  1
  B  B16  1  0.500000  0.795858  0.266168  1
  B  B17  1  0.500000  0.204142  0.733832  1
  B  B18  1  0.500000  0.288129  0.236235  1
  B  B19  1  0.500000  0.711870  0.763765  1
  B  B20  1  0.500000  0.631562  0.186946  1
  B  B21  1  0.500000  0.368438  0.813054  1
  B  B22  1  0.500000  0.122553  0.319058  1
  B  B23  1  0.500000  0.877447  0.680942  1
  B  B24  1  0.500000  0.980250  0.215822  1
  B  B25  1  0.500000  0.019750  0.784178  1
  B  B26  1  0.500000  0.483491  0.288573  1
  B  B27  1  0.500000  0.516509  0.711427  1
  B  B28  1  0.500000  0.599476  0.026850  1
  B  B29  1  0.500000  0.400524  0.973150  1
  B  B30  1  0.500000  0.090235  0.475026  1
  B  B31  1  0.500000  0.909765  0.524974  1
  Os  Os32  1  0.000000  0.642881  0.321673  1
  Os  Os33  1  0.000000  0.357119  0.678327  1
  Os  Os34  1  0.000000  0.136405  0.184564  1
  Os  Os35  1  0.000000  0.863595  0.815436  1
