# generated using pymatgen
data_Dy13Er3In4(IrRh)2
_symmetry_space_group_name_H-M   'P 1'
_cell_length_a   9.66337414
_cell_length_b   9.64715489
_cell_length_c   9.65152114
_cell_angle_alpha   59.90820371
_cell_angle_beta   59.95936802
_cell_angle_gamma   59.94436698
_symmetry_Int_Tables_number   1
_chemical_formula_structural   Dy13Er3In4(IrRh)2
_chemical_formula_sum   'Dy13 Er3 In4 Ir2 Rh2'
_cell_volume   635.31732372
_cell_formula_units_Z   1
loop_
 _symmetry_equiv_pos_site_id
 _symmetry_equiv_pos_as_xyz
  1  'x, y, z'
loop_
 _atom_site_type_symbol
 _atom_site_label
 _atom_site_symmetry_multiplicity
 _atom_site_fract_x
 _atom_site_fract_y
 _atom_site_fract_z
 _atom_site_occupancy
  Dy  Dy0  1  0.938201  0.939234  0.560723  1
  Dy  Dy1  1  0.150654  0.149743  0.548949  1
  Dy  Dy2  1  0.561842  0.939234  0.560723  1
  Dy  Dy3  1  0.150958  0.150164  0.150887  1
  Dy  Dy4  1  0.310071  0.311539  0.688934  1
  Dy  Dy5  1  0.940072  0.560306  0.559549  1
  Dy  Dy6  1  0.561212  0.560839  0.940280  1
  Dy  Dy7  1  0.562534  0.936753  0.938180  1
  Dy  Dy8  1  0.937669  0.560839  0.940280  1
  Dy  Dy9  1  0.150265  0.549651  0.149818  1
  Dy  Dy10  1  0.310892  0.689494  0.688722  1
  Dy  Dy11  1  0.689456  0.311539  0.688934  1
  Dy  Dy12  1  0.547991  0.150164  0.150887  1
  Er  Er13  1  0.689166  0.311251  0.310417  1
  Er  Er14  1  0.689167  0.689105  0.311058  1
  Er  Er15  1  0.310670  0.689105  0.311058  1
  In  In16  1  0.916978  0.917432  0.248611  1
  In  In17  1  0.248938  0.917219  0.917386  1
  In  In18  1  0.916944  0.248558  0.917553  1
  In  In19  1  0.916456  0.917219  0.917386  1
  Ir  Ir20  1  0.358634  0.358852  0.357741  1
  Ir  Ir21  1  0.924775  0.358852  0.357741  1
  Rh  Rh22  1  0.357838  0.358474  0.925850  1
  Rh  Rh23  1  0.358617  0.924432  0.358335  1
