# generated using pymatgen
data_DyTm11TlFe3Ag
_symmetry_space_group_name_H-M   'P 1'
_cell_length_a   8.21944680
_cell_length_b   8.22233564
_cell_length_c   8.21944749
_cell_angle_alpha   110.04549407
_cell_angle_beta   106.91974067
_cell_angle_gamma   111.46622963
_symmetry_Int_Tables_number   1
_chemical_formula_structural   DyTm11TlFe3Ag
_chemical_formula_sum   'Dy1 Tm11 Tl1 Fe3 Ag1'
_cell_volume   427.00161343
_cell_formula_units_Z   1
loop_
 _symmetry_equiv_pos_site_id
 _symmetry_equiv_pos_as_xyz
  1  'x, y, z'
loop_
 _atom_site_type_symbol
 _atom_site_label
 _atom_site_symmetry_multiplicity
 _atom_site_fract_x
 _atom_site_fract_y
 _atom_site_fract_z
 _atom_site_occupancy
  Dy  Dy0  1  0.192480  0.441902  0.249422  1
  Tm  Tm1  1  0.807618  0.559551  0.751934  1
  Tm  Tm2  1  0.192801  0.944632  0.751830  1
  Tm  Tm3  1  0.960053  0.188723  0.770238  1
  Tm  Tm4  1  0.806367  0.054896  0.248529  1
  Tm  Tm5  1  0.039274  0.811874  0.228133  1
  Tm  Tm6  1  0.418484  0.188723  0.228672  1
  Tm  Tm7  1  0.583742  0.811874  0.772600  1
  Tm  Tm8  1  0.309483  0.308780  0.618623  1
  Tm  Tm9  1  0.692493  0.690840  0.382204  1
  Tm  Tm10  1  0.690158  0.308780  0.999298  1
  Tm  Tm11  1  0.308635  0.690840  0.998346  1
  Tl  Tl12  1  0.499774  0.999674  0.499900  1
  Fe  Fe13  1  0.383635  0.383415  0.999780  1
  Fe  Fe14  1  0.617091  0.617548  0.000457  1
  Fe  Fe15  1  0.999716  0.998463  0.998746  1
  Ag  Ag16  1  0.998195  0.499482  0.501287  1
