# generated using pymatgen
data_Rb2TiMoN4
_symmetry_space_group_name_H-M   'P 1'
_cell_length_a   6.02986337
_cell_length_b   6.02986385
_cell_length_c   6.02986365
_cell_angle_alpha   120.53452574
_cell_angle_beta   120.53452935
_cell_angle_gamma   89.07663726
_symmetry_Int_Tables_number   1
_chemical_formula_structural   Rb2TiMoN4
_chemical_formula_sum   'Rb2 Ti1 Mo1 N4'
_cell_volume   153.75287407
_cell_formula_units_Z   1
loop_
 _symmetry_equiv_pos_site_id
 _symmetry_equiv_pos_as_xyz
  1  'x, y, z'
loop_
 _atom_site_type_symbol
 _atom_site_label
 _atom_site_symmetry_multiplicity
 _atom_site_fract_x
 _atom_site_fract_y
 _atom_site_fract_z
 _atom_site_occupancy
  Rb  Rb0  1  0.250000  0.750000  0.500000  1
  Rb  Rb1  1  0.500000  0.500000  0.000000  1
  Ti  Ti2  1  0.000000  0.000000  0.000000  1
  Mo  Mo3  1  0.750000  0.250000  0.500000  1
  N  N4  1  0.799883  0.127816  0.179547  1
  N  N5  1  0.948269  0.620338  0.820453  1
  N  N6  1  0.379662  0.200117  0.327932  1
  N  N7  1  0.872184  0.051731  0.672068  1
