# generated using pymatgen
data_La4Mg2Sb5
_symmetry_space_group_name_H-M   'P 1'
_cell_length_a   4.67709200
_cell_length_b   4.67709021
_cell_length_c   18.86381500
_cell_angle_alpha   90.00000000
_cell_angle_beta   90.00000000
_cell_angle_gamma   119.99999850
_symmetry_Int_Tables_number   1
_chemical_formula_structural   La4Mg2Sb5
_chemical_formula_sum   'La4 Mg2 Sb5'
_cell_volume   357.36484393
_cell_formula_units_Z   1
loop_
 _symmetry_equiv_pos_site_id
 _symmetry_equiv_pos_as_xyz
  1  'x, y, z'
loop_
 _atom_site_type_symbol
 _atom_site_label
 _atom_site_symmetry_multiplicity
 _atom_site_fract_x
 _atom_site_fract_y
 _atom_site_fract_z
 _atom_site_occupancy
  La  La0  1  0.666667  0.333333  0.901911  1
  La  La1  1  0.333333  0.666667  0.098089  1
  La  La2  1  0.000000  0.000000  0.707797  1
  La  La3  1  0.000000  0.000000  0.292203  1
  Mg  Mg4  1  0.666667  0.333333  0.446506  1
  Mg  Mg5  1  0.333333  0.666667  0.553494  1
  Sb  Sb6  1  0.666667  0.333333  0.601111  1
  Sb  Sb7  1  0.333333  0.666667  0.398889  1
  Sb  Sb8  1  0.666667  0.333333  0.199391  1
  Sb  Sb9  1  0.333333  0.666667  0.800609  1
  Sb  Sb10  1  0.000000  0.000000  0.000000  1
