# generated using pymatgen
data_Tb3Er2Co19SiP11
_symmetry_space_group_name_H-M   'P 1'
_cell_length_a   11.99630657
_cell_length_b   11.97957895
_cell_length_c   3.69105800
_cell_angle_alpha   90.00000000
_cell_angle_beta   90.00000000
_cell_angle_gamma   120.08139060
_symmetry_Int_Tables_number   1
_chemical_formula_structural   Tb3Er2Co19SiP11
_chemical_formula_sum   'Tb3 Er2 Co19 Si1 P11'
_cell_volume   459.00122189
_cell_formula_units_Z   1
loop_
 _symmetry_equiv_pos_site_id
 _symmetry_equiv_pos_as_xyz
  1  'x, y, z'
loop_
 _atom_site_type_symbol
 _atom_site_label
 _atom_site_symmetry_multiplicity
 _atom_site_fract_x
 _atom_site_fract_y
 _atom_site_fract_z
 _atom_site_occupancy
  Tb  Tb0  1  0.334145  0.667873  0.000000  1
  Tb  Tb1  1  0.665886  0.332004  0.000000  1
  Tb  Tb2  1  0.812838  0.812516  0.500000  1
  Er  Er3  1  0.185053  0.000161  0.500000  1
  Er  Er4  1  0.000455  0.187632  0.500000  1
  Co  Co5  1  0.198332  0.377683  0.000000  1
  Co  Co6  1  0.623262  0.821837  0.000000  1
  Co  Co7  1  0.174770  0.796850  0.000000  1
  Co  Co8  1  0.821019  0.621343  0.000000  1
  Co  Co9  1  0.802700  0.179060  0.000000  1
  Co  Co10  1  0.377173  0.203005  0.000000  1
  Co  Co11  1  0.558821  0.000671  0.000000  1
  Co  Co12  1  0.997596  0.551448  0.000000  1
  Co  Co13  1  0.444986  0.448049  0.000000  1
  Co  Co14  1  0.124043  0.483186  0.500000  1
  Co  Co15  1  0.516352  0.641455  0.500000  1
  Co  Co16  1  0.359191  0.873536  0.500000  1
  Co  Co17  1  0.640252  0.516060  0.500000  1
  Co  Co18  1  0.875073  0.358243  0.500000  1
  Co  Co19  1  0.485345  0.126509  0.500000  1
  Co  Co20  1  0.717436  0.000728  0.500000  1
  Co  Co21  1  0.999168  0.714150  0.500000  1
  Co  Co22  1  0.283933  0.285492  0.500000  1
  Co  Co23  1  0.000976  0.000575  0.000000  1
  Si  Si24  1  0.369152  0.999948  0.000000  1
  P  P25  1  0.999938  0.368257  0.000000  1
  P  P26  1  0.630538  0.630551  0.000000  1
  P  P27  1  0.313042  0.480011  0.500000  1
  P  P28  1  0.522040  0.835419  0.500000  1
  P  P29  1  0.166378  0.686922  0.500000  1
  P  P30  1  0.833106  0.519745  0.500000  1
  P  P31  1  0.686542  0.165009  0.500000  1
  P  P32  1  0.478686  0.312684  0.500000  1
  P  P33  1  0.820626  0.001151  0.000000  1
  P  P34  1  0.000534  0.818934  0.000000  1
  P  P35  1  0.180612  0.181302  0.000000  1
