# generated using pymatgen
data_AcNd3(Al3Ir)6
_symmetry_space_group_name_H-M   'P 1'
_cell_length_a   7.63621618
_cell_length_b   7.66077020
_cell_length_c   9.65956000
_cell_angle_alpha   90.00000000
_cell_angle_beta   90.00000000
_cell_angle_gamma   119.20320190
_symmetry_Int_Tables_number   1
_chemical_formula_structural   AcNd3(Al3Ir)6
_chemical_formula_sum   'Ac1 Nd3 Al18 Ir6'
_cell_volume   493.25319457
_cell_formula_units_Z   1
loop_
 _symmetry_equiv_pos_site_id
 _symmetry_equiv_pos_as_xyz
  1  'x, y, z'
loop_
 _atom_site_type_symbol
 _atom_site_label
 _atom_site_symmetry_multiplicity
 _atom_site_fract_x
 _atom_site_fract_y
 _atom_site_fract_z
 _atom_site_occupancy
  Ac  Ac0  1  0.991921  0.670930  0.250000  1
  Nd  Nd1  1  0.004342  0.328803  0.750000  1
  Nd  Nd2  1  0.671982  0.993478  0.250000  1
  Nd  Nd3  1  0.327009  0.003754  0.750000  1
  Al  Al4  1  0.132689  0.138262  0.250000  1
  Al  Al5  1  0.868903  0.871949  0.750000  1
  Al  Al6  1  0.003800  0.332477  0.068529  1
  Al  Al7  1  0.997499  0.663662  0.919864  1
  Al  Al8  1  0.997499  0.663662  0.580136  1
  Al  Al9  1  0.339428  0.006089  0.431618  1
  Al  Al10  1  0.003800  0.332477  0.431471  1
  Al  Al11  1  0.664652  0.999997  0.574485  1
  Al  Al12  1  0.664652  0.999997  0.925515  1
  Al  Al13  1  0.339428  0.006089  0.068382  1
  Al  Al14  1  0.333201  0.332972  0.550853  1
  Al  Al15  1  0.664311  0.666550  0.466012  1
  Al  Al16  1  0.664311  0.666550  0.033988  1
  Al  Al17  1  0.333201  0.332972  0.949147  1
  Al  Al18  1  0.346349  0.546626  0.250000  1
  Al  Al19  1  0.656871  0.449903  0.750000  1
  Al  Al20  1  0.539113  0.329367  0.250000  1
  Al  Al21  1  0.451386  0.660709  0.750000  1
  Ir  Ir22  1  0.671079  0.329771  0.998848  1
  Ir  Ir23  1  0.329957  0.671026  0.998637  1
  Ir  Ir24  1  0.329957  0.671026  0.501363  1
  Ir  Ir25  1  0.671079  0.329771  0.501152  1
  Ir  Ir26  1  0.000791  0.000565  0.998081  1
  Ir  Ir27  1  0.000791  0.000565  0.501919  1
