# generated using pymatgen
data_Eu4HfTa3O14
_symmetry_space_group_name_H-M   'P 1'
_cell_length_a   7.56424716
_cell_length_b   7.56397250
_cell_length_c   7.56397300
_cell_angle_alpha   60.00000220
_cell_angle_beta   60.00120332
_cell_angle_gamma   60.00120270
_symmetry_Int_Tables_number   1
_chemical_formula_structural   Eu4HfTa3O14
_chemical_formula_sum   'Eu4 Hf1 Ta3 O14'
_cell_volume   306.02614292
_cell_formula_units_Z   1
loop_
 _symmetry_equiv_pos_site_id
 _symmetry_equiv_pos_as_xyz
  1  'x, y, z'
loop_
 _atom_site_type_symbol
 _atom_site_label
 _atom_site_symmetry_multiplicity
 _atom_site_fract_x
 _atom_site_fract_y
 _atom_site_fract_z
 _atom_site_occupancy
  Eu  Eu0  1  0.625000  0.125000  0.125000  1
  Eu  Eu1  1  0.125000  0.625000  0.125000  1
  Eu  Eu2  1  0.125000  0.125000  0.625000  1
  Eu  Eu3  1  0.125000  0.125000  0.125000  1
  Hf  Hf4  1  0.125000  0.625000  0.625000  1
  Ta  Ta5  1  0.625000  0.125000  0.625000  1
  Ta  Ta6  1  0.625000  0.625000  0.125000  1
  Ta  Ta7  1  0.625000  0.625000  0.625000  1
  O  O8  1  0.251896  0.249368  0.249368  1
  O  O9  1  0.998104  0.000632  0.000632  1
  O  O10  1  0.686092  0.693209  0.310349  1
  O  O11  1  0.310688  0.296827  0.696243  1
  O  O12  1  0.686092  0.310349  0.693209  1
  O  O13  1  0.310688  0.696243  0.296827  1
  O  O14  1  0.310688  0.696243  0.696243  1
  O  O15  1  0.686092  0.310349  0.310349  1
  O  O16  1  0.563908  0.556791  0.939651  1
  O  O17  1  0.939312  0.953173  0.553757  1
  O  O18  1  0.563908  0.939651  0.556791  1
  O  O19  1  0.939312  0.553757  0.953173  1
  O  O20  1  0.939312  0.553757  0.553757  1
  O  O21  1  0.563908  0.939651  0.939651  1
