# generated using pymatgen
data_AcSbH2Ru
_symmetry_space_group_name_H-M   'P 1'
_cell_length_a   4.50905100
_cell_length_b   4.50905200
_cell_length_c   8.93720300
_cell_angle_alpha   90.00000000
_cell_angle_beta   90.00000000
_cell_angle_gamma   120.00001468
_symmetry_Int_Tables_number   1
_chemical_formula_structural   AcSbH2Ru
_chemical_formula_sum   'Ac2 Sb2 H4 Ru2'
_cell_volume   157.36298359
_cell_formula_units_Z   2
loop_
 _symmetry_equiv_pos_site_id
 _symmetry_equiv_pos_as_xyz
  1  'x, y, z'
loop_
 _atom_site_type_symbol
 _atom_site_label
 _atom_site_symmetry_multiplicity
 _atom_site_fract_x
 _atom_site_fract_y
 _atom_site_fract_z
 _atom_site_occupancy
  Ac  Ac0  1  0.000000  0.000000  0.500000  1
  Ac  Ac1  1  0.000000  0.000000  0.000000  1
  Sb  Sb2  1  0.666667  0.333333  0.750000  1
  Sb  Sb3  1  0.333333  0.666667  0.250000  1
  H  H4  1  0.666667  0.333333  0.054733  1
  H  H5  1  0.333333  0.666667  0.945267  1
  H  H6  1  0.666667  0.333333  0.445267  1
  H  H7  1  0.333333  0.666667  0.554733  1
  Ru  Ru8  1  0.333333  0.666667  0.750000  1
  Ru  Ru9  1  0.666667  0.333333  0.250000  1
