# generated using pymatgen
data_HfZr9Sn5Ge2Sb
_symmetry_space_group_name_H-M   'P 1'
_cell_length_a   8.71018807
_cell_length_b   8.71650006
_cell_length_c   5.91365504
_cell_angle_alpha   89.99373713
_cell_angle_beta   89.99235047
_cell_angle_gamma   120.02732878
_symmetry_Int_Tables_number   1
_chemical_formula_structural   HfZr9Sn5Ge2Sb
_chemical_formula_sum   'Hf1 Zr9 Sn5 Ge2 Sb1'
_cell_volume   388.71975600
_cell_formula_units_Z   1
loop_
 _symmetry_equiv_pos_site_id
 _symmetry_equiv_pos_as_xyz
  1  'x, y, z'
loop_
 _atom_site_type_symbol
 _atom_site_label
 _atom_site_symmetry_multiplicity
 _atom_site_fract_x
 _atom_site_fract_y
 _atom_site_fract_z
 _atom_site_occupancy
  Hf  Hf0  1  0.667554  0.333581  0.999586  1
  Zr  Zr1  1  0.332194  0.665849  0.999610  1
  Zr  Zr2  1  0.332342  0.665828  0.500432  1
  Zr  Zr3  1  0.667694  0.333560  0.500203  1
  Zr  Zr4  1  0.737464  0.736706  0.750176  1
  Zr  Zr5  1  0.262831  0.999840  0.750073  1
  Zr  Zr6  1  0.999787  0.263342  0.750237  1
  Zr  Zr7  1  0.262103  0.262502  0.249963  1
  Zr  Zr8  1  0.738314  0.000999  0.249820  1
  Zr  Zr9  1  0.999721  0.736522  0.249833  1
  Sn  Sn10  1  0.393672  0.392601  0.750257  1
  Sn  Sn11  1  0.606676  0.999693  0.750448  1
  Sn  Sn12  1  0.999598  0.608142  0.750432  1
  Sn  Sn13  1  0.607170  0.606796  0.249618  1
  Sn  Sn14  1  0.393132  0.000365  0.249679  1
  Ge  Ge15  1  0.000052  0.999590  0.999616  1
  Ge  Ge16  1  0.999998  0.999527  0.500393  1
  Sb  Sb17  1  0.999699  0.394557  0.249624  1
