# generated using pymatgen
data_Ho2LuSc3Bi2Rh
_symmetry_space_group_name_H-M   'P 1'
_cell_length_a   7.97364500
_cell_length_b   8.01840132
_cell_length_c   4.13072700
_cell_angle_alpha   90.00000000
_cell_angle_beta   90.00000000
_cell_angle_gamma   119.81553407
_symmetry_Int_Tables_number   1
_chemical_formula_structural   Ho2LuSc3Bi2Rh
_chemical_formula_sum   'Ho2 Lu1 Sc3 Bi2 Rh1'
_cell_volume   229.14272826
_cell_formula_units_Z   1
loop_
 _symmetry_equiv_pos_site_id
 _symmetry_equiv_pos_as_xyz
  1  'x, y, z'
loop_
 _atom_site_type_symbol
 _atom_site_label
 _atom_site_symmetry_multiplicity
 _atom_site_fract_x
 _atom_site_fract_y
 _atom_site_fract_z
 _atom_site_occupancy
  Ho  Ho0  1  0.001308  0.612680  0.500000  1
  Ho  Ho1  1  0.388627  0.387320  0.500000  1
  Lu  Lu2  1  0.617000  0.000000  0.500000  1
  Sc  Sc3  1  0.229763  0.000000  0.000000  1
  Sc  Sc4  1  0.002783  0.230943  0.000000  1
  Sc  Sc5  1  0.771840  0.769057  0.000000  1
  Bi  Bi6  1  0.336497  0.668840  0.000000  1
  Bi  Bi7  1  0.667658  0.331160  0.000000  1
  Rh  Rh8  1  0.984524  0.000000  0.500000  1
