# generated using pymatgen
data_TmPu4Mo2C7
_symmetry_space_group_name_H-M   'P 1'
_cell_length_a   8.45041667
_cell_length_b   8.45041517
_cell_length_c   3.42096900
_cell_angle_alpha   90.00000000
_cell_angle_beta   90.00000000
_cell_angle_gamma   124.72765641
_symmetry_Int_Tables_number   1
_chemical_formula_structural   TmPu4Mo2C7
_chemical_formula_sum   'Tm1 Pu4 Mo2 C7'
_cell_volume   200.77424013
_cell_formula_units_Z   1
loop_
 _symmetry_equiv_pos_site_id
 _symmetry_equiv_pos_as_xyz
  1  'x, y, z'
loop_
 _atom_site_type_symbol
 _atom_site_label
 _atom_site_symmetry_multiplicity
 _atom_site_fract_x
 _atom_site_fract_y
 _atom_site_fract_z
 _atom_site_occupancy
  Tm  Tm0  1  0.500000  0.500000  0.000000  1
  Pu  Pu1  1  0.060320  0.320096  0.500000  1
  Pu  Pu2  1  0.939680  0.679904  0.500000  1
  Pu  Pu3  1  0.679904  0.939680  0.500000  1
  Pu  Pu4  1  0.320096  0.060320  0.500000  1
  Mo  Mo5  1  0.710136  0.289864  0.000000  1
  Mo  Mo6  1  0.289864  0.710136  0.000000  1
  C  C7  1  0.622275  0.377725  0.500000  1
  C  C8  1  0.377725  0.622275  0.500000  1
  C  C9  1  0.000000  0.000000  0.000000  1
  C  C10  1  0.174030  0.174030  0.000000  1
  C  C11  1  0.825970  0.825970  0.000000  1
  C  C12  1  0.000000  0.500000  0.000000  1
  C  C13  1  0.500000  0.000000  0.000000  1
