# generated using pymatgen
data_CaU(Al3Ni)6
_symmetry_space_group_name_H-M   'P 1'
_cell_length_a   10.05852110
_cell_length_b   10.05852024
_cell_length_c   10.05852105
_cell_angle_alpha   42.52070271
_cell_angle_beta   42.52069737
_cell_angle_gamma   42.52070945
_symmetry_Int_Tables_number   1
_chemical_formula_structural   CaU(Al3Ni)6
_chemical_formula_sum   'Ca1 U1 Al18 Ni6'
_cell_volume   420.92914129
_cell_formula_units_Z   1
loop_
 _symmetry_equiv_pos_site_id
 _symmetry_equiv_pos_as_xyz
  1  'x, y, z'
loop_
 _atom_site_type_symbol
 _atom_site_label
 _atom_site_symmetry_multiplicity
 _atom_site_fract_x
 _atom_site_fract_y
 _atom_site_fract_z
 _atom_site_occupancy
  Ca  Ca0  1  0.833213  0.833213  0.833213  1
  U  U1  1  0.166767  0.166767  0.166767  1
  Al  Al2  1  0.102561  0.433592  0.761315  1
  Al  Al3  1  0.433592  0.761315  0.102561  1
  Al  Al4  1  0.568598  0.896437  0.237657  1
  Al  Al5  1  0.948438  0.948438  0.948438  1
  Al  Al6  1  0.051877  0.051877  0.051877  1
  Al  Al7  1  0.294691  0.710530  0.494676  1
  Al  Al8  1  0.896437  0.237657  0.568598  1
  Al  Al9  1  0.386243  0.386243  0.386243  1
  Al  Al10  1  0.494676  0.294691  0.710530  1
  Al  Al11  1  0.237657  0.568598  0.896437  1
  Al  Al12  1  0.717933  0.717933  0.717933  1
  Al  Al13  1  0.613877  0.613877  0.613877  1
  Al  Al14  1  0.334739  0.999387  0.665915  1
  Al  Al15  1  0.710530  0.494676  0.294691  1
  Al  Al16  1  0.665915  0.334739  0.999387  1
  Al  Al17  1  0.281657  0.281657  0.281657  1
  Al  Al18  1  0.999387  0.665915  0.334739  1
  Al  Al19  1  0.761315  0.102561  0.433592  1
  Ni  Ni20  1  0.416153  0.079262  0.760292  1
  Ni  Ni21  1  0.578986  0.242299  0.922906  1
  Ni  Ni22  1  0.079262  0.760292  0.416153  1
  Ni  Ni23  1  0.760292  0.416153  0.079262  1
  Ni  Ni24  1  0.922906  0.578986  0.242299  1
  Ni  Ni25  1  0.242299  0.922906  0.578986  1
