# generated using pymatgen
data_LaZn10Pd
_symmetry_space_group_name_H-M   'P 1'
_cell_length_a   8.35801618
_cell_length_b   8.35801685
_cell_length_c   8.33412678
_cell_angle_alpha   99.80666384
_cell_angle_beta   99.80666126
_cell_angle_gamma   131.24704993
_symmetry_Int_Tables_number   1
_chemical_formula_structural   LaZn10Pd
_chemical_formula_sum   'La2 Zn20 Pd2'
_cell_volume   398.72326092
_cell_formula_units_Z   2
loop_
 _symmetry_equiv_pos_site_id
 _symmetry_equiv_pos_as_xyz
  1  'x, y, z'
loop_
 _atom_site_type_symbol
 _atom_site_label
 _atom_site_symmetry_multiplicity
 _atom_site_fract_x
 _atom_site_fract_y
 _atom_site_fract_z
 _atom_site_occupancy
  La  La0  1  0.254262  0.745738  0.500000  1
  La  La1  1  0.995738  0.004262  0.000000  1
  Zn  Zn2  1  0.902115  0.573690  0.084008  1
  Zn  Zn3  1  0.625000  0.875000  0.250000  1
  Zn  Zn4  1  0.426653  0.508552  0.325551  1
  Zn  Zn5  1  0.491448  0.573347  0.674449  1
  Zn  Zn6  1  0.426310  0.097885  0.915992  1
  Zn  Zn7  1  0.758552  0.176653  0.825551  1
  Zn  Zn8  1  0.487654  0.816196  0.915354  1
  Zn  Zn9  1  0.504858  0.495142  0.000000  1
  Zn  Zn10  1  0.762346  0.933804  0.584646  1
  Zn  Zn11  1  0.745142  0.254858  0.500000  1
  Zn  Zn12  1  0.067271  0.653515  0.830494  1
  Zn  Zn13  1  0.125000  0.375000  0.750000  1
  Zn  Zn14  1  0.347885  0.176310  0.415992  1
  Zn  Zn15  1  0.823690  0.652115  0.584008  1
  Zn  Zn16  1  0.903515  0.817271  0.330494  1
  Zn  Zn17  1  0.182729  0.096485  0.669506  1
  Zn  Zn18  1  0.066196  0.237654  0.415354  1
  Zn  Zn19  1  0.346485  0.932729  0.169506  1
  Zn  Zn20  1  0.823347  0.241448  0.174449  1
  Zn  Zn21  1  0.183804  0.512346  0.084646  1
  Pd  Pd22  1  0.625000  0.375000  0.250000  1
  Pd  Pd23  1  0.625000  0.375000  0.750000  1
