# generated using pymatgen
data_La10Os3Rh
_symmetry_space_group_name_H-M   'P 1'
_cell_length_a   9.12365194
_cell_length_b   9.11586139
_cell_length_c   7.45149303
_cell_angle_alpha   84.81079641
_cell_angle_beta   84.85787796
_cell_angle_gamma   43.49135426
_symmetry_Int_Tables_number   1
_chemical_formula_structural   La10Os3Rh
_chemical_formula_sum   'La10 Os3 Rh1'
_cell_volume   424.52433802
_cell_formula_units_Z   1
loop_
 _symmetry_equiv_pos_site_id
 _symmetry_equiv_pos_as_xyz
  1  'x, y, z'
loop_
 _atom_site_type_symbol
 _atom_site_label
 _atom_site_symmetry_multiplicity
 _atom_site_fract_x
 _atom_site_fract_y
 _atom_site_fract_z
 _atom_site_occupancy
  La  La0  1  0.019998  0.798331  0.905864  1
  La  La1  1  0.198397  0.985527  0.591822  1
  La  La2  1  0.988273  0.198069  0.090925  1
  La  La3  1  0.805196  0.013080  0.410206  1
  La  La4  1  0.358006  0.209871  0.818939  1
  La  La5  1  0.787677  0.643986  0.681440  1
  La  La6  1  0.642278  0.783316  0.180737  1
  La  La7  1  0.205304  0.362425  0.323213  1
  La  La8  1  0.573827  0.429190  0.744974  1
  La  La9  1  0.427275  0.573865  0.249915  1
  Os  Os10  1  0.173372  0.603151  0.577275  1
  Os  Os11  1  0.396700  0.825166  0.923986  1
  Os  Os12  1  0.822402  0.399347  0.422266  1
  Rh  Rh13  1  0.601298  0.174676  0.078438  1
