# generated using pymatgen
data_TbSmFe10Co2P7
_symmetry_space_group_name_H-M   'P 1'
_cell_length_a   3.64327700
_cell_length_b   8.98266513
_cell_length_c   8.99968418
_cell_angle_alpha   120.01654527
_cell_angle_beta   90.00000000
_cell_angle_gamma   90.00000000
_symmetry_Int_Tables_number   1
_chemical_formula_structural   TbSmFe10Co2P7
_chemical_formula_sum   'Tb1 Sm1 Fe10 Co2 P7'
_cell_volume   255.02506841
_cell_formula_units_Z   1
loop_
 _symmetry_equiv_pos_site_id
 _symmetry_equiv_pos_as_xyz
  1  'x, y, z'
loop_
 _atom_site_type_symbol
 _atom_site_label
 _atom_site_symmetry_multiplicity
 _atom_site_fract_x
 _atom_site_fract_y
 _atom_site_fract_z
 _atom_site_occupancy
  Tb  Tb0  1  0.500000  0.333550  0.666293  1
  Sm  Sm1  1  0.000000  0.666215  0.332867  1
  Fe  Fe2  1  0.000000  0.573528  0.632156  1
  Fe  Fe3  1  0.000000  0.880351  0.727566  1
  Fe  Fe4  1  0.000000  0.271455  0.152903  1
  Fe  Fe5  1  0.000000  0.845918  0.119239  1
  Fe  Fe6  1  0.500000  0.952512  0.566351  1
  Fe  Fe7  1  0.500000  0.433257  0.386024  1
  Fe  Fe8  1  0.500000  0.612113  0.045783  1
  Fe  Fe9  1  0.500000  0.119960  0.900161  1
  Fe  Fe10  1  0.500000  0.099309  0.221510  1
  Fe  Fe11  1  0.500000  0.786134  0.882793  1
  Co  Co12  1  0.000000  0.367472  0.938763  1
  Co  Co13  1  0.000000  0.061028  0.429002  1
  P  P14  1  0.000000  0.108282  0.699980  1
  P  P15  1  0.000000  0.301278  0.408829  1
  P  P16  1  0.000000  0.591998  0.889879  1
  P  P17  1  0.500000  0.711428  0.601971  1
  P  P18  1  0.500000  0.397125  0.111554  1
  P  P19  1  0.500000  0.887665  0.286282  1
  P  P20  1  0.000000  0.999424  0.000092  1
