# generated using pymatgen
data_Tb4HoTe9
_symmetry_space_group_name_H-M   'P 1'
_cell_length_a   13.24115373
_cell_length_b   13.27274477
_cell_length_c   10.96796300
_cell_angle_alpha   79.96876218
_cell_angle_beta   79.97039382
_cell_angle_gamma   26.97220606
_symmetry_Int_Tables_number   1
_chemical_formula_structural   Tb4HoTe9
_chemical_formula_sum   'Tb8 Ho2 Te18'
_cell_volume   860.13230062
_cell_formula_units_Z   2
loop_
 _symmetry_equiv_pos_site_id
 _symmetry_equiv_pos_as_xyz
  1  'x, y, z'
loop_
 _atom_site_type_symbol
 _atom_site_label
 _atom_site_symmetry_multiplicity
 _atom_site_fract_x
 _atom_site_fract_y
 _atom_site_fract_z
 _atom_site_occupancy
  Tb  Tb0  1  0.947945  0.042631  0.241846  1
  Tb  Tb1  1  0.146895  0.248229  0.842351  1
  Tb  Tb2  1  0.343883  0.451934  0.436797  1
  Tb  Tb3  1  0.536737  0.655779  0.036363  1
  Tb  Tb4  1  0.757079  0.832932  0.638096  1
  Tb  Tb5  1  0.344716  0.462919  0.963557  1
  Tb  Tb6  1  0.547942  0.656546  0.563191  1
  Tb  Tb7  1  0.751762  0.853110  0.157682  1
  Ho  Ho8  1  0.956533  0.052823  0.758278  1
  Ho  Ho9  1  0.166941  0.243420  0.361979  1
  Te  Te10  1  0.473703  0.571722  0.821638  1
  Te  Te11  1  0.070935  0.178679  0.621175  1
  Te  Te12  1  0.869514  0.980120  0.019670  1
  Te  Te13  1  0.682183  0.762233  0.422868  1
  Te  Te14  1  0.272727  0.375403  0.222485  1
  Te  Te15  1  0.019568  0.130624  0.978451  1
  Te  Te16  1  0.624039  0.726927  0.778272  1
  Te  Te17  1  0.429098  0.525308  0.177887  1
  Te  Te18  1  0.237650  0.317115  0.576269  1
  Te  Te19  1  0.821631  0.928370  0.378449  1
  Te  Te20  1  0.700042  0.300153  0.500609  1
  Te  Te21  1  0.299242  0.901173  0.300729  1
  Te  Te22  1  0.099349  0.701288  0.699700  1
  Te  Te23  1  0.893174  0.491750  0.116300  1
  Te  Te24  1  0.507951  0.107390  0.884627  1
  Te  Te25  1  0.001658  0.601509  0.896698  1
  Te  Te26  1  0.199002  0.801119  0.500328  1
  Te  Te27  1  0.398099  0.998794  0.103703  1
