# generated using pymatgen
data_Pr2NdDy5(CdPt)2
_symmetry_space_group_name_H-M   'P 1'
_cell_length_a   9.80234903
_cell_length_b   9.80234958
_cell_length_c   9.80235000
_cell_angle_alpha   59.99999860
_cell_angle_beta   59.99999674
_cell_angle_gamma   60.00000714
_symmetry_Int_Tables_number   1
_chemical_formula_structural   Pr2NdDy5(CdPt)2
_chemical_formula_sum   'Pr4 Nd2 Dy10 Cd4 Pt4'
_cell_volume   666.00204817
_cell_formula_units_Z   2
loop_
 _symmetry_equiv_pos_site_id
 _symmetry_equiv_pos_as_xyz
  1  'x, y, z'
loop_
 _atom_site_type_symbol
 _atom_site_label
 _atom_site_symmetry_multiplicity
 _atom_site_fract_x
 _atom_site_fract_y
 _atom_site_fract_z
 _atom_site_occupancy
  Pr  Pr0  1  0.938065  0.561935  0.561935  1
  Pr  Pr1  1  0.561935  0.938065  0.938065  1
  Pr  Pr2  1  0.561935  0.938065  0.561935  1
  Pr  Pr3  1  0.938065  0.561935  0.938065  1
  Nd  Nd4  1  0.561559  0.561559  0.938441  1
  Nd  Nd5  1  0.938441  0.938441  0.561559  1
  Dy  Dy6  1  0.350410  0.350410  0.350107  1
  Dy  Dy7  1  0.350410  0.350410  0.949072  1
  Dy  Dy8  1  0.350107  0.949072  0.350410  1
  Dy  Dy9  1  0.949072  0.350107  0.350410  1
  Dy  Dy10  1  0.811460  0.188540  0.188540  1
  Dy  Dy11  1  0.188540  0.811460  0.811460  1
  Dy  Dy12  1  0.188540  0.811460  0.188540  1
  Dy  Dy13  1  0.811460  0.188540  0.811460  1
  Dy  Dy14  1  0.188466  0.188466  0.811534  1
  Dy  Dy15  1  0.811534  0.811534  0.188466  1
  Cd  Cd16  1  0.579661  0.579661  0.579961  1
  Cd  Cd17  1  0.579661  0.579661  0.260718  1
  Cd  Cd18  1  0.579961  0.260718  0.579661  1
  Cd  Cd19  1  0.260718  0.579961  0.579661  1
  Pt  Pt20  1  0.142607  0.142607  0.142901  1
  Pt  Pt21  1  0.142607  0.142607  0.571885  1
  Pt  Pt22  1  0.142901  0.571885  0.142607  1
  Pt  Pt23  1  0.571885  0.142901  0.142607  1
