# generated using pymatgen
data_Ho4TmLu5Sn8
_symmetry_space_group_name_H-M   'P 1'
_cell_length_a   7.94762000
_cell_length_b   8.07925417
_cell_length_c   15.26632300
_cell_angle_alpha   89.98821357
_cell_angle_beta   90.00000000
_cell_angle_gamma   90.00000000
_symmetry_Int_Tables_number   1
_chemical_formula_structural   Ho4TmLu5Sn8
_chemical_formula_sum   'Ho8 Tm2 Lu10 Sn16'
_cell_volume   980.26343385
_cell_formula_units_Z   2
loop_
 _symmetry_equiv_pos_site_id
 _symmetry_equiv_pos_as_xyz
  1  'x, y, z'
loop_
 _atom_site_type_symbol
 _atom_site_label
 _atom_site_symmetry_multiplicity
 _atom_site_fract_x
 _atom_site_fract_y
 _atom_site_fract_z
 _atom_site_occupancy
  Ho  Ho0  1  0.520551  0.321128  0.904088  1
  Ho  Ho1  1  0.020551  0.178872  0.595912  1
  Ho  Ho2  1  0.479406  0.678703  0.403867  1
  Ho  Ho3  1  0.979406  0.821297  0.096133  1
  Ho  Ho4  1  0.479206  0.678625  0.096486  1
  Ho  Ho5  1  0.979206  0.821375  0.403514  1
  Ho  Ho6  1  0.520836  0.320640  0.595683  1
  Ho  Ho7  1  0.020836  0.179360  0.904317  1
  Tm  Tm8  1  0.365943  0.837893  0.877052  1
  Tm  Tm9  1  0.865943  0.662107  0.622948  1
  Lu  Lu10  1  0.634551  0.161843  0.375784  1
  Lu  Lu11  1  0.134551  0.338157  0.124216  1
  Lu  Lu12  1  0.634666  0.161404  0.123643  1
  Lu  Lu13  1  0.134666  0.338596  0.376357  1
  Lu  Lu14  1  0.365013  0.838381  0.623470  1
  Lu  Lu15  1  0.865013  0.661619  0.876530  1
  Lu  Lu16  1  0.196171  0.504909  0.749985  1
  Lu  Lu17  1  0.696171  0.995091  0.750015  1
  Lu  Lu18  1  0.803515  0.494988  0.249860  1
  Lu  Lu19  1  0.303515  0.005012  0.250140  1
  Sn  Sn20  1  0.295395  0.039670  0.042150  1
  Sn  Sn21  1  0.795395  0.460330  0.457850  1
  Sn  Sn22  1  0.703353  0.961550  0.541188  1
  Sn  Sn23  1  0.203353  0.538450  0.958812  1
  Sn  Sn24  1  0.705318  0.960800  0.958515  1
  Sn  Sn25  1  0.205318  0.539200  0.541485  1
  Sn  Sn26  1  0.296075  0.039584  0.458491  1
  Sn  Sn27  1  0.796075  0.460416  0.041509  1
  Sn  Sn28  1  0.562029  0.619111  0.749854  1
  Sn  Sn29  1  0.062029  0.880889  0.750146  1
  Sn  Sn30  1  0.438270  0.379610  0.249872  1
  Sn  Sn31  1  0.938270  0.120390  0.250128  1
  Sn  Sn32  1  0.330646  0.150719  0.749794  1
  Sn  Sn33  1  0.830646  0.349281  0.750206  1
  Sn  Sn34  1  0.669056  0.849585  0.250062  1
  Sn  Sn35  1  0.169056  0.650415  0.249938  1
