# generated using pymatgen
data_K8Hf6MnBr20
_symmetry_space_group_name_H-M   'P 1'
_cell_length_a   11.73869878
_cell_length_b   11.73869890
_cell_length_c   11.73869900
_cell_angle_alpha   59.99999691
_cell_angle_beta   59.99999657
_cell_angle_gamma   59.99999480
_symmetry_Int_Tables_number   1
_chemical_formula_structural   K8Hf6MnBr20
_chemical_formula_sum   'K8 Hf6 Mn1 Br20'
_cell_volume   1143.78619924
_cell_formula_units_Z   1
loop_
 _symmetry_equiv_pos_site_id
 _symmetry_equiv_pos_as_xyz
  1  'x, y, z'
loop_
 _atom_site_type_symbol
 _atom_site_label
 _atom_site_symmetry_multiplicity
 _atom_site_fract_x
 _atom_site_fract_y
 _atom_site_fract_z
 _atom_site_occupancy
  K  K0  1  0.359997  0.359997  0.359997  1
  K  K1  1  0.640003  0.640003  0.640003  1
  K  K2  1  0.359997  0.359997  0.920011  1
  K  K3  1  0.359997  0.920011  0.359997  1
  K  K4  1  0.640003  0.640003  0.079989  1
  K  K5  1  0.640003  0.079989  0.640003  1
  K  K6  1  0.920011  0.359997  0.359997  1
  K  K7  1  0.079989  0.640003  0.640003  1
  Hf  Hf8  1  0.856256  0.143744  0.143744  1
  Hf  Hf9  1  0.143744  0.856256  0.856256  1
  Hf  Hf10  1  0.143744  0.856256  0.143744  1
  Hf  Hf11  1  0.856256  0.143744  0.856256  1
  Hf  Hf12  1  0.143744  0.143744  0.856256  1
  Hf  Hf13  1  0.856256  0.856256  0.143744  1
  Mn  Mn14  1  0.000000  0.000000  0.000000  1
  Br  Br15  1  0.330719  0.000000  0.000000  1
  Br  Br16  1  0.669281  0.000000  0.000000  1
  Br  Br17  1  0.000000  0.330719  0.669281  1
  Br  Br18  1  0.000000  0.669281  0.330719  1
  Br  Br19  1  0.000000  0.330719  0.000000  1
  Br  Br20  1  0.669281  0.000000  0.330719  1
  Br  Br21  1  0.000000  0.669281  0.000000  1
  Br  Br22  1  0.330719  0.000000  0.669281  1
  Br  Br23  1  0.000000  0.000000  0.330719  1
  Br  Br24  1  0.000000  0.000000  0.669281  1
  Br  Br25  1  0.669281  0.330719  0.000000  1
  Br  Br26  1  0.330719  0.669281  0.000000  1
  Br  Br27  1  0.682924  0.317076  0.317076  1
  Br  Br28  1  0.317076  0.682924  0.682924  1
  Br  Br29  1  0.317076  0.682924  0.317076  1
  Br  Br30  1  0.682924  0.317076  0.682924  1
  Br  Br31  1  0.317076  0.317076  0.682924  1
  Br  Br32  1  0.682924  0.682924  0.317076  1
  Br  Br33  1  0.250000  0.250000  0.250000  1
  Br  Br34  1  0.750000  0.750000  0.750000  1
