# generated using pymatgen
data_PrNd7Zn8(PtRh)4
_symmetry_space_group_name_H-M   'P 1'
_cell_length_a   4.04751100
_cell_length_b   7.39024789
_cell_length_c   16.72476856
_cell_angle_alpha   90.13091012
_cell_angle_beta   90.00000000
_cell_angle_gamma   90.00000000
_symmetry_Int_Tables_number   1
_chemical_formula_structural   PrNd7Zn8(PtRh)4
_chemical_formula_sum   'Pr1 Nd7 Zn8 Pt4 Rh4'
_cell_volume   500.27180491
_cell_formula_units_Z   1
loop_
 _symmetry_equiv_pos_site_id
 _symmetry_equiv_pos_as_xyz
  1  'x, y, z'
loop_
 _atom_site_type_symbol
 _atom_site_label
 _atom_site_symmetry_multiplicity
 _atom_site_fract_x
 _atom_site_fract_y
 _atom_site_fract_z
 _atom_site_occupancy
  Pr  Pr0  1  0.250000  0.168233  0.943322  1
  Nd  Nd1  1  0.250000  0.667644  0.560067  1
  Nd  Nd2  1  0.750000  0.328195  0.442467  1
  Nd  Nd3  1  0.750000  0.948403  0.281259  1
  Nd  Nd4  1  0.750000  0.828658  0.060254  1
  Nd  Nd5  1  0.750000  0.452570  0.212740  1
  Nd  Nd6  1  0.250000  0.051980  0.714166  1
  Nd  Nd7  1  0.250000  0.552130  0.787174  1
  Zn  Zn8  1  0.750000  0.003415  0.561208  1
  Zn  Zn9  1  0.250000  0.621156  0.346086  1
  Zn  Zn10  1  0.750000  0.377870  0.650222  1
  Zn  Zn11  1  0.250000  0.499588  0.060397  1
  Zn  Zn12  1  0.750000  0.503565  0.941136  1
  Zn  Zn13  1  0.250000  0.000230  0.439728  1
  Zn  Zn14  1  0.250000  0.121230  0.149703  1
  Zn  Zn15  1  0.750000  0.876137  0.850193  1
  Pt  Pt16  1  0.750000  0.753536  0.434168  1
  Pt  Pt17  1  0.250000  0.246774  0.313672  1
  Pt  Pt18  1  0.750000  0.252800  0.814178  1
  Pt  Pt19  1  0.750000  0.753134  0.686104  1
  Rh  Rh20  1  0.250000  0.243591  0.565279  1
  Rh  Rh21  1  0.250000  0.748908  0.185435  1
  Rh  Rh22  1  0.750000  0.255341  0.065687  1
  Rh  Rh23  1  0.250000  0.744913  0.935355  1
