# generated using pymatgen
data_Dy3ScTl5
_symmetry_space_group_name_H-M   'P 1'
_cell_length_a   8.43172898
_cell_length_b   8.43173084
_cell_length_c   8.43172989
_cell_angle_alpha   66.07771873
_cell_angle_beta   66.07771505
_cell_angle_gamma   66.07770366
_symmetry_Int_Tables_number   1
_chemical_formula_structural   Dy3ScTl5
_chemical_formula_sum   'Dy6 Sc2 Tl10'
_cell_volume   479.58160898
_cell_formula_units_Z   2
loop_
 _symmetry_equiv_pos_site_id
 _symmetry_equiv_pos_as_xyz
  1  'x, y, z'
loop_
 _atom_site_type_symbol
 _atom_site_label
 _atom_site_symmetry_multiplicity
 _atom_site_fract_x
 _atom_site_fract_y
 _atom_site_fract_z
 _atom_site_occupancy
  Dy  Dy0  1  0.893842  0.185130  0.621901  1
  Dy  Dy1  1  0.621901  0.893842  0.185130  1
  Dy  Dy2  1  0.185130  0.621901  0.893842  1
  Dy  Dy3  1  0.106158  0.814870  0.378099  1
  Dy  Dy4  1  0.378099  0.106158  0.814870  1
  Dy  Dy5  1  0.814870  0.378099  0.106158  1
  Sc  Sc6  1  0.656539  0.656539  0.656539  1
  Sc  Sc7  1  0.343461  0.343461  0.343461  1
  Tl  Tl8  1  0.000000  0.000000  0.000000  1
  Tl  Tl9  1  0.500000  0.500000  0.500000  1
  Tl  Tl10  1  0.810874  0.810874  0.810874  1
  Tl  Tl11  1  0.189126  0.189126  0.189126  1
  Tl  Tl12  1  0.944622  0.565742  0.304866  1
  Tl  Tl13  1  0.304866  0.944622  0.565742  1
  Tl  Tl14  1  0.565742  0.304866  0.944622  1
  Tl  Tl15  1  0.055378  0.434258  0.695134  1
  Tl  Tl16  1  0.695134  0.055378  0.434258  1
  Tl  Tl17  1  0.434258  0.695134  0.055378  1
