# generated using pymatgen
data_Ba8Na(CoO4)3
_symmetry_space_group_name_H-M   'P 1'
_cell_length_a   6.50079300
_cell_length_b   6.49285376
_cell_length_c   12.69202296
_cell_angle_alpha   88.14753799
_cell_angle_beta   89.05642536
_cell_angle_gamma   126.12860556
_symmetry_Int_Tables_number   1
_chemical_formula_structural   Ba8Na(CoO4)3
_chemical_formula_sum   'Ba8 Na1 Co3 O12'
_cell_volume   432.04853143
_cell_formula_units_Z   1
loop_
 _symmetry_equiv_pos_site_id
 _symmetry_equiv_pos_as_xyz
  1  'x, y, z'
loop_
 _atom_site_type_symbol
 _atom_site_label
 _atom_site_symmetry_multiplicity
 _atom_site_fract_x
 _atom_site_fract_y
 _atom_site_fract_z
 _atom_site_occupancy
  Ba  Ba0  1  0.450249  0.026585  0.144851  1
  Ba  Ba1  1  0.028354  0.441209  0.653372  1
  Ba  Ba2  1  0.559918  0.973706  0.846620  1
  Ba  Ba3  1  0.970689  0.567124  0.342922  1
  Ba  Ba4  1  0.863727  0.657034  0.928841  1
  Ba  Ba5  1  0.343515  0.134412  0.579524  1
  Ba  Ba6  1  0.139885  0.341327  0.071808  1
  Ba  Ba7  1  0.657199  0.866166  0.429144  1
  Na  Na8  1  0.726495  0.716763  0.165544  1
  Co  Co9  1  0.726789  0.732389  0.665111  1
  Co  Co10  1  0.270354  0.273566  0.337950  1
  Co  Co11  1  0.267494  0.273993  0.834792  1
  O  O12  1  0.324832  0.127029  0.962165  1
  O  O13  1  0.862197  0.669250  0.535761  1
  O  O14  1  0.672396  0.885733  0.024090  1
  O  O15  1  0.138070  0.323705  0.463366  1
  O  O16  1  0.999104  0.012552  0.745278  1
  O  O17  1  0.024427  0.007089  0.261499  1
  O  O18  1  0.597014  0.409784  0.751119  1
  O  O19  1  0.477757  0.159873  0.369100  1
  O  O20  1  0.145155  0.486377  0.863220  1
  O  O21  1  0.512235  0.853090  0.628805  1
  O  O22  1  0.865491  0.483224  0.130296  1
  O  O23  1  0.376651  0.578021  0.264825  1
