# generated using pymatgen
data_Y3Er(ScIr)4
_symmetry_space_group_name_H-M   'P 1'
_cell_length_a   4.26741900
_cell_length_b   7.15167774
_cell_length_c   8.68903299
_cell_angle_alpha   89.97961696
_cell_angle_beta   90.00000000
_cell_angle_gamma   90.00000000
_symmetry_Int_Tables_number   1
_chemical_formula_structural   Y3Er(ScIr)4
_chemical_formula_sum   'Y3 Er1 Sc4 Ir4'
_cell_volume   265.18236635
_cell_formula_units_Z   1
loop_
 _symmetry_equiv_pos_site_id
 _symmetry_equiv_pos_as_xyz
  1  'x, y, z'
loop_
 _atom_site_type_symbol
 _atom_site_label
 _atom_site_symmetry_multiplicity
 _atom_site_fract_x
 _atom_site_fract_y
 _atom_site_fract_z
 _atom_site_occupancy
  Y  Y0  1  0.250000  0.981887  0.326613  1
  Y  Y1  1  0.250000  0.481711  0.172838  1
  Y  Y2  1  0.750000  0.018713  0.673569  1
  Er  Er3  1  0.750000  0.517672  0.827795  1
  Sc  Sc4  1  0.250000  0.359238  0.565613  1
  Sc  Sc5  1  0.250000  0.857549  0.934486  1
  Sc  Sc6  1  0.750000  0.641710  0.435262  1
  Sc  Sc7  1  0.750000  0.141341  0.065081  1
  Ir  Ir8  1  0.250000  0.239145  0.892196  1
  Ir  Ir9  1  0.250000  0.737402  0.607841  1
  Ir  Ir10  1  0.750000  0.761105  0.106003  1
  Ir  Ir11  1  0.750000  0.262528  0.392705  1
