# generated using pymatgen
data_Tb2ThMn(Co4P3)2
_symmetry_space_group_name_H-M   'P 1'
_cell_length_a   3.73245600
_cell_length_b   10.61092200
_cell_length_c   12.26174000
_cell_angle_alpha   90.00000000
_cell_angle_beta   90.00000000
_cell_angle_gamma   90.00000000
_symmetry_Int_Tables_number   1
_chemical_formula_structural   Tb2ThMn(Co4P3)2
_chemical_formula_sum   'Tb4 Th2 Mn2 Co16 P12'
_cell_volume   485.62375403
_cell_formula_units_Z   2
loop_
 _symmetry_equiv_pos_site_id
 _symmetry_equiv_pos_as_xyz
  1  'x, y, z'
loop_
 _atom_site_type_symbol
 _atom_site_label
 _atom_site_symmetry_multiplicity
 _atom_site_fract_x
 _atom_site_fract_y
 _atom_site_fract_z
 _atom_site_occupancy
  Tb  Tb0  1  0.500000  0.816793  0.203077  1
  Tb  Tb1  1  0.500000  0.183207  0.203077  1
  Tb  Tb2  1  0.000000  0.683207  0.796923  1
  Tb  Tb3  1  0.000000  0.316793  0.796923  1
  Th  Th4  1  0.000000  0.500000  0.525570  1
  Th  Th5  1  0.500000  0.000000  0.474430  1
  Mn  Mn6  1  0.500000  0.500000  0.154637  1
  Mn  Mn7  1  0.000000  0.000000  0.845363  1
  Co  Co8  1  0.500000  0.500000  0.701855  1
  Co  Co9  1  0.000000  0.000000  0.298145  1
  Co  Co10  1  0.000000  0.500000  0.985676  1
  Co  Co11  1  0.500000  0.000000  0.014324  1
  Co  Co12  1  0.500000  0.333333  0.994573  1
  Co  Co13  1  0.500000  0.666667  0.994573  1
  Co  Co14  1  0.000000  0.166667  0.005427  1
  Co  Co15  1  0.000000  0.833333  0.005427  1
  Co  Co16  1  0.500000  0.298120  0.430120  1
  Co  Co17  1  0.500000  0.701880  0.430120  1
  Co  Co18  1  0.000000  0.201880  0.569880  1
  Co  Co19  1  0.000000  0.798120  0.569880  1
  Co  Co20  1  0.500000  0.880127  0.712489  1
  Co  Co21  1  0.500000  0.119873  0.712489  1
  Co  Co22  1  0.000000  0.619873  0.287511  1
  Co  Co23  1  0.000000  0.380127  0.287511  1
  P  P24  1  0.500000  0.500000  0.883136  1
  P  P25  1  0.000000  0.000000  0.116864  1
  P  P26  1  0.500000  0.500000  0.338807  1
  P  P27  1  0.000000  0.000000  0.661193  1
  P  P28  1  0.500000  0.305003  0.617988  1
  P  P29  1  0.500000  0.694997  0.617988  1
  P  P30  1  0.000000  0.194997  0.382012  1
  P  P31  1  0.000000  0.805003  0.382012  1
  P  P32  1  0.500000  0.847144  0.894759  1
  P  P33  1  0.500000  0.152856  0.894759  1
  P  P34  1  0.000000  0.652856  0.105241  1
  P  P35  1  0.000000  0.347144  0.105241  1
