# generated using pymatgen
data_Sm6Zn4Pd12Pt
_symmetry_space_group_name_H-M   'P 1'
_cell_length_a   8.33459029
_cell_length_b   8.33459101
_cell_length_c   8.33459100
_cell_angle_alpha   109.47122060
_cell_angle_beta   109.47122236
_cell_angle_gamma   109.47122059
_symmetry_Int_Tables_number   1
_chemical_formula_structural   Sm6Zn4Pd12Pt
_chemical_formula_sum   'Sm6 Zn4 Pd12 Pt1'
_cell_volume   445.68800136
_cell_formula_units_Z   1
loop_
 _symmetry_equiv_pos_site_id
 _symmetry_equiv_pos_as_xyz
  1  'x, y, z'
loop_
 _atom_site_type_symbol
 _atom_site_label
 _atom_site_symmetry_multiplicity
 _atom_site_fract_x
 _atom_site_fract_y
 _atom_site_fract_z
 _atom_site_occupancy
  Sm  Sm0  1  0.699655  0.699655  0.000000  1
  Sm  Sm1  1  0.300345  0.000000  0.300345  1
  Sm  Sm2  1  0.000000  0.300345  0.300345  1
  Sm  Sm3  1  0.300345  0.300345  0.000000  1
  Sm  Sm4  1  0.699655  0.000000  0.699655  1
  Sm  Sm5  1  0.000000  0.699655  0.699655  1
  Zn  Zn6  1  0.000000  0.000000  0.500000  1
  Zn  Zn7  1  0.000000  0.500000  0.000000  1
  Zn  Zn8  1  0.500000  0.000000  0.000000  1
  Zn  Zn9  1  0.500000  0.500000  0.500000  1
  Pd  Pd10  1  0.331435  0.331435  0.662872  1
  Pd  Pd11  1  0.668565  0.000000  0.331435  1
  Pd  Pd12  1  0.000000  0.668565  0.331435  1
  Pd  Pd13  1  0.668565  0.331435  0.000000  1
  Pd  Pd14  1  0.331435  0.662872  0.331435  1
  Pd  Pd15  1  0.000000  0.331435  0.668565  1
  Pd  Pd16  1  0.331435  0.668565  0.000000  1
  Pd  Pd17  1  0.331435  0.000000  0.668565  1
  Pd  Pd18  1  0.662872  0.331435  0.331435  1
  Pd  Pd19  1  0.668565  0.668565  0.337128  1
  Pd  Pd20  1  0.668565  0.337128  0.668565  1
  Pd  Pd21  1  0.337128  0.668565  0.668565  1
  Pt  Pt22  1  0.000000  0.000000  0.000000  1
