# generated using pymatgen
data_Ba6Tm3Sc(WO9)2
_symmetry_space_group_name_H-M   'P 1'
_cell_length_a   6.00407736
_cell_length_b   8.48716668
_cell_length_c   10.39725834
_cell_angle_alpha   65.91109888
_cell_angle_beta   73.21726320
_cell_angle_gamma   90.00038372
_symmetry_Int_Tables_number   1
_chemical_formula_structural   Ba6Tm3Sc(WO9)2
_chemical_formula_sum   'Ba6 Tm3 Sc1 W2 O18'
_cell_volume   458.84815831
_cell_formula_units_Z   1
loop_
 _symmetry_equiv_pos_site_id
 _symmetry_equiv_pos_as_xyz
  1  'x, y, z'
loop_
 _atom_site_type_symbol
 _atom_site_label
 _atom_site_symmetry_multiplicity
 _atom_site_fract_x
 _atom_site_fract_y
 _atom_site_fract_z
 _atom_site_occupancy
  Ba  Ba0  1  0.499998  0.268141  0.000006  1
  Ba  Ba1  1  0.840436  0.579849  0.319122  1
  Ba  Ba2  1  0.159574  0.898986  0.680870  1
  Ba  Ba3  1  0.500002  0.731859  0.999994  1
  Ba  Ba4  1  0.840426  0.101014  0.319130  1
  Ba  Ba5  1  0.159564  0.420151  0.680878  1
  Tm  Tm6  1  0.000001  0.000000  0.000000  1
  Tm  Tm7  1  0.331415  0.331416  0.337151  1
  Tm  Tm8  1  0.668585  0.668585  0.662848  1
  Sc  Sc9  1  0.999999  0.500000  0.000000  1
  W  W10  1  0.334076  0.834072  0.331812  1
  W  W11  1  0.665923  0.165928  0.668189  1
  O  O12  1  0.000004  0.252596  0.999998  1
  O  O13  1  0.330998  0.598814  0.338018  1
  O  O14  1  0.668999  0.936863  0.661984  1
  O  O15  1  0.160025  0.413877  0.172231  1
  O  O16  1  0.491804  0.758334  0.483308  1
  O  O17  1  0.819437  0.088589  0.822843  1
  O  O18  1  0.332251  0.586128  0.827766  1
  O  O19  1  0.642282  0.911405  0.177157  1
  O  O20  1  0.975124  0.241680  0.516680  1
  O  O21  1  0.999996  0.747404  0.000003  1
  O  O22  1  0.331002  0.063137  0.338015  1
  O  O23  1  0.669002  0.401186  0.661982  1
  O  O24  1  0.839975  0.586123  0.827769  1
  O  O25  1  0.180563  0.911411  0.177157  1
  O  O26  1  0.508196  0.241666  0.516692  1
  O  O27  1  0.667749  0.413872  0.172234  1
  O  O28  1  0.024876  0.758320  0.483320  1
  O  O29  1  0.357718  0.088595  0.822843  1
