# generated using pymatgen
data_LaYb7(CdIn)4
_symmetry_space_group_name_H-M   'P 1'
_cell_length_a   7.72033570
_cell_length_b   7.71016525
_cell_length_c   7.57335701
_cell_angle_alpha   90.00308969
_cell_angle_beta   89.99560965
_cell_angle_gamma   90.29734319
_symmetry_Int_Tables_number   1
_chemical_formula_structural   LaYb7(CdIn)4
_chemical_formula_sum   'La1 Yb7 Cd4 In4'
_cell_volume   450.79848877
_cell_formula_units_Z   1
loop_
 _symmetry_equiv_pos_site_id
 _symmetry_equiv_pos_as_xyz
  1  'x, y, z'
loop_
 _atom_site_type_symbol
 _atom_site_label
 _atom_site_symmetry_multiplicity
 _atom_site_fract_x
 _atom_site_fract_y
 _atom_site_fract_z
 _atom_site_occupancy
  La  La0  1  0.500005  0.500022  0.750135  1
  Yb  Yb1  1  0.499999  0.000000  0.249976  1
  Yb  Yb2  1  0.500001  0.499996  0.249927  1
  Yb  Yb3  1  0.000000  0.999997  0.250123  1
  Yb  Yb4  1  0.000001  0.499996  0.250053  1
  Yb  Yb5  1  0.999999  0.999995  0.749930  1
  Yb  Yb6  1  0.999995  0.499999  0.749976  1
  Yb  Yb7  1  0.500004  0.999999  0.750055  1
  Cd  Cd8  1  0.755061  0.245162  0.003504  1
  Cd  Cd9  1  0.244928  0.754846  0.003522  1
  Cd  Cd10  1  0.754845  0.245203  0.496493  1
  Cd  Cd11  1  0.245160  0.754797  0.496495  1
  In  In12  1  0.246155  0.246358  0.005269  1
  In  In13  1  0.753862  0.753638  0.005270  1
  In  In14  1  0.753654  0.753471  0.494645  1
  In  In15  1  0.246329  0.246523  0.494628  1
