# generated using pymatgen
data_Nd2Ho5Tm13Si15Os
_symmetry_space_group_name_H-M   'P 1'
_cell_length_a   7.36267003
_cell_length_b   7.71707660
_cell_length_c   14.50738800
_cell_angle_alpha   89.65947868
_cell_angle_beta   90.00494153
_cell_angle_gamma   89.95570483
_symmetry_Int_Tables_number   1
_chemical_formula_structural   Nd2Ho5Tm13Si15Os
_chemical_formula_sum   'Nd2 Ho5 Tm13 Si15 Os1'
_cell_volume   824.27015059
_cell_formula_units_Z   1
loop_
 _symmetry_equiv_pos_site_id
 _symmetry_equiv_pos_as_xyz
  1  'x, y, z'
loop_
 _atom_site_type_symbol
 _atom_site_label
 _atom_site_symmetry_multiplicity
 _atom_site_fract_x
 _atom_site_fract_y
 _atom_site_fract_z
 _atom_site_occupancy
  Nd  Nd0  1  0.520830  0.569767  0.342683  1
  Nd  Nd1  1  0.022860  0.427829  0.657642  1
  Ho  Ho2  1  0.975761  0.068061  0.151330  1
  Ho  Ho3  1  0.478287  0.923095  0.150698  1
  Ho  Ho4  1  0.974609  0.068868  0.848718  1
  Ho  Ho5  1  0.526437  0.565996  0.652791  1
  Ho  Ho6  1  0.024803  0.431812  0.347291  1
  Tm  Tm7  1  0.805671  0.578357  0.877341  1
  Tm  Tm8  1  0.327312  0.433301  0.122321  1
  Tm  Tm9  1  0.182375  0.926330  0.373809  1
  Tm  Tm10  1  0.681463  0.069951  0.626362  1
  Tm  Tm11  1  0.182497  0.925867  0.627383  1
  Tm  Tm12  1  0.680921  0.070575  0.372885  1
  Tm  Tm13  1  0.808573  0.575678  0.122878  1
  Tm  Tm14  1  0.329562  0.437701  0.876078  1
  Tm  Tm15  1  0.645154  0.241810  0.999331  1
  Tm  Tm16  1  0.159269  0.760405  0.000189  1
  Tm  Tm17  1  0.349148  0.261945  0.500041  1
  Tm  Tm18  1  0.848474  0.735827  0.500134  1
  Tm  Tm19  1  0.479248  0.922230  0.850087  1
  Si  Si20  1  0.018938  0.352992  0.999362  1
  Si  Si21  1  0.477095  0.861062  0.500978  1
  Si  Si22  1  0.979316  0.137745  0.499295  1
  Si  Si23  1  0.654257  0.274708  0.789522  1
  Si  Si24  1  0.148122  0.720423  0.210281  1
  Si  Si25  1  0.349735  0.215617  0.286986  1
  Si  Si26  1  0.849074  0.783577  0.711985  1
  Si  Si27  1  0.358003  0.216760  0.712076  1
  Si  Si28  1  0.855635  0.781339  0.288894  1
  Si  Si29  1  0.651484  0.270073  0.208295  1
  Si  Si30  1  0.144166  0.726811  0.792045  1
  Si  Si31  1  0.771090  0.884757  0.000292  1
  Si  Si32  1  0.261498  0.125262  0.999358  1
  Si  Si33  1  0.228410  0.622486  0.501463  1
  Si  Si34  1  0.730081  0.376094  0.499410  1
  Os  Os35  1  0.519841  0.654892  0.999763  1
