# generated using pymatgen
data_TbDy8Sc(SiB4)4
_symmetry_space_group_name_H-M   'P 1'
_cell_length_a   7.20439500
_cell_length_b   7.20382900
_cell_length_c   8.02894900
_cell_angle_alpha   90.00340759
_cell_angle_beta   90.00141428
_cell_angle_gamma   90.00038173
_symmetry_Int_Tables_number   1
_chemical_formula_structural   TbDy8Sc(SiB4)4
_chemical_formula_sum   'Tb1 Dy8 Sc1 Si4 B16'
_cell_volume   416.69626739
_cell_formula_units_Z   1
loop_
 _symmetry_equiv_pos_site_id
 _symmetry_equiv_pos_as_xyz
  1  'x, y, z'
loop_
 _atom_site_type_symbol
 _atom_site_label
 _atom_site_symmetry_multiplicity
 _atom_site_fract_x
 _atom_site_fract_y
 _atom_site_fract_z
 _atom_site_occupancy
  Tb  Tb0  1  0.179660  0.318967  0.227000  1
  Dy  Dy1  1  0.681045  0.179548  0.226088  1
  Dy  Dy2  1  0.318951  0.820372  0.773928  1
  Dy  Dy3  1  0.318976  0.820429  0.226073  1
  Dy  Dy4  1  0.820379  0.681121  0.226215  1
  Dy  Dy5  1  0.820368  0.681078  0.773776  1
  Dy  Dy6  1  0.681076  0.179589  0.773929  1
  Dy  Dy7  1  0.179575  0.318907  0.773704  1
  Dy  Dy8  1  0.500108  0.500063  0.500083  1
  Sc  Sc9  1  0.999928  0.999894  0.500104  1
  Si  Si10  1  0.109501  0.622939  0.500195  1
  Si  Si11  1  0.890121  0.377356  0.500245  1
  Si  Si12  1  0.377384  0.109444  0.500260  1
  Si  Si13  1  0.622886  0.890278  0.500070  1
  B  B14  1  0.172767  0.038833  0.999898  1
  B  B15  1  0.827126  0.960968  0.999930  1
  B  B16  1  0.960884  0.172713  0.999861  1
  B  B17  1  0.327625  0.539416  0.999848  1
  B  B18  1  0.038950  0.827162  0.999909  1
  B  B19  1  0.672512  0.460760  0.999920  1
  B  B20  1  0.539330  0.672544  0.999920  1
  B  B21  1  0.460873  0.327568  0.999914  1
  B  B22  1  0.089627  0.589631  0.999795  1
  B  B23  1  0.910220  0.410521  0.999796  1
  B  B24  1  0.410557  0.089561  0.999962  1
  B  B25  1  0.589475  0.910405  0.999965  1
  B  B26  1  0.999853  0.999713  0.163952  1
  B  B27  1  0.999955  0.000017  0.835848  1
  B  B28  1  0.500041  0.500029  0.836644  1
  B  B29  1  0.500247  0.500172  0.163170  1
