# generated using pymatgen
data_Nb3Te8MoH3
_symmetry_space_group_name_H-M   'P 1'
_cell_length_a   3.60082100
_cell_length_b   3.60082258
_cell_length_c   30.75418600
_cell_angle_alpha   90.00000000
_cell_angle_beta   90.00000000
_cell_angle_gamma   119.99999464
_symmetry_Int_Tables_number   1
_chemical_formula_structural   Nb3Te8MoH3
_chemical_formula_sum   'Nb3 Te8 Mo1 H3'
_cell_volume   345.33305307
_cell_formula_units_Z   1
loop_
 _symmetry_equiv_pos_site_id
 _symmetry_equiv_pos_as_xyz
  1  'x, y, z'
loop_
 _atom_site_type_symbol
 _atom_site_label
 _atom_site_symmetry_multiplicity
 _atom_site_fract_x
 _atom_site_fract_y
 _atom_site_fract_z
 _atom_site_occupancy
  Nb  Nb0  1  0.666667  0.333333  0.500000  1
  Nb  Nb1  1  0.333333  0.666667  0.249619  1
  Nb  Nb2  1  0.333333  0.666667  0.750381  1
  Te  Te3  1  0.666667  0.333333  0.313084  1
  Te  Te4  1  0.666667  0.333333  0.813808  1
  Te  Te5  1  0.333333  0.666667  0.941669  1
  Te  Te6  1  0.333333  0.666667  0.436572  1
  Te  Te7  1  0.333333  0.666667  0.058331  1
  Te  Te8  1  0.333333  0.666667  0.563428  1
  Te  Te9  1  0.666667  0.333333  0.186192  1
  Te  Te10  1  0.666667  0.333333  0.686916  1
  Mo  Mo11  1  0.666667  0.333333  0.000000  1
  H  H12  1  0.000000  0.000000  0.500000  1
  H  H13  1  0.000000  0.000000  0.249641  1
  H  H14  1  0.000000  0.000000  0.750359  1
