# generated using pymatgen
data_Th2CoSi4Ir3
_symmetry_space_group_name_H-M   'P 1'
_cell_length_a   4.15211000
_cell_length_b   4.15211000
_cell_length_c   9.86983300
_cell_angle_alpha   90.00000000
_cell_angle_beta   90.00000000
_cell_angle_gamma   90.00000000
_symmetry_Int_Tables_number   1
_chemical_formula_structural   Th2CoSi4Ir3
_chemical_formula_sum   'Th2 Co1 Si4 Ir3'
_cell_volume   170.15609317
_cell_formula_units_Z   1
loop_
 _symmetry_equiv_pos_site_id
 _symmetry_equiv_pos_as_xyz
  1  'x, y, z'
loop_
 _atom_site_type_symbol
 _atom_site_label
 _atom_site_symmetry_multiplicity
 _atom_site_fract_x
 _atom_site_fract_y
 _atom_site_fract_z
 _atom_site_occupancy
  Th  Th0  1  0.000000  0.500000  0.255479  1
  Th  Th1  1  0.500000  0.000000  0.741292  1
  Co  Co2  1  0.000000  0.500000  0.623581  1
  Si  Si3  1  0.000000  0.000000  0.510081  1
  Si  Si4  1  0.500000  0.500000  0.510081  1
  Si  Si5  1  0.000000  0.500000  0.859755  1
  Si  Si6  1  0.500000  0.000000  0.129529  1
  Ir  Ir7  1  0.000000  0.000000  0.997239  1
  Ir  Ir8  1  0.500000  0.500000  0.997239  1
  Ir  Ir9  1  0.500000  0.000000  0.375724  1
