# generated using pymatgen
data_LiHo4Si6Pt
_symmetry_space_group_name_H-M   'P 1'
_cell_length_a   8.17350600
_cell_length_b   8.17350651
_cell_length_c   7.96942700
_cell_angle_alpha   90.00000000
_cell_angle_beta   90.00000000
_cell_angle_gamma   119.99998984
_symmetry_Int_Tables_number   1
_chemical_formula_structural   LiHo4Si6Pt
_chemical_formula_sum   'Li2 Ho8 Si12 Pt2'
_cell_volume   461.07818148
_cell_formula_units_Z   2
loop_
 _symmetry_equiv_pos_site_id
 _symmetry_equiv_pos_as_xyz
  1  'x, y, z'
loop_
 _atom_site_type_symbol
 _atom_site_label
 _atom_site_symmetry_multiplicity
 _atom_site_fract_x
 _atom_site_fract_y
 _atom_site_fract_z
 _atom_site_occupancy
  Li  Li0  1  0.666602  0.333324  0.011702  1
  Li  Li1  1  0.666602  0.333324  0.488298  1
  Ho  Ho2  1  0.000004  0.999998  0.250000  1
  Ho  Ho3  1  0.999800  0.999849  0.750000  1
  Ho  Ho4  1  0.009254  0.504630  0.250000  1
  Ho  Ho5  1  0.495422  0.504596  0.250000  1
  Ho  Ho6  1  0.498804  0.997600  0.750000  1
  Ho  Ho7  1  0.495412  0.990808  0.250000  1
  Ho  Ho8  1  0.498810  0.501207  0.750000  1
  Ho  Ho9  1  0.002443  0.501222  0.750000  1
  Si  Si10  1  0.165252  0.330471  0.999289  1
  Si  Si11  1  0.669576  0.834788  0.999295  1
  Si  Si12  1  0.165252  0.330471  0.500711  1
  Si  Si13  1  0.335242  0.167630  0.999587  1
  Si  Si14  1  0.165235  0.834790  0.999286  1
  Si  Si15  1  0.669576  0.834788  0.500705  1
  Si  Si16  1  0.832406  0.664811  0.999590  1
  Si  Si17  1  0.335242  0.167630  0.500413  1
  Si  Si18  1  0.165235  0.834790  0.500714  1
  Si  Si19  1  0.832406  0.664811  0.500410  1
  Si  Si20  1  0.832409  0.167599  0.999593  1
  Si  Si21  1  0.832409  0.167599  0.500407  1
  Pt  Pt22  1  0.333303  0.666632  0.997596  1
  Pt  Pt23  1  0.333303  0.666632  0.502404  1
