# generated using pymatgen
data_Y3AlCd2Pt3
_symmetry_space_group_name_H-M   'P 1'
_cell_length_a   7.61448373
_cell_length_b   7.49236022
_cell_length_c   3.88488400
_cell_angle_alpha   90.00000000
_cell_angle_beta   90.00000000
_cell_angle_gamma   119.47086738
_symmetry_Int_Tables_number   1
_chemical_formula_structural   Y3AlCd2Pt3
_chemical_formula_sum   'Y3 Al1 Cd2 Pt3'
_cell_volume   192.95622967
_cell_formula_units_Z   1
loop_
 _symmetry_equiv_pos_site_id
 _symmetry_equiv_pos_as_xyz
  1  'x, y, z'
loop_
 _atom_site_type_symbol
 _atom_site_label
 _atom_site_symmetry_multiplicity
 _atom_site_fract_x
 _atom_site_fract_y
 _atom_site_fract_z
 _atom_site_occupancy
  Y  Y0  1  0.405716  0.404916  0.500000  1
  Y  Y1  1  0.594284  0.999201  0.500000  1
  Y  Y2  1  0.000000  0.586279  0.500000  1
  Al  Al3  1  0.000000  0.256155  0.000000  1
  Cd  Cd4  1  0.749048  0.745962  0.000000  1
  Cd  Cd5  1  0.250952  0.996913  0.000000  1
  Pt  Pt6  1  0.680586  0.324570  0.000000  1
  Pt  Pt7  1  0.319414  0.643985  0.000000  1
  Pt  Pt8  1  0.000000  0.042019  0.500000  1
