# generated using pymatgen
data_Tb11SmTc4
_symmetry_space_group_name_H-M   'P 1'
_cell_length_a   6.29688015
_cell_length_b   7.43823819
_cell_length_c   9.25825500
_cell_angle_alpha   90.01002143
_cell_angle_beta   90.01234744
_cell_angle_gamma   90.03077851
_symmetry_Int_Tables_number   1
_chemical_formula_structural   Tb11SmTc4
_chemical_formula_sum   'Tb11 Sm1 Tc4'
_cell_volume   433.63523875
_cell_formula_units_Z   1
loop_
 _symmetry_equiv_pos_site_id
 _symmetry_equiv_pos_as_xyz
  1  'x, y, z'
loop_
 _atom_site_type_symbol
 _atom_site_label
 _atom_site_symmetry_multiplicity
 _atom_site_fract_x
 _atom_site_fract_y
 _atom_site_fract_z
 _atom_site_occupancy
  Tb  Tb0  1  0.126682  0.457268  0.750231  1
  Tb  Tb1  1  0.661832  0.324788  0.936669  1
  Tb  Tb2  1  0.372200  0.957771  0.750222  1
  Tb  Tb3  1  0.872650  0.542172  0.249759  1
  Tb  Tb4  1  0.628307  0.042524  0.249638  1
  Tb  Tb5  1  0.161457  0.175857  0.436863  1
  Tb  Tb6  1  0.838430  0.824419  0.563645  1
  Tb  Tb7  1  0.161859  0.175992  0.062869  1
  Tb  Tb8  1  0.837666  0.823763  0.937042  1
  Tb  Tb9  1  0.662772  0.323849  0.563093  1
  Tb  Tb10  1  0.337595  0.675599  0.062430  1
  Sm  Sm11  1  0.337870  0.676203  0.437522  1
  Tc  Tc12  1  0.540444  0.612499  0.750713  1
  Tc  Tc13  1  0.959999  0.112594  0.750230  1
  Tc  Tc14  1  0.039360  0.888153  0.249651  1
  Tc  Tc15  1  0.460876  0.386549  0.249425  1
