# generated using pymatgen
data_Eu10SnBi3Rh2
_symmetry_space_group_name_H-M   'P 1'
_cell_length_a   8.43653702
_cell_length_b   9.48375875
_cell_length_c   13.07850700
_cell_angle_alpha   90.03986762
_cell_angle_beta   90.02822500
_cell_angle_gamma   89.95107472
_symmetry_Int_Tables_number   1
_chemical_formula_structural   Eu10SnBi3Rh2
_chemical_formula_sum   'Eu20 Sn2 Bi6 Rh4'
_cell_volume   1046.41165372
_cell_formula_units_Z   2
loop_
 _symmetry_equiv_pos_site_id
 _symmetry_equiv_pos_as_xyz
  1  'x, y, z'
loop_
 _atom_site_type_symbol
 _atom_site_label
 _atom_site_symmetry_multiplicity
 _atom_site_fract_x
 _atom_site_fract_y
 _atom_site_fract_z
 _atom_site_occupancy
  Eu  Eu0  1  0.841304  0.747188  0.793161  1
  Eu  Eu1  1  0.158696  0.252812  0.206839  1
  Eu  Eu2  1  0.344541  0.252939  0.709494  1
  Eu  Eu3  1  0.655459  0.747061  0.290506  1
  Eu  Eu4  1  0.377901  0.746742  0.694669  1
  Eu  Eu5  1  0.622099  0.253258  0.305331  1
  Eu  Eu6  1  0.872135  0.252909  0.806400  1
  Eu  Eu7  1  0.127865  0.747091  0.193600  1
  Eu  Eu8  1  0.948383  0.749764  0.503174  1
  Eu  Eu9  1  0.051617  0.250236  0.496826  1
  Eu  Eu10  1  0.451338  0.253918  0.996480  1
  Eu  Eu11  1  0.548662  0.746082  0.003520  1
  Eu  Eu12  1  0.678921  0.036285  0.568836  1
  Eu  Eu13  1  0.321079  0.963715  0.431164  1
  Eu  Eu14  1  0.179874  0.965953  0.931432  1
  Eu  Eu15  1  0.322110  0.534494  0.428167  1
  Eu  Eu16  1  0.820126  0.034047  0.068568  1
  Eu  Eu17  1  0.677890  0.465506  0.571833  1
  Eu  Eu18  1  0.817784  0.465186  0.067474  1
  Eu  Eu19  1  0.182216  0.534814  0.932526  1
  Sn  Sn20  1  0.570446  0.492765  0.829501  1
  Sn  Sn21  1  0.429554  0.507235  0.170499  1
  Bi  Bi22  1  0.071639  0.507497  0.669906  1
  Bi  Bi23  1  0.428937  0.993493  0.170365  1
  Bi  Bi24  1  0.928361  0.492503  0.330094  1
  Bi  Bi25  1  0.571063  0.006507  0.829635  1
  Bi  Bi26  1  0.928402  0.007650  0.328619  1
  Bi  Bi27  1  0.071598  0.992350  0.671381  1
  Rh  Rh28  1  0.568318  0.749994  0.508690  1
  Rh  Rh29  1  0.431682  0.250006  0.491310  1
  Rh  Rh30  1  0.066243  0.250896  0.990241  1
  Rh  Rh31  1  0.933757  0.749104  0.009759  1
