# generated using pymatgen
data_Ce3Gd7(Zn2Ru3)2
_symmetry_space_group_name_H-M   'P 1'
_cell_length_a   8.42699675
_cell_length_b   8.42699583
_cell_length_c   8.42699800
_cell_angle_alpha   110.22540565
_cell_angle_beta   110.22541784
_cell_angle_gamma   110.22541506
_symmetry_Int_Tables_number   1
_chemical_formula_structural   Ce3Gd7(Zn2Ru3)2
_chemical_formula_sum   'Ce3 Gd7 Zn4 Ru6'
_cell_volume   447.35167329
_cell_formula_units_Z   1
loop_
 _symmetry_equiv_pos_site_id
 _symmetry_equiv_pos_as_xyz
  1  'x, y, z'
loop_
 _atom_site_type_symbol
 _atom_site_label
 _atom_site_symmetry_multiplicity
 _atom_site_fract_x
 _atom_site_fract_y
 _atom_site_fract_z
 _atom_site_occupancy
  Ce  Ce0  1  0.251472  0.199348  0.943165  1
  Ce  Ce1  1  0.943165  0.251472  0.199348  1
  Ce  Ce2  1  0.199348  0.943165  0.251472  1
  Gd  Gd3  1  0.777804  0.777804  0.777804  1
  Gd  Gd4  1  0.314052  0.566482  0.753335  1
  Gd  Gd5  1  0.753335  0.314052  0.566482  1
  Gd  Gd6  1  0.566482  0.753335  0.314052  1
  Gd  Gd7  1  0.726758  0.505268  0.995217  1
  Gd  Gd8  1  0.995217  0.726758  0.505268  1
  Gd  Gd9  1  0.505268  0.995217  0.726758  1
  Zn  Zn10  1  0.418163  0.418163  0.418163  1
  Zn  Zn11  1  0.089995  0.497569  0.004413  1
  Zn  Zn12  1  0.004413  0.089995  0.497569  1
  Zn  Zn13  1  0.497569  0.004413  0.089995  1
  Ru  Ru14  1  0.899019  0.113708  0.754605  1
  Ru  Ru15  1  0.754605  0.899019  0.113708  1
  Ru  Ru16  1  0.113708  0.754605  0.899019  1
  Ru  Ru17  1  0.219807  0.595583  0.374236  1
  Ru  Ru18  1  0.374236  0.219807  0.595583  1
  Ru  Ru19  1  0.595583  0.374236  0.219807  1
