# generated using pymatgen
data_Sc22Tc4Hg3Os
_symmetry_space_group_name_H-M   'P 1'
_cell_length_a   9.62116168
_cell_length_b   9.68272088
_cell_length_c   9.79289447
_cell_angle_alpha   59.20584471
_cell_angle_beta   60.02923193
_cell_angle_gamma   60.96755929
_symmetry_Int_Tables_number   1
_chemical_formula_structural   Sc22Tc4Hg3Os
_chemical_formula_sum   'Sc22 Tc4 Hg3 Os1'
_cell_volume   645.77289436
_cell_formula_units_Z   1
loop_
 _symmetry_equiv_pos_site_id
 _symmetry_equiv_pos_as_xyz
  1  'x, y, z'
loop_
 _atom_site_type_symbol
 _atom_site_label
 _atom_site_symmetry_multiplicity
 _atom_site_fract_x
 _atom_site_fract_y
 _atom_site_fract_z
 _atom_site_occupancy
  Sc  Sc0  1  0.859915  0.835405  0.834744  1
  Sc  Sc1  1  0.525815  0.180083  0.145207  1
  Sc  Sc2  1  0.145207  0.148894  0.525815  1
  Sc  Sc3  1  0.165256  0.530063  0.140085  1
  Sc  Sc4  1  0.854793  0.851106  0.474185  1
  Sc  Sc5  1  0.834744  0.469937  0.859915  1
  Sc  Sc6  1  0.474185  0.819917  0.854793  1
  Sc  Sc7  1  0.140085  0.164595  0.165256  1
  Sc  Sc8  1  0.194481  0.805519  0.194481  1
  Sc  Sc9  1  0.195960  0.802873  0.804040  1
  Sc  Sc10  1  0.804040  0.197127  0.195960  1
  Sc  Sc11  1  0.808394  0.807218  0.191606  1
  Sc  Sc12  1  0.191606  0.192782  0.808394  1
  Sc  Sc13  1  0.805519  0.194481  0.805519  1
  Sc  Sc14  1  0.387554  0.394871  0.375163  1
  Sc  Sc15  1  0.153636  0.613257  0.626400  1
  Sc  Sc16  1  0.624837  0.157587  0.612446  1
  Sc  Sc17  1  0.626400  0.606707  0.153636  1
  Sc  Sc18  1  0.375163  0.842413  0.387554  1
  Sc  Sc19  1  0.373600  0.393293  0.846364  1
  Sc  Sc20  1  0.846364  0.386743  0.373600  1
  Sc  Sc21  1  0.612446  0.605129  0.624837  1
  Tc  Tc22  1  0.500000  0.500000  0.000000  1
  Tc  Tc23  1  0.000000  0.000000  0.500000  1
  Tc  Tc24  1  0.000000  0.500000  0.000000  1
  Tc  Tc25  1  0.000000  0.000000  0.000000  1
  Hg  Hg26  1  0.500000  0.000000  0.500000  1
  Hg  Hg27  1  0.000000  0.500000  0.500000  1
  Hg  Hg28  1  0.500000  0.000000  0.000000  1
  Os  Os29  1  0.500000  0.500000  0.500000  1
