# generated using pymatgen
data_CePuNiB10
_symmetry_space_group_name_H-M   'P 1'
_cell_length_a   4.15011200
_cell_length_b   5.58269398
_cell_length_c   11.10767897
_cell_angle_alpha   90.13703361
_cell_angle_beta   90.00000000
_cell_angle_gamma   90.00000000
_symmetry_Int_Tables_number   1
_chemical_formula_structural   CePuNiB10
_chemical_formula_sum   'Ce2 Pu2 Ni2 B20'
_cell_volume   257.35091501
_cell_formula_units_Z   2
loop_
 _symmetry_equiv_pos_site_id
 _symmetry_equiv_pos_as_xyz
  1  'x, y, z'
loop_
 _atom_site_type_symbol
 _atom_site_label
 _atom_site_symmetry_multiplicity
 _atom_site_fract_x
 _atom_site_fract_y
 _atom_site_fract_z
 _atom_site_occupancy
  Ce  Ce0  1  0.500000  0.812940  0.639118  1
  Ce  Ce1  1  0.500000  0.187060  0.360882  1
  Pu  Pu2  1  0.500000  0.315476  0.860271  1
  Pu  Pu3  1  0.500000  0.684524  0.139729  1
  Ni  Ni4  1  0.000000  0.500000  0.500000  1
  Ni  Ni5  1  0.000000  0.000000  0.000000  1
  B  B6  1  0.000000  0.125641  0.540858  1
  B  B7  1  0.000000  0.874359  0.459142  1
  B  B8  1  0.000000  0.625905  0.960355  1
  B  B9  1  0.000000  0.374095  0.039645  1
  B  B10  1  0.000000  0.156737  0.698610  1
  B  B11  1  0.000000  0.843263  0.301390  1
  B  B12  1  0.301646  0.200806  0.112929  1
  B  B13  1  0.301646  0.799194  0.887071  1
  B  B14  1  0.698467  0.700892  0.385387  1
  B  B15  1  0.698467  0.299108  0.614613  1
  B  B16  1  0.698354  0.799194  0.887071  1
  B  B17  1  0.698354  0.200806  0.112929  1
  B  B18  1  0.301533  0.299108  0.614613  1
  B  B19  1  0.301533  0.700892  0.385387  1
  B  B20  1  0.000000  0.030956  0.186844  1
  B  B21  1  0.000000  0.969044  0.813156  1
  B  B22  1  0.000000  0.531431  0.311935  1
  B  B23  1  0.000000  0.468569  0.688065  1
  B  B24  1  0.000000  0.342720  0.197097  1
  B  B25  1  0.000000  0.657280  0.802903  1
