# generated using pymatgen
data_YbMg(WN2)2
_symmetry_space_group_name_H-M   'P 1'
_cell_length_a   2.97928900
_cell_length_b   2.97929015
_cell_length_c   11.00852000
_cell_angle_alpha   90.00000000
_cell_angle_beta   90.00000000
_cell_angle_gamma   119.99999832
_symmetry_Int_Tables_number   1
_chemical_formula_structural   YbMg(WN2)2
_chemical_formula_sum   'Yb1 Mg1 W2 N4'
_cell_volume   84.62233582
_cell_formula_units_Z   1
loop_
 _symmetry_equiv_pos_site_id
 _symmetry_equiv_pos_as_xyz
  1  'x, y, z'
loop_
 _atom_site_type_symbol
 _atom_site_label
 _atom_site_symmetry_multiplicity
 _atom_site_fract_x
 _atom_site_fract_y
 _atom_site_fract_z
 _atom_site_occupancy
  Yb  Yb0  1  0.000000  0.000000  0.500000  1
  Mg  Mg1  1  0.000000  0.000000  0.000000  1
  W  W2  1  0.333333  0.666667  0.758501  1
  W  W3  1  0.666667  0.333333  0.241499  1
  N  N4  1  0.666667  0.333333  0.643846  1
  N  N5  1  0.666667  0.333333  0.877161  1
  N  N6  1  0.333333  0.666667  0.122839  1
  N  N7  1  0.333333  0.666667  0.356154  1
