# generated using pymatgen
data_Tb3Al3FeSiGe
_symmetry_space_group_name_H-M   'P 1'
_cell_length_a   6.91435600
_cell_length_b   6.91435605
_cell_length_c   4.19673500
_cell_angle_alpha   90.00000000
_cell_angle_beta   90.00000000
_cell_angle_gamma   119.99999978
_symmetry_Int_Tables_number   1
_chemical_formula_structural   Tb3Al3FeSiGe
_chemical_formula_sum   'Tb3 Al3 Fe1 Si1 Ge1'
_cell_volume   173.75833847
_cell_formula_units_Z   1
loop_
 _symmetry_equiv_pos_site_id
 _symmetry_equiv_pos_as_xyz
  1  'x, y, z'
loop_
 _atom_site_type_symbol
 _atom_site_label
 _atom_site_symmetry_multiplicity
 _atom_site_fract_x
 _atom_site_fract_y
 _atom_site_fract_z
 _atom_site_occupancy
  Tb  Tb0  1  0.405367  0.998182  0.000000  1
  Tb  Tb1  1  0.001818  0.407185  0.000000  1
  Tb  Tb2  1  0.592815  0.594633  0.000000  1
  Al  Al3  1  0.772464  0.996875  0.499999  1
  Al  Al4  1  0.224411  0.227537  0.499999  1
  Al  Al5  1  0.003125  0.775588  0.499999  1
  Fe  Fe6  1  0.000000  0.000000  0.000000  1
  Si  Si7  1  0.333334  0.666667  0.499999  1
  Ge  Ge8  1  0.666666  0.333333  0.499999  1
