# generated using pymatgen
data_Ta3AlCrGaC
_symmetry_space_group_name_H-M   'P 1'
_cell_length_a   8.26689724
_cell_length_b   8.26689764
_cell_length_c   8.26689725
_cell_angle_alpha   60.05153603
_cell_angle_beta   60.05153459
_cell_angle_gamma   60.05153805
_symmetry_Int_Tables_number   1
_chemical_formula_structural   Ta3AlCrGaC
_chemical_formula_sum   'Ta12 Al4 Cr4 Ga4 C4'
_cell_volume   399.96283146
_cell_formula_units_Z   4
loop_
 _symmetry_equiv_pos_site_id
 _symmetry_equiv_pos_as_xyz
  1  'x, y, z'
loop_
 _atom_site_type_symbol
 _atom_site_label
 _atom_site_symmetry_multiplicity
 _atom_site_fract_x
 _atom_site_fract_y
 _atom_site_fract_z
 _atom_site_occupancy
  Ta  Ta0  1  0.554784  0.944945  0.554784  1
  Ta  Ta1  1  0.304218  0.695504  0.695504  1
  Ta  Ta2  1  0.695640  0.304805  0.304805  1
  Ta  Ta3  1  0.304805  0.695640  0.304805  1
  Ta  Ta4  1  0.695504  0.695504  0.304218  1
  Ta  Ta5  1  0.304805  0.304805  0.695640  1
  Ta  Ta6  1  0.554784  0.554784  0.944945  1
  Ta  Ta7  1  0.944945  0.554784  0.554784  1
  Ta  Ta8  1  0.554962  0.945529  0.945529  1
  Ta  Ta9  1  0.945529  0.945529  0.554962  1
  Ta  Ta10  1  0.695504  0.304218  0.695504  1
  Ta  Ta11  1  0.945529  0.554962  0.945529  1
  Al  Al12  1  0.915094  0.915094  0.915094  1
  Al  Al13  1  0.996161  0.334265  0.334265  1
  Al  Al14  1  0.334265  0.996161  0.334265  1
  Al  Al15  1  0.334265  0.334265  0.996161  1
  Cr  Cr16  1  0.124631  0.124631  0.124631  1
  Cr  Cr17  1  0.625500  0.124441  0.124441  1
  Cr  Cr18  1  0.124441  0.625500  0.124441  1
  Cr  Cr19  1  0.124441  0.124441  0.625500  1
  Ga  Ga20  1  0.913006  0.259202  0.913006  1
  Ga  Ga21  1  0.913006  0.913006  0.259202  1
  Ga  Ga22  1  0.259202  0.913006  0.913006  1
  Ga  Ga23  1  0.335581  0.335581  0.335581  1
  C  C24  1  0.625224  0.625224  0.625224  1
  C  C25  1  0.125386  0.624393  0.624393  1
  C  C26  1  0.624393  0.125386  0.624393  1
  C  C27  1  0.624393  0.624393  0.125386  1
