# generated using pymatgen
data_Sm2YFe2Co7P6
_symmetry_space_group_name_H-M   'P 1'
_cell_length_a   3.72718900
_cell_length_b   10.60650300
_cell_length_c   12.18617400
_cell_angle_alpha   90.00000000
_cell_angle_beta   90.00000000
_cell_angle_gamma   90.00000000
_symmetry_Int_Tables_number   1
_chemical_formula_structural   Sm2YFe2Co7P6
_chemical_formula_sum   'Sm4 Y2 Fe4 Co14 P12'
_cell_volume   481.74920845
_cell_formula_units_Z   2
loop_
 _symmetry_equiv_pos_site_id
 _symmetry_equiv_pos_as_xyz
  1  'x, y, z'
loop_
 _atom_site_type_symbol
 _atom_site_label
 _atom_site_symmetry_multiplicity
 _atom_site_fract_x
 _atom_site_fract_y
 _atom_site_fract_z
 _atom_site_occupancy
  Sm  Sm0  1  0.000000  0.500000  0.522496  1
  Sm  Sm1  1  0.500000  0.000000  0.478291  1
  Sm  Sm2  1  0.500000  0.818719  0.204173  1
  Sm  Sm3  1  0.500000  0.181281  0.204173  1
  Y  Y4  1  0.000000  0.681060  0.795915  1
  Y  Y5  1  0.000000  0.318940  0.795915  1
  Fe  Fe6  1  0.500000  0.500000  0.154233  1
  Fe  Fe7  1  0.000000  0.000000  0.845223  1
  Fe  Fe8  1  0.000000  0.500000  0.987660  1
  Fe  Fe9  1  0.500000  0.000000  0.009753  1
  Co  Co10  1  0.500000  0.500000  0.702742  1
  Co  Co11  1  0.000000  0.000000  0.298284  1
  Co  Co12  1  0.500000  0.332404  0.993723  1
  Co  Co13  1  0.500000  0.667596  0.993723  1
  Co  Co14  1  0.000000  0.168647  0.003859  1
  Co  Co15  1  0.000000  0.831353  0.003859  1
  Co  Co16  1  0.500000  0.296601  0.431043  1
  Co  Co17  1  0.500000  0.703399  0.431043  1
  Co  Co18  1  0.000000  0.204034  0.571049  1
  Co  Co19  1  0.000000  0.795966  0.571049  1
  Co  Co20  1  0.500000  0.879318  0.710692  1
  Co  Co21  1  0.500000  0.120682  0.710692  1
  Co  Co22  1  0.000000  0.619745  0.290224  1
  Co  Co23  1  0.000000  0.380255  0.290224  1
  P  P24  1  0.500000  0.500000  0.884603  1
  P  P25  1  0.000000  0.000000  0.112551  1
  P  P26  1  0.500000  0.500000  0.339280  1
  P  P27  1  0.000000  0.000000  0.661007  1
  P  P28  1  0.500000  0.308340  0.617512  1
  P  P29  1  0.500000  0.691660  0.617512  1
  P  P30  1  0.000000  0.192583  0.385074  1
  P  P31  1  0.000000  0.807417  0.385074  1
  P  P32  1  0.500000  0.846959  0.893753  1
  P  P33  1  0.500000  0.153041  0.893753  1
  P  P34  1  0.000000  0.651174  0.104921  1
  P  P35  1  0.000000  0.348826  0.104921  1
