# generated using pymatgen
data_Er3TmGa4RuPt3
_symmetry_space_group_name_H-M   'P 1'
_cell_length_a   4.41282600
_cell_length_b   6.79324353
_cell_length_c   7.68574089
_cell_angle_alpha   89.48632273
_cell_angle_beta   90.00000000
_cell_angle_gamma   90.00000000
_symmetry_Int_Tables_number   1
_chemical_formula_structural   Er3TmGa4RuPt3
_chemical_formula_sum   'Er3 Tm1 Ga4 Ru1 Pt3'
_cell_volume   230.38928266
_cell_formula_units_Z   1
loop_
 _symmetry_equiv_pos_site_id
 _symmetry_equiv_pos_as_xyz
  1  'x, y, z'
loop_
 _atom_site_type_symbol
 _atom_site_label
 _atom_site_symmetry_multiplicity
 _atom_site_fract_x
 _atom_site_fract_y
 _atom_site_fract_z
 _atom_site_occupancy
  Er  Er0  1  0.250000  0.980512  0.306946  1
  Er  Er1  1  0.250000  0.478621  0.189649  1
  Er  Er2  1  0.750000  0.017783  0.698634  1
  Tm  Tm3  1  0.750000  0.514240  0.804389  1
  Ga  Ga4  1  0.250000  0.329422  0.574647  1
  Ga  Ga5  1  0.250000  0.840434  0.926538  1
  Ga  Ga6  1  0.750000  0.666957  0.428871  1
  Ga  Ga7  1  0.750000  0.172015  0.069223  1
  Ru  Ru8  1  0.250000  0.232173  0.898179  1
  Pt  Pt9  1  0.250000  0.724647  0.604164  1
  Pt  Pt10  1  0.750000  0.771113  0.101578  1
  Pt  Pt11  1  0.750000  0.272084  0.397183  1
