# generated using pymatgen
data_Ho5ZnIn3
_symmetry_space_group_name_H-M   'P 1'
_cell_length_a   9.13492300
_cell_length_b   9.13492379
_cell_length_c   6.65907500
_cell_angle_alpha   90.00000000
_cell_angle_beta   90.00000000
_cell_angle_gamma   120.00000077
_symmetry_Int_Tables_number   1
_chemical_formula_structural   Ho5ZnIn3
_chemical_formula_sum   'Ho10 Zn2 In6'
_cell_volume   481.23183987
_cell_formula_units_Z   2
loop_
 _symmetry_equiv_pos_site_id
 _symmetry_equiv_pos_as_xyz
  1  'x, y, z'
loop_
 _atom_site_type_symbol
 _atom_site_label
 _atom_site_symmetry_multiplicity
 _atom_site_fract_x
 _atom_site_fract_y
 _atom_site_fract_z
 _atom_site_occupancy
  Ho  Ho0  1  0.333333  0.666667  0.500000  1
  Ho  Ho1  1  0.666667  0.333333  0.500000  1
  Ho  Ho2  1  0.666667  0.333333  0.000000  1
  Ho  Ho3  1  0.333333  0.666667  0.000000  1
  Ho  Ho4  1  0.275788  0.000000  0.750000  1
  Ho  Ho5  1  0.724212  0.000000  0.250000  1
  Ho  Ho6  1  0.000000  0.275788  0.750000  1
  Ho  Ho7  1  0.000000  0.724212  0.250000  1
  Ho  Ho8  1  0.724212  0.724212  0.750000  1
  Ho  Ho9  1  0.275788  0.275788  0.250000  1
  Zn  Zn10  1  0.000000  0.000000  0.500000  1
  Zn  Zn11  1  0.000000  0.000000  0.000000  1
  In  In12  1  0.622280  0.000000  0.750000  1
  In  In13  1  0.377720  0.000000  0.250000  1
  In  In14  1  0.000000  0.622280  0.750000  1
  In  In15  1  0.000000  0.377720  0.250000  1
  In  In16  1  0.377720  0.377720  0.750000  1
  In  In17  1  0.622280  0.622280  0.250000  1
