# generated using pymatgen
data_Y2U2As6Ru7
_symmetry_space_group_name_H-M   'P 1'
_cell_length_a   7.26070425
_cell_length_b   7.19732037
_cell_length_c   7.19732102
_cell_angle_alpha   109.46264282
_cell_angle_beta   109.29872389
_cell_angle_gamma   109.29872667
_symmetry_Int_Tables_number   1
_chemical_formula_structural   Y2U2As6Ru7
_chemical_formula_sum   'Y2 U2 As6 Ru7'
_cell_volume   290.78925317
_cell_formula_units_Z   1
loop_
 _symmetry_equiv_pos_site_id
 _symmetry_equiv_pos_as_xyz
  1  'x, y, z'
loop_
 _atom_site_type_symbol
 _atom_site_label
 _atom_site_symmetry_multiplicity
 _atom_site_fract_x
 _atom_site_fract_y
 _atom_site_fract_z
 _atom_site_occupancy
  Y  Y0  1  0.000000  0.000000  0.500000  1
  Y  Y1  1  0.000000  0.500000  0.000000  1
  U  U2  1  0.500000  0.000000  0.000000  1
  U  U3  1  0.500000  0.500000  0.500000  1
  As  As4  1  0.310487  0.996368  0.314119  1
  As  As5  1  0.000000  0.314216  0.314216  1
  As  As6  1  0.000000  0.685784  0.685784  1
  As  As7  1  0.310487  0.314119  0.996368  1
  As  As8  1  0.689513  0.685881  0.003632  1
  As  As9  1  0.689513  0.003632  0.685881  1
  Ru  Ru10  1  0.741301  0.491815  0.249486  1
  Ru  Ru11  1  0.500000  0.750000  0.250000  1
  Ru  Ru12  1  0.500000  0.250000  0.750000  1
  Ru  Ru13  1  0.741301  0.249486  0.491815  1
  Ru  Ru14  1  0.258699  0.750514  0.508185  1
  Ru  Ru15  1  0.258699  0.508185  0.750514  1
  Ru  Ru16  1  0.000000  0.000000  0.000000  1
