# generated using pymatgen
data_Tb5YNi20As9P4
_symmetry_space_group_name_H-M   'P 1'
_cell_length_a   12.95292507
_cell_length_b   12.95180637
_cell_length_c   3.85354900
_cell_angle_alpha   90.00000000
_cell_angle_beta   90.00000000
_cell_angle_gamma   119.99193011
_symmetry_Int_Tables_number   1
_chemical_formula_structural   Tb5YNi20As9P4
_chemical_formula_sum   'Tb5 Y1 Ni20 As9 P4'
_cell_volume   559.91876651
_cell_formula_units_Z   1
loop_
 _symmetry_equiv_pos_site_id
 _symmetry_equiv_pos_as_xyz
  1  'x, y, z'
loop_
 _atom_site_type_symbol
 _atom_site_label
 _atom_site_symmetry_multiplicity
 _atom_site_fract_x
 _atom_site_fract_y
 _atom_site_fract_z
 _atom_site_occupancy
  Tb  Tb0  1  0.469352  0.187002  0.000000  1
  Tb  Tb1  1  0.717679  0.530717  0.000000  1
  Tb  Tb2  1  0.812782  0.282171  0.000000  1
  Tb  Tb3  1  0.526490  0.808544  0.500000  1
  Tb  Tb4  1  0.282085  0.473492  0.500000  1
  Y  Y5  1  0.191438  0.718061  0.500000  1
  Ni  Ni6  1  0.333427  0.666715  0.000000  1
  Ni  Ni7  1  0.666542  0.333210  0.500000  1
  Ni  Ni8  1  0.190823  0.084319  0.000000  1
  Ni  Ni9  1  0.893579  0.809168  0.000000  1
  Ni  Ni10  1  0.915720  0.106532  0.000000  1
  Ni  Ni11  1  0.863133  0.939304  0.500000  1
  Ni  Ni12  1  0.076129  0.136895  0.500000  1
  Ni  Ni13  1  0.060748  0.923837  0.500000  1
  Ni  Ni14  1  0.440180  0.427631  0.000000  1
  Ni  Ni15  1  0.987563  0.559956  0.000000  1
  Ni  Ni16  1  0.572366  0.012484  0.000000  1
  Ni  Ni17  1  0.555798  0.588983  0.500000  1
  Ni  Ni18  1  0.033037  0.444129  0.500000  1
  Ni  Ni19  1  0.410920  0.966793  0.500000  1
  Ni  Ni20  1  0.077817  0.330892  0.000000  1
  Ni  Ni21  1  0.252813  0.922090  0.000000  1
  Ni  Ni22  1  0.669360  0.747130  0.000000  1
  Ni  Ni23  1  0.930885  0.688053  0.500000  1
  Ni  Ni24  1  0.757371  0.069186  0.500000  1
  Ni  Ni25  1  0.311780  0.242649  0.500000  1
  As  As26  1  0.232120  0.283582  0.000000  1
  As  As27  1  0.051474  0.767749  0.000000  1
  As  As28  1  0.716418  0.948584  0.000000  1
  As  As29  1  0.765821  0.723100  0.500000  1
  As  As30  1  0.957489  0.234364  0.500000  1
  As  As31  1  0.277026  0.042779  0.500000  1
  As  As32  1  0.521056  0.386465  0.500000  1
  As  As33  1  0.865326  0.478883  0.500000  1
  As  As34  1  0.613437  0.134488  0.500000  1
  P  P35  1  0.472935  0.614875  0.000000  1
  P  P36  1  0.142091  0.527291  0.000000  1
  P  P37  1  0.384969  0.857876  0.000000  1
  P  P38  1  0.000024  0.000019  0.000000  1
