# generated using pymatgen
data_Cs4USnI12
_symmetry_space_group_name_H-M   'P 1'
_cell_length_a   8.60885000
_cell_length_b   8.60885000
_cell_length_c   12.41338300
_cell_angle_alpha   90.00000000
_cell_angle_beta   90.00000000
_cell_angle_gamma   90.00000000
_symmetry_Int_Tables_number   1
_chemical_formula_structural   Cs4USnI12
_chemical_formula_sum   'Cs4 U1 Sn1 I12'
_cell_volume   919.98434409
_cell_formula_units_Z   1
loop_
 _symmetry_equiv_pos_site_id
 _symmetry_equiv_pos_as_xyz
  1  'x, y, z'
loop_
 _atom_site_type_symbol
 _atom_site_label
 _atom_site_symmetry_multiplicity
 _atom_site_fract_x
 _atom_site_fract_y
 _atom_site_fract_z
 _atom_site_occupancy
  Cs  Cs0  1  0.500000  0.000000  0.756189  1
  Cs  Cs1  1  0.500000  0.000000  0.243811  1
  Cs  Cs2  1  0.000000  0.500000  0.243811  1
  Cs  Cs3  1  0.000000  0.500000  0.756189  1
  U  U4  1  0.500000  0.500000  0.500000  1
  Sn  Sn5  1  0.000000  0.000000  0.000000  1
  I  I6  1  0.789766  0.269401  0.000000  1
  I  I7  1  0.210234  0.730599  0.000000  1
  I  I8  1  0.500000  0.500000  0.257909  1
  I  I9  1  0.289143  0.222690  0.500000  1
  I  I10  1  0.269401  0.210234  0.000000  1
  I  I11  1  0.777310  0.289143  0.500000  1
  I  I12  1  0.000000  0.000000  0.237661  1
  I  I13  1  0.710857  0.777310  0.500000  1
  I  I14  1  0.222690  0.710857  0.500000  1
  I  I15  1  0.500000  0.500000  0.742091  1
  I  I16  1  0.730599  0.789766  0.000000  1
  I  I17  1  0.000000  0.000000  0.762339  1
