# generated using pymatgen
data_NdCoSbAsRh
_symmetry_space_group_name_H-M   'P 1'
_cell_length_a   4.34740800
_cell_length_b   4.34740800
_cell_length_c   9.97609300
_cell_angle_alpha   90.00000000
_cell_angle_beta   90.00000000
_cell_angle_gamma   90.00000000
_symmetry_Int_Tables_number   1
_chemical_formula_structural   NdCoSbAsRh
_chemical_formula_sum   'Nd2 Co2 Sb2 As2 Rh2'
_cell_volume   188.54772193
_cell_formula_units_Z   2
loop_
 _symmetry_equiv_pos_site_id
 _symmetry_equiv_pos_as_xyz
  1  'x, y, z'
loop_
 _atom_site_type_symbol
 _atom_site_label
 _atom_site_symmetry_multiplicity
 _atom_site_fract_x
 _atom_site_fract_y
 _atom_site_fract_z
 _atom_site_occupancy
  Nd  Nd0  1  0.000000  0.500000  0.270829  1
  Nd  Nd1  1  0.500000  0.000000  0.729171  1
  Co  Co2  1  0.000000  0.500000  0.596234  1
  Co  Co3  1  0.500000  0.000000  0.403766  1
  Sb  Sb4  1  0.000000  0.500000  0.847722  1
  Sb  Sb5  1  0.500000  0.000000  0.152278  1
  As  As6  1  0.000000  0.000000  0.500000  1
  As  As7  1  0.500000  0.500000  0.500000  1
  Rh  Rh8  1  0.000000  0.000000  0.000000  1
  Rh  Rh9  1  0.500000  0.500000  0.000000  1
