# generated using pymatgen
data_Tm12ZnCo2CuNiSn
_symmetry_space_group_name_H-M   'P 1'
_cell_length_a   8.24867402
_cell_length_b   8.24867244
_cell_length_c   8.24867300
_cell_angle_alpha   112.03122769
_cell_angle_beta   109.65138786
_cell_angle_gamma   106.77366401
_symmetry_Int_Tables_number   1
_chemical_formula_structural   Tm12ZnCo2CuNiSn
_chemical_formula_sum   'Tm12 Zn1 Co2 Cu1 Ni1 Sn1'
_cell_volume   431.13668095
_cell_formula_units_Z   1
loop_
 _symmetry_equiv_pos_site_id
 _symmetry_equiv_pos_as_xyz
  1  'x, y, z'
loop_
 _atom_site_type_symbol
 _atom_site_label
 _atom_site_symmetry_multiplicity
 _atom_site_fract_x
 _atom_site_fract_y
 _atom_site_fract_z
 _atom_site_occupancy
  Tm  Tm0  1  0.433405  0.235235  0.198170  1
  Tm  Tm1  1  0.570164  0.769167  0.800997  1
  Tm  Tm2  1  0.031832  0.230833  0.800997  1
  Tm  Tm3  1  0.962935  0.764765  0.198170  1
  Tm  Tm4  1  0.178997  0.288857  0.467854  1
  Tm  Tm5  1  0.818081  0.716761  0.534843  1
  Tm  Tm6  1  0.178997  0.711143  0.890138  1
  Tm  Tm7  1  0.818081  0.283239  0.101321  1
  Tm  Tm8  1  0.318014  0.624713  0.310410  1
  Tm  Tm9  1  0.685699  0.375287  0.693303  1
  Tm  Tm10  1  0.318014  0.007604  0.693303  1
  Tm  Tm11  1  0.685699  0.992396  0.310410  1
  Zn  Zn12  1  0.000089  0.000000  0.000089  1
  Co  Co13  1  0.112682  0.614583  0.498099  1
  Co  Co14  1  0.883515  0.385417  0.498099  1
  Cu  Cu15  1  0.356065  0.000000  0.356065  1
  Ni  Ni16  1  0.650431  0.000000  0.650431  1
  Sn  Sn17  1  0.497299  0.500000  0.997299  1
