# generated using pymatgen
data_Zr2InCo6(NiB2)3
_symmetry_space_group_name_H-M   'P 1'
_cell_length_a   5.72688338
_cell_length_b   5.72688329
_cell_length_c   5.72688287
_cell_angle_alpha   95.66802184
_cell_angle_beta   95.66802433
_cell_angle_gamma   95.66803330
_symmetry_Int_Tables_number   1
_chemical_formula_structural   Zr2InCo6(NiB2)3
_chemical_formula_sum   'Zr2 In1 Co6 Ni3 B6'
_cell_volume   184.87333358
_cell_formula_units_Z   1
loop_
 _symmetry_equiv_pos_site_id
 _symmetry_equiv_pos_as_xyz
  1  'x, y, z'
loop_
 _atom_site_type_symbol
 _atom_site_label
 _atom_site_symmetry_multiplicity
 _atom_site_fract_x
 _atom_site_fract_y
 _atom_site_fract_z
 _atom_site_occupancy
  Zr  Zr0  1  0.667236  0.667236  0.667236  1
  Zr  Zr1  1  0.332764  0.332764  0.332764  1
  In  In2  1  0.000000  0.000000  0.000000  1
  Co  Co3  1  0.702247  0.204032  0.702247  1
  Co  Co4  1  0.702247  0.702247  0.204032  1
  Co  Co5  1  0.204032  0.702247  0.702247  1
  Co  Co6  1  0.297753  0.795968  0.297753  1
  Co  Co7  1  0.297753  0.297753  0.795968  1
  Co  Co8  1  0.795968  0.297753  0.297753  1
  Ni  Ni9  1  0.000000  0.000000  0.500000  1
  Ni  Ni10  1  0.500000  0.000000  0.000000  1
  Ni  Ni11  1  0.000000  0.500000  0.000000  1
  B  B12  1  0.611650  0.388350  0.000000  1
  B  B13  1  0.000000  0.611650  0.388350  1
  B  B14  1  0.388350  0.000000  0.611650  1
  B  B15  1  0.000000  0.388350  0.611650  1
  B  B16  1  0.611650  0.000000  0.388350  1
  B  B17  1  0.388350  0.611650  0.000000  1
