# generated using pymatgen
data_BeAl18Cr6Si
_symmetry_space_group_name_H-M   'P 1'
_cell_length_a   7.46005500
_cell_length_b   7.46025174
_cell_length_c   7.87356900
_cell_angle_alpha   89.99958432
_cell_angle_beta   90.00189069
_cell_angle_gamma   120.00052269
_symmetry_Int_Tables_number   1
_chemical_formula_structural   BeAl18Cr6Si
_chemical_formula_sum   'Be1 Al18 Cr6 Si1'
_cell_volume   379.48576891
_cell_formula_units_Z   1
loop_
 _symmetry_equiv_pos_site_id
 _symmetry_equiv_pos_as_xyz
  1  'x, y, z'
loop_
 _atom_site_type_symbol
 _atom_site_label
 _atom_site_symmetry_multiplicity
 _atom_site_fract_x
 _atom_site_fract_y
 _atom_site_fract_z
 _atom_site_occupancy
  Be  Be0  1  0.000000  0.000000  0.000000  1
  Al  Al1  1  0.456877  0.913698  0.249230  1
  Al  Al2  1  0.543123  0.086302  0.750770  1
  Al  Al3  1  0.086298  0.543140  0.249230  1
  Al  Al4  1  0.913702  0.456860  0.750770  1
  Al  Al5  1  0.456866  0.543171  0.249230  1
  Al  Al6  1  0.543134  0.456829  0.750770  1
  Al  Al7  1  0.201787  0.403562  0.561600  1
  Al  Al8  1  0.798213  0.596438  0.438400  1
  Al  Al9  1  0.596435  0.798217  0.561584  1
  Al  Al10  1  0.801460  0.602934  0.060534  1
  Al  Al11  1  0.403565  0.201783  0.438416  1
  Al  Al12  1  0.198540  0.397066  0.939466  1
  Al  Al13  1  0.201785  0.798225  0.561607  1
  Al  Al14  1  0.397070  0.198536  0.060515  1
  Al  Al15  1  0.798215  0.201775  0.438393  1
  Al  Al16  1  0.602930  0.801464  0.939485  1
  Al  Al17  1  0.801462  0.198527  0.060542  1
  Al  Al18  1  0.198538  0.801473  0.939458  1
  Cr  Cr19  1  0.112770  0.225539  0.248965  1
  Cr  Cr20  1  0.887230  0.774461  0.751035  1
  Cr  Cr21  1  0.774460  0.887240  0.248982  1
  Cr  Cr22  1  0.225540  0.112760  0.751018  1
  Cr  Cr23  1  0.112749  0.887284  0.248985  1
  Cr  Cr24  1  0.887251  0.112716  0.751015  1
  Si  Si25  1  0.000000  0.000000  0.500000  1
