# generated using pymatgen
data_Tb(TmZn4)3
_symmetry_space_group_name_H-M   'P 1'
_cell_length_a   4.37437100
_cell_length_b   6.63527097
_cell_length_c   10.05708900
_cell_angle_alpha   89.87471023
_cell_angle_beta   90.00000000
_cell_angle_gamma   90.00000000
_symmetry_Int_Tables_number   1
_chemical_formula_structural   Tb(TmZn4)3
_chemical_formula_sum   'Tb1 Tm3 Zn12'
_cell_volume   291.90768736
_cell_formula_units_Z   1
loop_
 _symmetry_equiv_pos_site_id
 _symmetry_equiv_pos_as_xyz
  1  'x, y, z'
loop_
 _atom_site_type_symbol
 _atom_site_label
 _atom_site_symmetry_multiplicity
 _atom_site_fract_x
 _atom_site_fract_y
 _atom_site_fract_z
 _atom_site_occupancy
  Tb  Tb0  1  0.750000  0.221063  0.164100  1
  Tm  Tm1  1  0.250000  0.279194  0.663827  1
  Tm  Tm2  1  0.250000  0.779549  0.836583  1
  Tm  Tm3  1  0.750000  0.720834  0.336934  1
  Zn  Zn4  1  0.250000  0.535543  0.103064  1
  Zn  Zn5  1  0.250000  0.035380  0.396236  1
  Zn  Zn6  1  0.750000  0.465596  0.894677  1
  Zn  Zn7  1  0.750000  0.965079  0.603859  1
  Zn  Zn8  1  0.250000  0.916367  0.148694  1
  Zn  Zn9  1  0.250000  0.420065  0.352033  1
  Zn  Zn10  1  0.750000  0.081208  0.849835  1
  Zn  Zn11  1  0.750000  0.581819  0.649902  1
  Zn  Zn12  1  0.250000  0.215919  0.955279  1
  Zn  Zn13  1  0.250000  0.715566  0.543472  1
  Zn  Zn14  1  0.750000  0.781358  0.043095  1
  Zn  Zn15  1  0.750000  0.285460  0.458410  1
