# generated using pymatgen
data_Er12Ga2Co3Rh
_symmetry_space_group_name_H-M   'P 1'
_cell_length_a   8.21836645
_cell_length_b   8.21837626
_cell_length_c   8.21836538
_cell_angle_alpha   111.95978008
_cell_angle_beta   109.68214581
_cell_angle_gamma   106.81255493
_symmetry_Int_Tables_number   1
_chemical_formula_structural   Er12Ga2Co3Rh
_chemical_formula_sum   'Er12 Ga2 Co3 Rh1'
_cell_volume   426.43925634
_cell_formula_units_Z   1
loop_
 _symmetry_equiv_pos_site_id
 _symmetry_equiv_pos_as_xyz
  1  'x, y, z'
loop_
 _atom_site_type_symbol
 _atom_site_label
 _atom_site_symmetry_multiplicity
 _atom_site_fract_x
 _atom_site_fract_y
 _atom_site_fract_z
 _atom_site_occupancy
  Er  Er0  1  0.442614  0.247416  0.195211  1
  Er  Er1  1  0.567617  0.765108  0.802527  1
  Er  Er2  1  0.037419  0.234892  0.802509  1
  Er  Er3  1  0.947795  0.752584  0.195198  1
  Er  Er4  1  0.181295  0.284227  0.465578  1
  Er  Er5  1  0.820681  0.722976  0.543565  1
  Er  Er6  1  0.181351  0.715773  0.897067  1
  Er  Er7  1  0.820589  0.277024  0.097704  1
  Er  Er8  1  0.324604  0.633573  0.311783  1
  Er  Er9  1  0.678211  0.366427  0.691032  1
  Er  Er10  1  0.324626  0.012840  0.691029  1
  Er  Er11  1  0.678189  0.987160  0.311786  1
  Ga  Ga12  1  0.496273  0.500000  0.996273  1
  Ga  Ga13  1  0.008521  0.000000  0.008521  1
  Co  Co14  1  0.657297  0.000000  0.657297  1
  Co  Co15  1  0.114085  0.614553  0.499549  1
  Co  Co16  1  0.884996  0.385447  0.499533  1
  Rh  Rh17  1  0.333837  0.000000  0.333837  1
