# generated using pymatgen
data_Y5Lu5(SnSb)3
_symmetry_space_group_name_H-M   'P 1'
_cell_length_a   6.37446200
_cell_length_b   8.89715533
_cell_length_c   8.88742184
_cell_angle_alpha   120.03623890
_cell_angle_beta   89.99968054
_cell_angle_gamma   90.00065495
_symmetry_Int_Tables_number   1
_chemical_formula_structural   Y5Lu5(SnSb)3
_chemical_formula_sum   'Y5 Lu5 Sn3 Sb3'
_cell_volume   436.35748458
_cell_formula_units_Z   1
loop_
 _symmetry_equiv_pos_site_id
 _symmetry_equiv_pos_as_xyz
  1  'x, y, z'
loop_
 _atom_site_type_symbol
 _atom_site_label
 _atom_site_symmetry_multiplicity
 _atom_site_fract_x
 _atom_site_fract_y
 _atom_site_fract_z
 _atom_site_occupancy
  Y  Y0  1  0.750000  0.758473  0.758329  1
  Y  Y1  1  0.750000  0.000145  0.241671  1
  Y  Y2  1  0.249994  0.755826  0.000000  1
  Y  Y3  1  0.250006  0.243237  0.242779  1
  Y  Y4  1  0.250006  0.000458  0.757221  1
  Lu  Lu5  1  0.500477  0.333318  0.666627  1
  Lu  Lu6  1  0.500477  0.666691  0.333373  1
  Lu  Lu7  1  0.999530  0.666696  0.333375  1
  Lu  Lu8  1  0.999530  0.333321  0.666625  1
  Lu  Lu9  1  0.750016  0.241877  0.000000  1
  Sn  Sn10  1  0.749995  0.603815  0.000000  1
  Sn  Sn11  1  0.749985  0.393974  0.392020  1
  Sn  Sn12  1  0.749985  0.001952  0.607980  1
  Sb  Sb13  1  0.249996  0.392567  0.000000  1
  Sb  Sb14  1  0.250002  0.607652  0.607655  1
  Sb  Sb15  1  0.250002  0.999997  0.392345  1
