# generated using pymatgen
data_Na3Tb4EuTe8
_symmetry_space_group_name_H-M   'P 1'
_cell_length_a   8.94338360
_cell_length_b   8.94338355
_cell_length_c   8.98235819
_cell_angle_alpha   60.14342737
_cell_angle_beta   60.14342604
_cell_angle_gamma   60.00000028
_symmetry_Int_Tables_number   1
_chemical_formula_structural   Na3Tb4EuTe8
_chemical_formula_sum   'Na3 Tb4 Eu1 Te8'
_cell_volume   509.11652999
_cell_formula_units_Z   1
loop_
 _symmetry_equiv_pos_site_id
 _symmetry_equiv_pos_as_xyz
  1  'x, y, z'
loop_
 _atom_site_type_symbol
 _atom_site_label
 _atom_site_symmetry_multiplicity
 _atom_site_fract_x
 _atom_site_fract_y
 _atom_site_fract_z
 _atom_site_occupancy
  Na  Na0  1  0.125000  0.625000  0.125000  1
  Na  Na1  1  0.625000  0.125000  0.125000  1
  Na  Na2  1  0.125000  0.125000  0.125000  1
  Tb  Tb3  1  0.625000  0.125000  0.625000  1
  Tb  Tb4  1  0.625000  0.625000  0.625000  1
  Tb  Tb5  1  0.125000  0.625000  0.625000  1
  Tb  Tb6  1  0.625000  0.625000  0.125000  1
  Eu  Eu7  1  0.125000  0.125000  0.625000  1
  Te  Te8  1  0.379930  0.863438  0.376702  1
  Te  Te9  1  0.870070  0.386562  0.873298  1
  Te  Te10  1  0.870732  0.870732  0.387804  1
  Te  Te11  1  0.870070  0.870070  0.873298  1
  Te  Te12  1  0.863438  0.379930  0.376702  1
  Te  Te13  1  0.379268  0.379268  0.862196  1
  Te  Te14  1  0.379930  0.379930  0.376702  1
  Te  Te15  1  0.386562  0.870070  0.873298  1
