# generated using pymatgen
data_La10C4Cl17
_symmetry_space_group_name_H-M   'P 1'
_cell_length_a   8.91811998
_cell_length_b   9.55927573
_cell_length_c   12.02870900
_cell_angle_alpha   104.55088606
_cell_angle_beta   96.18633719
_cell_angle_gamma   110.94239103
_symmetry_Int_Tables_number   1
_chemical_formula_structural   La10C4Cl17
_chemical_formula_sum   'La10 C4 Cl17'
_cell_volume   904.58772836
_cell_formula_units_Z   1
loop_
 _symmetry_equiv_pos_site_id
 _symmetry_equiv_pos_as_xyz
  1  'x, y, z'
loop_
 _atom_site_type_symbol
 _atom_site_label
 _atom_site_symmetry_multiplicity
 _atom_site_fract_x
 _atom_site_fract_y
 _atom_site_fract_z
 _atom_site_occupancy
  La  La0  1  0.653952  0.483573  0.438734  1
  La  La1  1  0.346059  0.516281  0.561324  1
  La  La2  1  0.074320  0.423726  0.266904  1
  La  La3  1  0.925624  0.576238  0.733099  1
  La  La4  1  0.409922  0.365325  0.131859  1
  La  La5  1  0.590146  0.634742  0.868108  1
  La  La6  1  0.495591  0.786282  0.341314  1
  La  La7  1  0.504520  0.213640  0.658738  1
  La  La8  1  0.203012  0.092117  0.307773  1
  La  La9  1  0.796645  0.907780  0.692027  1
  C  C10  1  0.395058  0.526004  0.340724  1
  C  C11  1  0.604956  0.473835  0.659306  1
  C  C12  1  0.325917  0.363860  0.334930  1
  C  C13  1  0.673974  0.635981  0.665000  1
  Cl  Cl14  1  0.101735  0.348174  0.035150  1
  Cl  Cl15  1  0.898300  0.651854  0.964882  1
  Cl  Cl16  1  0.814871  0.819943  0.444632  1
  Cl  Cl17  1  0.185319  0.180274  0.555534  1
  Cl  Cl18  1  0.000039  0.500054  0.500029  1
  Cl  Cl19  1  0.298032  0.039317  0.093498  1
  Cl  Cl20  1  0.702236  0.960797  0.906368  1
  Cl  Cl21  1  0.898380  0.101725  0.248189  1
  Cl  Cl22  1  0.101062  0.898323  0.751748  1
  Cl  Cl23  1  0.544306  0.134546  0.412230  1
  Cl  Cl24  1  0.455722  0.865400  0.587799  1
  Cl  Cl25  1  0.741427  0.414453  0.209774  1
  Cl  Cl26  1  0.258648  0.585769  0.790292  1
  Cl  Cl27  1  0.163675  0.756170  0.286835  1
  Cl  Cl28  1  0.836474  0.243700  0.713161  1
  Cl  Cl29  1  0.536403  0.685943  0.110726  1
  Cl  Cl30  1  0.463676  0.314176  0.889314  1
