# generated using pymatgen
data_DyCd(CuPt)2
_symmetry_space_group_name_H-M   'P 1'
_cell_length_a   5.22411546
_cell_length_b   5.51626219
_cell_length_c   5.22411571
_cell_angle_alpha   58.13220431
_cell_angle_beta   58.08877970
_cell_angle_gamma   58.13219856
_symmetry_Int_Tables_number   1
_chemical_formula_structural   DyCd(CuPt)2
_chemical_formula_sum   'Dy1 Cd1 Cu2 Pt2'
_cell_volume   101.85897337
_cell_formula_units_Z   1
loop_
 _symmetry_equiv_pos_site_id
 _symmetry_equiv_pos_as_xyz
  1  'x, y, z'
loop_
 _atom_site_type_symbol
 _atom_site_label
 _atom_site_symmetry_multiplicity
 _atom_site_fract_x
 _atom_site_fract_y
 _atom_site_fract_z
 _atom_site_occupancy
  Dy  Dy0  1  0.746303  0.753697  0.746303  1
  Cd  Cd1  1  0.994329  0.005671  0.994329  1
  Cu  Cu2  1  0.877707  0.371941  0.378412  1
  Cu  Cu3  1  0.378412  0.371941  0.877707  1
  Pt  Pt4  1  0.376625  0.873813  0.376625  1
  Pt  Pt5  1  0.376625  0.372936  0.376625  1
