# generated using pymatgen
data_Y2Nb4C5
_symmetry_space_group_name_H-M   'P 1'
_cell_length_a   5.75847835
_cell_length_b   5.75847912
_cell_length_c   5.62810400
_cell_angle_alpha   81.84079552
_cell_angle_beta   81.84079527
_cell_angle_gamma   121.56871566
_symmetry_Int_Tables_number   1
_chemical_formula_structural   Y2Nb4C5
_chemical_formula_sum   'Y2 Nb4 C5'
_cell_volume   152.13944518
_cell_formula_units_Z   1
loop_
 _symmetry_equiv_pos_site_id
 _symmetry_equiv_pos_as_xyz
  1  'x, y, z'
loop_
 _atom_site_type_symbol
 _atom_site_label
 _atom_site_symmetry_multiplicity
 _atom_site_fract_x
 _atom_site_fract_y
 _atom_site_fract_z
 _atom_site_occupancy
  Y  Y0  1  0.761630  0.761630  0.758329  1
  Y  Y1  1  0.238370  0.238370  0.241671  1
  Nb  Nb2  1  0.101904  0.455176  0.740666  1
  Nb  Nb3  1  0.544824  0.898096  0.259334  1
  Nb  Nb4  1  0.898096  0.544824  0.259334  1
  Nb  Nb5  1  0.455176  0.101904  0.740666  1
  C  C6  1  0.500000  0.500000  0.500000  1
  C  C7  1  0.680486  0.319514  0.000000  1
  C  C8  1  0.319514  0.680486  0.000000  1
  C  C9  1  0.819792  0.180208  0.500000  1
  C  C10  1  0.180208  0.819792  0.500000  1
