# generated using pymatgen
data_TbDy3Al18CuRh5
_symmetry_space_group_name_H-M   'P 1'
_cell_length_a   7.56585940
_cell_length_b   7.56634314
_cell_length_c   9.44136621
_cell_angle_alpha   90.06359554
_cell_angle_beta   90.07084115
_cell_angle_gamma   119.57672968
_symmetry_Int_Tables_number   1
_chemical_formula_structural   TbDy3Al18CuRh5
_chemical_formula_sum   'Tb1 Dy3 Al18 Cu1 Rh5'
_cell_volume   470.05120319
_cell_formula_units_Z   1
loop_
 _symmetry_equiv_pos_site_id
 _symmetry_equiv_pos_as_xyz
  1  'x, y, z'
loop_
 _atom_site_type_symbol
 _atom_site_label
 _atom_site_symmetry_multiplicity
 _atom_site_fract_x
 _atom_site_fract_y
 _atom_site_fract_z
 _atom_site_occupancy
  Tb  Tb0  1  0.994708  0.672350  0.749494  1
  Dy  Dy1  1  0.005269  0.327594  0.250431  1
  Dy  Dy2  1  0.672345  0.994740  0.749560  1
  Dy  Dy3  1  0.327646  0.005293  0.250428  1
  Al  Al4  1  0.129331  0.129475  0.751330  1
  Al  Al5  1  0.870717  0.870759  0.248680  1
  Al  Al6  1  0.000723  0.338184  0.577390  1
  Al  Al7  1  0.999286  0.661550  0.422239  1
  Al  Al8  1  0.000304  0.665163  0.074831  1
  Al  Al9  1  0.335021  0.999888  0.925492  1
  Al  Al10  1  0.999707  0.334653  0.925487  1
  Al  Al11  1  0.665174  0.000300  0.074648  1
  Al  Al12  1  0.661608  0.999312  0.422428  1
  Al  Al13  1  0.338631  0.000911  0.577434  1
  Al  Al14  1  0.332874  0.332883  0.050602  1
  Al  Al15  1  0.666965  0.667120  0.949598  1
  Al  Al16  1  0.663942  0.664117  0.552261  1
  Al  Al17  1  0.335858  0.335863  0.447542  1
  Al  Al18  1  0.339463  0.549727  0.750481  1
  Al  Al19  1  0.660656  0.450196  0.249519  1
  Al  Al20  1  0.549542  0.339125  0.750471  1
  Al  Al21  1  0.450214  0.660686  0.249529  1
  Cu  Cu22  1  0.999981  0.000072  0.499968  1
  Rh  Rh23  1  0.672039  0.327807  0.499888  1
  Rh  Rh24  1  0.327959  0.672130  0.499906  1
  Rh  Rh25  1  0.327984  0.672067  0.000092  1
  Rh  Rh26  1  0.672013  0.327829  0.000112  1
  Rh  Rh27  1  0.000039  0.000205  0.000159  1
