# generated using pymatgen
data_Dy2Tm2B12RuW
_symmetry_space_group_name_H-M   'P 1'
_cell_length_a   3.61671000
_cell_length_b   9.18791246
_cell_length_c   11.59007721
_cell_angle_alpha   89.79676125
_cell_angle_beta   90.00000000
_cell_angle_gamma   90.00000000
_symmetry_Int_Tables_number   1
_chemical_formula_structural   Dy2Tm2B12RuW
_chemical_formula_sum   'Dy4 Tm4 B24 Ru2 W2'
_cell_volume   385.13601532
_cell_formula_units_Z   2
loop_
 _symmetry_equiv_pos_site_id
 _symmetry_equiv_pos_as_xyz
  1  'x, y, z'
loop_
 _atom_site_type_symbol
 _atom_site_label
 _atom_site_symmetry_multiplicity
 _atom_site_fract_x
 _atom_site_fract_y
 _atom_site_fract_z
 _atom_site_occupancy
  Dy  Dy0  1  0.000000  0.321275  0.413978  1
  Dy  Dy1  1  0.000000  0.678725  0.586022  1
  Dy  Dy2  1  0.000000  0.821927  0.086121  1
  Dy  Dy3  1  0.000000  0.178073  0.913879  1
  Tm  Tm4  1  0.000000  0.945456  0.371236  1
  Tm  Tm5  1  0.000000  0.054544  0.628764  1
  Tm  Tm6  1  0.000000  0.441806  0.127854  1
  Tm  Tm7  1  0.000000  0.558194  0.872146  1
  B  B8  1  0.500000  0.551495  0.434434  1
  B  B9  1  0.500000  0.448505  0.565566  1
  B  B10  1  0.500000  0.054129  0.067020  1
  B  B11  1  0.500000  0.945871  0.932980  1
  B  B12  1  0.500000  0.752714  0.421099  1
  B  B13  1  0.500000  0.247286  0.578901  1
  B  B14  1  0.500000  0.249021  0.081721  1
  B  B15  1  0.500000  0.750979  0.918279  1
  B  B16  1  0.500000  0.796528  0.263076  1
  B  B17  1  0.500000  0.203472  0.736924  1
  B  B18  1  0.500000  0.290340  0.233712  1
  B  B19  1  0.500000  0.709660  0.766288  1
  B  B20  1  0.500000  0.631687  0.180959  1
  B  B21  1  0.500000  0.368313  0.819041  1
  B  B22  1  0.500000  0.130401  0.313731  1
  B  B23  1  0.500000  0.869599  0.686269  1
  B  B24  1  0.500000  0.984045  0.211816  1
  B  B25  1  0.500000  0.015955  0.788184  1
  B  B26  1  0.500000  0.477764  0.285771  1
  B  B27  1  0.500000  0.522236  0.714229  1
  B  B28  1  0.500000  0.601981  0.027266  1
  B  B29  1  0.500000  0.398019  0.972734  1
  B  B30  1  0.500000  0.101832  0.470985  1
  B  B31  1  0.500000  0.898168  0.529015  1
  Ru  Ru32  1  0.000000  0.138433  0.178390  1
  Ru  Ru33  1  0.000000  0.861567  0.821610  1
  W  W34  1  0.000000  0.639318  0.319047  1
  W  W35  1  0.000000  0.360682  0.680953  1
