# generated using pymatgen
data_Gd3Mg2CdCuSn2
_symmetry_space_group_name_H-M   'P 1'
_cell_length_a   7.48887096
_cell_length_b   7.51625613
_cell_length_c   4.51057200
_cell_angle_alpha   90.00000000
_cell_angle_beta   90.00000000
_cell_angle_gamma   120.12102635
_symmetry_Int_Tables_number   1
_chemical_formula_structural   Gd3Mg2CdCuSn2
_chemical_formula_sum   'Gd3 Mg2 Cd1 Cu1 Sn2'
_cell_volume   219.60854614
_cell_formula_units_Z   1
loop_
 _symmetry_equiv_pos_site_id
 _symmetry_equiv_pos_as_xyz
  1  'x, y, z'
loop_
 _atom_site_type_symbol
 _atom_site_label
 _atom_site_symmetry_multiplicity
 _atom_site_fract_x
 _atom_site_fract_y
 _atom_site_fract_z
 _atom_site_occupancy
  Gd  Gd0  1  0.000000  0.409297  0.500000  1
  Gd  Gd1  1  0.595585  0.593480  0.500000  1
  Gd  Gd2  1  0.404415  0.997894  0.500000  1
  Mg  Mg3  1  0.230553  0.228799  0.000000  1
  Mg  Mg4  1  0.769447  0.998246  0.000000  1
  Cd  Cd5  1  0.000000  0.768600  0.000000  1
  Cu  Cu6  1  0.000000  0.008779  0.500000  1
  Sn  Sn7  1  0.335364  0.665135  0.000000  1
  Sn  Sn8  1  0.664636  0.329770  0.000000  1
