# generated using pymatgen
data_Dy3In4CoPt
_symmetry_space_group_name_H-M   'P 1'
_cell_length_a   7.91277700
_cell_length_b   7.91277697
_cell_length_c   3.76169800
_cell_angle_alpha   90.00000000
_cell_angle_beta   90.00000000
_cell_angle_gamma   120.00001265
_symmetry_Int_Tables_number   1
_chemical_formula_structural   Dy3In4CoPt
_chemical_formula_sum   'Dy3 In4 Co1 Pt1'
_cell_volume   203.97284529
_cell_formula_units_Z   1
loop_
 _symmetry_equiv_pos_site_id
 _symmetry_equiv_pos_as_xyz
  1  'x, y, z'
loop_
 _atom_site_type_symbol
 _atom_site_label
 _atom_site_symmetry_multiplicity
 _atom_site_fract_x
 _atom_site_fract_y
 _atom_site_fract_z
 _atom_site_occupancy
  Dy  Dy0  1  0.045547  0.300294  0.500000  1
  Dy  Dy1  1  0.699706  0.745252  0.500000  1
  Dy  Dy2  1  0.254748  0.954453  0.500000  1
  In  In3  1  0.661035  0.084771  0.000000  1
  In  In4  1  0.915229  0.576265  0.000000  1
  In  In5  1  0.423735  0.338965  0.000000  1
  In  In6  1  0.333333  0.666667  0.000000  1
  Co  Co7  1  0.666667  0.333333  0.500000  1
  Pt  Pt8  1  0.000000  0.000000  0.000000  1
