# generated using pymatgen
data_CaSc7(B6Ru)4
_symmetry_space_group_name_H-M   'P 1'
_cell_length_a   3.50252500
_cell_length_b   8.90023315
_cell_length_c   11.23733963
_cell_angle_alpha   89.99101472
_cell_angle_beta   90.00000000
_cell_angle_gamma   90.00000000
_symmetry_Int_Tables_number   1
_chemical_formula_structural   CaSc7(B6Ru)4
_chemical_formula_sum   'Ca1 Sc7 B24 Ru4'
_cell_volume   350.30483293
_cell_formula_units_Z   1
loop_
 _symmetry_equiv_pos_site_id
 _symmetry_equiv_pos_as_xyz
  1  'x, y, z'
loop_
 _atom_site_type_symbol
 _atom_site_label
 _atom_site_symmetry_multiplicity
 _atom_site_fract_x
 _atom_site_fract_y
 _atom_site_fract_z
 _atom_site_occupancy
  Ca  Ca0  1  0.000000  0.320688  0.413946  1
  Sc  Sc1  1  0.000000  0.679510  0.585729  1
  Sc  Sc2  1  0.000000  0.819187  0.086038  1
  Sc  Sc3  1  0.000000  0.181908  0.914662  1
  Sc  Sc4  1  0.000000  0.943638  0.371766  1
  Sc  Sc5  1  0.000000  0.055887  0.628425  1
  Sc  Sc6  1  0.000000  0.444314  0.126945  1
  Sc  Sc7  1  0.000000  0.555759  0.873481  1
  B  B8  1  0.500000  0.555775  0.434793  1
  B  B9  1  0.500000  0.447701  0.567598  1
  B  B10  1  0.500000  0.052370  0.063720  1
  B  B11  1  0.500000  0.946171  0.934450  1
  B  B12  1  0.500000  0.752315  0.421030  1
  B  B13  1  0.500000  0.247908  0.582108  1
  B  B14  1  0.500000  0.251123  0.077882  1
  B  B15  1  0.500000  0.748305  0.921393  1
  B  B16  1  0.500000  0.794830  0.263799  1
  B  B17  1  0.500000  0.206109  0.737216  1
  B  B18  1  0.500000  0.292571  0.232950  1
  B  B19  1  0.500000  0.706193  0.764811  1
  B  B20  1  0.500000  0.630991  0.182025  1
  B  B21  1  0.500000  0.370353  0.818878  1
  B  B22  1  0.500000  0.127638  0.315351  1
  B  B23  1  0.500000  0.869612  0.682545  1
  B  B24  1  0.500000  0.978983  0.211280  1
  B  B25  1  0.500000  0.019928  0.787272  1
  B  B26  1  0.500000  0.482001  0.285279  1
  B  B27  1  0.500000  0.520459  0.713873  1
  B  B28  1  0.500000  0.603101  0.028025  1
  B  B29  1  0.500000  0.397944  0.972240  1
  B  B30  1  0.500000  0.097089  0.473398  1
  B  B31  1  0.500000  0.898809  0.527873  1
  Ru  Ru32  1  0.000000  0.642141  0.318704  1
  Ru  Ru33  1  0.000000  0.361061  0.683467  1
  Ru  Ru34  1  0.000000  0.136573  0.176977  1
  Ru  Ru35  1  0.000000  0.861055  0.820072  1
