# generated using pymatgen
data_Dy9HoIn8(NiAu)2
_symmetry_space_group_name_H-M   'P 1'
_cell_length_a   8.13418302
_cell_length_b   18.25790576
_cell_length_c   3.60139300
_cell_angle_alpha   90.00000000
_cell_angle_beta   90.00000000
_cell_angle_gamma   90.03783558
_symmetry_Int_Tables_number   1
_chemical_formula_structural   Dy9HoIn8(NiAu)2
_chemical_formula_sum   'Dy9 Ho1 In8 Ni2 Au2'
_cell_volume   534.85409104
_cell_formula_units_Z   1
loop_
 _symmetry_equiv_pos_site_id
 _symmetry_equiv_pos_as_xyz
  1  'x, y, z'
loop_
 _atom_site_type_symbol
 _atom_site_label
 _atom_site_symmetry_multiplicity
 _atom_site_fract_x
 _atom_site_fract_y
 _atom_site_fract_z
 _atom_site_occupancy
  Dy  Dy0  1  0.500109  0.499856  0.000000  1
  Dy  Dy1  1  0.999917  0.000033  0.000000  1
  Dy  Dy2  1  0.761983  0.284588  0.000000  1
  Dy  Dy3  1  0.238124  0.715390  0.000000  1
  Dy  Dy4  1  0.774097  0.775615  0.000000  1
  Dy  Dy5  1  0.225847  0.224495  0.000000  1
  Dy  Dy6  1  0.620308  0.080448  0.000000  1
  Dy  Dy7  1  0.379529  0.919659  0.000000  1
  Dy  Dy8  1  0.884551  0.585937  0.000000  1
  Ho  Ho9  1  0.115470  0.413530  0.000000  1
  In  In10  1  0.710914  0.930777  0.500000  1
  In  In11  1  0.289076  0.069127  0.500000  1
  In  In12  1  0.795913  0.433667  0.500000  1
  In  In13  1  0.205090  0.565802  0.500000  1
  In  In14  1  0.577970  0.647617  0.500000  1
  In  In15  1  0.421386  0.352441  0.500000  1
  In  In16  1  0.925217  0.151224  0.500000  1
  In  In17  1  0.074978  0.849000  0.500000  1
  Ni  Ni18  1  0.971885  0.694338  0.500000  1
  Ni  Ni19  1  0.027291  0.306054  0.500000  1
  Au  Au20  1  0.530521  0.199674  0.500000  1
  Au  Au21  1  0.469825  0.800729  0.500000  1
