# generated using pymatgen
data_PrNdGdNbO7
_symmetry_space_group_name_H-M   'P 1'
_cell_length_a   6.65352445
_cell_length_b   6.65352408
_cell_length_c   7.74255100
_cell_angle_alpha   90.00000000
_cell_angle_beta   90.00000000
_cell_angle_gamma   109.09522850
_symmetry_Int_Tables_number   1
_chemical_formula_structural   PrNdGdNbO7
_chemical_formula_sum   'Pr2 Nd2 Gd2 Nb2 O14'
_cell_volume   323.89811178
_cell_formula_units_Z   2
loop_
 _symmetry_equiv_pos_site_id
 _symmetry_equiv_pos_as_xyz
  1  'x, y, z'
loop_
 _atom_site_type_symbol
 _atom_site_label
 _atom_site_symmetry_multiplicity
 _atom_site_fract_x
 _atom_site_fract_y
 _atom_site_fract_z
 _atom_site_occupancy
  Pr  Pr0  1  0.474479  0.474479  0.500000  1
  Pr  Pr1  1  0.474479  0.474479  0.000000  1
  Nd  Nd2  1  0.536331  0.996534  0.750000  1
  Nd  Nd3  1  0.996534  0.536331  0.250000  1
  Gd  Gd4  1  0.465489  0.997575  0.250000  1
  Gd  Gd5  1  0.997575  0.465489  0.750000  1
  Nb  Nb6  1  0.997098  0.997098  0.500000  1
  Nb  Nb7  1  0.997098  0.997098  0.000000  1
  O  O8  1  0.692209  0.943405  0.462032  1
  O  O9  1  0.943405  0.692209  0.537968  1
  O  O10  1  0.692209  0.943405  0.037968  1
  O  O11  1  0.943405  0.692209  0.962032  1
  O  O12  1  0.323434  0.076355  0.524707  1
  O  O13  1  0.076355  0.323434  0.475293  1
  O  O14  1  0.323434  0.076355  0.975293  1
  O  O15  1  0.076355  0.323434  0.024707  1
  O  O16  1  0.360806  0.626766  0.750000  1
  O  O17  1  0.626766  0.360806  0.250000  1
  O  O18  1  0.641450  0.362781  0.750000  1
  O  O19  1  0.362781  0.641450  0.250000  1
  O  O20  1  0.937483  0.060828  0.750000  1
  O  O21  1  0.060828  0.937483  0.250000  1
