# generated using pymatgen
data_Ca10Si4Sb2F
_symmetry_space_group_name_H-M   'P 1'
_cell_length_a   9.20371898
_cell_length_b   9.20371911
_cell_length_c   9.20371943
_cell_angle_alpha   129.99001304
_cell_angle_beta   129.99001106
_cell_angle_gamma   73.42272970
_symmetry_Int_Tables_number   1
_chemical_formula_structural   Ca10Si4Sb2F
_chemical_formula_sum   'Ca10 Si4 Sb2 F1'
_cell_volume   446.68108195
_cell_formula_units_Z   1
loop_
 _symmetry_equiv_pos_site_id
 _symmetry_equiv_pos_as_xyz
  1  'x, y, z'
loop_
 _atom_site_type_symbol
 _atom_site_label
 _atom_site_symmetry_multiplicity
 _atom_site_fract_x
 _atom_site_fract_y
 _atom_site_fract_z
 _atom_site_occupancy
  Ca  Ca0  1  0.771212  0.442860  0.000000  1
  Ca  Ca1  1  0.442860  0.771213  0.000000  1
  Ca  Ca2  1  0.943633  0.943633  0.662524  1
  Ca  Ca3  1  0.281109  0.281109  0.337476  1
  Ca  Ca4  1  0.718891  0.056367  0.000000  1
  Ca  Ca5  1  0.056367  0.718891  0.000000  1
  Ca  Ca6  1  0.557140  0.557140  0.328352  1
  Ca  Ca7  1  0.228787  0.228787  0.671648  1
  Ca  Ca8  1  0.250000  0.750000  0.500000  1
  Ca  Ca9  1  0.750000  0.250000  0.500000  1
  Si  Si10  1  0.134237  0.365017  0.000000  1
  Si  Si11  1  0.365017  0.134237  0.000000  1
  Si  Si12  1  0.865763  0.865763  0.230780  1
  Si  Si13  1  0.634983  0.634983  0.769220  1
  Sb  Sb14  1  0.000000  0.500000  0.500000  1
  Sb  Sb15  1  0.500000  0.000000  0.500000  1
  F  F16  1  0.500000  0.500000  0.000000  1
