# generated using pymatgen
data_Te8RhCl2
_symmetry_space_group_name_H-M   'P 1'
_cell_length_a   8.73576271
_cell_length_b   8.73576218
_cell_length_c   10.62272309
_cell_angle_alpha   77.93769869
_cell_angle_beta   77.93769762
_cell_angle_gamma   115.22621516
_symmetry_Int_Tables_number   1
_chemical_formula_structural   Te8RhCl2
_chemical_formula_sum   'Te16 Rh2 Cl4'
_cell_volume   675.23151689
_cell_formula_units_Z   2
loop_
 _symmetry_equiv_pos_site_id
 _symmetry_equiv_pos_as_xyz
  1  'x, y, z'
loop_
 _atom_site_type_symbol
 _atom_site_label
 _atom_site_symmetry_multiplicity
 _atom_site_fract_x
 _atom_site_fract_y
 _atom_site_fract_z
 _atom_site_occupancy
  Te  Te0  1  0.786146  0.092270  0.145070  1
  Te  Te1  1  0.907730  0.213854  0.354930  1
  Te  Te2  1  0.213854  0.907730  0.854930  1
  Te  Te3  1  0.092270  0.786146  0.645070  1
  Te  Te4  1  0.984520  0.753515  0.209358  1
  Te  Te5  1  0.246485  0.015480  0.290642  1
  Te  Te6  1  0.015480  0.246485  0.790642  1
  Te  Te7  1  0.753515  0.984520  0.709358  1
  Te  Te8  1  0.744326  0.708456  0.472577  1
  Te  Te9  1  0.291544  0.255674  0.027423  1
  Te  Te10  1  0.255674  0.291544  0.527423  1
  Te  Te11  1  0.708456  0.744326  0.972577  1
  Te  Te12  1  0.510322  0.794332  0.368197  1
  Te  Te13  1  0.205668  0.489678  0.131803  1
  Te  Te14  1  0.489678  0.205668  0.631803  1
  Te  Te15  1  0.794332  0.510322  0.868197  1
  Rh  Rh16  1  0.000000  0.000000  0.000000  1
  Rh  Rh17  1  0.000000  0.000000  0.500000  1
  Cl  Cl18  1  0.590022  0.409978  0.250000  1
  Cl  Cl19  1  0.409978  0.590022  0.750000  1
  Cl  Cl20  1  0.000000  0.500000  0.500000  1
  Cl  Cl21  1  0.500000  0.000000  0.000000  1
