# generated using pymatgen
data_Dy3Er9Co5Sb
_symmetry_space_group_name_H-M   'P 1'
_cell_length_a   8.21439501
_cell_length_b   8.21439522
_cell_length_c   8.21090410
_cell_angle_alpha   106.63373083
_cell_angle_beta   110.74046375
_cell_angle_gamma   111.09309035
_symmetry_Int_Tables_number   1
_chemical_formula_structural   Dy3Er9Co5Sb
_chemical_formula_sum   'Dy3 Er9 Co5 Sb1'
_cell_volume   425.62723966
_cell_formula_units_Z   1
loop_
 _symmetry_equiv_pos_site_id
 _symmetry_equiv_pos_as_xyz
  1  'x, y, z'
loop_
 _atom_site_type_symbol
 _atom_site_label
 _atom_site_symmetry_multiplicity
 _atom_site_fract_x
 _atom_site_fract_y
 _atom_site_fract_z
 _atom_site_occupancy
  Dy  Dy0  1  0.806142  0.792416  0.598558  1
  Dy  Dy1  1  0.194473  0.792538  0.987010  1
  Dy  Dy2  1  0.806328  0.208022  0.014351  1
  Er  Er3  1  0.475113  0.290743  0.185447  1
  Er  Er4  1  0.105661  0.291052  0.814350  1
  Er  Er5  1  0.894704  0.710334  0.185447  1
  Er  Er6  1  0.523298  0.708690  0.814350  1
  Er  Er7  1  0.308086  0.619898  0.312439  1
  Er  Er8  1  0.307174  0.994481  0.686882  1
  Er  Er9  1  0.692402  0.379709  0.686882  1
  Er  Er10  1  0.692542  0.004351  0.312439  1
  Er  Er11  1  0.195302  0.209581  0.404882  1
  Co  Co12  1  0.500028  0.610314  0.110343  1
  Co  Co13  1  0.498258  0.385964  0.884223  1
  Co  Co14  1  0.374668  0.000851  0.375521  1
  Co  Co15  1  0.623754  0.999711  0.623465  1
  Co  Co16  1  0.001836  0.001539  0.003375  1
  Sb  Sb17  1  0.000232  0.499805  0.500037  1
