# generated using pymatgen
data_Lu2TaNb3C5
_symmetry_space_group_name_H-M   'P 1'
_cell_length_a   5.65759164
_cell_length_b   5.66568407
_cell_length_c   5.58603987
_cell_angle_alpha   81.63121475
_cell_angle_beta   81.47362904
_cell_angle_gamma   120.97416401
_symmetry_Int_Tables_number   1
_chemical_formula_structural   Lu2TaNb3C5
_chemical_formula_sum   'Lu2 Ta1 Nb3 C5'
_cell_volume   146.53676965
_cell_formula_units_Z   1
loop_
 _symmetry_equiv_pos_site_id
 _symmetry_equiv_pos_as_xyz
  1  'x, y, z'
loop_
 _atom_site_type_symbol
 _atom_site_label
 _atom_site_symmetry_multiplicity
 _atom_site_fract_x
 _atom_site_fract_y
 _atom_site_fract_z
 _atom_site_occupancy
  Lu  Lu0  1  0.757072  0.757653  0.754042  1
  Lu  Lu1  1  0.243081  0.242624  0.245869  1
  Ta  Ta2  1  0.099355  0.450151  0.740546  1
  Nb  Nb3  1  0.550531  0.900934  0.258036  1
  Nb  Nb4  1  0.900569  0.549950  0.258932  1
  Nb  Nb5  1  0.449800  0.100113  0.741689  1
  C  C6  1  0.496745  0.499934  0.501330  1
  C  C7  1  0.679324  0.324323  0.998306  1
  C  C8  1  0.321984  0.674972  0.998379  1
  C  C9  1  0.825763  0.177913  0.501602  1
  C  C10  1  0.175776  0.821435  0.501267  1
