# generated using pymatgen
data_Hf3ZrFe2(B2Ru5)2
_symmetry_space_group_name_H-M   'P 1'
_cell_length_a   9.31447873
_cell_length_b   9.31447873
_cell_length_c   3.07372000
_cell_angle_alpha   90.00000000
_cell_angle_beta   90.00000000
_cell_angle_gamma   89.87292725
_symmetry_Int_Tables_number   1
_chemical_formula_structural   Hf3ZrFe2(B2Ru5)2
_chemical_formula_sum   'Hf3 Zr1 Fe2 B4 Ru10'
_cell_volume   266.67379738
_cell_formula_units_Z   1
loop_
 _symmetry_equiv_pos_site_id
 _symmetry_equiv_pos_as_xyz
  1  'x, y, z'
loop_
 _atom_site_type_symbol
 _atom_site_label
 _atom_site_symmetry_multiplicity
 _atom_site_fract_x
 _atom_site_fract_y
 _atom_site_fract_z
 _atom_site_occupancy
  Hf  Hf0  1  0.323396  0.823396  0.000000  1
  Hf  Hf1  1  0.176078  0.324145  0.000000  1
  Hf  Hf2  1  0.824145  0.676078  0.000000  1
  Zr  Zr3  1  0.676172  0.176172  0.000000  1
  Fe  Fe4  1  0.000202  0.999865  0.000000  1
  Fe  Fe5  1  0.499865  0.500202  0.000000  1
  B  B6  1  0.124279  0.624279  0.000000  1
  B  B7  1  0.876559  0.376559  0.000000  1
  B  B8  1  0.624091  0.875200  0.000000  1
  B  B9  1  0.375200  0.124091  0.000000  1
  Ru  Ru10  1  0.212781  0.070746  0.500000  1
  Ru  Ru11  1  0.786838  0.927807  0.500000  1
  Ru  Ru12  1  0.070916  0.786931  0.500000  1
  Ru  Ru13  1  0.713907  0.430680  0.500000  1
  Ru  Ru14  1  0.930680  0.213907  0.500000  1
  Ru  Ru15  1  0.286931  0.570916  0.500000  1
  Ru  Ru16  1  0.570746  0.712781  0.500000  1
  Ru  Ru17  1  0.427807  0.286838  0.500000  1
  Ru  Ru18  1  0.498969  0.998969  0.500000  1
  Ru  Ru19  1  0.000435  0.500435  0.500000  1
