# generated using pymatgen
data_Er3Lu17Sn16
_symmetry_space_group_name_H-M   'P 1'
_cell_length_a   7.91825834
_cell_length_b   8.01790734
_cell_length_c   15.17889009
_cell_angle_alpha   89.99992925
_cell_angle_beta   90.16077237
_cell_angle_gamma   89.94369990
_symmetry_Int_Tables_number   1
_chemical_formula_structural   Er3Lu17Sn16
_chemical_formula_sum   'Er3 Lu17 Sn16'
_cell_volume   963.67101594
_cell_formula_units_Z   1
loop_
 _symmetry_equiv_pos_site_id
 _symmetry_equiv_pos_as_xyz
  1  'x, y, z'
loop_
 _atom_site_type_symbol
 _atom_site_label
 _atom_site_symmetry_multiplicity
 _atom_site_fract_x
 _atom_site_fract_y
 _atom_site_fract_z
 _atom_site_occupancy
  Er  Er0  1  0.978144  0.821301  0.403873  1
  Er  Er1  1  0.521089  0.321658  0.595352  1
  Er  Er2  1  0.022131  0.178068  0.904608  1
  Lu  Lu3  1  0.368575  0.836918  0.877039  1
  Lu  Lu4  1  0.867422  0.662615  0.623177  1
  Lu  Lu5  1  0.632389  0.161777  0.376008  1
  Lu  Lu6  1  0.131179  0.337760  0.123330  1
  Lu  Lu7  1  0.630825  0.162502  0.123320  1
  Lu  Lu8  1  0.131479  0.337832  0.376441  1
  Lu  Lu9  1  0.368753  0.837720  0.623288  1
  Lu  Lu10  1  0.870652  0.662346  0.876995  1
  Lu  Lu11  1  0.525663  0.321817  0.903093  1
  Lu  Lu12  1  0.024114  0.178963  0.596469  1
  Lu  Lu13  1  0.476384  0.678624  0.403295  1
  Lu  Lu14  1  0.975200  0.820941  0.097336  1
  Lu  Lu15  1  0.475534  0.677872  0.096386  1
  Lu  Lu16  1  0.199398  0.504814  0.750220  1
  Lu  Lu17  1  0.698866  0.995480  0.750214  1
  Lu  Lu18  1  0.801089  0.495539  0.249544  1
  Lu  Lu19  1  0.301403  0.004672  0.249640  1
  Sn  Sn20  1  0.292509  0.034978  0.042347  1
  Sn  Sn21  1  0.792554  0.462855  0.457990  1
  Sn  Sn22  1  0.707119  0.963825  0.541591  1
  Sn  Sn23  1  0.209953  0.536255  0.959058  1
  Sn  Sn24  1  0.705343  0.960370  0.959586  1
  Sn  Sn25  1  0.204337  0.539864  0.540421  1
  Sn  Sn26  1  0.295301  0.039155  0.459070  1
  Sn  Sn27  1  0.791627  0.463632  0.041341  1
  Sn  Sn28  1  0.565272  0.619552  0.750071  1
  Sn  Sn29  1  0.064681  0.880740  0.749876  1
  Sn  Sn30  1  0.435390  0.381204  0.250053  1
  Sn  Sn31  1  0.935379  0.119504  0.249960  1
  Sn  Sn32  1  0.334124  0.150313  0.750601  1
  Sn  Sn33  1  0.834586  0.349540  0.749369  1
  Sn  Sn34  1  0.664677  0.848361  0.249669  1
  Sn  Sn35  1  0.166859  0.650634  0.249370  1
