# generated using pymatgen
data_Tb6DyPu3(SiB4)4
_symmetry_space_group_name_H-M   'P 1'
_cell_length_a   7.24320768
_cell_length_b   7.24324492
_cell_length_c   8.14523568
_cell_angle_alpha   89.99840840
_cell_angle_beta   89.99808614
_cell_angle_gamma   89.78338949
_symmetry_Int_Tables_number   1
_chemical_formula_structural   Tb6DyPu3(SiB4)4
_chemical_formula_sum   'Tb6 Dy1 Pu3 Si4 B16'
_cell_volume   427.33125545
_cell_formula_units_Z   1
loop_
 _symmetry_equiv_pos_site_id
 _symmetry_equiv_pos_as_xyz
  1  'x, y, z'
loop_
 _atom_site_type_symbol
 _atom_site_label
 _atom_site_symmetry_multiplicity
 _atom_site_fract_x
 _atom_site_fract_y
 _atom_site_fract_z
 _atom_site_occupancy
  Tb  Tb0  1  0.818051  0.681584  0.222861  1
  Tb  Tb1  1  0.818136  0.681546  0.777012  1
  Tb  Tb2  1  0.181547  0.318136  0.777012  1
  Tb  Tb3  1  0.181583  0.318052  0.222861  1
  Tb  Tb4  1  0.004913  0.997856  0.498059  1
  Tb  Tb5  1  0.497857  0.504914  0.498059  1
  Dy  Dy6  1  0.681773  0.181773  0.776619  1
  Pu  Pu7  1  0.683586  0.183585  0.229081  1
  Pu  Pu8  1  0.315979  0.815979  0.771579  1
  Pu  Pu9  1  0.316960  0.816960  0.228370  1
  Si  Si10  1  0.112801  0.612803  0.500926  1
  Si  Si11  1  0.882544  0.382542  0.497945  1
  Si  Si12  1  0.387891  0.116012  0.498346  1
  Si  Si13  1  0.616009  0.887891  0.498346  1
  B  B14  1  0.173916  0.037939  0.999700  1
  B  B15  1  0.827009  0.961297  0.000522  1
  B  B16  1  0.959380  0.172181  0.000039  1
  B  B17  1  0.326956  0.541531  0.999700  1
  B  B18  1  0.041532  0.826956  0.999699  1
  B  B19  1  0.672182  0.459380  0.000039  1
  B  B20  1  0.537939  0.673915  0.999700  1
  B  B21  1  0.461297  0.327008  0.000522  1
  B  B22  1  0.090400  0.590400  0.000069  1
  B  B23  1  0.908922  0.408921  0.001403  1
  B  B24  1  0.410564  0.089689  0.000781  1
  B  B25  1  0.589689  0.910564  0.000781  1
  B  B26  1  0.000244  0.999602  0.160283  1
  B  B27  1  0.001601  0.999135  0.839700  1
  B  B28  1  0.499135  0.501600  0.839701  1
  B  B29  1  0.499602  0.500245  0.160283  1
