# generated using pymatgen
data_DyHoLu2(Al3Ir)6
_symmetry_space_group_name_H-M   'P 1'
_cell_length_a   7.54134200
_cell_length_b   7.54434383
_cell_length_c   9.44208800
_cell_angle_alpha   90.00000000
_cell_angle_beta   90.00000000
_cell_angle_gamma   119.49385972
_symmetry_Int_Tables_number   1
_chemical_formula_structural   DyHoLu2(Al3Ir)6
_chemical_formula_sum   'Dy1 Ho1 Lu2 Al18 Ir6'
_cell_volume   467.58574052
_cell_formula_units_Z   1
loop_
 _symmetry_equiv_pos_site_id
 _symmetry_equiv_pos_as_xyz
  1  'x, y, z'
loop_
 _atom_site_type_symbol
 _atom_site_label
 _atom_site_symmetry_multiplicity
 _atom_site_fract_x
 _atom_site_fract_y
 _atom_site_fract_z
 _atom_site_occupancy
  Dy  Dy0  1  0.994688  0.671618  0.250000  1
  Ho  Ho1  1  0.672078  0.994693  0.250000  1
  Lu  Lu2  1  0.005332  0.327605  0.750000  1
  Lu  Lu3  1  0.327806  0.005663  0.750000  1
  Al  Al4  1  0.129914  0.130419  0.250000  1
  Al  Al5  1  0.870683  0.871182  0.750000  1
  Al  Al6  1  0.000738  0.334871  0.073583  1
  Al  Al7  1  0.999798  0.664564  0.923254  1
  Al  Al8  1  0.999798  0.664564  0.576746  1
  Al  Al9  1  0.335703  0.001058  0.426349  1
  Al  Al10  1  0.000738  0.334871  0.426417  1
  Al  Al11  1  0.664613  0.999932  0.575688  1
  Al  Al12  1  0.664613  0.999932  0.924312  1
  Al  Al13  1  0.335703  0.001058  0.073651  1
  Al  Al14  1  0.332537  0.332598  0.553098  1
  Al  Al15  1  0.666761  0.667081  0.449783  1
  Al  Al16  1  0.666761  0.667081  0.050217  1
  Al  Al17  1  0.332537  0.332598  0.946902  1
  Al  Al18  1  0.341011  0.549450  0.250000  1
  Al  Al19  1  0.659325  0.449689  0.750000  1
  Al  Al20  1  0.548531  0.339137  0.250000  1
  Al  Al21  1  0.449959  0.659957  0.750000  1
  Ir  Ir22  1  0.672053  0.327616  0.999283  1
  Ir  Ir23  1  0.327614  0.672067  0.999332  1
  Ir  Ir24  1  0.327614  0.672067  0.500668  1
  Ir  Ir25  1  0.672053  0.327616  0.500717  1
  Ir  Ir26  1  0.000519  0.000505  0.999187  1
  Ir  Ir27  1  0.000519  0.000505  0.500813  1
