# generated using pymatgen
data_Hf8CuMo3Ir4
_symmetry_space_group_name_H-M   'P 1'
_cell_length_a   6.55018400
_cell_length_b   4.63669400
_cell_length_c   9.27047200
_cell_angle_alpha   90.00000000
_cell_angle_beta   90.00001854
_cell_angle_gamma   90.00000000
_symmetry_Int_Tables_number   1
_chemical_formula_structural   Hf8CuMo3Ir4
_chemical_formula_sum   'Hf8 Cu1 Mo3 Ir4'
_cell_volume   281.55534856
_cell_formula_units_Z   1
loop_
 _symmetry_equiv_pos_site_id
 _symmetry_equiv_pos_as_xyz
  1  'x, y, z'
loop_
 _atom_site_type_symbol
 _atom_site_label
 _atom_site_symmetry_multiplicity
 _atom_site_fract_x
 _atom_site_fract_y
 _atom_site_fract_z
 _atom_site_occupancy
  Hf  Hf0  1  0.002892  0.750000  0.125016  1
  Hf  Hf1  1  0.497089  0.750000  0.125016  1
  Hf  Hf2  1  0.001607  0.250001  0.376252  1
  Hf  Hf3  1  0.498389  0.250001  0.376253  1
  Hf  Hf4  1  0.498900  0.750000  0.625019  1
  Hf  Hf5  1  0.001108  0.750000  0.625021  1
  Hf  Hf6  1  0.498411  0.250001  0.873720  1
  Hf  Hf7  1  0.001608  0.250001  0.873722  1
  Cu  Cu8  1  0.749987  0.250001  0.124984  1
  Mo  Mo9  1  0.249993  0.750000  0.372346  1
  Mo  Mo10  1  0.750008  0.250001  0.624992  1
  Mo  Mo11  1  0.250008  0.750000  0.877662  1
  Ir  Ir12  1  0.249992  0.250001  0.125001  1
  Ir  Ir13  1  0.749993  0.750000  0.372785  1
  Ir  Ir14  1  0.250009  0.250001  0.625004  1
  Ir  Ir15  1  0.750010  0.750000  0.877208  1
