# generated using pymatgen
data_Ba7Ca12LaPt16
_symmetry_space_group_name_H-M   'P 1'
_cell_length_a   7.83685729
_cell_length_b   7.99023569
_cell_length_c   15.19202500
_cell_angle_alpha   89.80846959
_cell_angle_beta   89.90272622
_cell_angle_gamma   90.11450672
_symmetry_Int_Tables_number   1
_chemical_formula_structural   Ba7Ca12LaPt16
_chemical_formula_sum   'Ba7 Ca12 La1 Pt16'
_cell_volume   951.29074229
_cell_formula_units_Z   1
loop_
 _symmetry_equiv_pos_site_id
 _symmetry_equiv_pos_as_xyz
  1  'x, y, z'
loop_
 _atom_site_type_symbol
 _atom_site_label
 _atom_site_symmetry_multiplicity
 _atom_site_fract_x
 _atom_site_fract_y
 _atom_site_fract_z
 _atom_site_occupancy
  Ba  Ba0  1  0.999177  0.173703  0.596997  1
  Ba  Ba1  1  0.500513  0.674169  0.403752  1
  Ba  Ba2  1  0.001119  0.825169  0.096183  1
  Ba  Ba3  1  0.500830  0.673992  0.095093  1
  Ba  Ba4  1  0.000478  0.825766  0.403727  1
  Ba  Ba5  1  0.499487  0.326263  0.596856  1
  Ba  Ba6  1  0.999114  0.173541  0.904198  1
  Ca  Ca7  1  0.339747  0.827801  0.876662  1
  Ca  Ca8  1  0.837606  0.669227  0.624904  1
  Ca  Ca9  1  0.661297  0.169966  0.376195  1
  Ca  Ca10  1  0.160727  0.331424  0.123209  1
  Ca  Ca11  1  0.659934  0.171999  0.123362  1
  Ca  Ca12  1  0.160651  0.329878  0.376504  1
  Ca  Ca13  1  0.338701  0.829490  0.624555  1
  Ca  Ca14  1  0.838708  0.669813  0.876653  1
  Ca  Ca15  1  0.174599  0.501271  0.749892  1
  Ca  Ca16  1  0.677568  0.998232  0.750077  1
  Ca  Ca17  1  0.824728  0.498503  0.250423  1
  Ca  Ca18  1  0.324823  0.002483  0.250201  1
  La  La19  1  0.495191  0.318521  0.897981  1
  Pt  Pt20  1  0.342173  0.051605  0.037758  1
  Pt  Pt21  1  0.840160  0.459929  0.457761  1
  Pt  Pt22  1  0.658970  0.959243  0.543596  1
  Pt  Pt23  1  0.177845  0.525968  0.954325  1
  Pt  Pt24  1  0.653957  0.976684  0.952820  1
  Pt  Pt25  1  0.158594  0.539573  0.543661  1
  Pt  Pt26  1  0.339919  0.040222  0.457775  1
  Pt  Pt27  1  0.833823  0.458303  0.037088  1
  Pt  Pt28  1  0.543576  0.620399  0.754861  1
  Pt  Pt29  1  0.052282  0.873198  0.749903  1
  Pt  Pt30  1  0.451651  0.371728  0.250498  1
  Pt  Pt31  1  0.952067  0.128017  0.249509  1
  Pt  Pt32  1  0.309777  0.129027  0.758851  1
  Pt  Pt33  1  0.790424  0.374726  0.755529  1
  Pt  Pt34  1  0.700402  0.879474  0.249438  1
  Pt  Pt35  1  0.199385  0.620694  0.249201  1
