# generated using pymatgen
data_La2PrNb(Co4P3)2
_symmetry_space_group_name_H-M   'P 1'
_cell_length_a   3.80053600
_cell_length_b   10.85039700
_cell_length_c   12.58136100
_cell_angle_alpha   90.00000000
_cell_angle_beta   90.00000000
_cell_angle_gamma   90.00000000
_symmetry_Int_Tables_number   1
_chemical_formula_structural   La2PrNb(Co4P3)2
_chemical_formula_sum   'La4 Pr2 Nb2 Co16 P12'
_cell_volume   518.82166511
_cell_formula_units_Z   2
loop_
 _symmetry_equiv_pos_site_id
 _symmetry_equiv_pos_as_xyz
  1  'x, y, z'
loop_
 _atom_site_type_symbol
 _atom_site_label
 _atom_site_symmetry_multiplicity
 _atom_site_fract_x
 _atom_site_fract_y
 _atom_site_fract_z
 _atom_site_occupancy
  La  La0  1  0.000000  0.500000  0.527975  1
  La  La1  1  0.500000  0.000000  0.472489  1
  La  La2  1  0.500000  0.820266  0.206453  1
  La  La3  1  0.500000  0.179734  0.206453  1
  Pr  Pr4  1  0.000000  0.681013  0.795004  1
  Pr  Pr5  1  0.000000  0.318987  0.795004  1
  Nb  Nb6  1  0.500000  0.500000  0.151857  1
  Nb  Nb7  1  0.000000  0.000000  0.846977  1
  Co  Co8  1  0.500000  0.500000  0.703484  1
  Co  Co9  1  0.000000  0.000000  0.296062  1
  Co  Co10  1  0.000000  0.500000  0.986266  1
  Co  Co11  1  0.500000  0.000000  0.011826  1
  Co  Co12  1  0.500000  0.332647  0.992508  1
  Co  Co13  1  0.500000  0.667353  0.992508  1
  Co  Co14  1  0.000000  0.167596  0.006443  1
  Co  Co15  1  0.000000  0.832404  0.006443  1
  Co  Co16  1  0.500000  0.296126  0.432504  1
  Co  Co17  1  0.500000  0.703874  0.432504  1
  Co  Co18  1  0.000000  0.204232  0.568778  1
  Co  Co19  1  0.000000  0.795768  0.568778  1
  Co  Co20  1  0.500000  0.881182  0.706158  1
  Co  Co21  1  0.500000  0.118818  0.706158  1
  Co  Co22  1  0.000000  0.618681  0.294218  1
  Co  Co23  1  0.000000  0.381319  0.294218  1
  P  P24  1  0.500000  0.500000  0.886648  1
  P  P25  1  0.000000  0.000000  0.110950  1
  P  P26  1  0.500000  0.500000  0.349064  1
  P  P27  1  0.000000  0.000000  0.650865  1
  P  P28  1  0.500000  0.302751  0.613955  1
  P  P29  1  0.500000  0.697249  0.613955  1
  P  P30  1  0.000000  0.198143  0.387938  1
  P  P31  1  0.000000  0.801857  0.387938  1
  P  P32  1  0.500000  0.843886  0.897094  1
  P  P33  1  0.500000  0.156114  0.897094  1
  P  P34  1  0.000000  0.656085  0.101714  1
  P  P35  1  0.000000  0.343915  0.101714  1
