# generated using pymatgen
data_HoPa7Ti11Si16Pd
_symmetry_space_group_name_H-M   'P 1'
_cell_length_a   7.04164856
_cell_length_b   7.03646914
_cell_length_c   12.94881747
_cell_angle_alpha   90.32065101
_cell_angle_beta   89.60289114
_cell_angle_gamma   89.86889948
_symmetry_Int_Tables_number   1
_chemical_formula_structural   HoPa7Ti11Si16Pd
_chemical_formula_sum   'Ho1 Pa7 Ti11 Si16 Pd1'
_cell_volume   641.56525254
_cell_formula_units_Z   1
loop_
 _symmetry_equiv_pos_site_id
 _symmetry_equiv_pos_as_xyz
  1  'x, y, z'
loop_
 _atom_site_type_symbol
 _atom_site_label
 _atom_site_symmetry_multiplicity
 _atom_site_fract_x
 _atom_site_fract_y
 _atom_site_fract_z
 _atom_site_occupancy
  Ho  Ho0  1  0.003783  0.656584  0.031607  1
  Pa  Pa1  1  0.335387  0.002188  0.467704  1
  Pa  Pa2  1  0.495436  0.837367  0.720413  1
  Pa  Pa3  1  0.504407  0.160100  0.216502  1
  Pa  Pa4  1  0.835807  0.492852  0.281082  1
  Pa  Pa5  1  0.161107  0.504175  0.782014  1
  Pa  Pa6  1  0.656995  0.004795  0.967627  1
  Pa  Pa7  1  0.002551  0.335377  0.532102  1
  Ti  Ti8  1  0.174744  0.829779  0.250302  1
  Ti  Ti9  1  0.829120  0.171464  0.750818  1
  Ti  Ti10  1  0.668392  0.668744  0.500046  1
  Ti  Ti11  1  0.157380  0.005479  0.876663  1
  Ti  Ti12  1  0.502048  0.654798  0.124924  1
  Ti  Ti13  1  0.499538  0.343872  0.625041  1
  Ti  Ti14  1  0.655654  0.502581  0.875817  1
  Ti  Ti15  1  0.344510  0.500416  0.374642  1
  Ti  Ti16  1  0.844977  0.998331  0.373749  1
  Ti  Ti17  1  0.004518  0.156351  0.123472  1
  Ti  Ti18  1  0.997919  0.844170  0.625404  1
  Si  Si19  1  0.201939  0.128828  0.684691  1
  Si  Si20  1  0.372252  0.712915  0.932842  1
  Si  Si21  1  0.627576  0.294034  0.433617  1
  Si  Si22  1  0.714035  0.375342  0.067046  1
  Si  Si23  1  0.295519  0.628138  0.567159  1
  Si  Si24  1  0.799664  0.869886  0.182334  1
  Si  Si25  1  0.129373  0.202504  0.314934  1
  Si  Si26  1  0.872260  0.799298  0.817395  1
  Si  Si27  1  0.288007  0.946926  0.066491  1
  Si  Si28  1  0.542849  0.788933  0.314727  1
  Si  Si29  1  0.456822  0.214460  0.814746  1
  Si  Si30  1  0.789118  0.541422  0.685386  1
  Si  Si31  1  0.212407  0.456847  0.185642  1
  Si  Si32  1  0.708768  0.039523  0.565672  1
  Si  Si33  1  0.948707  0.290729  0.933509  1
  Si  Si34  1  0.039222  0.708090  0.434213  1
  Pd  Pd35  1  0.327211  0.332701  0.999666  1
