# generated using pymatgen
data_Ho6ErTm3(CoBi2)2
_symmetry_space_group_name_H-M   'P 1'
_cell_length_a   7.91193263
_cell_length_b   8.86640643
_cell_length_c   12.33667106
_cell_angle_alpha   89.97314090
_cell_angle_beta   90.03917005
_cell_angle_gamma   90.02350677
_symmetry_Int_Tables_number   1
_chemical_formula_structural   Ho6ErTm3(CoBi2)2
_chemical_formula_sum   'Ho12 Er2 Tm6 Co4 Bi8'
_cell_volume   865.42216689
_cell_formula_units_Z   2
loop_
 _symmetry_equiv_pos_site_id
 _symmetry_equiv_pos_as_xyz
  1  'x, y, z'
loop_
 _atom_site_type_symbol
 _atom_site_label
 _atom_site_symmetry_multiplicity
 _atom_site_fract_x
 _atom_site_fract_y
 _atom_site_fract_z
 _atom_site_occupancy
  Ho  Ho0  1  0.347268  0.749961  0.699694  1
  Ho  Ho1  1  0.652732  0.250039  0.300306  1
  Ho  Ho2  1  0.847074  0.250069  0.800151  1
  Ho  Ho3  1  0.152926  0.749931  0.199849  1
  Ho  Ho4  1  0.884907  0.749832  0.811362  1
  Ho  Ho5  1  0.115093  0.250168  0.188638  1
  Ho  Ho6  1  0.385040  0.249999  0.688448  1
  Ho  Ho7  1  0.614960  0.750001  0.311552  1
  Ho  Ho8  1  0.053121  0.749991  0.497907  1
  Ho  Ho9  1  0.946879  0.250009  0.502093  1
  Ho  Ho10  1  0.552993  0.250143  0.002075  1
  Ho  Ho11  1  0.447007  0.749857  0.997925  1
  Er  Er12  1  0.825093  0.961750  0.062910  1
  Er  Er13  1  0.174907  0.038250  0.937090  1
  Tm  Tm14  1  0.673935  0.538223  0.562691  1
  Tm  Tm15  1  0.326065  0.461777  0.437309  1
  Tm  Tm16  1  0.173996  0.461742  0.937267  1
  Tm  Tm17  1  0.326054  0.038210  0.437308  1
  Tm  Tm18  1  0.826004  0.538258  0.062733  1
  Tm  Tm19  1  0.673946  0.961790  0.562692  1
  Co  Co20  1  0.065833  0.749638  0.991965  1
  Co  Co21  1  0.934167  0.250362  0.008035  1
  Co  Co22  1  0.565698  0.249997  0.507964  1
  Co  Co23  1  0.434302  0.750003  0.492036  1
  Bi  Bi24  1  0.571326  0.509598  0.826718  1
  Bi  Bi25  1  0.428674  0.490402  0.173282  1
  Bi  Bi26  1  0.071303  0.490405  0.673261  1
  Bi  Bi27  1  0.428481  0.009614  0.173351  1
  Bi  Bi28  1  0.928697  0.509595  0.326739  1
  Bi  Bi29  1  0.571519  0.990386  0.826649  1
  Bi  Bi30  1  0.928741  0.990381  0.326803  1
  Bi  Bi31  1  0.071259  0.009619  0.673197  1
