# generated using pymatgen
data_Rb2CdIn3Au8
_symmetry_space_group_name_H-M   'P 1'
_cell_length_a   7.66022219
_cell_length_b   7.66056677
_cell_length_c   7.68467431
_cell_angle_alpha   107.31547627
_cell_angle_beta   107.32216425
_cell_angle_gamma   113.69837129
_symmetry_Int_Tables_number   1
_chemical_formula_structural   Rb2CdIn3Au8
_chemical_formula_sum   'Rb2 Cd1 In3 Au8'
_cell_volume   346.37684128
_cell_formula_units_Z   1
loop_
 _symmetry_equiv_pos_site_id
 _symmetry_equiv_pos_as_xyz
  1  'x, y, z'
loop_
 _atom_site_type_symbol
 _atom_site_label
 _atom_site_symmetry_multiplicity
 _atom_site_fract_x
 _atom_site_fract_y
 _atom_site_fract_z
 _atom_site_occupancy
  Rb  Rb0  1  0.749923  0.749940  0.999890  1
  Rb  Rb1  1  0.249904  0.249915  0.999853  1
  Cd  Cd2  1  0.856730  0.356816  0.213568  1
  In  In3  1  0.358779  0.140397  0.499165  1
  In  In4  1  0.640468  0.858872  0.499363  1
  In  In5  1  0.141847  0.641621  0.783415  1
  Au  Au6  1  0.683307  0.486874  0.500143  1
  Au  Au7  1  0.487947  0.987911  0.806040  1
  Au  Au8  1  0.987018  0.183428  0.500447  1
  Au  Au9  1  0.181697  0.681797  0.196004  1
  Au  Au10  1  0.514140  0.014264  0.195952  1
  Au  Au11  1  0.013358  0.816686  0.500108  1
  Au  Au12  1  0.316848  0.513431  0.500342  1
  Au  Au13  1  0.818035  0.318048  0.805709  1
