# generated using pymatgen
data_Rb8Hf5ZrBI20
_symmetry_space_group_name_H-M   'P 1'
_cell_length_a   12.87941071
_cell_length_b   12.87531486
_cell_length_c   12.87531367
_cell_angle_alpha   60.02640186
_cell_angle_beta   59.99485705
_cell_angle_gamma   59.99485250
_symmetry_Int_Tables_number   1
_chemical_formula_structural   Rb8Hf5ZrBI20
_chemical_formula_sum   'Rb8 Hf5 Zr1 B1 I20'
_cell_volume   1509.90443012
_cell_formula_units_Z   1
loop_
 _symmetry_equiv_pos_site_id
 _symmetry_equiv_pos_as_xyz
  1  'x, y, z'
loop_
 _atom_site_type_symbol
 _atom_site_label
 _atom_site_symmetry_multiplicity
 _atom_site_fract_x
 _atom_site_fract_y
 _atom_site_fract_z
 _atom_site_occupancy
  Rb  Rb0  1  0.362116  0.361477  0.361477  1
  Rb  Rb1  1  0.638415  0.638372  0.638372  1
  Rb  Rb2  1  0.361628  0.361584  0.915163  1
  Rb  Rb3  1  0.361628  0.915163  0.361584  1
  Rb  Rb4  1  0.638524  0.637888  0.085059  1
  Rb  Rb5  1  0.638524  0.085059  0.637888  1
  Rb  Rb6  1  0.914939  0.361474  0.361474  1
  Rb  Rb7  1  0.084838  0.638372  0.638372  1
  Hf  Hf8  1  0.128414  0.871582  0.871582  1
  Hf  Hf9  1  0.127227  0.872778  0.128020  1
  Hf  Hf10  1  0.871980  0.128015  0.872772  1
  Hf  Hf11  1  0.127227  0.128020  0.872778  1
  Hf  Hf12  1  0.871980  0.872772  0.128015  1
  Zr  Zr13  1  0.871383  0.128622  0.128622  1
  B  B14  1  0.001565  0.998434  0.998434  1
  I  I15  1  0.314102  0.999979  0.999979  1
  I  I16  1  0.685940  0.999977  0.999977  1
  I  I17  1  0.000021  0.314053  0.685904  1
  I  I18  1  0.000021  0.685904  0.314053  1
  I  I19  1  0.002404  0.316492  0.997600  1
  I  I20  1  0.683511  0.997597  0.316489  1
  I  I21  1  0.999912  0.685812  0.000085  1
  I  I22  1  0.314182  0.000088  0.685818  1
  I  I23  1  0.002404  0.997600  0.316492  1
  I  I24  1  0.999912  0.000085  0.685812  1
  I  I25  1  0.683511  0.316489  0.997597  1
  I  I26  1  0.314182  0.685818  0.000088  1
  I  I27  1  0.691486  0.308519  0.308519  1
  I  I28  1  0.307135  0.692865  0.692865  1
  I  I29  1  0.307450  0.692552  0.306941  1
  I  I30  1  0.693059  0.306940  0.692550  1
  I  I31  1  0.307450  0.306941  0.692552  1
  I  I32  1  0.693059  0.692550  0.306940  1
  I  I33  1  0.249936  0.250065  0.250065  1
  I  I34  1  0.749936  0.750064  0.750064  1
