# generated using pymatgen
data_Nd2Y14CdIn3Ni4
_symmetry_space_group_name_H-M   'P 1'
_cell_length_a   9.66738253
_cell_length_b   9.68256571
_cell_length_c   9.68719991
_cell_angle_alpha   59.92304908
_cell_angle_beta   59.91295473
_cell_angle_gamma   60.00181684
_symmetry_Int_Tables_number   1
_chemical_formula_structural   Nd2Y14CdIn3Ni4
_chemical_formula_sum   'Nd2 Y14 Cd1 In3 Ni4'
_cell_volume   640.39684592
_cell_formula_units_Z   1
loop_
 _symmetry_equiv_pos_site_id
 _symmetry_equiv_pos_as_xyz
  1  'x, y, z'
loop_
 _atom_site_type_symbol
 _atom_site_label
 _atom_site_symmetry_multiplicity
 _atom_site_fract_x
 _atom_site_fract_y
 _atom_site_fract_z
 _atom_site_occupancy
  Nd  Nd0  1  0.595599  0.596775  0.598103  1
  Nd  Nd1  1  0.597265  0.597277  0.203787  1
  Y  Y2  1  0.600113  0.199779  0.600278  1
  Y  Y3  1  0.198357  0.599689  0.600731  1
  Y  Y4  1  0.061845  0.440450  0.439446  1
  Y  Y5  1  0.439915  0.062657  0.060877  1
  Y  Y6  1  0.439982  0.063152  0.437546  1
  Y  Y7  1  0.061860  0.440714  0.060022  1
  Y  Y8  1  0.438624  0.437892  0.062917  1
  Y  Y9  1  0.060916  0.060474  0.440742  1
  Y  Y10  1  0.187854  0.814742  0.815187  1
  Y  Y11  1  0.814081  0.186102  0.186725  1
  Y  Y12  1  0.814227  0.186069  0.813814  1
  Y  Y13  1  0.188370  0.812672  0.186656  1
  Y  Y14  1  0.814649  0.813278  0.185967  1
  Y  Y15  1  0.188689  0.186796  0.812924  1
  Cd  Cd16  1  0.503995  0.832987  0.829996  1
  In  In17  1  0.834212  0.835536  0.831557  1
  In  In18  1  0.831550  0.834598  0.502152  1
  In  In19  1  0.833009  0.502376  0.831619  1
  Ni  Ni20  1  0.391844  0.391897  0.392833  1
  Ni  Ni21  1  0.388879  0.389095  0.824053  1
  Ni  Ni22  1  0.387784  0.826530  0.391129  1
  Ni  Ni23  1  0.826381  0.388465  0.390941  1
