# generated using pymatgen
data_TbDy5(Al3Os)8
_symmetry_space_group_name_H-M   'P 1'
_cell_length_a   8.83492300
_cell_length_b   8.83193794
_cell_length_c   9.56586000
_cell_angle_alpha   90.00000000
_cell_angle_beta   90.00000000
_cell_angle_gamma   120.01117734
_symmetry_Int_Tables_number   1
_chemical_formula_structural   TbDy5(Al3Os)8
_chemical_formula_sum   'Tb1 Dy5 Al24 Os8'
_cell_volume   646.34516423
_cell_formula_units_Z   1
loop_
 _symmetry_equiv_pos_site_id
 _symmetry_equiv_pos_as_xyz
  1  'x, y, z'
loop_
 _atom_site_type_symbol
 _atom_site_label
 _atom_site_symmetry_multiplicity
 _atom_site_fract_x
 _atom_site_fract_y
 _atom_site_fract_z
 _atom_site_occupancy
  Tb  Tb0  1  0.193214  0.386430  0.250000  1
  Dy  Dy1  1  0.806755  0.613508  0.750000  1
  Dy  Dy2  1  0.613344  0.806708  0.250000  1
  Dy  Dy3  1  0.386514  0.193248  0.750000  1
  Dy  Dy4  1  0.193363  0.806708  0.250000  1
  Dy  Dy5  1  0.806735  0.193248  0.750000  1
  Al  Al6  1  0.333399  0.666799  0.014856  1
  Al  Al7  1  0.666666  0.333331  0.985135  1
  Al  Al8  1  0.666666  0.333331  0.514865  1
  Al  Al9  1  0.333399  0.666799  0.485144  1
  Al  Al10  1  0.162650  0.325301  0.575987  1
  Al  Al11  1  0.837326  0.674650  0.424162  1
  Al  Al12  1  0.674695  0.837359  0.575879  1
  Al  Al13  1  0.837326  0.674650  0.075838  1
  Al  Al14  1  0.325367  0.162581  0.424171  1
  Al  Al15  1  0.162650  0.325301  0.924013  1
  Al  Al16  1  0.162663  0.837359  0.575879  1
  Al  Al17  1  0.325367  0.162581  0.075829  1
  Al  Al18  1  0.837215  0.162581  0.424171  1
  Al  Al19  1  0.674695  0.837359  0.924121  1
  Al  Al20  1  0.837215  0.162581  0.075829  1
  Al  Al21  1  0.162663  0.837359  0.924121  1
  Al  Al22  1  0.560174  0.120347  0.250000  1
  Al  Al23  1  0.439829  0.879658  0.750000  1
  Al  Al24  1  0.879430  0.439825  0.250000  1
  Al  Al25  1  0.120337  0.560182  0.750000  1
  Al  Al26  1  0.560395  0.439825  0.250000  1
  Al  Al27  1  0.439846  0.560182  0.750000  1
  Al  Al28  1  0.999902  0.999804  0.250000  1
  Al  Al29  1  0.000005  0.000010  0.750000  1
  Os  Os30  1  0.500048  0.000096  0.999935  1
  Os  Os31  1  0.999887  0.500054  0.999864  1
  Os  Os32  1  0.500048  0.000096  0.500065  1
  Os  Os33  1  0.500167  0.500054  0.999864  1
  Os  Os34  1  0.999887  0.500054  0.500136  1
  Os  Os35  1  0.500167  0.500054  0.500136  1
  Os  Os36  1  0.999997  0.999995  0.999920  1
  Os  Os37  1  0.999997  0.999995  0.500080  1
