# generated using pymatgen
data_Er2Mn9FeP6
_symmetry_space_group_name_H-M   'P 1'
_cell_length_a   3.58516500
_cell_length_b   10.65663100
_cell_length_c   12.18181200
_cell_angle_alpha   90.00000000
_cell_angle_beta   90.00000000
_cell_angle_gamma   90.00000000
_symmetry_Int_Tables_number   1
_chemical_formula_structural   Er2Mn9FeP6
_chemical_formula_sum   'Er4 Mn18 Fe2 P12'
_cell_volume   465.41563511
_cell_formula_units_Z   2
loop_
 _symmetry_equiv_pos_site_id
 _symmetry_equiv_pos_as_xyz
  1  'x, y, z'
loop_
 _atom_site_type_symbol
 _atom_site_label
 _atom_site_symmetry_multiplicity
 _atom_site_fract_x
 _atom_site_fract_y
 _atom_site_fract_z
 _atom_site_occupancy
  Er  Er0  1  0.250000  0.587435  0.706348  1
  Er  Er1  1  0.250000  0.912565  0.206348  1
  Er  Er2  1  0.750000  0.414100  0.293372  1
  Er  Er3  1  0.750000  0.085900  0.793372  1
  Mn  Mn4  1  0.250000  0.715265  0.983696  1
  Mn  Mn5  1  0.250000  0.784735  0.483696  1
  Mn  Mn6  1  0.750000  0.284491  0.016955  1
  Mn  Mn7  1  0.750000  0.215509  0.516955  1
  Mn  Mn8  1  0.250000  0.410338  0.493358  1
  Mn  Mn9  1  0.250000  0.089662  0.993358  1
  Mn  Mn10  1  0.750000  0.591278  0.506680  1
  Mn  Mn11  1  0.750000  0.908722  0.006680  1
  Mn  Mn12  1  0.250000  0.213259  0.179421  1
  Mn  Mn13  1  0.250000  0.286741  0.679421  1
  Mn  Mn14  1  0.750000  0.786911  0.820251  1
  Mn  Mn15  1  0.750000  0.713089  0.320251  1
  Mn  Mn16  1  0.250000  0.882710  0.692805  1
  Mn  Mn17  1  0.250000  0.617290  0.192805  1
  Mn  Mn18  1  0.750000  0.118374  0.306008  1
  Mn  Mn19  1  0.750000  0.381626  0.806008  1
  Mn  Mn20  1  0.250000  0.465601  0.934222  1
  Mn  Mn21  1  0.250000  0.034399  0.434222  1
  Fe  Fe22  1  0.750000  0.533223  0.066760  1
  Fe  Fe23  1  0.750000  0.966777  0.566760  1
  P  P24  1  0.250000  0.413315  0.114636  1
  P  P25  1  0.250000  0.086685  0.614636  1
  P  P26  1  0.750000  0.587778  0.886276  1
  P  P27  1  0.750000  0.912222  0.386276  1
  P  P28  1  0.250000  0.263204  0.874736  1
  P  P29  1  0.250000  0.236796  0.374736  1
  P  P30  1  0.750000  0.734156  0.124551  1
  P  P31  1  0.750000  0.765844  0.624551  1
  P  P32  1  0.250000  0.591431  0.383834  1
  P  P33  1  0.250000  0.908569  0.883834  1
  P  P34  1  0.750000  0.409801  0.616091  1
  P  P35  1  0.750000  0.090199  0.116091  1
