# generated using pymatgen
data_NdErCo2(B4Os3)2
_symmetry_space_group_name_H-M   'P 1'
_cell_length_a   7.29449784
_cell_length_b   7.55335818
_cell_length_c   3.99233000
_cell_angle_alpha   90.00000000
_cell_angle_beta   90.00000000
_cell_angle_gamma   87.79230690
_symmetry_Int_Tables_number   1
_chemical_formula_structural   NdErCo2(B4Os3)2
_chemical_formula_sum   'Nd1 Er1 Co2 B8 Os6'
_cell_volume   219.80594699
_cell_formula_units_Z   1
loop_
 _symmetry_equiv_pos_site_id
 _symmetry_equiv_pos_as_xyz
  1  'x, y, z'
loop_
 _atom_site_type_symbol
 _atom_site_label
 _atom_site_symmetry_multiplicity
 _atom_site_fract_x
 _atom_site_fract_y
 _atom_site_fract_z
 _atom_site_occupancy
  Nd  Nd0  1  0.000000  0.000000  0.022034  1
  Er  Er1  1  0.500000  0.500000  0.602530  1
  Co  Co2  1  0.613943  0.870977  0.880750  1
  Co  Co3  1  0.386057  0.129023  0.880750  1
  B  B4  1  0.337440  0.791601  0.881119  1
  B  B5  1  0.662560  0.208399  0.881119  1
  B  B6  1  0.312109  0.158065  0.382315  1
  B  B7  1  0.687891  0.841935  0.382315  1
  B  B8  1  0.167390  0.715505  0.603140  1
  B  B9  1  0.832610  0.284495  0.603140  1
  B  B10  1  0.229753  0.325726  0.101792  1
  B  B11  1  0.770247  0.674274  0.101792  1
  Os  Os12  1  0.844561  0.398962  0.104637  1
  Os  Os13  1  0.155439  0.601038  0.104637  1
  Os  Os14  1  0.885448  0.651911  0.604656  1
  Os  Os15  1  0.114552  0.348089  0.604656  1
  Os  Os16  1  0.628127  0.120916  0.379311  1
  Os  Os17  1  0.371873  0.879084  0.379311  1
