# generated using pymatgen
data_DyPa(CoB4)2
_symmetry_space_group_name_H-M   'P 1'
_cell_length_a   3.40871500
_cell_length_b   5.92355279
_cell_length_c   11.48886452
_cell_angle_alpha   89.94101051
_cell_angle_beta   90.00000000
_cell_angle_gamma   90.00000000
_symmetry_Int_Tables_number   1
_chemical_formula_structural   DyPa(CoB4)2
_chemical_formula_sum   'Dy2 Pa2 Co4 B16'
_cell_volume   231.97961995
_cell_formula_units_Z   2
loop_
 _symmetry_equiv_pos_site_id
 _symmetry_equiv_pos_as_xyz
  1  'x, y, z'
loop_
 _atom_site_type_symbol
 _atom_site_label
 _atom_site_symmetry_multiplicity
 _atom_site_fract_x
 _atom_site_fract_y
 _atom_site_fract_z
 _atom_site_occupancy
  Dy  Dy0  1  0.500000  0.127926  0.647778  1
  Dy  Dy1  1  0.500000  0.872074  0.352222  1
  Pa  Pa2  1  0.500000  0.372573  0.151804  1
  Pa  Pa3  1  0.500000  0.627427  0.848196  1
  Co  Co4  1  0.500000  0.366166  0.409804  1
  Co  Co5  1  0.500000  0.633834  0.590196  1
  Co  Co6  1  0.500000  0.134755  0.909874  1
  Co  Co7  1  0.500000  0.865245  0.090126  1
  B  B8  1  0.000000  0.111096  0.046222  1
  B  B9  1  0.000000  0.888904  0.953778  1
  B  B10  1  0.000000  0.386843  0.544975  1
  B  B11  1  0.000000  0.613157  0.455025  1
  B  B12  1  0.000000  0.138190  0.466966  1
  B  B13  1  0.000000  0.861810  0.533034  1
  B  B14  1  0.000000  0.361459  0.965555  1
  B  B15  1  0.000000  0.638541  0.034445  1
  B  B16  1  0.000000  0.020762  0.190909  1
  B  B17  1  0.000000  0.979238  0.809091  1
  B  B18  1  0.000000  0.476566  0.688375  1
  B  B19  1  0.000000  0.523434  0.311625  1
  B  B20  1  0.000000  0.217014  0.316448  1
  B  B21  1  0.000000  0.782986  0.683552  1
  B  B22  1  0.000000  0.281815  0.814196  1
  B  B23  1  0.000000  0.718185  0.185804  1
