# generated using pymatgen
data_Y5CoBi2
_symmetry_space_group_name_H-M   'P 1'
_cell_length_a   8.05761800
_cell_length_b   8.93194800
_cell_length_c   12.43937100
_cell_angle_alpha   90.00000000
_cell_angle_beta   90.00000000
_cell_angle_gamma   90.00000000
_symmetry_Int_Tables_number   1
_chemical_formula_structural   Y5CoBi2
_chemical_formula_sum   'Y20 Co4 Bi8'
_cell_volume   895.26432948
_cell_formula_units_Z   4
loop_
 _symmetry_equiv_pos_site_id
 _symmetry_equiv_pos_as_xyz
  1  'x, y, z'
loop_
 _atom_site_type_symbol
 _atom_site_label
 _atom_site_symmetry_multiplicity
 _atom_site_fract_x
 _atom_site_fract_y
 _atom_site_fract_z
 _atom_site_occupancy
  Y  Y0  1  0.847661  0.750000  0.801343  1
  Y  Y1  1  0.152339  0.250000  0.198657  1
  Y  Y2  1  0.347661  0.250000  0.698657  1
  Y  Y3  1  0.652339  0.750000  0.301343  1
  Y  Y4  1  0.378834  0.750000  0.690181  1
  Y  Y5  1  0.621166  0.250000  0.309819  1
  Y  Y6  1  0.878834  0.250000  0.809819  1
  Y  Y7  1  0.121166  0.750000  0.190181  1
  Y  Y8  1  0.955576  0.750000  0.502380  1
  Y  Y9  1  0.044424  0.250000  0.497620  1
  Y  Y10  1  0.455576  0.250000  0.997620  1
  Y  Y11  1  0.544424  0.750000  0.002380  1
  Y  Y12  1  0.676908  0.033655  0.562915  1
  Y  Y13  1  0.323092  0.966345  0.437085  1
  Y  Y14  1  0.176908  0.966345  0.937085  1
  Y  Y15  1  0.323092  0.533655  0.437085  1
  Y  Y16  1  0.823092  0.033655  0.062915  1
  Y  Y17  1  0.676908  0.466345  0.562915  1
  Y  Y18  1  0.823092  0.466345  0.062915  1
  Y  Y19  1  0.176908  0.533655  0.937085  1
  Co  Co20  1  0.559462  0.750000  0.508248  1
  Co  Co21  1  0.440538  0.250000  0.491752  1
  Co  Co22  1  0.059462  0.250000  0.991752  1
  Co  Co23  1  0.940538  0.750000  0.008248  1
  Bi  Bi24  1  0.570080  0.492498  0.825854  1
  Bi  Bi25  1  0.429920  0.507502  0.174146  1
  Bi  Bi26  1  0.070080  0.507502  0.674146  1
  Bi  Bi27  1  0.429920  0.992498  0.174146  1
  Bi  Bi28  1  0.929920  0.492498  0.325854  1
  Bi  Bi29  1  0.570080  0.007502  0.825854  1
  Bi  Bi30  1  0.929920  0.007502  0.325854  1
  Bi  Bi31  1  0.070080  0.992498  0.674146  1
