# generated using pymatgen
data_Ca2Hg2Pd5
_symmetry_space_group_name_H-M   'P 1'
_cell_length_a   5.41043902
_cell_length_b   5.41043918
_cell_length_c   13.84880100
_cell_angle_alpha   90.00000000
_cell_angle_beta   90.00000000
_cell_angle_gamma   119.38473646
_symmetry_Int_Tables_number   1
_chemical_formula_structural   Ca2Hg2Pd5
_chemical_formula_sum   'Ca4 Hg4 Pd10'
_cell_volume   353.23776045
_cell_formula_units_Z   2
loop_
 _symmetry_equiv_pos_site_id
 _symmetry_equiv_pos_as_xyz
  1  'x, y, z'
loop_
 _atom_site_type_symbol
 _atom_site_label
 _atom_site_symmetry_multiplicity
 _atom_site_fract_x
 _atom_site_fract_y
 _atom_site_fract_z
 _atom_site_occupancy
  Ca  Ca0  1  0.314020  0.320116  0.124232  1
  Ca  Ca1  1  0.685980  0.679884  0.624232  1
  Ca  Ca2  1  0.320116  0.314020  0.375768  1
  Ca  Ca3  1  0.679884  0.685980  0.875768  1
  Hg  Hg4  1  0.970228  0.642879  0.077090  1
  Hg  Hg5  1  0.029772  0.357121  0.577090  1
  Hg  Hg6  1  0.642879  0.970228  0.422910  1
  Hg  Hg7  1  0.357121  0.029772  0.922910  1
  Pd  Pd8  1  0.824888  0.824888  0.250000  1
  Pd  Pd9  1  0.175112  0.175112  0.750000  1
  Pd  Pd10  1  0.821980  0.324643  0.253103  1
  Pd  Pd11  1  0.178020  0.675357  0.753103  1
  Pd  Pd12  1  0.324643  0.821980  0.246897  1
  Pd  Pd13  1  0.675357  0.178020  0.746897  1
  Pd  Pd14  1  0.002992  0.329763  0.919961  1
  Pd  Pd15  1  0.997008  0.670237  0.419961  1
  Pd  Pd16  1  0.329763  0.002992  0.580039  1
  Pd  Pd17  1  0.670237  0.997008  0.080039  1
