# generated using pymatgen
data_YLu3(WO6)2
_symmetry_space_group_name_H-M   'P 1'
_cell_length_a   5.33464900
_cell_length_b   7.61430816
_cell_length_c   11.35092588
_cell_angle_alpha   75.23866960
_cell_angle_beta   90.00000000
_cell_angle_gamma   90.00000000
_symmetry_Int_Tables_number   1
_chemical_formula_structural   YLu3(WO6)2
_chemical_formula_sum   'Y2 Lu6 W4 O24'
_cell_volume   445.85338916
_cell_formula_units_Z   2
loop_
 _symmetry_equiv_pos_site_id
 _symmetry_equiv_pos_as_xyz
  1  'x, y, z'
loop_
 _atom_site_type_symbol
 _atom_site_label
 _atom_site_symmetry_multiplicity
 _atom_site_fract_x
 _atom_site_fract_y
 _atom_site_fract_z
 _atom_site_occupancy
  Y  Y0  1  0.315227  0.500000  0.750000  1
  Y  Y1  1  0.684773  0.500000  0.250000  1
  Lu  Lu2  1  0.185213  0.796530  0.078313  1
  Lu  Lu3  1  0.259387  0.000000  0.750000  1
  Lu  Lu4  1  0.740613  0.000000  0.250000  1
  Lu  Lu5  1  0.185213  0.203470  0.421687  1
  Lu  Lu6  1  0.814787  0.203470  0.921687  1
  Lu  Lu7  1  0.814787  0.796530  0.578313  1
  W  W8  1  0.745198  0.725434  0.885386  1
  W  W9  1  0.254802  0.725434  0.385386  1
  W  W10  1  0.745198  0.274566  0.614614  1
  W  W11  1  0.254802  0.274566  0.114614  1
  O  O12  1  0.855317  0.362986  0.450692  1
  O  O13  1  0.461474  0.848487  0.930896  1
  O  O14  1  0.855317  0.637014  0.049308  1
  O  O15  1  0.019040  0.285612  0.730537  1
  O  O16  1  0.980960  0.285612  0.230537  1
  O  O17  1  0.144683  0.362986  0.950692  1
  O  O18  1  0.642817  0.487714  0.887186  1
  O  O19  1  0.538526  0.151513  0.069104  1
  O  O20  1  0.144683  0.637014  0.549308  1
  O  O21  1  0.019040  0.714388  0.769463  1
  O  O22  1  0.459070  0.204919  0.274866  1
  O  O23  1  0.039981  0.943406  0.395132  1
  O  O24  1  0.461474  0.151513  0.569104  1
  O  O25  1  0.980960  0.714388  0.269463  1
  O  O26  1  0.960019  0.056594  0.604868  1
  O  O27  1  0.540930  0.204919  0.774866  1
  O  O28  1  0.540930  0.795081  0.725134  1
  O  O29  1  0.039981  0.056594  0.104868  1
  O  O30  1  0.642817  0.512286  0.612814  1
  O  O31  1  0.357183  0.512286  0.112814  1
  O  O32  1  0.459070  0.795081  0.225134  1
  O  O33  1  0.357183  0.487714  0.387186  1
  O  O34  1  0.538526  0.848487  0.430896  1
  O  O35  1  0.960019  0.943406  0.895132  1
