# generated using pymatgen
data_TmLu3Al24Ir(PdPt)4
_symmetry_space_group_name_H-M   'P 1'
_cell_length_a   7.49906753
_cell_length_b   7.52505464
_cell_length_c   13.11703700
_cell_angle_alpha   84.67841084
_cell_angle_beta   79.14694150
_cell_angle_gamma   59.89852953
_symmetry_Int_Tables_number   1
_chemical_formula_structural   TmLu3Al24Ir(PdPt)4
_chemical_formula_sum   'Tm1 Lu3 Al24 Ir1 Pd4 Pt4'
_cell_volume   628.92530213
_cell_formula_units_Z   1
loop_
 _symmetry_equiv_pos_site_id
 _symmetry_equiv_pos_as_xyz
  1  'x, y, z'
loop_
 _atom_site_type_symbol
 _atom_site_label
 _atom_site_symmetry_multiplicity
 _atom_site_fract_x
 _atom_site_fract_y
 _atom_site_fract_z
 _atom_site_occupancy
  Tm  Tm0  1  0.393862  0.168587  0.808662  1
  Lu  Lu1  1  0.606185  0.831146  0.191726  1
  Lu  Lu2  1  0.733957  0.498559  0.808282  1
  Lu  Lu3  1  0.265960  0.501496  0.191708  1
  Al  Al4  1  0.686011  0.831079  0.944783  1
  Al  Al5  1  0.314206  0.168627  0.055597  1
  Al  Al6  1  0.146458  0.832458  0.562104  1
  Al  Al7  1  0.853551  0.167552  0.437859  1
  Al  Al8  1  0.480648  0.165983  0.559273  1
  Al  Al9  1  0.519332  0.834021  0.440671  1
  Al  Al10  1  0.217782  0.165527  0.326536  1
  Al  Al11  1  0.782473  0.834274  0.673240  1
  Al  Al12  1  0.435802  0.507011  0.673079  1
  Al  Al13  1  0.564289  0.493120  0.326712  1
  Al  Al14  1  0.108842  0.160464  0.671193  1
  Al  Al15  1  0.891063  0.839547  0.328591  1
  Al  Al16  1  0.351181  0.498910  0.944986  1
  Al  Al17  1  0.648708  0.501451  0.055222  1
  Al  Al18  1  0.015528  0.171756  0.953140  1
  Al  Al19  1  0.984110  0.828336  0.047105  1
  Al  Al20  1  0.186886  0.499523  0.441089  1
  Al  Al21  1  0.813086  0.500529  0.558868  1
  Al  Al22  1  0.733011  0.163784  0.182674  1
  Al  Al23  1  0.266959  0.835897  0.817272  1
  Al  Al24  1  0.060814  0.628761  0.817223  1
  Al  Al25  1  0.938898  0.371522  0.182775  1
  Al  Al26  1  0.854727  0.043058  0.816833  1
  Al  Al27  1  0.145584  0.956910  0.183122  1
  Ir  Ir28  1  0.999975  0.500073  0.000081  1
  Pd  Pd29  1  0.119434  0.491547  0.639385  1
  Pd  Pd30  1  0.880442  0.508665  0.360447  1
  Pd  Pd31  1  0.657364  0.171348  0.999778  1
  Pd  Pd32  1  0.342654  0.828676  0.000260  1
  Pt  Pt33  1  0.536921  0.166836  0.361244  1
  Pt  Pt34  1  0.463091  0.832999  0.638629  1
  Pt  Pt35  1  0.778227  0.175523  0.637202  1
  Pt  Pt36  1  0.221981  0.824450  0.362650  1
