# generated using pymatgen
data_Pr3Tc(P3Rh4)2
_symmetry_space_group_name_H-M   'P 1'
_cell_length_a   4.03011100
_cell_length_b   11.39831600
_cell_length_c   12.82556200
_cell_angle_alpha   90.00000000
_cell_angle_beta   90.00000000
_cell_angle_gamma   90.00000000
_symmetry_Int_Tables_number   1
_chemical_formula_structural   Pr3Tc(P3Rh4)2
_chemical_formula_sum   'Pr6 Tc2 P12 Rh16'
_cell_volume   589.16115554
_cell_formula_units_Z   2
loop_
 _symmetry_equiv_pos_site_id
 _symmetry_equiv_pos_as_xyz
  1  'x, y, z'
loop_
 _atom_site_type_symbol
 _atom_site_label
 _atom_site_symmetry_multiplicity
 _atom_site_fract_x
 _atom_site_fract_y
 _atom_site_fract_z
 _atom_site_occupancy
  Pr  Pr0  1  0.000000  0.500000  0.518545  1
  Pr  Pr1  1  0.500000  0.000000  0.481455  1
  Pr  Pr2  1  0.500000  0.820945  0.204106  1
  Pr  Pr3  1  0.500000  0.179055  0.204106  1
  Pr  Pr4  1  0.000000  0.679055  0.795894  1
  Pr  Pr5  1  0.000000  0.320945  0.795894  1
  Tc  Tc6  1  0.000000  0.500000  0.993270  1
  Tc  Tc7  1  0.500000  0.000000  0.006730  1
  P  P8  1  0.500000  0.500000  0.886389  1
  P  P9  1  0.000000  0.000000  0.113611  1
  P  P10  1  0.500000  0.500000  0.344104  1
  P  P11  1  0.000000  0.000000  0.655896  1
  P  P12  1  0.500000  0.310427  0.617791  1
  P  P13  1  0.500000  0.689573  0.617791  1
  P  P14  1  0.000000  0.189573  0.382209  1
  P  P15  1  0.000000  0.810427  0.382209  1
  P  P16  1  0.500000  0.843749  0.895591  1
  P  P17  1  0.500000  0.156251  0.895591  1
  P  P18  1  0.000000  0.656251  0.104409  1
  P  P19  1  0.000000  0.343749  0.104409  1
  Rh  Rh20  1  0.500000  0.500000  0.162095  1
  Rh  Rh21  1  0.000000  0.000000  0.837905  1
  Rh  Rh22  1  0.500000  0.500000  0.700037  1
  Rh  Rh23  1  0.000000  0.000000  0.299963  1
  Rh  Rh24  1  0.500000  0.332214  0.995676  1
  Rh  Rh25  1  0.500000  0.667786  0.995676  1
  Rh  Rh26  1  0.000000  0.167786  0.004324  1
  Rh  Rh27  1  0.000000  0.832214  0.004324  1
  Rh  Rh28  1  0.500000  0.294039  0.429833  1
  Rh  Rh29  1  0.500000  0.705961  0.429833  1
  Rh  Rh30  1  0.000000  0.205961  0.570167  1
  Rh  Rh31  1  0.000000  0.794039  0.570167  1
  Rh  Rh32  1  0.500000  0.873888  0.713062  1
  Rh  Rh33  1  0.500000  0.126112  0.713062  1
  Rh  Rh34  1  0.000000  0.626112  0.286938  1
  Rh  Rh35  1  0.000000  0.373888  0.286938  1
