# generated using pymatgen
data_YbDy2ErNi8
_symmetry_space_group_name_H-M   'P 1'
_cell_length_a   5.01420500
_cell_length_b   5.02225711
_cell_length_c   8.70242724
_cell_angle_alpha   73.31290798
_cell_angle_beta   90.00000000
_cell_angle_gamma   119.94698450
_symmetry_Int_Tables_number   1
_chemical_formula_structural   YbDy2ErNi8
_chemical_formula_sum   'Yb1 Dy2 Er1 Ni8'
_cell_volume   179.16080986
_cell_formula_units_Z   1
loop_
 _symmetry_equiv_pos_site_id
 _symmetry_equiv_pos_as_xyz
  1  'x, y, z'
loop_
 _atom_site_type_symbol
 _atom_site_label
 _atom_site_symmetry_multiplicity
 _atom_site_fract_x
 _atom_site_fract_y
 _atom_site_fract_z
 _atom_site_occupancy
  Yb  Yb0  1  0.873669  0.747337  0.378523  1
  Dy  Dy1  1  0.997650  0.995300  0.007123  1
  Dy  Dy2  1  0.502180  0.004360  0.493558  1
  Er  Er3  1  0.375934  0.751870  0.871684  1
  Ni  Ni4  1  0.436657  0.377000  0.186680  1
  Ni  Ni5  1  0.937562  0.373902  0.688558  1
  Ni  Ni6  1  0.436592  0.873185  0.186475  1
  Ni  Ni7  1  0.937547  0.875095  0.688596  1
  Ni  Ni8  1  0.187870  0.375742  0.436412  1
  Ni  Ni9  1  0.687655  0.375309  0.937152  1
  Ni  Ni10  1  0.940342  0.377000  0.186680  1
  Ni  Ni11  1  0.436339  0.373902  0.688558  1
