# generated using pymatgen
data_Ho3Nb3(B2Ru5)2
_symmetry_space_group_name_H-M   'P 1'
_cell_length_a   9.59325503
_cell_length_b   9.59325584
_cell_length_c   3.12481900
_cell_angle_alpha   90.00000000
_cell_angle_beta   90.00000000
_cell_angle_gamma   89.75349057
_symmetry_Int_Tables_number   1
_chemical_formula_structural   Ho3Nb3(B2Ru5)2
_chemical_formula_sum   'Ho3 Nb3 B4 Ru10'
_cell_volume   287.57614908
_cell_formula_units_Z   1
loop_
 _symmetry_equiv_pos_site_id
 _symmetry_equiv_pos_as_xyz
  1  'x, y, z'
loop_
 _atom_site_type_symbol
 _atom_site_label
 _atom_site_symmetry_multiplicity
 _atom_site_fract_x
 _atom_site_fract_y
 _atom_site_fract_z
 _atom_site_occupancy
  Ho  Ho0  1  0.174272  0.825728  0.000000  1
  Ho  Ho1  1  0.325235  0.324061  0.000000  1
  Ho  Ho2  1  0.675939  0.674765  0.000000  1
  Nb  Nb3  1  0.496678  0.997769  0.000000  1
  Nb  Nb4  1  0.002231  0.503322  0.000000  1
  Nb  Nb5  1  0.824250  0.175750  0.000000  1
  B  B6  1  0.624206  0.375794  0.000000  1
  B  B7  1  0.381105  0.618895  0.000000  1
  B  B8  1  0.118680  0.123789  0.000000  1
  B  B9  1  0.876211  0.881320  0.000000  1
  Ru  Ru10  1  0.504283  0.495717  0.500000  1
  Ru  Ru11  1  0.990639  0.009361  0.500000  1
  Ru  Ru12  1  0.583925  0.213348  0.500000  1
  Ru  Ru13  1  0.430486  0.780015  0.500000  1
  Ru  Ru14  1  0.059636  0.280647  0.500000  1
  Ru  Ru15  1  0.928684  0.722448  0.500000  1
  Ru  Ru16  1  0.277552  0.071316  0.500000  1
  Ru  Ru17  1  0.719353  0.940364  0.500000  1
  Ru  Ru18  1  0.219985  0.569514  0.500000  1
  Ru  Ru19  1  0.786652  0.416075  0.500000  1
