# generated using pymatgen
data_Lu11(In3Si2)2
_symmetry_space_group_name_H-M   'P 1'
_cell_length_a   11.18447177
_cell_length_b   11.18447227
_cell_length_c   11.18447200
_cell_angle_alpha   119.84409962
_cell_angle_beta   119.84410107
_cell_angle_gamma   90.27023757
_symmetry_Int_Tables_number   1
_chemical_formula_structural   Lu11(In3Si2)2
_chemical_formula_sum   'Lu22 In12 Si8'
_cell_volume   991.62716172
_cell_formula_units_Z   2
loop_
 _symmetry_equiv_pos_site_id
 _symmetry_equiv_pos_as_xyz
  1  'x, y, z'
loop_
 _atom_site_type_symbol
 _atom_site_label
 _atom_site_symmetry_multiplicity
 _atom_site_fract_x
 _atom_site_fract_y
 _atom_site_fract_z
 _atom_site_occupancy
  Lu  Lu0  1  0.684618  0.935592  0.250974  1
  Lu  Lu1  1  0.684618  0.433645  0.749026  1
  Lu  Lu2  1  0.935592  0.684618  0.250974  1
  Lu  Lu3  1  0.433645  0.684618  0.749026  1
  Lu  Lu4  1  0.315382  0.064408  0.749026  1
  Lu  Lu5  1  0.315382  0.566355  0.250974  1
  Lu  Lu6  1  0.064408  0.315382  0.749026  1
  Lu  Lu7  1  0.566355  0.315382  0.250974  1
  Lu  Lu8  1  0.898025  0.246122  0.348097  1
  Lu  Lu9  1  0.898025  0.549926  0.651903  1
  Lu  Lu10  1  0.246122  0.898025  0.348097  1
  Lu  Lu11  1  0.549926  0.898025  0.651903  1
  Lu  Lu12  1  0.101975  0.753878  0.651903  1
  Lu  Lu13  1  0.101975  0.450074  0.348097  1
  Lu  Lu14  1  0.753878  0.101975  0.651903  1
  Lu  Lu15  1  0.450074  0.101975  0.348097  1
  Lu  Lu16  1  0.334828  0.334828  0.669655  1
  Lu  Lu17  1  0.665172  0.665172  0.330345  1
  Lu  Lu18  1  0.334828  0.665172  0.000000  1
  Lu  Lu19  1  0.665172  0.334828  0.000000  1
  Lu  Lu20  1  0.826100  0.826100  0.000000  1
  Lu  Lu21  1  0.173900  0.173900  0.000000  1
  In  In22  1  0.035906  0.035906  0.412563  1
  In  In23  1  0.623344  0.623344  0.587437  1
  In  In24  1  0.035906  0.623344  0.000000  1
  In  In25  1  0.623344  0.035906  0.000000  1
  In  In26  1  0.964094  0.964094  0.587437  1
  In  In27  1  0.376656  0.376656  0.412563  1
  In  In28  1  0.964094  0.376656  0.000000  1
  In  In29  1  0.376656  0.964094  0.000000  1
  In  In30  1  0.129699  0.129699  0.259399  1
  In  In31  1  0.870301  0.870301  0.740601  1
  In  In32  1  0.129699  0.870301  0.000000  1
  In  In33  1  0.870301  0.129699  0.000000  1
  Si  Si34  1  0.152021  0.500000  0.652021  1
  Si  Si35  1  0.847979  0.500000  0.347979  1
  Si  Si36  1  0.500000  0.847979  0.347979  1
  Si  Si37  1  0.500000  0.152021  0.652021  1
  Si  Si38  1  0.620092  0.620092  0.000000  1
  Si  Si39  1  0.379908  0.379908  0.000000  1
  Si  Si40  1  0.750000  0.250000  0.500000  1
  Si  Si41  1  0.250000  0.750000  0.500000  1
