# generated using pymatgen
data_Li4InAsPd10
_symmetry_space_group_name_H-M   'P 1'
_cell_length_a   4.04602800
_cell_length_b   5.45934905
_cell_length_c   10.70926100
_cell_angle_alpha   90.79236504
_cell_angle_beta   90.00000000
_cell_angle_gamma   90.00000000
_symmetry_Int_Tables_number   1
_chemical_formula_structural   Li4InAsPd10
_chemical_formula_sum   'Li4 In1 As1 Pd10'
_cell_volume   236.53080941
_cell_formula_units_Z   1
loop_
 _symmetry_equiv_pos_site_id
 _symmetry_equiv_pos_as_xyz
  1  'x, y, z'
loop_
 _atom_site_type_symbol
 _atom_site_label
 _atom_site_symmetry_multiplicity
 _atom_site_fract_x
 _atom_site_fract_y
 _atom_site_fract_z
 _atom_site_occupancy
  Li  Li0  1  0.500000  0.168955  0.134828  1
  Li  Li1  1  0.500000  0.831045  0.865172  1
  Li  Li2  1  0.500000  0.315100  0.640949  1
  Li  Li3  1  0.500000  0.684900  0.359051  1
  In  In4  1  0.000000  0.000000  0.500000  1
  As  As5  1  0.000000  0.500000  0.000000  1
  Pd  Pd6  1  0.500000  0.209736  0.375370  1
  Pd  Pd7  1  0.500000  0.790264  0.624630  1
  Pd  Pd8  1  0.500000  0.312741  0.895099  1
  Pd  Pd9  1  0.500000  0.687259  0.104901  1
  Pd  Pd10  1  0.000000  0.418423  0.231950  1
  Pd  Pd11  1  0.000000  0.581577  0.768050  1
  Pd  Pd12  1  0.000000  0.081482  0.747774  1
  Pd  Pd13  1  0.000000  0.918518  0.252226  1
  Pd  Pd14  1  0.000000  0.000000  0.000000  1
  Pd  Pd15  1  0.000000  0.500000  0.500000  1
