# generated using pymatgen
data_Dy4Y3Ho9(InRh)4
_symmetry_space_group_name_H-M   'P 1'
_cell_length_a   9.64266437
_cell_length_b   9.64266376
_cell_length_c   9.64682503
_cell_angle_alpha   60.01253033
_cell_angle_beta   60.01252943
_cell_angle_gamma   60.00332918
_symmetry_Int_Tables_number   1
_chemical_formula_structural   Dy4Y3Ho9(InRh)4
_chemical_formula_sum   'Dy4 Y3 Ho9 In4 Rh4'
_cell_volume   634.39044327
_cell_formula_units_Z   1
loop_
 _symmetry_equiv_pos_site_id
 _symmetry_equiv_pos_as_xyz
  1  'x, y, z'
loop_
 _atom_site_type_symbol
 _atom_site_label
 _atom_site_symmetry_multiplicity
 _atom_site_fract_x
 _atom_site_fract_y
 _atom_site_fract_z
 _atom_site_occupancy
  Dy  Dy0  1  0.147742  0.551185  0.148547  1
  Dy  Dy1  1  0.311073  0.689666  0.688521  1
  Dy  Dy2  1  0.689666  0.311073  0.688521  1
  Dy  Dy3  1  0.551185  0.147742  0.148547  1
  Y  Y4  1  0.560591  0.560591  0.937902  1
  Y  Y5  1  0.561708  0.937732  0.937045  1
  Y  Y6  1  0.937732  0.561708  0.937045  1
  Ho  Ho7  1  0.690061  0.310462  0.311271  1
  Ho  Ho8  1  0.689076  0.689076  0.311453  1
  Ho  Ho9  1  0.310462  0.690061  0.311271  1
  Ho  Ho10  1  0.937721  0.937721  0.561000  1
  Ho  Ho11  1  0.148129  0.148129  0.551429  1
  Ho  Ho12  1  0.560949  0.938095  0.560385  1
  Ho  Ho13  1  0.151927  0.151927  0.152018  1
  Ho  Ho14  1  0.310659  0.310659  0.689793  1
  Ho  Ho15  1  0.938095  0.560949  0.560385  1
  In  In16  1  0.917626  0.917626  0.249389  1
  In  In17  1  0.248987  0.918164  0.917725  1
  In  In18  1  0.918164  0.248987  0.917725  1
  In  In19  1  0.916955  0.916955  0.916721  1
  Rh  Rh20  1  0.357071  0.357071  0.357938  1
  Rh  Rh21  1  0.927311  0.358229  0.359324  1
  Rh  Rh22  1  0.358880  0.358880  0.926722  1
  Rh  Rh23  1  0.358229  0.927311  0.359324  1
