# generated using pymatgen
data_Tb7Lu3(Bi2Sb)2
_symmetry_space_group_name_H-M   'P 1'
_cell_length_a   8.19803900
_cell_length_b   9.39089401
_cell_length_c   12.02348801
_cell_angle_alpha   90.00546846
_cell_angle_beta   90.00000000
_cell_angle_gamma   90.00000000
_symmetry_Int_Tables_number   1
_chemical_formula_structural   Tb7Lu3(Bi2Sb)2
_chemical_formula_sum   'Tb14 Lu6 Bi8 Sb4'
_cell_volume   925.65124964
_cell_formula_units_Z   2
loop_
 _symmetry_equiv_pos_site_id
 _symmetry_equiv_pos_as_xyz
  1  'x, y, z'
loop_
 _atom_site_type_symbol
 _atom_site_label
 _atom_site_symmetry_multiplicity
 _atom_site_fract_x
 _atom_site_fract_y
 _atom_site_fract_z
 _atom_site_occupancy
  Tb  Tb0  1  0.188078  0.563312  0.442470  1
  Tb  Tb1  1  0.688078  0.936688  0.057530  1
  Tb  Tb2  1  0.027842  0.749541  0.988191  1
  Tb  Tb3  1  0.527842  0.750459  0.511809  1
  Tb  Tb4  1  0.973222  0.250417  0.011333  1
  Tb  Tb5  1  0.473222  0.249583  0.488667  1
  Tb  Tb6  1  0.182852  0.750433  0.717112  1
  Tb  Tb7  1  0.682852  0.749567  0.782888  1
  Tb  Tb8  1  0.817462  0.249982  0.283307  1
  Tb  Tb9  1  0.317462  0.250018  0.216693  1
  Tb  Tb10  1  0.853874  0.750011  0.285691  1
  Tb  Tb11  1  0.353874  0.749989  0.214309  1
  Tb  Tb12  1  0.146640  0.250275  0.714148  1
  Tb  Tb13  1  0.646640  0.249725  0.785852  1
  Lu  Lu14  1  0.812170  0.065537  0.557587  1
  Lu  Lu15  1  0.312170  0.434463  0.942413  1
  Lu  Lu16  1  0.812664  0.434102  0.557516  1
  Lu  Lu17  1  0.312664  0.065898  0.942484  1
  Lu  Lu18  1  0.187469  0.934717  0.442291  1
  Lu  Lu19  1  0.687469  0.565283  0.057709  1
  Bi  Bi20  1  0.933758  0.495758  0.825219  1
  Bi  Bi21  1  0.433758  0.004242  0.674781  1
  Bi  Bi22  1  0.066387  0.996114  0.174888  1
  Bi  Bi23  1  0.566387  0.503886  0.325112  1
  Bi  Bi24  1  0.065858  0.503831  0.174710  1
  Bi  Bi25  1  0.565858  0.996169  0.325290  1
  Bi  Bi26  1  0.933585  0.004010  0.824879  1
  Bi  Bi27  1  0.433585  0.495990  0.675121  1
  Sb  Sb28  1  0.904963  0.751048  0.542483  1
  Sb  Sb29  1  0.404963  0.748952  0.957517  1
  Sb  Sb30  1  0.093175  0.246624  0.458776  1
  Sb  Sb31  1  0.593175  0.253376  0.041224  1
