# generated using pymatgen
data_LiNd3(CoH5)4
_symmetry_space_group_name_H-M   'P 1'
_cell_length_a   4.39951476
_cell_length_b   6.13857264
_cell_length_c   8.05546400
_cell_angle_alpha   90.71978019
_cell_angle_beta   90.08431225
_cell_angle_gamma   89.96225933
_symmetry_Int_Tables_number   1
_chemical_formula_structural   LiNd3(CoH5)4
_chemical_formula_sum   'Li1 Nd3 Co4 H20'
_cell_volume   217.53438285
_cell_formula_units_Z   1
loop_
 _symmetry_equiv_pos_site_id
 _symmetry_equiv_pos_as_xyz
  1  'x, y, z'
loop_
 _atom_site_type_symbol
 _atom_site_label
 _atom_site_symmetry_multiplicity
 _atom_site_fract_x
 _atom_site_fract_y
 _atom_site_fract_z
 _atom_site_occupancy
  Li  Li0  1  0.208606  0.169715  0.720836  1
  Nd  Nd1  1  0.236294  0.369060  0.183005  1
  Nd  Nd2  1  0.734290  0.640494  0.812643  1
  Nd  Nd3  1  0.743495  0.875212  0.325294  1
  Co  Co4  1  0.237524  0.652755  0.545853  1
  Co  Co5  1  0.726459  0.371005  0.451935  1
  Co  Co6  1  0.731945  0.135765  0.946585  1
  Co  Co7  1  0.237713  0.842743  0.049412  1
  H  H8  1  0.894066  0.576069  0.528872  1
  H  H9  1  0.403859  0.422222  0.529182  1
  H  H10  1  0.461755  0.962815  0.919935  1
  H  H11  1  0.003302  0.962925  0.925803  1
  H  H12  1  0.972480  0.693555  0.107118  1
  H  H13  1  0.486305  0.313088  0.911237  1
  H  H14  1  0.494195  0.192127  0.405841  1
  H  H15  1  0.043469  0.850880  0.598518  1
  H  H16  1  0.505600  0.694127  0.106469  1
  H  H17  1  0.975513  0.315723  0.915979  1
  H  H18  1  0.990832  0.209975  0.418744  1
  H  H19  1  0.486537  0.817469  0.589872  1
  H  H20  1  0.233769  0.665073  0.917334  1
  H  H21  1  0.734217  0.184709  0.137814  1
  H  H22  1  0.744362  0.261889  0.616553  1
  H  H23  1  0.246692  0.713756  0.361310  1
  H  H24  1  0.240400  0.990506  0.213920  1
  H  H25  1  0.732081  0.077027  0.763124  1
  H  H26  1  0.730203  0.488812  0.276131  1
  H  H27  1  0.232040  0.550504  0.720683  1
