# generated using pymatgen
data_La4Nd9Th3(CdIr)4
_symmetry_space_group_name_H-M   'P 1'
_cell_length_a   9.99549968
_cell_length_b   10.00643674
_cell_length_c   10.03887474
_cell_angle_alpha   60.10975910
_cell_angle_beta   60.18792435
_cell_angle_gamma   60.31155863
_symmetry_Int_Tables_number   1
_chemical_formula_structural   La4Nd9Th3(CdIr)4
_chemical_formula_sum   'La4 Nd9 Th3 Cd4 Ir4'
_cell_volume   713.25326190
_cell_formula_units_Z   1
loop_
 _symmetry_equiv_pos_site_id
 _symmetry_equiv_pos_as_xyz
  1  'x, y, z'
loop_
 _atom_site_type_symbol
 _atom_site_label
 _atom_site_symmetry_multiplicity
 _atom_site_fract_x
 _atom_site_fract_y
 _atom_site_fract_z
 _atom_site_occupancy
  La  La0  1  0.954193  0.349221  0.348948  1
  La  La1  1  0.809292  0.191214  0.190286  1
  La  La2  1  0.190102  0.810039  0.808985  1
  La  La3  1  0.190892  0.809385  0.190868  1
  Nd  Nd4  1  0.807989  0.191360  0.808567  1
  Nd  Nd5  1  0.191718  0.193211  0.807159  1
  Nd  Nd6  1  0.806495  0.808331  0.191658  1
  Nd  Nd7  1  0.938861  0.562705  0.564323  1
  Nd  Nd8  1  0.561865  0.938334  0.936881  1
  Nd  Nd9  1  0.562217  0.939430  0.562636  1
  Nd  Nd10  1  0.938692  0.561764  0.935406  1
  Nd  Nd11  1  0.562709  0.561724  0.939244  1
  Nd  Nd12  1  0.938426  0.936173  0.562576  1
  Th  Th13  1  0.344241  0.345598  0.347006  1
  Th  Th14  1  0.346302  0.345561  0.960753  1
  Th  Th15  1  0.347228  0.960814  0.345957  1
  Cd  Cd16  1  0.578854  0.580413  0.580389  1
  Cd  Cd17  1  0.578546  0.581529  0.259498  1
  Cd  Cd18  1  0.577813  0.259284  0.582134  1
  Cd  Cd19  1  0.258086  0.579939  0.581067  1
  Ir  Ir20  1  0.149404  0.140596  0.142609  1
  Ir  Ir21  1  0.150658  0.139842  0.567040  1
  Ir  Ir22  1  0.151322  0.567691  0.140284  1
  Ir  Ir23  1  0.564092  0.145842  0.145724  1
