# generated using pymatgen
data_Er2Al9IrPd2
_symmetry_space_group_name_H-M   'P 1'
_cell_length_a   7.60327005
_cell_length_b   7.60326961
_cell_length_c   9.41372400
_cell_angle_alpha   90.00000000
_cell_angle_beta   90.00000000
_cell_angle_gamma   119.70065328
_symmetry_Int_Tables_number   1
_chemical_formula_structural   Er2Al9IrPd2
_chemical_formula_sum   'Er4 Al18 Ir2 Pd4'
_cell_volume   472.71025580
_cell_formula_units_Z   2
loop_
 _symmetry_equiv_pos_site_id
 _symmetry_equiv_pos_as_xyz
  1  'x, y, z'
loop_
 _atom_site_type_symbol
 _atom_site_label
 _atom_site_symmetry_multiplicity
 _atom_site_fract_x
 _atom_site_fract_y
 _atom_site_fract_z
 _atom_site_occupancy
  Er  Er0  1  0.994379  0.669077  0.250000  1
  Er  Er1  1  0.005621  0.330923  0.750000  1
  Er  Er2  1  0.669077  0.994379  0.250000  1
  Er  Er3  1  0.330923  0.005621  0.750000  1
  Al  Al4  1  0.127716  0.127716  0.250000  1
  Al  Al5  1  0.872284  0.872284  0.750000  1
  Al  Al6  1  0.999584  0.331264  0.076703  1
  Al  Al7  1  0.000416  0.668736  0.923297  1
  Al  Al8  1  0.000416  0.668736  0.576703  1
  Al  Al9  1  0.331264  0.999584  0.423297  1
  Al  Al10  1  0.999584  0.331264  0.423297  1
  Al  Al11  1  0.668736  0.000416  0.576703  1
  Al  Al12  1  0.668736  0.000416  0.923297  1
  Al  Al13  1  0.331264  0.999584  0.076703  1
  Al  Al14  1  0.330416  0.330416  0.557879  1
  Al  Al15  1  0.669584  0.669584  0.442121  1
  Al  Al16  1  0.669584  0.669584  0.057879  1
  Al  Al17  1  0.330416  0.330416  0.942121  1
  Al  Al18  1  0.340471  0.548621  0.250000  1
  Al  Al19  1  0.659529  0.451379  0.750000  1
  Al  Al20  1  0.548621  0.340471  0.250000  1
  Al  Al21  1  0.451379  0.659529  0.750000  1
  Ir  Ir22  1  0.000000  0.000000  0.000000  1
  Ir  Ir23  1  0.000000  0.000000  0.500000  1
  Pd  Pd24  1  0.672112  0.327888  0.000000  1
  Pd  Pd25  1  0.327888  0.672112  0.000000  1
  Pd  Pd26  1  0.327888  0.672112  0.500000  1
  Pd  Pd27  1  0.672112  0.327888  0.500000  1
