# generated using pymatgen
data_Ta4(CoS4)3
_symmetry_space_group_name_H-M   'P 1'
_cell_length_a   6.89026203
_cell_length_b   6.89026197
_cell_length_c   18.56387464
_cell_angle_alpha   69.09234014
_cell_angle_beta   69.09234037
_cell_angle_gamma   27.72535209
_symmetry_Int_Tables_number   1
_chemical_formula_structural   Ta4(CoS4)3
_chemical_formula_sum   'Ta4 Co3 S12'
_cell_volume   381.32255730
_cell_formula_units_Z   1
loop_
 _symmetry_equiv_pos_site_id
 _symmetry_equiv_pos_as_xyz
  1  'x, y, z'
loop_
 _atom_site_type_symbol
 _atom_site_label
 _atom_site_symmetry_multiplicity
 _atom_site_fract_x
 _atom_site_fract_y
 _atom_site_fract_z
 _atom_site_occupancy
  Ta  Ta0  1  0.620081  0.620081  0.853673  1
  Ta  Ta1  1  0.379919  0.379919  0.146327  1
  Ta  Ta2  1  0.744776  0.744776  0.591062  1
  Ta  Ta3  1  0.255224  0.255224  0.408938  1
  Co  Co4  1  0.230562  0.230562  0.718646  1
  Co  Co5  1  0.769438  0.769438  0.281354  1
  Co  Co6  1  0.000000  0.000000  0.000000  1
  S  S7  1  0.971606  0.971606  0.890041  1
  S  S8  1  0.028394  0.028394  0.109959  1
  S  S9  1  0.630040  0.630040  0.395398  1
  S  S10  1  0.369960  0.369960  0.604602  1
  S  S11  1  0.135124  0.135124  0.551691  1
  S  S12  1  0.864876  0.864876  0.448309  1
  S  S13  1  0.804292  0.804292  0.765912  1
  S  S14  1  0.195708  0.195708  0.234088  1
  S  S15  1  0.175484  0.175484  0.931276  1
  S  S16  1  0.824516  0.824516  0.068724  1
  S  S17  1  0.610358  0.610358  0.721549  1
  S  S18  1  0.389642  0.389642  0.278451  1
