# generated using pymatgen
data_LuIn3B4Ir9Pb
_symmetry_space_group_name_H-M   'P 1'
_cell_length_a   5.63795700
_cell_length_b   5.63795589
_cell_length_c   10.45267700
_cell_angle_alpha   90.00000000
_cell_angle_beta   90.00000000
_cell_angle_gamma   120.00000062
_symmetry_Int_Tables_number   1
_chemical_formula_structural   LuIn3B4Ir9Pb
_chemical_formula_sum   'Lu1 In3 B4 Ir9 Pb1'
_cell_volume   287.74089673
_cell_formula_units_Z   1
loop_
 _symmetry_equiv_pos_site_id
 _symmetry_equiv_pos_as_xyz
  1  'x, y, z'
loop_
 _atom_site_type_symbol
 _atom_site_label
 _atom_site_symmetry_multiplicity
 _atom_site_fract_x
 _atom_site_fract_y
 _atom_site_fract_z
 _atom_site_occupancy
  Lu  Lu0  1  0.000000  0.000000  0.915212  1
  In  In1  1  0.666667  0.333333  0.507938  1
  In  In2  1  0.000000  0.000000  0.317882  1
  In  In3  1  0.333333  0.666667  0.507938  1
  B  B4  1  0.666667  0.333333  0.154879  1
  B  B5  1  0.333333  0.666667  0.866070  1
  B  B6  1  0.666667  0.333333  0.866070  1
  B  B7  1  0.333333  0.666667  0.154879  1
  Ir  Ir8  1  0.000000  0.504361  0.282120  1
  Ir  Ir9  1  0.466924  0.000000  0.737248  1
  Ir  Ir10  1  0.504361  0.000000  0.282120  1
  Ir  Ir11  1  0.000000  0.494805  0.011671  1
  Ir  Ir12  1  0.533076  0.533076  0.737248  1
  Ir  Ir13  1  0.000000  0.466924  0.737248  1
  Ir  Ir14  1  0.505195  0.505195  0.011671  1
  Ir  Ir15  1  0.494805  0.000000  0.011671  1
  Ir  Ir16  1  0.495639  0.495639  0.282120  1
  Pb  Pb17  1  0.000000  0.000000  0.616019  1
