# generated using pymatgen
data_Y6CdCo2Sn11
_symmetry_space_group_name_H-M   'P 1'
_cell_length_a   8.46490366
_cell_length_b   8.46490352
_cell_length_c   13.17399889
_cell_angle_alpha   89.92632467
_cell_angle_beta   90.07367606
_cell_angle_gamma   148.81031732
_symmetry_Int_Tables_number   1
_chemical_formula_structural   Y6CdCo2Sn11
_chemical_formula_sum   'Y6 Cd1 Co2 Sn11'
_cell_volume   488.86001356
_cell_formula_units_Z   1
loop_
 _symmetry_equiv_pos_site_id
 _symmetry_equiv_pos_as_xyz
  1  'x, y, z'
loop_
 _atom_site_type_symbol
 _atom_site_label
 _atom_site_symmetry_multiplicity
 _atom_site_fract_x
 _atom_site_fract_y
 _atom_site_fract_z
 _atom_site_occupancy
  Y  Y0  1  0.898499  0.101501  0.094555  1
  Y  Y1  1  0.098863  0.901137  0.591999  1
  Y  Y2  1  0.899809  0.100191  0.752119  1
  Y  Y3  1  0.102155  0.897845  0.904914  1
  Y  Y4  1  0.100205  0.899795  0.252518  1
  Y  Y5  1  0.902185  0.097815  0.402801  1
  Cd  Cd6  1  0.754764  0.245236  0.569963  1
  Co  Co7  1  0.301107  0.698893  0.248349  1
  Co  Co8  1  0.699351  0.300649  0.756665  1
  Sn  Sn9  1  0.423713  0.576287  0.574200  1
  Sn  Sn10  1  0.571757  0.428243  0.426130  1
  Sn  Sn11  1  0.735560  0.264440  0.254315  1
  Sn  Sn12  1  0.262968  0.737032  0.742059  1
  Sn  Sn13  1  0.242544  0.757456  0.072622  1
  Sn  Sn14  1  0.247491  0.752509  0.429764  1
  Sn  Sn15  1  0.573214  0.426786  0.075178  1
  Sn  Sn16  1  0.455153  0.544847  0.248746  1
  Sn  Sn17  1  0.545488  0.454512  0.748475  1
  Sn  Sn18  1  0.757258  0.242742  0.930175  1
  Sn  Sn19  1  0.427916  0.572084  0.924452  1
