# generated using pymatgen
data_Nd2ErSi2GeRh6
_symmetry_space_group_name_H-M   'P 1'
_cell_length_a   5.64963514
_cell_length_b   5.64915062
_cell_length_c   15.25587800
_cell_angle_alpha   89.99848526
_cell_angle_beta   89.99900706
_cell_angle_gamma   119.97749255
_symmetry_Int_Tables_number   1
_chemical_formula_structural   Nd2ErSi2GeRh6
_chemical_formula_sum   'Nd4 Er2 Si4 Ge2 Rh12'
_cell_volume   421.76432985
_cell_formula_units_Z   2
loop_
 _symmetry_equiv_pos_site_id
 _symmetry_equiv_pos_as_xyz
  1  'x, y, z'
loop_
 _atom_site_type_symbol
 _atom_site_label
 _atom_site_symmetry_multiplicity
 _atom_site_fract_x
 _atom_site_fract_y
 _atom_site_fract_z
 _atom_site_occupancy
  Nd  Nd0  1  0.333336  0.666667  0.537015  1
  Nd  Nd1  1  0.666664  0.333333  0.462985  1
  Nd  Nd2  1  0.333336  0.666665  0.750977  1
  Nd  Nd3  1  0.666664  0.333335  0.249023  1
  Er  Er4  1  0.666678  0.333327  0.033358  1
  Er  Er5  1  0.333322  0.666673  0.966642  1
  Si  Si6  1  0.000007  0.000002  0.246578  1
  Si  Si7  1  0.999993  0.999998  0.753422  1
  Si  Si8  1  0.333309  0.666674  0.248042  1
  Si  Si9  1  0.666691  0.333326  0.751958  1
  Ge  Ge10  1  0.000000  0.000000  0.000000  1
  Ge  Ge11  1  0.000000  0.000000  0.500000  1
  Rh  Rh12  1  0.167130  0.334269  0.131062  1
  Rh  Rh13  1  0.832870  0.665731  0.868938  1
  Rh  Rh14  1  0.665744  0.832868  0.131083  1
  Rh  Rh15  1  0.834144  0.668272  0.637098  1
  Rh  Rh16  1  0.334256  0.167132  0.868917  1
  Rh  Rh17  1  0.165856  0.331728  0.362902  1
  Rh  Rh18  1  0.167119  0.832860  0.131052  1
  Rh  Rh19  1  0.331748  0.165871  0.637097  1
  Rh  Rh20  1  0.832881  0.167140  0.868948  1
  Rh  Rh21  1  0.668252  0.834129  0.362903  1
  Rh  Rh22  1  0.834136  0.165869  0.637072  1
  Rh  Rh23  1  0.165864  0.834131  0.362928  1
