# generated using pymatgen
data_Tb5HoInCoOs
_symmetry_space_group_name_H-M   'P 1'
_cell_length_a   8.45813969
_cell_length_b   8.46966549
_cell_length_c   8.45813753
_cell_angle_alpha   112.89967273
_cell_angle_beta   109.99143713
_cell_angle_gamma   105.55154249
_symmetry_Int_Tables_number   1
_chemical_formula_structural   Tb5HoInCoOs
_chemical_formula_sum   'Tb10 Ho2 In2 Co2 Os2'
_cell_volume   464.82124258
_cell_formula_units_Z   2
loop_
 _symmetry_equiv_pos_site_id
 _symmetry_equiv_pos_as_xyz
  1  'x, y, z'
loop_
 _atom_site_type_symbol
 _atom_site_label
 _atom_site_symmetry_multiplicity
 _atom_site_fract_x
 _atom_site_fract_y
 _atom_site_fract_z
 _atom_site_occupancy
  Tb  Tb0  1  0.442281  0.241357  0.200181  1
  Tb  Tb1  1  0.557719  0.758643  0.799819  1
  Tb  Tb2  1  0.041176  0.241357  0.799077  1
  Tb  Tb3  1  0.958824  0.758643  0.200923  1
  Tb  Tb4  1  0.183117  0.283736  0.467555  1
  Tb  Tb5  1  0.816883  0.716264  0.532445  1
  Tb  Tb6  1  0.183819  0.716264  0.899381  1
  Tb  Tb7  1  0.816181  0.283736  0.100619  1
  Tb  Tb8  1  0.324963  0.641708  0.316746  1
  Tb  Tb9  1  0.675037  0.358292  0.683254  1
  Ho  Ho10  1  0.325149  0.007751  0.682602  1
  Ho  Ho11  1  0.674851  0.992249  0.317398  1
  In  In12  1  0.500000  0.500000  0.000000  1
  In  In13  1  0.000000  0.000000  0.000000  1
  Co  Co14  1  0.110679  0.611046  0.500367  1
  Co  Co15  1  0.889321  0.388954  0.499633  1
  Os  Os16  1  0.330978  0.000000  0.330978  1
  Os  Os17  1  0.669022  0.000000  0.669022  1
