# generated using pymatgen
data_Ca6TbCeSb6
_symmetry_space_group_name_H-M   'P 1'
_cell_length_a   8.19427359
_cell_length_b   8.21424529
_cell_length_c   8.25597937
_cell_angle_alpha   109.60283906
_cell_angle_beta   109.35578282
_cell_angle_gamma   109.10924242
_symmetry_Int_Tables_number   1
_chemical_formula_structural   Ca6TbCeSb6
_chemical_formula_sum   'Ca6 Tb1 Ce1 Sb6'
_cell_volume   429.59422410
_cell_formula_units_Z   1
loop_
 _symmetry_equiv_pos_site_id
 _symmetry_equiv_pos_as_xyz
  1  'x, y, z'
loop_
 _atom_site_type_symbol
 _atom_site_label
 _atom_site_symmetry_multiplicity
 _atom_site_fract_x
 _atom_site_fract_y
 _atom_site_fract_z
 _atom_site_occupancy
  Ca  Ca0  1  0.500041  0.002849  0.357525  1
  Ca  Ca1  1  0.505294  0.002315  0.859393  1
  Ca  Ca2  1  0.641243  0.642267  0.645951  1
  Ca  Ca3  1  0.997260  0.356508  0.496705  1
  Ca  Ca4  1  0.142976  0.142419  0.145047  1
  Ca  Ca5  1  0.856273  0.497019  0.995392  1
  Tb  Tb6  1  0.357160  0.500378  0.000481  1
  Ce  Ce7  1  0.999947  0.853472  0.500045  1
  Sb  Sb8  1  0.128309  0.747004  0.873551  1
  Sb  Sb9  1  0.882933  0.129205  0.754637  1
  Sb  Sb10  1  0.620891  0.379742  0.247463  1
  Sb  Sb11  1  0.373894  0.253060  0.630598  1
  Sb  Sb12  1  0.742876  0.868450  0.123554  1
  Sb  Sb13  1  0.250901  0.625311  0.369659  1
