# generated using pymatgen
data_Hf8Tc4Ir3Os
_symmetry_space_group_name_H-M   'P 1'
_cell_length_a   6.50816600
_cell_length_b   4.62669800
_cell_length_c   9.23889700
_cell_angle_alpha   90.00000000
_cell_angle_beta   90.00026849
_cell_angle_gamma   90.00000000
_symmetry_Int_Tables_number   1
_chemical_formula_structural   Hf8Tc4Ir3Os
_chemical_formula_sum   'Hf8 Tc4 Ir3 Os1'
_cell_volume   278.19537122
_cell_formula_units_Z   1
loop_
 _symmetry_equiv_pos_site_id
 _symmetry_equiv_pos_as_xyz
  1  'x, y, z'
loop_
 _atom_site_type_symbol
 _atom_site_label
 _atom_site_symmetry_multiplicity
 _atom_site_fract_x
 _atom_site_fract_y
 _atom_site_fract_z
 _atom_site_occupancy
  Hf  Hf0  1  0.999032  0.750001  0.123250  1
  Hf  Hf1  1  0.501119  0.750001  0.123254  1
  Hf  Hf2  1  0.999782  0.250001  0.374987  1
  Hf  Hf3  1  0.500313  0.250001  0.374991  1
  Hf  Hf4  1  0.500959  0.750001  0.626757  1
  Hf  Hf5  1  0.998884  0.750001  0.626764  1
  Hf  Hf6  1  0.502409  0.250001  0.874991  1
  Hf  Hf7  1  0.997438  0.250001  0.874997  1
  Tc  Tc8  1  0.750045  0.250001  0.126350  1
  Tc  Tc9  1  0.250044  0.750001  0.375005  1
  Tc  Tc10  1  0.749945  0.250001  0.623661  1
  Tc  Tc11  1  0.249946  0.750001  0.875006  1
  Ir  Ir12  1  0.250054  0.250001  0.125428  1
  Ir  Ir13  1  0.750050  0.750001  0.375017  1
  Ir  Ir14  1  0.249936  0.250001  0.624551  1
  Os  Os15  1  0.749945  0.750001  0.874989  1
