# generated using pymatgen
data_Pa3Ga3(Co2Ni)4
_symmetry_space_group_name_H-M   'P 1'
_cell_length_a   8.42218439
_cell_length_b   8.42218509
_cell_length_c   4.10007800
_cell_angle_alpha   90.00000000
_cell_angle_beta   90.00000000
_cell_angle_gamma   120.14113711
_symmetry_Int_Tables_number   1
_chemical_formula_structural   Pa3Ga3(Co2Ni)4
_chemical_formula_sum   'Pa3 Ga3 Co8 Ni4'
_cell_volume   251.50861695
_cell_formula_units_Z   1
loop_
 _symmetry_equiv_pos_site_id
 _symmetry_equiv_pos_as_xyz
  1  'x, y, z'
loop_
 _atom_site_type_symbol
 _atom_site_label
 _atom_site_symmetry_multiplicity
 _atom_site_fract_x
 _atom_site_fract_y
 _atom_site_fract_z
 _atom_site_occupancy
  Pa  Pa0  1  0.338241  0.661759  0.000000  1
  Pa  Pa1  1  0.661759  0.338241  0.000000  1
  Pa  Pa2  1  0.000000  0.000000  0.000000  1
  Ga  Ga3  1  0.500000  0.000000  0.500000  1
  Ga  Ga4  1  0.000000  0.500000  0.500000  1
  Ga  Ga5  1  0.500000  0.500000  0.500000  1
  Co  Co6  1  0.674944  0.674944  0.000000  1
  Co  Co7  1  0.325056  0.325056  0.000000  1
  Co  Co8  1  0.163172  0.326767  0.500000  1
  Co  Co9  1  0.836828  0.673233  0.500000  1
  Co  Co10  1  0.673233  0.836828  0.500000  1
  Co  Co11  1  0.326767  0.163172  0.500000  1
  Co  Co12  1  0.162837  0.837163  0.500000  1
  Co  Co13  1  0.837163  0.162837  0.500000  1
  Ni  Ni14  1  0.329179  0.998146  0.000000  1
  Ni  Ni15  1  0.670821  0.001854  0.000000  1
  Ni  Ni16  1  0.998146  0.329179  0.000000  1
  Ni  Ni17  1  0.001854  0.670821  0.000000  1
