# generated using pymatgen
data_CePr(Co5As3)2
_symmetry_space_group_name_H-M   'P 1'
_cell_length_a   3.83201700
_cell_length_b   10.77523100
_cell_length_c   12.16759200
_cell_angle_alpha   90.00000000
_cell_angle_beta   90.00000000
_cell_angle_gamma   90.00000000
_symmetry_Int_Tables_number   1
_chemical_formula_structural   CePr(Co5As3)2
_chemical_formula_sum   'Ce2 Pr2 Co20 As12'
_cell_volume   502.41043966
_cell_formula_units_Z   2
loop_
 _symmetry_equiv_pos_site_id
 _symmetry_equiv_pos_as_xyz
  1  'x, y, z'
loop_
 _atom_site_type_symbol
 _atom_site_label
 _atom_site_symmetry_multiplicity
 _atom_site_fract_x
 _atom_site_fract_y
 _atom_site_fract_z
 _atom_site_occupancy
  Ce  Ce0  1  0.250000  0.582042  0.699220  1
  Ce  Ce1  1  0.250000  0.917958  0.199220  1
  Pr  Pr2  1  0.750000  0.416402  0.299108  1
  Pr  Pr3  1  0.750000  0.083598  0.799108  1
  Co  Co4  1  0.250000  0.711779  0.991605  1
  Co  Co5  1  0.250000  0.788221  0.491605  1
  Co  Co6  1  0.750000  0.288953  0.007031  1
  Co  Co7  1  0.750000  0.211047  0.507031  1
  Co  Co8  1  0.250000  0.407408  0.491144  1
  Co  Co9  1  0.250000  0.092592  0.991144  1
  Co  Co10  1  0.750000  0.594274  0.515678  1
  Co  Co11  1  0.750000  0.905726  0.015678  1
  Co  Co12  1  0.250000  0.215118  0.177276  1
  Co  Co13  1  0.250000  0.284882  0.677276  1
  Co  Co14  1  0.750000  0.785161  0.823617  1
  Co  Co15  1  0.750000  0.714839  0.323617  1
  Co  Co16  1  0.250000  0.883348  0.695502  1
  Co  Co17  1  0.250000  0.616652  0.195502  1
  Co  Co18  1  0.750000  0.111586  0.302861  1
  Co  Co19  1  0.750000  0.388414  0.802861  1
  Co  Co20  1  0.250000  0.473937  0.929950  1
  Co  Co21  1  0.250000  0.026063  0.429950  1
  Co  Co22  1  0.750000  0.528674  0.066402  1
  Co  Co23  1  0.750000  0.971326  0.566402  1
  As  As24  1  0.250000  0.414373  0.110890  1
  As  As25  1  0.250000  0.085627  0.610890  1
  As  As26  1  0.750000  0.587306  0.886646  1
  As  As27  1  0.750000  0.912694  0.386646  1
  As  As28  1  0.250000  0.274791  0.871748  1
  As  As29  1  0.250000  0.225209  0.371748  1
  As  As30  1  0.750000  0.725317  0.130257  1
  As  As31  1  0.750000  0.774683  0.630257  1
  As  As32  1  0.250000  0.603490  0.392586  1
  As  As33  1  0.250000  0.896510  0.892586  1
  As  As34  1  0.750000  0.395000  0.608480  1
  As  As35  1  0.750000  0.105000  0.108480  1
