# generated using pymatgen
data_Ho10AlBiPb4
_symmetry_space_group_name_H-M   'P 1'
_cell_length_a   8.98122360
_cell_length_b   8.98790548
_cell_length_c   6.58803400
_cell_angle_alpha   90.00000000
_cell_angle_beta   90.00000000
_cell_angle_gamma   120.09121713
_symmetry_Int_Tables_number   1
_chemical_formula_structural   Ho10AlBiPb4
_chemical_formula_sum   'Ho10 Al1 Bi1 Pb4'
_cell_volume   460.12999701
_cell_formula_units_Z   1
loop_
 _symmetry_equiv_pos_site_id
 _symmetry_equiv_pos_as_xyz
  1  'x, y, z'
loop_
 _atom_site_type_symbol
 _atom_site_label
 _atom_site_symmetry_multiplicity
 _atom_site_fract_x
 _atom_site_fract_y
 _atom_site_fract_z
 _atom_site_occupancy
  Ho  Ho0  1  0.338415  0.664186  0.995380  1
  Ho  Ho1  1  0.666896  0.343563  0.504567  1
  Ho  Ho2  1  0.666896  0.343563  0.995433  1
  Ho  Ho3  1  0.338415  0.664186  0.504620  1
  Ho  Ho4  1  0.234293  0.000682  0.250000  1
  Ho  Ho5  1  0.240125  0.240610  0.750000  1
  Ho  Ho6  1  0.987554  0.758988  0.750000  1
  Ho  Ho7  1  0.004412  0.237568  0.250000  1
  Ho  Ho8  1  0.763591  0.759341  0.250000  1
  Ho  Ho9  1  0.759397  0.988496  0.750000  1
  Al  Al10  1  0.600248  0.601867  0.750000  1
  Bi  Bi11  1  0.607179  0.004315  0.250000  1
  Pb  Pb12  1  0.997667  0.391462  0.750000  1
  Pb  Pb13  1  0.004525  0.604433  0.250000  1
  Pb  Pb14  1  0.398054  0.397869  0.250000  1
  Pb  Pb15  1  0.392332  0.998869  0.750000  1
