# generated using pymatgen
data_Hf9CoMo3W
_symmetry_space_group_name_H-M   'P 1'
_cell_length_a   8.44974600
_cell_length_b   8.67964417
_cell_length_c   8.67953204
_cell_angle_alpha   119.98734262
_cell_angle_beta   90.00000000
_cell_angle_gamma   90.00000000
_symmetry_Int_Tables_number   1
_chemical_formula_structural   Hf9CoMo3W
_chemical_formula_sum   'Hf18 Co2 Mo6 W2'
_cell_volume   551.35065538
_cell_formula_units_Z   2
loop_
 _symmetry_equiv_pos_site_id
 _symmetry_equiv_pos_as_xyz
  1  'x, y, z'
loop_
 _atom_site_type_symbol
 _atom_site_label
 _atom_site_symmetry_multiplicity
 _atom_site_fract_x
 _atom_site_fract_y
 _atom_site_fract_z
 _atom_site_occupancy
  Hf  Hf0  1  0.559048  0.798452  0.596876  1
  Hf  Hf1  1  0.559003  0.798448  0.201553  1
  Hf  Hf2  1  0.559048  0.403123  0.201547  1
  Hf  Hf3  1  0.440952  0.201548  0.403124  1
  Hf  Hf4  1  0.440997  0.201552  0.798447  1
  Hf  Hf5  1  0.440952  0.596877  0.798453  1
  Hf  Hf6  1  0.059048  0.201548  0.403124  1
  Hf  Hf7  1  0.059003  0.201552  0.798447  1
  Hf  Hf8  1  0.059048  0.596877  0.798453  1
  Hf  Hf9  1  0.940952  0.798452  0.596876  1
  Hf  Hf10  1  0.940997  0.798448  0.201553  1
  Hf  Hf11  1  0.940952  0.403123  0.201547  1
  Hf  Hf12  1  0.750000  0.457682  0.915424  1
  Hf  Hf13  1  0.750000  0.457710  0.542284  1
  Hf  Hf14  1  0.750000  0.084578  0.542317  1
  Hf  Hf15  1  0.250000  0.542318  0.084576  1
  Hf  Hf16  1  0.250000  0.542290  0.457716  1
  Hf  Hf17  1  0.250000  0.915422  0.457683  1
  Co  Co18  1  0.750000  0.666677  0.333321  1
  Co  Co19  1  0.250000  0.333323  0.666679  1
  Mo  Mo20  1  0.750000  0.112476  0.224903  1
  Mo  Mo21  1  0.750000  0.112475  0.887528  1
  Mo  Mo22  1  0.750000  0.775097  0.887524  1
  Mo  Mo23  1  0.250000  0.887524  0.775097  1
  Mo  Mo24  1  0.250000  0.887525  0.112472  1
  Mo  Mo25  1  0.250000  0.224903  0.112476  1
  W  W26  1  0.500000  0.000000  0.000000  1
  W  W27  1  0.000000  0.000000  0.000000  1
