# generated using pymatgen
data_Sc7(CO)3
_symmetry_space_group_name_H-M   'P 1'
_cell_length_a   5.60967404
_cell_length_b   7.25945947
_cell_length_c   5.62584086
_cell_angle_alpha   104.76258287
_cell_angle_beta   99.38898626
_cell_angle_gamma   50.04527029
_symmetry_Int_Tables_number   1
_chemical_formula_structural   Sc7(CO)3
_chemical_formula_sum   'Sc7 C3 O3'
_cell_volume   169.82159127
_cell_formula_units_Z   1
loop_
 _symmetry_equiv_pos_site_id
 _symmetry_equiv_pos_as_xyz
  1  'x, y, z'
loop_
 _atom_site_type_symbol
 _atom_site_label
 _atom_site_symmetry_multiplicity
 _atom_site_fract_x
 _atom_site_fract_y
 _atom_site_fract_z
 _atom_site_occupancy
  Sc  Sc0  1  0.033880  0.529435  0.964507  1
  Sc  Sc1  1  0.461023  0.661697  0.218455  1
  Sc  Sc2  1  0.195157  0.222717  0.371038  1
  Sc  Sc3  1  0.743093  0.091569  0.091565  1
  Sc  Sc4  1  0.581957  0.382542  0.659690  1
  Sc  Sc5  1  0.307416  0.958989  0.817089  1
  Sc  Sc6  1  0.904592  0.809258  0.515734  1
  C  C7  1  0.320601  0.448171  0.307866  1
  C  C8  1  0.598697  0.882417  0.163002  1
  C  C9  1  0.178634  0.737707  0.873518  1
  O  O10  1  0.893964  0.304039  0.016307  1
  O  O11  1  0.031436  0.028555  0.457278  1
  O  O12  1  0.457149  0.166529  0.729223  1
