# generated using pymatgen
data_Mg6Co15Si7Ni
_symmetry_space_group_name_H-M   'P 1'
_cell_length_a   7.98621902
_cell_length_b   7.98973213
_cell_length_c   7.98973200
_cell_angle_alpha   60.00000052
_cell_angle_beta   59.98544783
_cell_angle_gamma   59.98545026
_symmetry_Int_Tables_number   1
_chemical_formula_structural   Mg6Co15Si7Ni
_chemical_formula_sum   'Mg6 Co15 Si7 Ni1'
_cell_volume   360.40856109
_cell_formula_units_Z   1
loop_
 _symmetry_equiv_pos_site_id
 _symmetry_equiv_pos_as_xyz
  1  'x, y, z'
loop_
 _atom_site_type_symbol
 _atom_site_label
 _atom_site_symmetry_multiplicity
 _atom_site_fract_x
 _atom_site_fract_y
 _atom_site_fract_z
 _atom_site_occupancy
  Mg  Mg0  1  0.204572  0.204825  0.795302  1
  Mg  Mg1  1  0.204572  0.795302  0.204825  1
  Mg  Mg2  1  0.204572  0.795302  0.795302  1
  Mg  Mg3  1  0.796025  0.205422  0.793131  1
  Mg  Mg4  1  0.796025  0.205422  0.205422  1
  Mg  Mg5  1  0.796025  0.793131  0.205422  1
  Co  Co6  1  0.172967  0.481363  0.172835  1
  Co  Co7  1  0.380859  0.854689  0.382227  1
  Co  Co8  1  0.618150  0.619140  0.619140  1
  Co  Co9  1  0.172967  0.172835  0.481363  1
  Co  Co10  1  0.618150  0.143568  0.619140  1
  Co  Co11  1  0.618150  0.619140  0.143568  1
  Co  Co12  1  0.825806  0.520918  0.826638  1
  Co  Co13  1  0.143586  0.618804  0.618804  1
  Co  Co14  1  0.380859  0.382227  0.382227  1
  Co  Co15  1  0.172967  0.172835  0.172835  1
  Co  Co16  1  0.825806  0.826638  0.826638  1
  Co  Co17  1  0.825806  0.826638  0.520918  1
  Co  Co18  1  0.380859  0.382227  0.854689  1
  Co  Co19  1  0.521957  0.826014  0.826014  1
  Co  Co20  1  0.853609  0.382131  0.382131  1
  Si  Si21  1  0.497946  0.500787  0.000634  1
  Si  Si22  1  0.000105  0.000914  0.499490  1
  Si  Si23  1  0.500151  0.499950  0.499950  1
  Si  Si24  1  0.000105  0.499490  0.000914  1
  Si  Si25  1  0.497946  0.000634  0.000634  1
  Si  Si26  1  0.497946  0.000634  0.500787  1
  Si  Si27  1  0.000105  0.499490  0.499490  1
  Ni  Ni28  1  0.491409  0.169530  0.169530  1
