# generated using pymatgen
data_Y8FeSi16Tc11
_symmetry_space_group_name_H-M   'P 1'
_cell_length_a   6.77872142
_cell_length_b   6.79760546
_cell_length_c   12.62031691
_cell_angle_alpha   90.01458844
_cell_angle_beta   89.68957042
_cell_angle_gamma   90.14961443
_symmetry_Int_Tables_number   1
_chemical_formula_structural   Y8FeSi16Tc11
_chemical_formula_sum   'Y8 Fe1 Si16 Tc11'
_cell_volume   581.52197821
_cell_formula_units_Z   1
loop_
 _symmetry_equiv_pos_site_id
 _symmetry_equiv_pos_as_xyz
  1  'x, y, z'
loop_
 _atom_site_type_symbol
 _atom_site_label
 _atom_site_symmetry_multiplicity
 _atom_site_fract_x
 _atom_site_fract_y
 _atom_site_fract_z
 _atom_site_occupancy
  Y  Y0  1  0.000074  0.664220  0.031777  1
  Y  Y1  1  0.837861  0.502909  0.280713  1
  Y  Y2  1  0.164670  0.497689  0.781339  1
  Y  Y3  1  0.508127  0.842455  0.716627  1
  Y  Y4  1  0.492248  0.159504  0.220466  1
  Y  Y5  1  0.995873  0.342868  0.531443  1
  Y  Y6  1  0.659995  0.006417  0.969289  1
  Y  Y7  1  0.336003  0.999785  0.471430  1
  Fe  Fe8  1  0.807668  0.032547  0.367285  1
  Si  Si9  1  0.273386  0.976003  0.063550  1
  Si  Si10  1  0.524638  0.779796  0.317359  1
  Si  Si11  1  0.483669  0.231939  0.810342  1
  Si  Si12  1  0.769791  0.518021  0.690002  1
  Si  Si13  1  0.218432  0.469477  0.184910  1
  Si  Si14  1  0.742105  0.013781  0.553530  1
  Si  Si15  1  0.978968  0.274147  0.937248  1
  Si  Si16  1  0.015132  0.740803  0.435814  1
  Si  Si17  1  0.690819  0.384285  0.064514  1
  Si  Si18  1  0.104941  0.187385  0.314691  1
  Si  Si19  1  0.884752  0.806625  0.814290  1
  Si  Si20  1  0.195068  0.116813  0.686393  1
  Si  Si21  1  0.805734  0.886448  0.192390  1
  Si  Si22  1  0.310263  0.612727  0.560029  1
  Si  Si23  1  0.385669  0.691792  0.939382  1
  Si  Si24  1  0.620939  0.300089  0.434186  1
  Tc  Tc25  1  0.332763  0.333991  0.000383  1
  Tc  Tc26  1  0.161372  0.834451  0.255174  1
  Tc  Tc27  1  0.836521  0.167385  0.750225  1
  Tc  Tc28  1  0.666388  0.667726  0.496191  1
  Tc  Tc29  1  0.976852  0.179727  0.128341  1
  Tc  Tc30  1  0.326306  0.475437  0.373000  1
  Tc  Tc31  1  0.686418  0.520732  0.881817  1
  Tc  Tc32  1  0.485696  0.313604  0.616154  1
  Tc  Tc33  1  0.512194  0.675826  0.128518  1
  Tc  Tc34  1  0.025619  0.814510  0.629829  1
  Tc  Tc35  1  0.183047  0.978086  0.871370  1
