# generated using pymatgen
data_Ho5Er5In8Ir2PtRh
_symmetry_space_group_name_H-M   'P 1'
_cell_length_a   3.61774700
_cell_length_b   8.06865846
_cell_length_c   18.20236152
_cell_angle_alpha   89.85114416
_cell_angle_beta   90.00000000
_cell_angle_gamma   90.00000000
_symmetry_Int_Tables_number   1
_chemical_formula_structural   Ho5Er5In8Ir2PtRh
_chemical_formula_sum   'Ho5 Er5 In8 Ir2 Pt1 Rh1'
_cell_volume   531.33178254
_cell_formula_units_Z   1
loop_
 _symmetry_equiv_pos_site_id
 _symmetry_equiv_pos_as_xyz
  1  'x, y, z'
loop_
 _atom_site_type_symbol
 _atom_site_label
 _atom_site_symmetry_multiplicity
 _atom_site_fract_x
 _atom_site_fract_y
 _atom_site_fract_z
 _atom_site_occupancy
  Ho  Ho0  1  0.000000  0.759198  0.777840  1
  Ho  Ho1  1  0.000000  0.253504  0.721705  1
  Ho  Ho2  1  0.000000  0.751067  0.279583  1
  Ho  Ho3  1  0.000000  0.999846  0.999579  1
  Ho  Ho4  1  0.000000  0.500230  0.499933  1
  Er  Er5  1  0.000000  0.115026  0.412125  1
  Er  Er6  1  0.000000  0.883845  0.589509  1
  Er  Er7  1  0.000000  0.384595  0.910383  1
  Er  Er8  1  0.000000  0.617093  0.086738  1
  Er  Er9  1  0.000000  0.235289  0.222325  1
  In  In10  1  0.500000  0.423892  0.351391  1
  In  In11  1  0.500000  0.570823  0.649702  1
  In  In12  1  0.500000  0.072904  0.851107  1
  In  In13  1  0.500000  0.928082  0.148577  1
  In  In14  1  0.500000  0.293199  0.065293  1
  In  In15  1  0.500000  0.706003  0.932053  1
  In  In16  1  0.500000  0.206427  0.567348  1
  In  In17  1  0.500000  0.793954  0.433188  1
  Ir  Ir18  1  0.500000  0.022134  0.304209  1
  Ir  Ir19  1  0.500000  0.981331  0.696088  1
  Pt  Pt20  1  0.500000  0.520700  0.196069  1
  Rh  Rh21  1  0.500000  0.480858  0.805256  1
