# generated using pymatgen
data_Al2V4ReTc
_symmetry_space_group_name_H-M   'P 1'
_cell_length_a   4.80647065
_cell_length_b   4.77016000
_cell_length_c   4.85107467
_cell_angle_alpha   90.00000000
_cell_angle_beta   89.87968337
_cell_angle_gamma   90.00000000
_symmetry_Int_Tables_number   1
_chemical_formula_structural   Al2V4ReTc
_chemical_formula_sum   'Al2 V4 Re1 Tc1'
_cell_volume   111.22341956
_cell_formula_units_Z   1
loop_
 _symmetry_equiv_pos_site_id
 _symmetry_equiv_pos_as_xyz
  1  'x, y, z'
loop_
 _atom_site_type_symbol
 _atom_site_label
 _atom_site_symmetry_multiplicity
 _atom_site_fract_x
 _atom_site_fract_y
 _atom_site_fract_z
 _atom_site_occupancy
  Al  Al0  1  0.996591  0.000000  0.995871  1
  Al  Al1  1  0.503695  0.500000  0.504318  1
  V  V2  1  0.747655  0.000000  0.498833  1
  V  V3  1  0.000691  0.500000  0.751652  1
  V  V4  1  0.499565  0.747445  0.001381  1
  V  V5  1  0.499565  0.252555  0.001381  1
  Re  Re6  1  0.999853  0.500000  0.247429  1
  Tc  Tc7  1  0.252386  0.000000  0.499135  1
