# generated using pymatgen
data_Y2Tm3Lu3Au4
_symmetry_space_group_name_H-M   'P 1'
_cell_length_a   4.85819200
_cell_length_b   7.09079405
_cell_length_c   8.83847842
_cell_angle_alpha   90.08353466
_cell_angle_beta   90.00000000
_cell_angle_gamma   90.00000000
_symmetry_Int_Tables_number   1
_chemical_formula_structural   Y2Tm3Lu3Au4
_chemical_formula_sum   'Y2 Tm3 Lu3 Au4'
_cell_volume   304.47146028
_cell_formula_units_Z   1
loop_
 _symmetry_equiv_pos_site_id
 _symmetry_equiv_pos_as_xyz
  1  'x, y, z'
loop_
 _atom_site_type_symbol
 _atom_site_label
 _atom_site_symmetry_multiplicity
 _atom_site_fract_x
 _atom_site_fract_y
 _atom_site_fract_z
 _atom_site_occupancy
  Y  Y0  1  0.250000  0.482940  0.177945  1
  Y  Y1  1  0.250000  0.984157  0.321966  1
  Tm  Tm2  1  0.750000  0.648310  0.423593  1
  Tm  Tm3  1  0.750000  0.516741  0.822848  1
  Tm  Tm4  1  0.750000  0.016956  0.677723  1
  Lu  Lu5  1  0.250000  0.851606  0.921294  1
  Lu  Lu6  1  0.250000  0.351860  0.579456  1
  Lu  Lu7  1  0.750000  0.148299  0.075468  1
  Au  Au8  1  0.250000  0.253054  0.896168  1
  Au  Au9  1  0.250000  0.753833  0.604806  1
  Au  Au10  1  0.750000  0.747111  0.099667  1
  Au  Au11  1  0.750000  0.245133  0.399068  1
