# generated using pymatgen
data_LiY10Ho6Cd3Pt4
_symmetry_space_group_name_H-M   'P 1'
_cell_length_a   9.68713181
_cell_length_b   9.70155852
_cell_length_c   9.70155951
_cell_angle_alpha   59.82897949
_cell_angle_beta   59.97907753
_cell_angle_gamma   59.97907829
_symmetry_Int_Tables_number   1
_chemical_formula_structural   LiY10Ho6Cd3Pt4
_chemical_formula_sum   'Li1 Y10 Ho6 Cd3 Pt4'
_cell_volume   643.66774550
_cell_formula_units_Z   1
loop_
 _symmetry_equiv_pos_site_id
 _symmetry_equiv_pos_as_xyz
  1  'x, y, z'
loop_
 _atom_site_type_symbol
 _atom_site_label
 _atom_site_symmetry_multiplicity
 _atom_site_fract_x
 _atom_site_fract_y
 _atom_site_fract_z
 _atom_site_occupancy
  Li  Li0  1  0.571511  0.571070  0.571070  1
  Y  Y1  1  0.192611  0.809507  0.192701  1
  Y  Y2  1  0.812127  0.188258  0.812118  1
  Y  Y3  1  0.192611  0.192701  0.809507  1
  Y  Y4  1  0.812127  0.812118  0.188258  1
  Y  Y5  1  0.936533  0.564452  0.564452  1
  Y  Y6  1  0.562583  0.936713  0.936713  1
  Y  Y7  1  0.563873  0.937306  0.563964  1
  Y  Y8  1  0.937181  0.562270  0.936970  1
  Y  Y9  1  0.563873  0.563964  0.937306  1
  Y  Y10  1  0.937181  0.936970  0.562270  1
  Ho  Ho11  1  0.350681  0.350888  0.350888  1
  Ho  Ho12  1  0.352304  0.352250  0.944358  1
  Ho  Ho13  1  0.352304  0.944358  0.352250  1
  Ho  Ho14  1  0.944477  0.352318  0.352318  1
  Ho  Ho15  1  0.809479  0.192618  0.192618  1
  Ho  Ho16  1  0.188469  0.812217  0.812217  1
  Cd  Cd17  1  0.582047  0.582072  0.254260  1
  Cd  Cd18  1  0.582047  0.254260  0.582072  1
  Cd  Cd19  1  0.254346  0.581908  0.581908  1
  Pt  Pt20  1  0.143141  0.145357  0.145357  1
  Pt  Pt21  1  0.144590  0.142179  0.569552  1
  Pt  Pt22  1  0.144590  0.569552  0.142179  1
  Pt  Pt23  1  0.569318  0.144695  0.144695  1
