# generated using pymatgen
data_Pr3Mg2ScIr3
_symmetry_space_group_name_H-M   'P 1'
_cell_length_a   7.47095900
_cell_length_b   7.54982273
_cell_length_c   4.19283600
_cell_angle_alpha   90.00000000
_cell_angle_beta   90.00000000
_cell_angle_gamma   119.65505841
_symmetry_Int_Tables_number   1
_chemical_formula_structural   Pr3Mg2ScIr3
_chemical_formula_sum   'Pr3 Mg2 Sc1 Ir3'
_cell_volume   205.51839136
_cell_formula_units_Z   1
loop_
 _symmetry_equiv_pos_site_id
 _symmetry_equiv_pos_as_xyz
  1  'x, y, z'
loop_
 _atom_site_type_symbol
 _atom_site_label
 _atom_site_symmetry_multiplicity
 _atom_site_fract_x
 _atom_site_fract_y
 _atom_site_fract_z
 _atom_site_occupancy
  Pr  Pr0  1  0.403387  0.000000  0.500000  1
  Pr  Pr1  1  0.006088  0.422353  0.500000  1
  Pr  Pr2  1  0.583734  0.577647  0.500000  1
  Mg  Mg3  1  0.241278  0.242607  0.000000  1
  Mg  Mg4  1  0.998671  0.757392  0.000000  1
  Sc  Sc5  1  0.758184  0.000000  0.000000  1
  Ir  Ir6  1  0.672861  0.322367  0.000000  1
  Ir  Ir7  1  0.350494  0.677633  0.000000  1
  Ir  Ir8  1  0.985303  0.000000  0.500000  1
