# generated using pymatgen
data_NdHo5Fe2(Co4P3)4
_symmetry_space_group_name_H-M   'P 1'
_cell_length_a   3.70583800
_cell_length_b   10.54173200
_cell_length_c   12.20378800
_cell_angle_alpha   90.00000000
_cell_angle_beta   90.00000000
_cell_angle_gamma   90.00000000
_symmetry_Int_Tables_number   1
_chemical_formula_structural   NdHo5Fe2(Co4P3)4
_chemical_formula_sum   'Nd1 Ho5 Fe2 Co16 P12'
_cell_volume   476.75258441
_cell_formula_units_Z   1
loop_
 _symmetry_equiv_pos_site_id
 _symmetry_equiv_pos_as_xyz
  1  'x, y, z'
loop_
 _atom_site_type_symbol
 _atom_site_label
 _atom_site_symmetry_multiplicity
 _atom_site_fract_x
 _atom_site_fract_y
 _atom_site_fract_z
 _atom_site_occupancy
  Nd  Nd0  1  0.000000  0.500000  0.522194  1
  Ho  Ho1  1  0.500000  0.000000  0.478426  1
  Ho  Ho2  1  0.500000  0.818357  0.204863  1
  Ho  Ho3  1  0.500000  0.181643  0.204863  1
  Ho  Ho4  1  0.000000  0.682377  0.795879  1
  Ho  Ho5  1  0.000000  0.317623  0.795879  1
  Fe  Fe6  1  0.500000  0.500000  0.155000  1
  Fe  Fe7  1  0.000000  0.000000  0.842871  1
  Co  Co8  1  0.000000  0.500000  0.986888  1
  Co  Co9  1  0.500000  0.000000  0.013707  1
  Co  Co10  1  0.500000  0.293253  0.429994  1
  Co  Co11  1  0.500000  0.706747  0.429994  1
  Co  Co12  1  0.000000  0.200656  0.570060  1
  Co  Co13  1  0.000000  0.799344  0.570060  1
  Co  Co14  1  0.500000  0.879654  0.710360  1
  Co  Co15  1  0.500000  0.120346  0.710360  1
  Co  Co16  1  0.000000  0.621914  0.289028  1
  Co  Co17  1  0.000000  0.378086  0.289028  1
  Co  Co18  1  0.500000  0.332666  0.994128  1
  Co  Co19  1  0.500000  0.667334  0.994128  1
  Co  Co20  1  0.000000  0.166633  0.005670  1
  Co  Co21  1  0.000000  0.833367  0.005670  1
  Co  Co22  1  0.500000  0.500000  0.704924  1
  Co  Co23  1  0.000000  0.000000  0.297425  1
  P  P24  1  0.500000  0.306889  0.617701  1
  P  P25  1  0.500000  0.693111  0.617701  1
  P  P26  1  0.000000  0.188754  0.383607  1
  P  P27  1  0.000000  0.811246  0.383607  1
  P  P28  1  0.500000  0.500000  0.883290  1
  P  P29  1  0.000000  0.000000  0.117662  1
  P  P30  1  0.500000  0.847577  0.892941  1
  P  P31  1  0.500000  0.152423  0.892941  1
  P  P32  1  0.000000  0.653664  0.106662  1
  P  P33  1  0.000000  0.346336  0.106662  1
  P  P34  1  0.500000  0.500000  0.338466  1
  P  P35  1  0.000000  0.000000  0.657360  1
