# generated using pymatgen
data_Tb4Fe10Ni3P12Ru7
_symmetry_space_group_name_H-M   'P 1'
_cell_length_a   3.74926300
_cell_length_b   10.43682121
_cell_length_c   12.00278914
_cell_angle_alpha   89.97304585
_cell_angle_beta   90.00000000
_cell_angle_gamma   90.00000000
_symmetry_Int_Tables_number   1
_chemical_formula_structural   Tb4Fe10Ni3P12Ru7
_chemical_formula_sum   'Tb4 Fe10 Ni3 P12 Ru7'
_cell_volume   469.67373927
_cell_formula_units_Z   1
loop_
 _symmetry_equiv_pos_site_id
 _symmetry_equiv_pos_as_xyz
  1  'x, y, z'
loop_
 _atom_site_type_symbol
 _atom_site_label
 _atom_site_symmetry_multiplicity
 _atom_site_fract_x
 _atom_site_fract_y
 _atom_site_fract_z
 _atom_site_occupancy
  Tb  Tb0  1  0.250000  0.578975  0.708501  1
  Tb  Tb1  1  0.250000  0.920986  0.206152  1
  Tb  Tb2  1  0.750000  0.416510  0.289980  1
  Tb  Tb3  1  0.750000  0.082923  0.790434  1
  Fe  Fe4  1  0.250000  0.227033  0.173964  1
  Fe  Fe5  1  0.250000  0.272724  0.675030  1
  Fe  Fe6  1  0.250000  0.876522  0.699661  1
  Fe  Fe7  1  0.250000  0.623529  0.200195  1
  Fe  Fe8  1  0.750000  0.118986  0.300436  1
  Fe  Fe9  1  0.750000  0.378902  0.801613  1
  Fe  Fe10  1  0.250000  0.464957  0.935678  1
  Fe  Fe11  1  0.250000  0.036508  0.435535  1
  Fe  Fe12  1  0.750000  0.541886  0.064992  1
  Fe  Fe13  1  0.750000  0.958927  0.564993  1
  Ni  Ni14  1  0.750000  0.902779  0.013871  1
  Ni  Ni15  1  0.750000  0.773903  0.826519  1
  Ni  Ni16  1  0.750000  0.729145  0.324746  1
  P  P17  1  0.250000  0.428843  0.113865  1
  P  P18  1  0.250000  0.072222  0.613629  1
  P  P19  1  0.750000  0.568654  0.886795  1
  P  P20  1  0.750000  0.931354  0.387120  1
  P  P21  1  0.250000  0.274214  0.860039  1
  P  P22  1  0.250000  0.225337  0.359326  1
  P  P23  1  0.750000  0.729308  0.137597  1
  P  P24  1  0.750000  0.771570  0.636293  1
  P  P25  1  0.250000  0.597973  0.387291  1
  P  P26  1  0.250000  0.901158  0.885342  1
  P  P27  1  0.750000  0.391301  0.615144  1
  P  P28  1  0.750000  0.110752  0.116496  1
  Ru  Ru29  1  0.250000  0.709825  0.986323  1
  Ru  Ru30  1  0.250000  0.795594  0.483270  1
  Ru  Ru31  1  0.750000  0.297713  0.014720  1
  Ru  Ru32  1  0.750000  0.200858  0.515265  1
  Ru  Ru33  1  0.250000  0.399446  0.485584  1
  Ru  Ru34  1  0.250000  0.093723  0.988485  1
  Ru  Ru35  1  0.750000  0.594956  0.515115  1
