# generated using pymatgen
data_Ho3Er2Bi3
_symmetry_space_group_name_H-M   'P 1'
_cell_length_a   8.21912900
_cell_length_b   9.49227600
_cell_length_c   11.98660900
_cell_angle_alpha   90.00000000
_cell_angle_beta   90.00000000
_cell_angle_gamma   90.00000000
_symmetry_Int_Tables_number   1
_chemical_formula_structural   Ho3Er2Bi3
_chemical_formula_sum   'Ho12 Er8 Bi12'
_cell_volume   935.17414911
_cell_formula_units_Z   4
loop_
 _symmetry_equiv_pos_site_id
 _symmetry_equiv_pos_as_xyz
  1  'x, y, z'
loop_
 _atom_site_type_symbol
 _atom_site_label
 _atom_site_symmetry_multiplicity
 _atom_site_fract_x
 _atom_site_fract_y
 _atom_site_fract_z
 _atom_site_occupancy
  Ho  Ho0  1  0.353752  0.750000  0.216183  1
  Ho  Ho1  1  0.853752  0.750000  0.283817  1
  Ho  Ho2  1  0.646248  0.250000  0.783817  1
  Ho  Ho3  1  0.146248  0.250000  0.716183  1
  Ho  Ho4  1  0.476970  0.250000  0.489014  1
  Ho  Ho5  1  0.976970  0.250000  0.010986  1
  Ho  Ho6  1  0.523030  0.750000  0.510986  1
  Ho  Ho7  1  0.023030  0.750000  0.989014  1
  Ho  Ho8  1  0.314661  0.250000  0.218100  1
  Ho  Ho9  1  0.814661  0.250000  0.281900  1
  Ho  Ho10  1  0.685339  0.750000  0.781900  1
  Ho  Ho11  1  0.185339  0.750000  0.718100  1
  Er  Er12  1  0.692014  0.564251  0.058992  1
  Er  Er13  1  0.192014  0.935749  0.441008  1
  Er  Er14  1  0.307986  0.064251  0.941008  1
  Er  Er15  1  0.807986  0.435749  0.558992  1
  Er  Er16  1  0.307986  0.435749  0.941008  1
  Er  Er17  1  0.807986  0.064251  0.558992  1
  Er  Er18  1  0.692014  0.935749  0.058992  1
  Er  Er19  1  0.192014  0.564251  0.441008  1
  Bi  Bi20  1  0.405453  0.750000  0.957479  1
  Bi  Bi21  1  0.905453  0.750000  0.542521  1
  Bi  Bi22  1  0.594547  0.250000  0.042521  1
  Bi  Bi23  1  0.094547  0.250000  0.457479  1
  Bi  Bi24  1  0.565926  0.996260  0.325693  1
  Bi  Bi25  1  0.065926  0.503740  0.174307  1
  Bi  Bi26  1  0.434074  0.496260  0.674307  1
  Bi  Bi27  1  0.934074  0.003740  0.825693  1
  Bi  Bi28  1  0.434074  0.003740  0.674307  1
  Bi  Bi29  1  0.934074  0.496260  0.825693  1
  Bi  Bi30  1  0.565926  0.503740  0.325693  1
  Bi  Bi31  1  0.065926  0.996260  0.174307  1
