# generated using pymatgen
data_Gd2Er3S7
_symmetry_space_group_name_H-M   'P 1'
_cell_length_a   6.66605423
_cell_length_b   6.66605416
_cell_length_c   11.57174500
_cell_angle_alpha   76.04936598
_cell_angle_beta   76.04936613
_cell_angle_gamma   33.01705790
_symmetry_Int_Tables_number   1
_chemical_formula_structural   Gd2Er3S7
_chemical_formula_sum   'Gd2 Er3 S7'
_cell_volume   271.18230335
_cell_formula_units_Z   1
loop_
 _symmetry_equiv_pos_site_id
 _symmetry_equiv_pos_as_xyz
  1  'x, y, z'
loop_
 _atom_site_type_symbol
 _atom_site_label
 _atom_site_symmetry_multiplicity
 _atom_site_fract_x
 _atom_site_fract_y
 _atom_site_fract_z
 _atom_site_occupancy
  Gd  Gd0  1  0.300473  0.300473  0.811097  1
  Gd  Gd1  1  0.699527  0.699527  0.188903  1
  Er  Er2  1  0.112109  0.112109  0.578000  1
  Er  Er3  1  0.887891  0.887891  0.422000  1
  Er  Er4  1  0.000000  0.000000  0.000000  1
  S  S5  1  0.260662  0.260662  0.355842  1
  S  S6  1  0.739338  0.739338  0.644158  1
  S  S7  1  0.962503  0.962503  0.784217  1
  S  S8  1  0.037497  0.037497  0.215783  1
  S  S9  1  0.656025  0.656025  0.949333  1
  S  S10  1  0.500000  0.500000  0.500000  1
  S  S11  1  0.343975  0.343975  0.050667  1
