# generated using pymatgen
data_La2Si5Tc3
_symmetry_space_group_name_H-M   'P 1'
_cell_length_a   8.52300660
_cell_length_b   8.52300761
_cell_length_c   8.52300706
_cell_angle_alpha   140.64807507
_cell_angle_beta   108.66708334
_cell_angle_gamma   84.64451663
_symmetry_Int_Tables_number   1
_chemical_formula_structural   La2Si5Tc3
_chemical_formula_sum   'La4 Si10 Tc6'
_cell_volume   359.46868344
_cell_formula_units_Z   2
loop_
 _symmetry_equiv_pos_site_id
 _symmetry_equiv_pos_as_xyz
  1  'x, y, z'
loop_
 _atom_site_type_symbol
 _atom_site_label
 _atom_site_symmetry_multiplicity
 _atom_site_fract_x
 _atom_site_fract_y
 _atom_site_fract_z
 _atom_site_occupancy
  La  La0  1  0.632593  0.869014  0.763580  1
  La  La1  1  0.367407  0.130986  0.236420  1
  La  La2  1  0.894566  0.630986  0.263580  1
  La  La3  1  0.105434  0.369014  0.736420  1
  Si  Si4  1  0.000000  0.250000  0.250000  1
  Si  Si5  1  0.000000  0.750000  0.750000  1
  Si  Si6  1  0.291419  0.541419  0.250000  1
  Si  Si7  1  0.708581  0.958581  0.250000  1
  Si  Si8  1  0.708581  0.458581  0.750000  1
  Si  Si9  1  0.291419  0.041419  0.750000  1
  Si  Si10  1  0.430963  0.600620  0.830343  1
  Si  Si11  1  0.770277  0.100620  0.669657  1
  Si  Si12  1  0.229723  0.899380  0.330343  1
  Si  Si13  1  0.569037  0.399380  0.169657  1
  Tc  Tc14  1  0.058382  0.147674  0.910706  1
  Tc  Tc15  1  0.500000  0.750000  0.250000  1
  Tc  Tc16  1  0.236968  0.647674  0.589294  1
  Tc  Tc17  1  0.763032  0.352326  0.410706  1
  Tc  Tc18  1  0.941618  0.852326  0.089294  1
  Tc  Tc19  1  0.500000  0.250000  0.750000  1
