# generated using pymatgen
data_Er2Tm8Bi5Sb
_symmetry_space_group_name_H-M   'P 1'
_cell_length_a   8.13909100
_cell_length_b   9.41327100
_cell_length_c   11.86087200
_cell_angle_alpha   90.00000000
_cell_angle_beta   90.00000000
_cell_angle_gamma   90.00000000
_symmetry_Int_Tables_number   1
_chemical_formula_structural   Er2Tm8Bi5Sb
_chemical_formula_sum   'Er4 Tm16 Bi10 Sb2'
_cell_volume   908.72627431
_cell_formula_units_Z   2
loop_
 _symmetry_equiv_pos_site_id
 _symmetry_equiv_pos_as_xyz
  1  'x, y, z'
loop_
 _atom_site_type_symbol
 _atom_site_label
 _atom_site_symmetry_multiplicity
 _atom_site_fract_x
 _atom_site_fract_y
 _atom_site_fract_z
 _atom_site_occupancy
  Er  Er0  1  0.313348  0.250000  0.217563  1
  Er  Er1  1  0.813348  0.250000  0.282437  1
  Er  Er2  1  0.684538  0.750000  0.783167  1
  Er  Er3  1  0.184538  0.750000  0.716833  1
  Tm  Tm4  1  0.353158  0.750000  0.214656  1
  Tm  Tm5  1  0.853158  0.750000  0.285344  1
  Tm  Tm6  1  0.647705  0.250000  0.782581  1
  Tm  Tm7  1  0.147705  0.250000  0.717419  1
  Tm  Tm8  1  0.689427  0.567962  0.058134  1
  Tm  Tm9  1  0.189427  0.932038  0.441866  1
  Tm  Tm10  1  0.309198  0.062662  0.941096  1
  Tm  Tm11  1  0.809198  0.437338  0.558904  1
  Tm  Tm12  1  0.309198  0.437338  0.941096  1
  Tm  Tm13  1  0.809198  0.062662  0.558904  1
  Tm  Tm14  1  0.689427  0.932038  0.058134  1
  Tm  Tm15  1  0.189427  0.567962  0.441866  1
  Tm  Tm16  1  0.477290  0.250000  0.488997  1
  Tm  Tm17  1  0.977290  0.250000  0.011003  1
  Tm  Tm18  1  0.526578  0.750000  0.511437  1
  Tm  Tm19  1  0.026578  0.750000  0.988563  1
  Bi  Bi20  1  0.596346  0.250000  0.042448  1
  Bi  Bi21  1  0.096346  0.250000  0.457552  1
  Bi  Bi22  1  0.565289  0.995682  0.325282  1
  Bi  Bi23  1  0.065289  0.504318  0.174718  1
  Bi  Bi24  1  0.434413  0.495805  0.674693  1
  Bi  Bi25  1  0.934413  0.004195  0.825307  1
  Bi  Bi26  1  0.434413  0.004195  0.674693  1
  Bi  Bi27  1  0.934413  0.495805  0.825307  1
  Bi  Bi28  1  0.565289  0.504318  0.325282  1
  Bi  Bi29  1  0.065289  0.995682  0.174718  1
  Sb  Sb30  1  0.404383  0.750000  0.958459  1
  Sb  Sb31  1  0.904383  0.750000  0.541541  1
