# generated using pymatgen
data_Hf6InSiSb
_symmetry_space_group_name_H-M   'P 1'
_cell_length_a   7.60712500
_cell_length_b   7.60712432
_cell_length_c   3.79942100
_cell_angle_alpha   90.00000000
_cell_angle_beta   90.00000000
_cell_angle_gamma   119.99999862
_symmetry_Int_Tables_number   1
_chemical_formula_structural   Hf6InSiSb
_chemical_formula_sum   'Hf6 In1 Si1 Sb1'
_cell_volume   190.40972369
_cell_formula_units_Z   1
loop_
 _symmetry_equiv_pos_site_id
 _symmetry_equiv_pos_as_xyz
  1  'x, y, z'
loop_
 _atom_site_type_symbol
 _atom_site_label
 _atom_site_symmetry_multiplicity
 _atom_site_fract_x
 _atom_site_fract_y
 _atom_site_fract_z
 _atom_site_occupancy
  Hf  Hf0  1  0.242683  0.996418  0.500000  1
  Hf  Hf1  1  0.003582  0.246265  0.500000  1
  Hf  Hf2  1  0.753735  0.757317  0.500000  1
  Hf  Hf3  1  0.615006  0.004730  0.000000  1
  Hf  Hf4  1  0.995270  0.610276  0.000000  1
  Hf  Hf5  1  0.389724  0.384994  0.000000  1
  In  In6  1  0.333333  0.666667  0.500000  1
  Si  Si7  1  0.000000  0.000000  0.000000  1
  Sb  Sb8  1  0.666667  0.333333  0.500000  1
