# generated using pymatgen
data_SrTeF6
_symmetry_space_group_name_H-M   'P 1'
_cell_length_a   12.91428700
_cell_length_b   4.65250728
_cell_length_c   8.61694222
_cell_angle_alpha   75.55960599
_cell_angle_beta   90.00000000
_cell_angle_gamma   90.00000000
_symmetry_Int_Tables_number   1
_chemical_formula_structural   SrTeF6
_chemical_formula_sum   'Sr4 Te4 F24'
_cell_volume   501.38214236
_cell_formula_units_Z   4
loop_
 _symmetry_equiv_pos_site_id
 _symmetry_equiv_pos_as_xyz
  1  'x, y, z'
loop_
 _atom_site_type_symbol
 _atom_site_label
 _atom_site_symmetry_multiplicity
 _atom_site_fract_x
 _atom_site_fract_y
 _atom_site_fract_z
 _atom_site_occupancy
  Sr  Sr0  1  0.507142  0.355817  0.806051  1
  Sr  Sr1  1  0.007142  0.644183  0.693949  1
  Sr  Sr2  1  0.492858  0.644183  0.193949  1
  Sr  Sr3  1  0.992858  0.355817  0.306051  1
  Te  Te4  1  0.778406  0.938685  0.975819  1
  Te  Te5  1  0.278406  0.061315  0.524181  1
  Te  Te6  1  0.221594  0.061315  0.024181  1
  Te  Te7  1  0.721594  0.938685  0.475819  1
  F  F8  1  0.666874  0.107002  0.640538  1
  F  F9  1  0.166874  0.892998  0.859462  1
  F  F10  1  0.333126  0.892998  0.359462  1
  F  F11  1  0.833126  0.107002  0.140538  1
  F  F12  1  0.813881  0.752575  0.670518  1
  F  F13  1  0.313881  0.247425  0.829482  1
  F  F14  1  0.186119  0.247425  0.329482  1
  F  F15  1  0.686119  0.752575  0.170518  1
  F  F16  1  0.464795  0.198521  0.092932  1
  F  F17  1  0.964795  0.801479  0.407068  1
  F  F18  1  0.535205  0.801479  0.907068  1
  F  F19  1  0.035205  0.198521  0.592932  1
  F  F20  1  0.401835  0.333919  0.452760  1
  F  F21  1  0.901835  0.666081  0.047240  1
  F  F22  1  0.598165  0.666081  0.547240  1
  F  F23  1  0.098165  0.333919  0.952760  1
  F  F24  1  0.884670  0.196916  0.843644  1
  F  F25  1  0.384670  0.803084  0.656356  1
  F  F26  1  0.115330  0.803084  0.156356  1
  F  F27  1  0.615330  0.196916  0.343644  1
  F  F28  1  0.689149  0.306418  0.934752  1
  F  F29  1  0.189149  0.693582  0.565248  1
  F  F30  1  0.310851  0.693582  0.065248  1
  F  F31  1  0.810851  0.306418  0.434752  1
