# generated using pymatgen
data_Tm6Mn2Fe15CoP12
_symmetry_space_group_name_H-M   'P 1'
_cell_length_a   3.70448100
_cell_length_b   10.43703800
_cell_length_c   12.19029700
_cell_angle_alpha   90.00000000
_cell_angle_beta   90.00000000
_cell_angle_gamma   90.00000000
_symmetry_Int_Tables_number   1
_chemical_formula_structural   Tm6Mn2Fe15CoP12
_chemical_formula_sum   'Tm6 Mn2 Fe15 Co1 P12'
_cell_volume   471.32331446
_cell_formula_units_Z   1
loop_
 _symmetry_equiv_pos_site_id
 _symmetry_equiv_pos_as_xyz
  1  'x, y, z'
loop_
 _atom_site_type_symbol
 _atom_site_label
 _atom_site_symmetry_multiplicity
 _atom_site_fract_x
 _atom_site_fract_y
 _atom_site_fract_z
 _atom_site_occupancy
  Tm  Tm0  1  0.000000  0.500000  0.525555  1
  Tm  Tm1  1  0.500000  0.000000  0.474321  1
  Tm  Tm2  1  0.500000  0.820143  0.207773  1
  Tm  Tm3  1  0.500000  0.179857  0.207773  1
  Tm  Tm4  1  0.000000  0.679492  0.792341  1
  Tm  Tm5  1  0.000000  0.320508  0.792341  1
  Mn  Mn6  1  0.500000  0.500000  0.151883  1
  Mn  Mn7  1  0.000000  0.000000  0.848326  1
  Fe  Fe8  1  0.500000  0.500000  0.698100  1
  Fe  Fe9  1  0.000000  0.500000  0.988483  1
  Fe  Fe10  1  0.500000  0.000000  0.012129  1
  Fe  Fe11  1  0.500000  0.325024  0.996714  1
  Fe  Fe12  1  0.500000  0.674976  0.996714  1
  Fe  Fe13  1  0.000000  0.174956  0.004074  1
  Fe  Fe14  1  0.000000  0.825044  0.004074  1
  Fe  Fe15  1  0.500000  0.298002  0.429876  1
  Fe  Fe16  1  0.500000  0.701998  0.429876  1
  Fe  Fe17  1  0.000000  0.199935  0.569561  1
  Fe  Fe18  1  0.000000  0.800065  0.569561  1
  Fe  Fe19  1  0.500000  0.881867  0.706793  1
  Fe  Fe20  1  0.500000  0.118133  0.706793  1
  Fe  Fe21  1  0.000000  0.618466  0.293335  1
  Fe  Fe22  1  0.000000  0.381534  0.293335  1
  Co  Co23  1  0.000000  0.000000  0.300483  1
  P  P24  1  0.500000  0.500000  0.882877  1
  P  P25  1  0.000000  0.000000  0.116552  1
  P  P26  1  0.500000  0.500000  0.342345  1
  P  P27  1  0.000000  0.000000  0.658115  1
  P  P28  1  0.500000  0.306849  0.613749  1
  P  P29  1  0.500000  0.693151  0.613749  1
  P  P30  1  0.000000  0.192473  0.385817  1
  P  P31  1  0.000000  0.807527  0.385817  1
  P  P32  1  0.500000  0.851483  0.886362  1
  P  P33  1  0.500000  0.148517  0.886362  1
  P  P34  1  0.000000  0.648656  0.114020  1
  P  P35  1  0.000000  0.351344  0.114020  1
