# generated using pymatgen
data_La2Gd3Pt4
_symmetry_space_group_name_H-M   'P 1'
_cell_length_a   7.70455600
_cell_length_b   7.77780000
_cell_length_c   15.11939400
_cell_angle_alpha   90.00000000
_cell_angle_beta   90.00000000
_cell_angle_gamma   90.00000000
_symmetry_Int_Tables_number   1
_chemical_formula_structural   La2Gd3Pt4
_chemical_formula_sum   'La8 Gd12 Pt16'
_cell_volume   906.02206009
_cell_formula_units_Z   4
loop_
 _symmetry_equiv_pos_site_id
 _symmetry_equiv_pos_as_xyz
  1  'x, y, z'
loop_
 _atom_site_type_symbol
 _atom_site_label
 _atom_site_symmetry_multiplicity
 _atom_site_fract_x
 _atom_site_fract_y
 _atom_site_fract_z
 _atom_site_occupancy
  La  La0  1  0.998201  0.820883  0.405647  1
  La  La1  1  0.498201  0.679117  0.094353  1
  La  La2  1  0.501799  0.320883  0.594353  1
  La  La3  1  0.001799  0.179117  0.905647  1
  La  La4  1  0.001799  0.179117  0.594353  1
  La  La5  1  0.501799  0.320883  0.905647  1
  La  La6  1  0.498201  0.679117  0.405647  1
  La  La7  1  0.998201  0.820883  0.094353  1
  Gd  Gd8  1  0.680942  0.990057  0.250000  1
  Gd  Gd9  1  0.180942  0.509943  0.250000  1
  Gd  Gd10  1  0.819058  0.490057  0.750000  1
  Gd  Gd11  1  0.319058  0.009943  0.750000  1
  Gd  Gd12  1  0.656523  0.833249  0.623842  1
  Gd  Gd13  1  0.156523  0.666751  0.876158  1
  Gd  Gd14  1  0.843477  0.333249  0.376158  1
  Gd  Gd15  1  0.343477  0.166751  0.123842  1
  Gd  Gd16  1  0.343477  0.166751  0.376158  1
  Gd  Gd17  1  0.843477  0.333249  0.123842  1
  Gd  Gd18  1  0.156523  0.666751  0.623842  1
  Gd  Gd19  1  0.656523  0.833249  0.876158  1
  Pt  Pt20  1  0.815174  0.638502  0.250000  1
  Pt  Pt21  1  0.315174  0.861498  0.250000  1
  Pt  Pt22  1  0.684826  0.138502  0.750000  1
  Pt  Pt23  1  0.184826  0.361498  0.750000  1
  Pt  Pt24  1  0.547146  0.379669  0.250000  1
  Pt  Pt25  1  0.047146  0.120331  0.250000  1
  Pt  Pt26  1  0.952854  0.879669  0.750000  1
  Pt  Pt27  1  0.452854  0.620331  0.750000  1
  Pt  Pt28  1  0.819115  0.534703  0.542873  1
  Pt  Pt29  1  0.319115  0.965297  0.957127  1
  Pt  Pt30  1  0.680885  0.034703  0.457127  1
  Pt  Pt31  1  0.180885  0.465297  0.042873  1
  Pt  Pt32  1  0.180885  0.465297  0.457127  1
  Pt  Pt33  1  0.680885  0.034703  0.042873  1
  Pt  Pt34  1  0.319115  0.965297  0.542873  1
  Pt  Pt35  1  0.819115  0.534703  0.957127  1
