# generated using pymatgen
data_Dy2Y6Cd2CoNi
_symmetry_space_group_name_H-M   'P 1'
_cell_length_a   9.55385869
_cell_length_b   9.55385871
_cell_length_c   9.56451600
_cell_angle_alpha   59.96309282
_cell_angle_beta   59.96309275
_cell_angle_gamma   59.91699259
_symmetry_Int_Tables_number   1
_chemical_formula_structural   Dy2Y6Cd2CoNi
_chemical_formula_sum   'Dy4 Y12 Cd4 Co2 Ni2'
_cell_volume   616.58115641
_cell_formula_units_Z   2
loop_
 _symmetry_equiv_pos_site_id
 _symmetry_equiv_pos_as_xyz
  1  'x, y, z'
loop_
 _atom_site_type_symbol
 _atom_site_label
 _atom_site_symmetry_multiplicity
 _atom_site_fract_x
 _atom_site_fract_y
 _atom_site_fract_z
 _atom_site_occupancy
  Dy  Dy0  1  0.596610  0.596610  0.599437  1
  Dy  Dy1  1  0.596610  0.596610  0.207344  1
  Dy  Dy2  1  0.595232  0.209200  0.597784  1
  Dy  Dy3  1  0.209200  0.595232  0.597784  1
  Y  Y4  1  0.064269  0.437993  0.439895  1
  Y  Y5  1  0.437993  0.064269  0.057843  1
  Y  Y6  1  0.437993  0.064269  0.439895  1
  Y  Y7  1  0.064269  0.437993  0.057843  1
  Y  Y8  1  0.438823  0.438823  0.061177  1
  Y  Y9  1  0.060944  0.060944  0.439056  1
  Y  Y10  1  0.187431  0.811124  0.814104  1
  Y  Y11  1  0.811124  0.187431  0.187341  1
  Y  Y12  1  0.811124  0.187431  0.814104  1
  Y  Y13  1  0.187431  0.811124  0.187341  1
  Y  Y14  1  0.812879  0.812879  0.187121  1
  Y  Y15  1  0.187927  0.187927  0.812073  1
  Cd  Cd16  1  0.829879  0.829879  0.830867  1
  Cd  Cd17  1  0.829879  0.829879  0.509373  1
  Cd  Cd18  1  0.830936  0.506505  0.831279  1
  Cd  Cd19  1  0.506505  0.830936  0.831279  1
  Co  Co20  1  0.393514  0.393514  0.391541  1
  Co  Co21  1  0.393514  0.393514  0.821433  1
  Ni  Ni22  1  0.393335  0.822578  0.392044  1
  Ni  Ni23  1  0.822578  0.393335  0.392044  1
