# generated using pymatgen
data_Gd4TmIr2Ru
_symmetry_space_group_name_H-M   'P 1'
_cell_length_a   11.01340900
_cell_length_b   11.01340900
_cell_length_c   6.28944400
_cell_angle_alpha   90.00000000
_cell_angle_beta   90.00000000
_cell_angle_gamma   90.00000000
_symmetry_Int_Tables_number   1
_chemical_formula_structural   Gd4TmIr2Ru
_chemical_formula_sum   'Gd16 Tm4 Ir8 Ru4'
_cell_volume   762.87922825
_cell_formula_units_Z   4
loop_
 _symmetry_equiv_pos_site_id
 _symmetry_equiv_pos_as_xyz
  1  'x, y, z'
loop_
 _atom_site_type_symbol
 _atom_site_label
 _atom_site_symmetry_multiplicity
 _atom_site_fract_x
 _atom_site_fract_y
 _atom_site_fract_z
 _atom_site_occupancy
  Gd  Gd0  1  0.292301  0.086093  0.376544  1
  Gd  Gd1  1  0.292301  0.913907  0.876544  1
  Gd  Gd2  1  0.707699  0.086093  0.876544  1
  Gd  Gd3  1  0.707699  0.913907  0.376544  1
  Gd  Gd4  1  0.586093  0.792301  0.876544  1
  Gd  Gd5  1  0.586093  0.207699  0.376544  1
  Gd  Gd6  1  0.413907  0.792301  0.376544  1
  Gd  Gd7  1  0.413907  0.207699  0.876544  1
  Gd  Gd8  1  0.207699  0.413907  0.623456  1
  Gd  Gd9  1  0.207699  0.586093  0.123456  1
  Gd  Gd10  1  0.792301  0.413907  0.123456  1
  Gd  Gd11  1  0.792301  0.586093  0.623456  1
  Gd  Gd12  1  0.913907  0.707699  0.123456  1
  Gd  Gd13  1  0.913907  0.292301  0.623456  1
  Gd  Gd14  1  0.086093  0.707699  0.623456  1
  Gd  Gd15  1  0.086093  0.292301  0.123456  1
  Tm  Tm16  1  0.000000  0.000000  0.500000  1
  Tm  Tm17  1  0.000000  0.000000  0.000000  1
  Tm  Tm18  1  0.500000  0.500000  0.000000  1
  Tm  Tm19  1  0.500000  0.500000  0.500000  1
  Ir  Ir20  1  0.849830  0.150170  0.250000  1
  Ir  Ir21  1  0.849830  0.849830  0.750000  1
  Ir  Ir22  1  0.150170  0.150170  0.750000  1
  Ir  Ir23  1  0.150170  0.849830  0.250000  1
  Ir  Ir24  1  0.650170  0.349830  0.750000  1
  Ir  Ir25  1  0.650170  0.650170  0.250000  1
  Ir  Ir26  1  0.349830  0.349830  0.250000  1
  Ir  Ir27  1  0.349830  0.650170  0.750000  1
  Ru  Ru28  1  0.500000  0.000000  0.122402  1
  Ru  Ru29  1  0.500000  0.000000  0.622402  1
  Ru  Ru30  1  0.000000  0.500000  0.877598  1
  Ru  Ru31  1  0.000000  0.500000  0.377598  1
