# generated using pymatgen
data_Er7Tm3(CoSb2)2
_symmetry_space_group_name_H-M   'P 1'
_cell_length_a   7.76797000
_cell_length_b   8.71406624
_cell_length_c   12.06132733
_cell_angle_alpha   90.02679718
_cell_angle_beta   90.00000000
_cell_angle_gamma   90.00000000
_symmetry_Int_Tables_number   1
_chemical_formula_structural   Er7Tm3(CoSb2)2
_chemical_formula_sum   'Er14 Tm6 Co4 Sb8'
_cell_volume   816.43845617
_cell_formula_units_Z   2
loop_
 _symmetry_equiv_pos_site_id
 _symmetry_equiv_pos_as_xyz
  1  'x, y, z'
loop_
 _atom_site_type_symbol
 _atom_site_label
 _atom_site_symmetry_multiplicity
 _atom_site_fract_x
 _atom_site_fract_y
 _atom_site_fract_z
 _atom_site_occupancy
  Er  Er0  1  0.157934  0.750131  0.204665  1
  Er  Er1  1  0.657934  0.249869  0.295335  1
  Er  Er2  1  0.842110  0.249937  0.795179  1
  Er  Er3  1  0.342110  0.750063  0.704821  1
  Er  Er4  1  0.450323  0.750075  0.998041  1
  Er  Er5  1  0.950323  0.249925  0.501959  1
  Er  Er6  1  0.549335  0.249866  0.001960  1
  Er  Er7  1  0.049335  0.750134  0.498040  1
  Er  Er8  1  0.622876  0.750077  0.308019  1
  Er  Er9  1  0.122876  0.249923  0.191981  1
  Er  Er10  1  0.377434  0.249875  0.691919  1
  Er  Er11  1  0.877434  0.750125  0.808081  1
  Er  Er12  1  0.823714  0.538016  0.065764  1
  Er  Er13  1  0.323714  0.461984  0.434236  1
  Tm  Tm14  1  0.824236  0.962057  0.065688  1
  Tm  Tm15  1  0.324236  0.037943  0.434312  1
  Tm  Tm16  1  0.175937  0.461991  0.934223  1
  Tm  Tm17  1  0.675937  0.538009  0.565777  1
  Tm  Tm18  1  0.175715  0.038001  0.934281  1
  Tm  Tm19  1  0.675715  0.961999  0.565719  1
  Co  Co20  1  0.430480  0.750155  0.490409  1
  Co  Co21  1  0.930480  0.249845  0.009591  1
  Co  Co22  1  0.570021  0.249779  0.509689  1
  Co  Co23  1  0.070021  0.750221  0.990311  1
  Sb  Sb24  1  0.931389  0.991500  0.327231  1
  Sb  Sb25  1  0.431389  0.008500  0.172769  1
  Sb  Sb26  1  0.068656  0.491499  0.672757  1
  Sb  Sb27  1  0.568656  0.508501  0.827243  1
  Sb  Sb28  1  0.068610  0.008490  0.672738  1
  Sb  Sb29  1  0.568610  0.991510  0.827262  1
  Sb  Sb30  1  0.931230  0.508542  0.327259  1
  Sb  Sb31  1  0.431230  0.491458  0.172741  1
