# generated using pymatgen
data_LiTb3Ag2Sn3
_symmetry_space_group_name_H-M   'P 1'
_cell_length_a   7.37163772
_cell_length_b   7.37164011
_cell_length_c   4.57254500
_cell_angle_alpha   90.00000000
_cell_angle_beta   90.00000000
_cell_angle_gamma   120.13749261
_symmetry_Int_Tables_number   1
_chemical_formula_structural   LiTb3Ag2Sn3
_chemical_formula_sum   'Li1 Tb3 Ag2 Sn3'
_cell_volume   214.88859101
_cell_formula_units_Z   1
loop_
 _symmetry_equiv_pos_site_id
 _symmetry_equiv_pos_as_xyz
  1  'x, y, z'
loop_
 _atom_site_type_symbol
 _atom_site_label
 _atom_site_symmetry_multiplicity
 _atom_site_fract_x
 _atom_site_fract_y
 _atom_site_fract_z
 _atom_site_occupancy
  Li  Li0  1  0.230964  0.230964  0.500000  1
  Tb  Tb1  1  0.997904  0.435577  0.000000  1
  Tb  Tb2  1  0.574289  0.574289  0.000000  1
  Tb  Tb3  1  0.435577  0.997904  0.000000  1
  Ag  Ag4  1  0.758432  0.001390  0.500000  1
  Ag  Ag5  1  0.001390  0.758432  0.500000  1
  Sn  Sn6  1  0.332581  0.658208  0.500000  1
  Sn  Sn7  1  0.010653  0.010653  0.000000  1
  Sn  Sn8  1  0.658208  0.332581  0.500000  1
