# generated using pymatgen
data_Ce2BiRh5
_symmetry_space_group_name_H-M   'P 1'
_cell_length_a   4.26544900
_cell_length_b   5.93651300
_cell_length_c   11.59334500
_cell_angle_alpha   90.00000000
_cell_angle_beta   90.00000000
_cell_angle_gamma   90.00000000
_symmetry_Int_Tables_number   1
_chemical_formula_structural   Ce2BiRh5
_chemical_formula_sum   'Ce4 Bi2 Rh10'
_cell_volume   293.56544670
_cell_formula_units_Z   2
loop_
 _symmetry_equiv_pos_site_id
 _symmetry_equiv_pos_as_xyz
  1  'x, y, z'
loop_
 _atom_site_type_symbol
 _atom_site_label
 _atom_site_symmetry_multiplicity
 _atom_site_fract_x
 _atom_site_fract_y
 _atom_site_fract_z
 _atom_site_occupancy
  Ce  Ce0  1  0.500000  0.175554  0.643742  1
  Ce  Ce1  1  0.500000  0.824446  0.356258  1
  Ce  Ce2  1  0.500000  0.675554  0.856258  1
  Ce  Ce3  1  0.500000  0.324446  0.143742  1
  Bi  Bi4  1  0.000000  0.500000  0.500000  1
  Bi  Bi5  1  0.000000  0.000000  0.000000  1
  Rh  Rh6  1  0.500000  0.207331  0.883190  1
  Rh  Rh7  1  0.500000  0.792669  0.116810  1
  Rh  Rh8  1  0.500000  0.707331  0.616810  1
  Rh  Rh9  1  0.500000  0.292669  0.383190  1
  Rh  Rh10  1  0.000000  0.436875  0.749499  1
  Rh  Rh11  1  0.000000  0.563125  0.250501  1
  Rh  Rh12  1  0.000000  0.000000  0.500000  1
  Rh  Rh13  1  0.000000  0.500000  0.000000  1
  Rh  Rh14  1  0.000000  0.063125  0.249499  1
  Rh  Rh15  1  0.000000  0.936875  0.750501  1
