# generated using pymatgen
data_LuIn3B4SbIr9
_symmetry_space_group_name_H-M   'P 1'
_cell_length_a   5.59727500
_cell_length_b   5.59727445
_cell_length_c   10.50862100
_cell_angle_alpha   90.00000000
_cell_angle_beta   90.00000000
_cell_angle_gamma   119.99999732
_symmetry_Int_Tables_number   1
_chemical_formula_structural   LuIn3B4SbIr9
_chemical_formula_sum   'Lu1 In3 B4 Sb1 Ir9'
_cell_volume   285.12127198
_cell_formula_units_Z   1
loop_
 _symmetry_equiv_pos_site_id
 _symmetry_equiv_pos_as_xyz
  1  'x, y, z'
loop_
 _atom_site_type_symbol
 _atom_site_label
 _atom_site_symmetry_multiplicity
 _atom_site_fract_x
 _atom_site_fract_y
 _atom_site_fract_z
 _atom_site_occupancy
  Lu  Lu0  1  0.000000  0.000000  0.919086  1
  In  In1  1  0.666667  0.333333  0.506164  1
  In  In2  1  0.000000  0.000000  0.327788  1
  In  In3  1  0.333333  0.666667  0.506164  1
  B  B4  1  0.666667  0.333333  0.154314  1
  B  B5  1  0.333333  0.666667  0.864635  1
  B  B6  1  0.666667  0.333333  0.864635  1
  B  B7  1  0.333333  0.666667  0.154314  1
  Sb  Sb8  1  0.000000  0.000000  0.630739  1
  Ir  Ir9  1  0.000000  0.500468  0.281890  1
  Ir  Ir10  1  0.447755  0.000000  0.732180  1
  Ir  Ir11  1  0.500468  0.000000  0.281890  1
  Ir  Ir12  1  0.000000  0.491727  0.009984  1
  Ir  Ir13  1  0.552245  0.552245  0.732180  1
  Ir  Ir14  1  0.000000  0.447755  0.732180  1
  Ir  Ir15  1  0.508273  0.508273  0.009984  1
  Ir  Ir16  1  0.491727  0.000000  0.009984  1
  Ir  Ir17  1  0.499532  0.499532  0.281890  1
