# generated using pymatgen
data_Li6La6TeMo(WO12)2
_symmetry_space_group_name_H-M   'P 1'
_cell_length_a   11.07079804
_cell_length_b   11.07628689
_cell_length_c   11.07628700
_cell_angle_alpha   109.49209511
_cell_angle_beta   109.47243920
_cell_angle_gamma   109.47243294
_symmetry_Int_Tables_number   1
_chemical_formula_structural   Li6La6TeMo(WO12)2
_chemical_formula_sum   'Li12 La12 Te2 Mo2 W4 O48'
_cell_volume   1045.25065014
_cell_formula_units_Z   2
loop_
 _symmetry_equiv_pos_site_id
 _symmetry_equiv_pos_as_xyz
  1  'x, y, z'
loop_
 _atom_site_type_symbol
 _atom_site_label
 _atom_site_symmetry_multiplicity
 _atom_site_fract_x
 _atom_site_fract_y
 _atom_site_fract_z
 _atom_site_occupancy
  Li  Li0  1  0.749607  0.375556  0.123688  1
  Li  Li1  1  0.874769  0.751518  0.126817  1
  Li  Li2  1  0.124983  0.374968  0.249898  1
  Li  Li3  1  0.625231  0.873183  0.248482  1
  Li  Li4  1  0.624983  0.249898  0.374968  1
  Li  Li5  1  0.249607  0.123688  0.375556  1
  Li  Li6  1  0.375017  0.750102  0.625032  1
  Li  Li7  1  0.750393  0.876311  0.624444  1
  Li  Li8  1  0.374769  0.126817  0.751518  1
  Li  Li9  1  0.875016  0.625032  0.750102  1
  Li  Li10  1  0.125230  0.248481  0.873182  1
  Li  Li11  1  0.250393  0.624444  0.876312  1
  La  La12  1  0.249999  0.875222  0.124776  1
  La  La13  1  0.373639  0.247696  0.125066  1
  La  La14  1  0.873638  0.125065  0.247695  1
  La  La15  1  0.374485  0.625446  0.250949  1
  La  La16  1  0.125515  0.749051  0.374554  1
  La  La17  1  0.750000  0.623766  0.376234  1
  La  La18  1  0.874485  0.250949  0.625446  1
  La  La19  1  0.250000  0.376234  0.623766  1
  La  La20  1  0.625515  0.374554  0.749051  1
  La  La21  1  0.126361  0.874934  0.752304  1
  La  La22  1  0.626361  0.752304  0.874933  1
  La  La23  1  0.750000  0.124777  0.875223  1
  Te  Te24  1  0.500000  0.500000  0.000000  1
  Te  Te25  1  0.000000  0.000000  0.500001  1
  Mo  Mo26  1  0.000000  0.000000  0.000000  1
  Mo  Mo27  1  0.500001  0.000000  0.000000  1
  W  W28  1  0.000000  0.500001  0.000000  1
  W  W29  1  0.500000  0.000000  0.500000  1
  W  W30  1  0.000000  0.500000  0.500000  1
  W  W31  1  0.500001  0.500001  0.500001  1
  O  O32  1  0.329390  0.407777  0.022179  1
  O  O33  1  0.192679  0.614692  0.022499  1
  O  O34  1  0.885551  0.907833  0.077629  1
  O  O35  1  0.692073  0.170807  0.078226  1
  O  O36  1  0.614449  0.922371  0.092167  1
  O  O37  1  0.977909  0.170479  0.091716  1
  O  O38  1  0.021415  0.692422  0.114158  1
  O  O39  1  0.591659  0.421182  0.114120  1
  O  O40  1  0.192073  0.078225  0.170807  1
  O  O41  1  0.477908  0.091716  0.170479  1
  O  O42  1  0.113792  0.521392  0.192456  1
  O  O43  1  0.577872  0.669746  0.192729  1
  O  O44  1  0.329079  0.421163  0.307229  1
  O  O45  1  0.478586  0.885842  0.307578  1
  O  O46  1  0.922128  0.807271  0.330254  1
  O  O47  1  0.907565  0.521511  0.329076  1
  O  O48  1  0.578554  0.407442  0.386166  1
  O  O49  1  0.307321  0.977502  0.385307  1
  O  O50  1  0.829389  0.022179  0.407777  1
  O  O51  1  0.078554  0.386166  0.407442  1
  O  O52  1  0.091659  0.114119  0.421181  1
  O  O53  1  0.829080  0.307229  0.421164  1
  O  O54  1  0.592435  0.670924  0.478488  1
  O  O55  1  0.386207  0.807544  0.478607  1
  O  O56  1  0.613793  0.192456  0.521392  1
  O  O57  1  0.407565  0.329075  0.521511  1
  O  O58  1  0.170921  0.692771  0.578836  1
  O  O59  1  0.908341  0.885880  0.578818  1
  O  O60  1  0.170611  0.977822  0.592223  1
  O  O61  1  0.921446  0.613834  0.592558  1
  O  O62  1  0.421445  0.592558  0.613833  1
  O  O63  1  0.692679  0.022499  0.614693  1
  O  O64  1  0.077873  0.192729  0.669745  1
  O  O65  1  0.092436  0.478489  0.670925  1
  O  O66  1  0.670920  0.578836  0.692771  1
  O  O67  1  0.521414  0.114159  0.692422  1
  O  O68  1  0.886207  0.478607  0.807543  1
  O  O69  1  0.422128  0.330255  0.807271  1
  O  O70  1  0.522091  0.908284  0.829521  1
  O  O71  1  0.807927  0.921775  0.829194  1
  O  O72  1  0.978585  0.307578  0.885841  1
  O  O73  1  0.408341  0.578818  0.885881  1
  O  O74  1  0.385551  0.077630  0.907833  1
  O  O75  1  0.022092  0.829522  0.908284  1
  O  O76  1  0.114448  0.092167  0.922371  1
  O  O77  1  0.307927  0.829194  0.921775  1
  O  O78  1  0.807321  0.385307  0.977502  1
  O  O79  1  0.670611  0.592223  0.977822  1
