# generated using pymatgen
data_Tm4ScCo(P2Ru3)6
_symmetry_space_group_name_H-M   'P 1'
_cell_length_a   12.41048453
_cell_length_b   12.41048447
_cell_length_c   3.94695300
_cell_angle_alpha   90.00000000
_cell_angle_beta   90.00000000
_cell_angle_gamma   119.78654267
_symmetry_Int_Tables_number   1
_chemical_formula_structural   Tm4ScCo(P2Ru3)6
_chemical_formula_sum   'Tm4 Sc1 Co1 P12 Ru18'
_cell_volume   527.59441208
_cell_formula_units_Z   1
loop_
 _symmetry_equiv_pos_site_id
 _symmetry_equiv_pos_as_xyz
  1  'x, y, z'
loop_
 _atom_site_type_symbol
 _atom_site_label
 _atom_site_symmetry_multiplicity
 _atom_site_fract_x
 _atom_site_fract_y
 _atom_site_fract_z
 _atom_site_occupancy
  Tm  Tm0  1  0.666044  0.332848  0.000000  1
  Tm  Tm1  1  0.332848  0.666044  0.000000  1
  Tm  Tm2  1  0.818243  0.000171  0.500000  1
  Tm  Tm3  1  0.000171  0.818243  0.500000  1
  Sc  Sc4  1  0.182838  0.182838  0.500000  1
  Co  Co5  1  0.000753  0.000753  0.000000  1
  P  P6  1  0.372498  0.372498  0.000000  1
  P  P7  1  0.627661  0.000397  0.000000  1
  P  P8  1  0.000397  0.627661  0.000000  1
  P  P9  1  0.831084  0.306322  0.500000  1
  P  P10  1  0.692743  0.523126  0.500000  1
  P  P11  1  0.475568  0.169231  0.500000  1
  P  P12  1  0.306322  0.831084  0.500000  1
  P  P13  1  0.523126  0.692743  0.500000  1
  P  P14  1  0.169231  0.475568  0.500000  1
  P  P15  1  0.824616  0.824616  0.000000  1
  P  P16  1  0.175681  0.001837  0.000000  1
  P  P17  1  0.001837  0.175681  0.000000  1
  Ru  Ru18  1  0.816547  0.190053  0.000000  1
  Ru  Ru19  1  0.810141  0.625675  0.000000  1
  Ru  Ru20  1  0.371332  0.184695  0.000000  1
  Ru  Ru21  1  0.190053  0.816547  0.000000  1
  Ru  Ru22  1  0.625675  0.810141  0.000000  1
  Ru  Ru23  1  0.184695  0.371332  0.000000  1
  Ru  Ru24  1  0.556238  0.556238  0.000000  1
  Ru  Ru25  1  0.443524  0.001271  0.000000  1
  Ru  Ru26  1  0.001271  0.443524  0.000000  1
  Ru  Ru27  1  0.634917  0.126771  0.500000  1
  Ru  Ru28  1  0.873347  0.507539  0.500000  1
  Ru  Ru29  1  0.491381  0.364716  0.500000  1
  Ru  Ru30  1  0.126771  0.634917  0.500000  1
  Ru  Ru31  1  0.507539  0.873347  0.500000  1
  Ru  Ru32  1  0.364716  0.491381  0.500000  1
  Ru  Ru33  1  0.721925  0.721925  0.500000  1
  Ru  Ru34  1  0.276841  0.001423  0.500000  1
  Ru  Ru35  1  0.001423  0.276841  0.500000  1
