# generated using pymatgen
data_Mn24TcW4
_symmetry_space_group_name_H-M   'P 1'
_cell_length_a   7.59860220
_cell_length_b   7.59860257
_cell_length_c   7.59860300
_cell_angle_alpha   109.47121646
_cell_angle_beta   109.47121743
_cell_angle_gamma   109.47122663
_symmetry_Int_Tables_number   1
_chemical_formula_structural   Mn24TcW4
_chemical_formula_sum   'Mn24 Tc1 W4'
_cell_volume   337.73752043
_cell_formula_units_Z   1
loop_
 _symmetry_equiv_pos_site_id
 _symmetry_equiv_pos_as_xyz
  1  'x, y, z'
loop_
 _atom_site_type_symbol
 _atom_site_label
 _atom_site_symmetry_multiplicity
 _atom_site_fract_x
 _atom_site_fract_y
 _atom_site_fract_z
 _atom_site_occupancy
  Mn  Mn0  1  0.388773  0.675397  0.000000  1
  Mn  Mn1  1  0.713375  0.324603  0.324603  1
  Mn  Mn2  1  0.388773  0.000000  0.675397  1
  Mn  Mn3  1  0.675397  0.388773  0.000000  1
  Mn  Mn4  1  0.000000  0.388773  0.675397  1
  Mn  Mn5  1  0.324603  0.713375  0.324603  1
  Mn  Mn6  1  0.324603  0.324603  0.713375  1
  Mn  Mn7  1  0.000000  0.675397  0.388773  1
  Mn  Mn8  1  0.675397  0.000000  0.388773  1
  Mn  Mn9  1  0.611227  0.611227  0.286625  1
  Mn  Mn10  1  0.286625  0.611227  0.611227  1
  Mn  Mn11  1  0.611227  0.286625  0.611227  1
  Mn  Mn12  1  0.377525  0.195920  0.000000  1
  Mn  Mn13  1  0.181606  0.804080  0.804080  1
  Mn  Mn14  1  0.377525  0.000000  0.195920  1
  Mn  Mn15  1  0.195920  0.377525  0.000000  1
  Mn  Mn16  1  0.000000  0.377525  0.195920  1
  Mn  Mn17  1  0.804080  0.181606  0.804080  1
  Mn  Mn18  1  0.804080  0.804080  0.181606  1
  Mn  Mn19  1  0.000000  0.195920  0.377525  1
  Mn  Mn20  1  0.195920  0.000000  0.377525  1
  Mn  Mn21  1  0.622475  0.622475  0.818394  1
  Mn  Mn22  1  0.818394  0.622475  0.622475  1
  Mn  Mn23  1  0.622475  0.818394  0.622475  1
  Tc  Tc24  1  0.000000  0.000000  0.000000  1
  W  W25  1  0.635949  0.000000  0.000000  1
  W  W26  1  0.000000  0.635949  0.000000  1
  W  W27  1  0.000000  0.000000  0.635949  1
  W  W28  1  0.364051  0.364051  0.364051  1
