# generated using pymatgen
data_KCa(SmB12)2
_symmetry_space_group_name_H-M   'P 1'
_cell_length_a   7.18189863
_cell_length_b   7.18189941
_cell_length_c   5.87279700
_cell_angle_alpha   90.00000000
_cell_angle_beta   90.00000000
_cell_angle_gamma   109.36969384
_symmetry_Int_Tables_number   1
_chemical_formula_structural   KCa(SmB12)2
_chemical_formula_sum   'K1 Ca1 Sm2 B24'
_cell_volume   285.77131327
_cell_formula_units_Z   1
loop_
 _symmetry_equiv_pos_site_id
 _symmetry_equiv_pos_as_xyz
  1  'x, y, z'
loop_
 _atom_site_type_symbol
 _atom_site_label
 _atom_site_symmetry_multiplicity
 _atom_site_fract_x
 _atom_site_fract_y
 _atom_site_fract_z
 _atom_site_occupancy
  K  K0  1  0.751149  0.248851  0.500000  1
  Ca  Ca1  1  0.996995  0.003005  0.000000  1
  Sm  Sm2  1  0.502510  0.497490  0.000000  1
  Sm  Sm3  1  0.249956  0.750044  0.500000  1
  B  B4  1  0.176410  0.326297  0.648972  1
  B  B5  1  0.926951  0.576202  0.149694  1
  B  B6  1  0.673703  0.823590  0.648972  1
  B  B7  1  0.423798  0.073049  0.149694  1
  B  B8  1  0.176410  0.326297  0.351028  1
  B  B9  1  0.926951  0.576202  0.850306  1
  B  B10  1  0.673703  0.823590  0.351028  1
  B  B11  1  0.423798  0.073049  0.850306  1
  B  B12  1  0.401101  0.398124  0.500000  1
  B  B13  1  0.149717  0.651284  0.000000  1
  B  B14  1  0.898262  0.900608  0.500000  1
  B  B15  1  0.648783  0.148018  0.000000  1
  B  B16  1  0.324150  0.174461  0.649098  1
  B  B17  1  0.076903  0.427674  0.149533  1
  B  B18  1  0.825539  0.675850  0.649098  1
  B  B19  1  0.572326  0.923097  0.149533  1
  B  B20  1  0.099392  0.101738  0.500000  1
  B  B21  1  0.851982  0.351217  0.000000  1
  B  B22  1  0.601876  0.598899  0.500000  1
  B  B23  1  0.348716  0.850283  0.000000  1
  B  B24  1  0.324150  0.174461  0.350902  1
  B  B25  1  0.076903  0.427674  0.850467  1
  B  B26  1  0.825539  0.675850  0.350902  1
  B  B27  1  0.572326  0.923097  0.850467  1
