# generated using pymatgen
data_Tb3Y3(Ga2Si)4
_symmetry_space_group_name_H-M   'P 1'
_cell_length_a   4.08709354
_cell_length_b   4.19046777
_cell_length_c   21.66930034
_cell_angle_alpha   84.45134362
_cell_angle_beta   84.58862340
_cell_angle_gamma   90.00000712
_symmetry_Int_Tables_number   1
_chemical_formula_structural   Tb3Y3(Ga2Si)4
_chemical_formula_sum   'Tb3 Y3 Ga8 Si4'
_cell_volume   367.72573408
_cell_formula_units_Z   1
loop_
 _symmetry_equiv_pos_site_id
 _symmetry_equiv_pos_as_xyz
  1  'x, y, z'
loop_
 _atom_site_type_symbol
 _atom_site_label
 _atom_site_symmetry_multiplicity
 _atom_site_fract_x
 _atom_site_fract_y
 _atom_site_fract_z
 _atom_site_occupancy
  Tb  Tb0  1  0.377501  0.627501  0.244999  1
  Tb  Tb1  1  0.709751  0.959751  0.580498  1
  Tb  Tb2  1  0.041418  0.291418  0.917163  1
  Y  Y3  1  0.957911  0.707911  0.084179  1
  Y  Y4  1  0.290240  0.040240  0.419522  1
  Y  Y5  1  0.623012  0.373012  0.753976  1
  Ga  Ga6  1  0.820160  0.570160  0.359680  1
  Ga  Ga7  1  0.152679  0.902679  0.694644  1
  Ga  Ga8  1  0.431661  0.181661  0.136678  1
  Ga  Ga9  1  0.764370  0.514370  0.471260  1
  Ga  Ga10  1  0.096970  0.846970  0.806061  1
  Ga  Ga11  1  0.847854  0.097854  0.304292  1
  Ga  Ga12  1  0.180360  0.430360  0.639280  1
  Ga  Ga13  1  0.513084  0.763084  0.973830  1
  Si  Si14  1  0.902703  0.152703  0.194593  1
  Si  Si15  1  0.235382  0.485382  0.529235  1
  Si  Si16  1  0.568274  0.818274  0.863449  1
  Si  Si17  1  0.486670  0.236670  0.026660  1
