# generated using pymatgen
data_Nd5Th3Zn8IrRh7
_symmetry_space_group_name_H-M   'P 1'
_cell_length_a   3.95915000
_cell_length_b   7.51846979
_cell_length_c   16.58851112
_cell_angle_alpha   90.16482226
_cell_angle_beta   90.00000000
_cell_angle_gamma   90.00000000
_symmetry_Int_Tables_number   1
_chemical_formula_structural   Nd5Th3Zn8IrRh7
_chemical_formula_sum   'Nd5 Th3 Zn8 Ir1 Rh7'
_cell_volume   493.78401504
_cell_formula_units_Z   1
loop_
 _symmetry_equiv_pos_site_id
 _symmetry_equiv_pos_as_xyz
  1  'x, y, z'
loop_
 _atom_site_type_symbol
 _atom_site_label
 _atom_site_symmetry_multiplicity
 _atom_site_fract_x
 _atom_site_fract_y
 _atom_site_fract_z
 _atom_site_occupancy
  Nd  Nd0  1  0.750000  0.945621  0.284350  1
  Nd  Nd1  1  0.750000  0.829287  0.061419  1
  Nd  Nd2  1  0.750000  0.448728  0.214625  1
  Nd  Nd3  1  0.250000  0.053940  0.715274  1
  Nd  Nd4  1  0.250000  0.551749  0.785653  1
  Th  Th5  1  0.250000  0.171883  0.940373  1
  Th  Th6  1  0.250000  0.673656  0.561386  1
  Th  Th7  1  0.750000  0.325949  0.438332  1
  Zn  Zn8  1  0.750000  0.007418  0.561122  1
  Zn  Zn9  1  0.250000  0.619123  0.346088  1
  Zn  Zn10  1  0.750000  0.380080  0.654462  1
  Zn  Zn11  1  0.250000  0.502772  0.059806  1
  Zn  Zn12  1  0.750000  0.509767  0.940135  1
  Zn  Zn13  1  0.250000  0.992115  0.438464  1
  Zn  Zn14  1  0.250000  0.118135  0.152222  1
  Zn  Zn15  1  0.750000  0.879567  0.846243  1
  Ir  Ir16  1  0.250000  0.248048  0.319306  1
  Rh  Rh17  1  0.750000  0.740861  0.441731  1
  Rh  Rh18  1  0.750000  0.247133  0.821002  1
  Rh  Rh19  1  0.750000  0.748994  0.679060  1
  Rh  Rh20  1  0.250000  0.258080  0.559802  1
  Rh  Rh21  1  0.250000  0.745638  0.186341  1
  Rh  Rh22  1  0.750000  0.247883  0.058786  1
  Rh  Rh23  1  0.250000  0.753575  0.934018  1
