# generated using pymatgen
data_Ca3Sc2Si12Ir19
_symmetry_space_group_name_H-M   'P 1'
_cell_length_a   12.78605300
_cell_length_b   12.80452246
_cell_length_c   3.97582600
_cell_angle_alpha   90.00000000
_cell_angle_beta   90.00000000
_cell_angle_gamma   119.95229926
_symmetry_Int_Tables_number   1
_chemical_formula_structural   Ca3Sc2Si12Ir19
_chemical_formula_sum   'Ca3 Sc2 Si12 Ir19'
_cell_volume   563.98355029
_cell_formula_units_Z   1
loop_
 _symmetry_equiv_pos_site_id
 _symmetry_equiv_pos_as_xyz
  1  'x, y, z'
loop_
 _atom_site_type_symbol
 _atom_site_label
 _atom_site_symmetry_multiplicity
 _atom_site_fract_x
 _atom_site_fract_y
 _atom_site_fract_z
 _atom_site_occupancy
  Ca  Ca0  1  0.332792  0.666530  0.000000  1
  Ca  Ca1  1  0.666263  0.333470  0.000000  1
  Ca  Ca2  1  0.816425  0.000000  0.500000  1
  Sc  Sc3  1  0.999865  0.818244  0.500000  1
  Sc  Sc4  1  0.181621  0.181756  0.500000  1
  Si  Si5  1  0.179861  0.000000  0.000000  1
  Si  Si6  1  0.002283  0.181143  0.000000  1
  Si  Si7  1  0.821140  0.818857  0.000000  1
  Si  Si8  1  0.166448  0.480232  0.500000  1
  Si  Si9  1  0.521359  0.686912  0.500000  1
  Si  Si10  1  0.312545  0.834170  0.500000  1
  Si  Si11  1  0.686215  0.519768  0.500000  1
  Si  Si12  1  0.834446  0.313088  0.500000  1
  Si  Si13  1  0.478374  0.165830  0.500000  1
  Si  Si14  1  0.630076  0.000000  0.000000  1
  Si  Si15  1  0.000231  0.632260  0.000000  1
  Si  Si16  1  0.367971  0.367740  0.000000  1
  Ir  Ir17  1  0.445012  0.000000  0.000000  1
  Ir  Ir18  1  0.003324  0.448529  0.000000  1
  Ir  Ir19  1  0.554794  0.551471  0.000000  1
  Ir  Ir20  1  0.360344  0.486537  0.500000  1
  Ir  Ir21  1  0.512965  0.873696  0.500000  1
  Ir  Ir22  1  0.126307  0.641132  0.500000  1
  Ir  Ir23  1  0.873807  0.513463  0.500000  1
  Ir  Ir24  1  0.639269  0.126304  0.500000  1
  Ir  Ir25  1  0.485175  0.358868  0.500000  1
  Ir  Ir26  1  0.183969  0.374028  0.000000  1
  Ir  Ir27  1  0.622886  0.805595  0.000000  1
  Ir  Ir28  1  0.189916  0.817729  0.000000  1
  Ir  Ir29  1  0.809941  0.625972  0.000000  1
  Ir  Ir30  1  0.817291  0.194405  0.000000  1
  Ir  Ir31  1  0.372187  0.182271  0.000000  1
  Ir  Ir32  1  0.278753  0.000000  0.500000  1
  Ir  Ir33  1  0.002457  0.281453  0.500000  1
  Ir  Ir34  1  0.721005  0.718547  0.500000  1
  Ir  Ir35  1  0.002682  0.000000  0.000000  1
