# generated using pymatgen
data_NdLu2(P2Ir3)3
_symmetry_space_group_name_H-M   'P 1'
_cell_length_a   3.96375600
_cell_length_b   11.14779200
_cell_length_c   12.90792200
_cell_angle_alpha   90.00000000
_cell_angle_beta   90.00000000
_cell_angle_gamma   90.00000000
_symmetry_Int_Tables_number   1
_chemical_formula_structural   NdLu2(P2Ir3)3
_chemical_formula_sum   'Nd2 Lu4 P12 Ir18'
_cell_volume   570.36399423
_cell_formula_units_Z   2
loop_
 _symmetry_equiv_pos_site_id
 _symmetry_equiv_pos_as_xyz
  1  'x, y, z'
loop_
 _atom_site_type_symbol
 _atom_site_label
 _atom_site_symmetry_multiplicity
 _atom_site_fract_x
 _atom_site_fract_y
 _atom_site_fract_z
 _atom_site_occupancy
  Nd  Nd0  1  0.000000  0.500000  0.522970  1
  Nd  Nd1  1  0.500000  0.000000  0.477030  1
  Lu  Lu2  1  0.500000  0.814174  0.203916  1
  Lu  Lu3  1  0.500000  0.185826  0.203916  1
  Lu  Lu4  1  0.000000  0.685826  0.796084  1
  Lu  Lu5  1  0.000000  0.314174  0.796084  1
  P  P6  1  0.500000  0.500000  0.874981  1
  P  P7  1  0.000000  0.000000  0.125019  1
  P  P8  1  0.500000  0.500000  0.357759  1
  P  P9  1  0.000000  0.000000  0.642241  1
  P  P10  1  0.500000  0.314381  0.618738  1
  P  P11  1  0.500000  0.685619  0.618738  1
  P  P12  1  0.000000  0.185619  0.381262  1
  P  P13  1  0.000000  0.814381  0.381262  1
  P  P14  1  0.500000  0.846186  0.893443  1
  P  P15  1  0.500000  0.153814  0.893443  1
  P  P16  1  0.000000  0.653814  0.106557  1
  P  P17  1  0.000000  0.346186  0.106557  1
  Ir  Ir18  1  0.500000  0.500000  0.182123  1
  Ir  Ir19  1  0.000000  0.000000  0.817877  1
  Ir  Ir20  1  0.500000  0.500000  0.702569  1
  Ir  Ir21  1  0.000000  0.000000  0.297431  1
  Ir  Ir22  1  0.000000  0.500000  0.966092  1
  Ir  Ir23  1  0.500000  0.000000  0.033908  1
  Ir  Ir24  1  0.500000  0.336818  0.005461  1
  Ir  Ir25  1  0.500000  0.663182  0.005461  1
  Ir  Ir26  1  0.000000  0.163182  0.994539  1
  Ir  Ir27  1  0.000000  0.836818  0.994539  1
  Ir  Ir28  1  0.500000  0.291904  0.428575  1
  Ir  Ir29  1  0.500000  0.708096  0.428575  1
  Ir  Ir30  1  0.000000  0.208096  0.571425  1
  Ir  Ir31  1  0.000000  0.791904  0.571425  1
  Ir  Ir32  1  0.500000  0.867466  0.715411  1
  Ir  Ir33  1  0.500000  0.132534  0.715411  1
  Ir  Ir34  1  0.000000  0.632534  0.284589  1
  Ir  Ir35  1  0.000000  0.367466  0.284589  1
