# generated using pymatgen
data_Zr2ZnCo7(NiB3)2
_symmetry_space_group_name_H-M   'P 1'
_cell_length_a   5.70195151
_cell_length_b   5.70553885
_cell_length_c   5.70553755
_cell_angle_alpha   95.88449215
_cell_angle_beta   95.57715843
_cell_angle_gamma   95.57716388
_symmetry_Int_Tables_number   1
_chemical_formula_structural   Zr2ZnCo7(NiB3)2
_chemical_formula_sum   'Zr2 Zn1 Co7 Ni2 B6'
_cell_volume   182.68499541
_cell_formula_units_Z   1
loop_
 _symmetry_equiv_pos_site_id
 _symmetry_equiv_pos_as_xyz
  1  'x, y, z'
loop_
 _atom_site_type_symbol
 _atom_site_label
 _atom_site_symmetry_multiplicity
 _atom_site_fract_x
 _atom_site_fract_y
 _atom_site_fract_z
 _atom_site_occupancy
  Zr  Zr0  1  0.674982  0.678923  0.678923  1
  Zr  Zr1  1  0.325018  0.321077  0.321077  1
  Zn  Zn2  1  0.000000  0.000000  0.000000  1
  Co  Co3  1  0.500000  0.000000  0.000000  1
  Co  Co4  1  0.704303  0.202848  0.703467  1
  Co  Co5  1  0.704303  0.703467  0.202848  1
  Co  Co6  1  0.199700  0.704755  0.704755  1
  Co  Co7  1  0.295697  0.797152  0.296533  1
  Co  Co8  1  0.295697  0.296533  0.797152  1
  Co  Co9  1  0.800300  0.295245  0.295245  1
  Ni  Ni10  1  0.000000  0.000000  0.500000  1
  Ni  Ni11  1  0.000000  0.500000  0.000000  1
  B  B12  1  0.612406  0.383455  0.000598  1
  B  B13  1  0.000000  0.612090  0.387910  1
  B  B14  1  0.387594  0.999402  0.616545  1
  B  B15  1  0.000000  0.387910  0.612090  1
  B  B16  1  0.612406  0.000598  0.383455  1
  B  B17  1  0.387594  0.616545  0.999402  1
