# generated using pymatgen
data_YbLu2Co9(SiB2)2
_symmetry_space_group_name_H-M   'P 1'
_cell_length_a   5.08720818
_cell_length_b   5.08522058
_cell_length_c   9.31720500
_cell_angle_alpha   89.99982565
_cell_angle_beta   90.00018027
_cell_angle_gamma   119.97683301
_symmetry_Int_Tables_number   1
_chemical_formula_structural   YbLu2Co9(SiB2)2
_chemical_formula_sum   'Yb1 Lu2 Co9 Si2 B4'
_cell_volume   208.78866880
_cell_formula_units_Z   1
loop_
 _symmetry_equiv_pos_site_id
 _symmetry_equiv_pos_as_xyz
  1  'x, y, z'
loop_
 _atom_site_type_symbol
 _atom_site_label
 _atom_site_symmetry_multiplicity
 _atom_site_fract_x
 _atom_site_fract_y
 _atom_site_fract_z
 _atom_site_occupancy
  Yb  Yb0  1  0.999987  0.000001  0.999962  1
  Lu  Lu1  1  0.999992  0.000007  0.336134  1
  Lu  Lu2  1  0.000002  0.999998  0.663850  1
  Co  Co3  1  0.499996  0.999999  0.499986  1
  Co  Co4  1  0.499997  0.500000  0.499988  1
  Co  Co5  1  0.999999  0.499999  0.499988  1
  Co  Co6  1  0.499992  0.000003  0.197856  1
  Co  Co7  1  0.499991  0.499997  0.197812  1
  Co  Co8  1  0.999988  0.499998  0.197845  1
  Co  Co9  1  0.499998  0.000000  0.802164  1
  Co  Co10  1  0.499997  0.500000  0.802205  1
  Co  Co11  1  0.999996  0.499999  0.802169  1
  Si  Si12  1  0.333393  0.666686  0.000006  1
  Si  Si13  1  0.666588  0.333314  0.000006  1
  B  B14  1  0.333361  0.666647  0.346124  1
  B  B15  1  0.666627  0.333352  0.346123  1
  B  B16  1  0.666625  0.333345  0.653892  1
  B  B17  1  0.333371  0.666655  0.653891  1
