# generated using pymatgen
data_Sc7Co4Sn23Ir2
_symmetry_space_group_name_H-M   'P 1'
_cell_length_a   9.58935060
_cell_length_b   9.58935048
_cell_length_c   9.84211993
_cell_angle_alpha   90.28210647
_cell_angle_beta   89.71789400
_cell_angle_gamma   120.15455060
_symmetry_Int_Tables_number   1
_chemical_formula_structural   Sc7Co4Sn23Ir2
_chemical_formula_sum   'Sc7 Co4 Sn23 Ir2'
_cell_volume   782.55019875
_cell_formula_units_Z   1
loop_
 _symmetry_equiv_pos_site_id
 _symmetry_equiv_pos_as_xyz
  1  'x, y, z'
loop_
 _atom_site_type_symbol
 _atom_site_label
 _atom_site_symmetry_multiplicity
 _atom_site_fract_x
 _atom_site_fract_y
 _atom_site_fract_z
 _atom_site_occupancy
  Sc  Sc0  1  0.482412  0.517588  0.308024  1
  Sc  Sc1  1  0.517588  0.482412  0.691976  1
  Sc  Sc2  1  0.482889  0.964916  0.307534  1
  Sc  Sc3  1  0.517111  0.035084  0.692466  1
  Sc  Sc4  1  0.035084  0.517111  0.307534  1
  Sc  Sc5  1  0.964916  0.482889  0.692466  1
  Sc  Sc6  1  0.000000  0.000000  0.000000  1
  Co  Co7  1  0.828976  0.661056  0.199913  1
  Co  Co8  1  0.171024  0.338944  0.800087  1
  Co  Co9  1  0.338944  0.171024  0.199913  1
  Co  Co10  1  0.661056  0.828976  0.800087  1
  Sn  Sn11  1  0.120110  0.879890  0.273074  1
  Sn  Sn12  1  0.879890  0.120110  0.726926  1
  Sn  Sn13  1  0.127810  0.243581  0.279194  1
  Sn  Sn14  1  0.872190  0.756419  0.720806  1
  Sn  Sn15  1  0.756419  0.872190  0.279194  1
  Sn  Sn16  1  0.243581  0.127810  0.720806  1
  Sn  Sn17  1  0.777270  0.222730  0.461539  1
  Sn  Sn18  1  0.222730  0.777270  0.538461  1
  Sn  Sn19  1  0.779405  0.558164  0.453174  1
  Sn  Sn20  1  0.220595  0.441836  0.546826  1
  Sn  Sn21  1  0.441836  0.220595  0.453174  1
  Sn  Sn22  1  0.558164  0.779405  0.546826  1
  Sn  Sn23  1  0.351985  0.005389  0.006341  1
  Sn  Sn24  1  0.648015  0.994611  0.993659  1
  Sn  Sn25  1  0.005389  0.351985  0.993659  1
  Sn  Sn26  1  0.994611  0.648015  0.006341  1
  Sn  Sn27  1  0.654161  0.654161  0.000000  1
  Sn  Sn28  1  0.345839  0.345839  0.000000  1
  Sn  Sn29  1  0.333720  0.666280  0.136979  1
  Sn  Sn30  1  0.666280  0.333720  0.863021  1
  Sn  Sn31  1  0.336691  0.663309  0.823264  1
  Sn  Sn32  1  0.663309  0.336691  0.176736  1
  Sn  Sn33  1  0.000000  0.000000  0.500000  1
  Ir  Ir34  1  0.830658  0.169342  0.198709  1
  Ir  Ir35  1  0.169342  0.830658  0.801291  1
