# generated using pymatgen
data_Tb2Dy9TmRu4
_symmetry_space_group_name_H-M   'P 1'
_cell_length_a   6.31450179
_cell_length_b   7.30291475
_cell_length_c   9.18147500
_cell_angle_alpha   89.98398158
_cell_angle_beta   90.15342297
_cell_angle_gamma   89.94386253
_symmetry_Int_Tables_number   1
_chemical_formula_structural   Tb2Dy9TmRu4
_chemical_formula_sum   'Tb2 Dy9 Tm1 Ru4'
_cell_volume   423.39526274
_cell_formula_units_Z   1
loop_
 _symmetry_equiv_pos_site_id
 _symmetry_equiv_pos_as_xyz
  1  'x, y, z'
loop_
 _atom_site_type_symbol
 _atom_site_label
 _atom_site_symmetry_multiplicity
 _atom_site_fract_x
 _atom_site_fract_y
 _atom_site_fract_z
 _atom_site_occupancy
  Tb  Tb0  1  0.633568  0.040515  0.250427  1
  Tb  Tb1  1  0.367190  0.960077  0.749632  1
  Dy  Dy2  1  0.132844  0.459326  0.749367  1
  Dy  Dy3  1  0.866265  0.539808  0.250564  1
  Dy  Dy4  1  0.169781  0.176851  0.064496  1
  Dy  Dy5  1  0.830199  0.823486  0.935363  1
  Dy  Dy6  1  0.669558  0.323262  0.934662  1
  Dy  Dy7  1  0.829904  0.823238  0.564454  1
  Dy  Dy8  1  0.330498  0.676532  0.064500  1
  Dy  Dy9  1  0.169707  0.176989  0.435921  1
  Dy  Dy10  1  0.330868  0.675892  0.435953  1
  Tm  Tm11  1  0.669413  0.324111  0.565054  1
  Ru  Ru12  1  0.461703  0.385216  0.250994  1
  Ru  Ru13  1  0.539194  0.613921  0.749408  1
  Ru  Ru14  1  0.960139  0.115367  0.749392  1
  Ru  Ru15  1  0.039171  0.885409  0.249812  1
