# generated using pymatgen
data_Pu3OsF20
_symmetry_space_group_name_H-M   'P 1'
_cell_length_a   10.23646592
_cell_length_b   5.65967636
_cell_length_c   8.31153700
_cell_angle_alpha   68.35537177
_cell_angle_beta   90.26792324
_cell_angle_gamma   90.15146461
_symmetry_Int_Tables_number   1
_chemical_formula_structural   Pu3OsF20
_chemical_formula_sum   'Pu3 Os1 F20'
_cell_volume   447.57157564
_cell_formula_units_Z   1
loop_
 _symmetry_equiv_pos_site_id
 _symmetry_equiv_pos_as_xyz
  1  'x, y, z'
loop_
 _atom_site_type_symbol
 _atom_site_label
 _atom_site_symmetry_multiplicity
 _atom_site_fract_x
 _atom_site_fract_y
 _atom_site_fract_z
 _atom_site_occupancy
  Pu  Pu0  1  0.750904  0.121907  0.597201  1
  Pu  Pu1  1  0.253325  0.878796  0.902334  1
  Pu  Pu2  1  0.247585  0.880025  0.401725  1
  Os  Os3  1  0.748398  0.119709  0.097295  1
  F  F4  1  0.870465  0.416854  0.561716  1
  F  F5  1  0.366646  0.577846  0.928555  1
  F  F6  1  0.133349  0.580053  0.425639  1
  F  F7  1  0.635628  0.396793  0.068157  1
  F  F8  1  0.606815  0.363112  0.487960  1
  F  F9  1  0.110552  0.644044  0.029111  1
  F  F10  1  0.389037  0.642858  0.530997  1
  F  F11  1  0.883088  0.349079  0.986310  1
  F  F12  1  0.399685  0.112619  0.780473  1
  F  F13  1  0.898049  0.881529  0.700464  1
  F  F14  1  0.611934  0.890781  0.205928  1
  F  F15  1  0.101787  0.115818  0.281222  1
  F  F16  1  0.139220  0.179895  0.874583  1
  F  F17  1  0.631678  0.825633  0.635171  1
  F  F18  1  0.860987  0.841726  0.127769  1
  F  F19  1  0.362312  0.179792  0.377641  1
  F  F20  1  0.693867  0.116200  0.871645  1
  F  F21  1  0.175114  0.881091  0.652174  1
  F  F22  1  0.326057  0.882799  0.152625  1
  F  F23  1  0.803517  0.121042  0.323302  1
