# generated using pymatgen
data_Rb4HgCl6
_symmetry_space_group_name_H-M   'P 1'
_cell_length_a   9.06910552
_cell_length_b   9.06910545
_cell_length_c   9.06910464
_cell_angle_alpha   89.69763974
_cell_angle_beta   89.69763768
_cell_angle_gamma   89.69764072
_symmetry_Int_Tables_number   1
_chemical_formula_structural   Rb4HgCl6
_chemical_formula_sum   'Rb8 Hg2 Cl12'
_cell_volume   745.89078298
_cell_formula_units_Z   2
loop_
 _symmetry_equiv_pos_site_id
 _symmetry_equiv_pos_as_xyz
  1  'x, y, z'
loop_
 _atom_site_type_symbol
 _atom_site_label
 _atom_site_symmetry_multiplicity
 _atom_site_fract_x
 _atom_site_fract_y
 _atom_site_fract_z
 _atom_site_occupancy
  Rb  Rb0  1  0.250000  0.250000  0.250000  1
  Rb  Rb1  1  0.750000  0.750000  0.750000  1
  Rb  Rb2  1  0.372164  0.127836  0.750000  1
  Rb  Rb3  1  0.127836  0.750000  0.372164  1
  Rb  Rb4  1  0.750000  0.372164  0.127836  1
  Rb  Rb5  1  0.627836  0.872164  0.250000  1
  Rb  Rb6  1  0.250000  0.627836  0.872164  1
  Rb  Rb7  1  0.872164  0.250000  0.627836  1
  Hg  Hg8  1  0.000000  0.000000  0.000000  1
  Hg  Hg9  1  0.500000  0.500000  0.500000  1
  Cl  Cl10  1  0.941573  0.070810  0.288509  1
  Cl  Cl11  1  0.070810  0.288509  0.941573  1
  Cl  Cl12  1  0.288509  0.941573  0.070810  1
  Cl  Cl13  1  0.570810  0.441573  0.788509  1
  Cl  Cl14  1  0.788509  0.570810  0.441573  1
  Cl  Cl15  1  0.441573  0.788509  0.570810  1
  Cl  Cl16  1  0.211491  0.429190  0.558427  1
  Cl  Cl17  1  0.429190  0.558427  0.211491  1
  Cl  Cl18  1  0.558427  0.211491  0.429190  1
  Cl  Cl19  1  0.929190  0.711491  0.058427  1
  Cl  Cl20  1  0.058427  0.929190  0.711491  1
  Cl  Cl21  1  0.711491  0.058427  0.929190  1
