# generated using pymatgen
data_Dy16MgAg3Ir4
_symmetry_space_group_name_H-M   'P 1'
_cell_length_a   9.57553885
_cell_length_b   9.58381376
_cell_length_c   9.58381400
_cell_angle_alpha   59.99999918
_cell_angle_beta   59.97140847
_cell_angle_gamma   59.97140670
_symmetry_Int_Tables_number   1
_chemical_formula_structural   Dy16MgAg3Ir4
_chemical_formula_sum   'Dy16 Mg1 Ag3 Ir4'
_cell_volume   621.63740378
_cell_formula_units_Z   1
loop_
 _symmetry_equiv_pos_site_id
 _symmetry_equiv_pos_as_xyz
  1  'x, y, z'
loop_
 _atom_site_type_symbol
 _atom_site_label
 _atom_site_symmetry_multiplicity
 _atom_site_fract_x
 _atom_site_fract_y
 _atom_site_fract_z
 _atom_site_occupancy
  Dy  Dy0  1  0.350939  0.350050  0.350050  1
  Dy  Dy1  1  0.350939  0.350050  0.948959  1
  Dy  Dy2  1  0.350939  0.948959  0.350050  1
  Dy  Dy3  1  0.939294  0.353568  0.353568  1
  Dy  Dy4  1  0.810887  0.188749  0.188749  1
  Dy  Dy5  1  0.187130  0.812749  0.812749  1
  Dy  Dy6  1  0.187130  0.812749  0.187372  1
  Dy  Dy7  1  0.810887  0.188749  0.811615  1
  Dy  Dy8  1  0.187130  0.187372  0.812749  1
  Dy  Dy9  1  0.810887  0.811615  0.188749  1
  Dy  Dy10  1  0.933948  0.563593  0.563593  1
  Dy  Dy11  1  0.562353  0.936385  0.936385  1
  Dy  Dy12  1  0.562353  0.936385  0.564877  1
  Dy  Dy13  1  0.933948  0.563593  0.938867  1
  Dy  Dy14  1  0.562353  0.564877  0.936385  1
  Dy  Dy15  1  0.933948  0.938867  0.563593  1
  Mg  Mg16  1  0.283289  0.572237  0.572237  1
  Ag  Ag17  1  0.582210  0.583495  0.583495  1
  Ag  Ag18  1  0.582210  0.583495  0.250801  1
  Ag  Ag19  1  0.582210  0.250801  0.583495  1
  Ir  Ir20  1  0.141000  0.143441  0.143441  1
  Ir  Ir21  1  0.141000  0.143441  0.572118  1
  Ir  Ir22  1  0.141000  0.572118  0.143441  1
  Ir  Ir23  1  0.572017  0.142661  0.142661  1
