# generated using pymatgen
data_CeNb9Mo4P9
_symmetry_space_group_name_H-M   'P 1'
_cell_length_a   11.10364516
_cell_length_b   11.06519528
_cell_length_c   3.45199300
_cell_angle_alpha   90.00000000
_cell_angle_beta   90.00000000
_cell_angle_gamma   119.88552038
_symmetry_Int_Tables_number   1
_chemical_formula_structural   CeNb9Mo4P9
_chemical_formula_sum   'Ce1 Nb9 Mo4 P9'
_cell_volume   367.72658685
_cell_formula_units_Z   1
loop_
 _symmetry_equiv_pos_site_id
 _symmetry_equiv_pos_as_xyz
  1  'x, y, z'
loop_
 _atom_site_type_symbol
 _atom_site_label
 _atom_site_symmetry_multiplicity
 _atom_site_fract_x
 _atom_site_fract_y
 _atom_site_fract_z
 _atom_site_occupancy
  Ce  Ce0  1  0.666268  0.333134  0.000000  1
  Nb  Nb1  1  0.241328  0.480995  0.500000  1
  Nb  Nb2  1  0.241328  0.760331  0.500000  1
  Nb  Nb3  1  0.989881  0.282758  0.000000  1
  Nb  Nb4  1  0.715694  0.707762  0.000000  1
  Nb  Nb5  1  0.715694  0.007932  0.000000  1
  Nb  Nb6  1  0.989881  0.707122  0.000000  1
  Nb  Nb7  1  0.293156  0.282970  0.000000  1
  Nb  Nb8  1  0.000364  0.000182  0.000000  1
  Nb  Nb9  1  0.293156  0.010187  0.000000  1
  Mo  Mo10  1  0.525312  0.047886  0.500000  1
  Mo  Mo11  1  0.525312  0.477427  0.500000  1
  Mo  Mo12  1  0.948115  0.474058  0.500000  1
  Mo  Mo13  1  0.520277  0.760138  0.500000  1
  P  P14  1  0.418784  0.209391  0.500000  1
  P  P15  1  0.127638  0.563820  0.000000  1
  P  P16  1  0.435434  0.568074  0.000000  1
  P  P17  1  0.435434  0.867361  0.000000  1
  P  P18  1  0.802563  0.901282  0.500000  1
  P  P19  1  0.099250  0.901490  0.500000  1
  P  P20  1  0.099250  0.197761  0.500000  1
  P  P21  1  0.791274  0.208177  0.500000  1
  P  P22  1  0.791274  0.583097  0.500000  1
