# generated using pymatgen
data_Mg(NbPd4)3
_symmetry_space_group_name_H-M   'P 1'
_cell_length_a   5.60988500
_cell_length_b   5.60988532
_cell_length_c   9.20668700
_cell_angle_alpha   90.00000000
_cell_angle_beta   90.00000000
_cell_angle_gamma   120.00000403
_symmetry_Int_Tables_number   1
_chemical_formula_structural   Mg(NbPd4)3
_chemical_formula_sum   'Mg1 Nb3 Pd12'
_cell_volume   250.92384533
_cell_formula_units_Z   1
loop_
 _symmetry_equiv_pos_site_id
 _symmetry_equiv_pos_as_xyz
  1  'x, y, z'
loop_
 _atom_site_type_symbol
 _atom_site_label
 _atom_site_symmetry_multiplicity
 _atom_site_fract_x
 _atom_site_fract_y
 _atom_site_fract_z
 _atom_site_occupancy
  Mg  Mg0  1  0.333333  0.666667  0.250000  1
  Nb  Nb1  1  0.000000  0.000000  0.495438  1
  Nb  Nb2  1  0.000000  0.000000  0.004562  1
  Nb  Nb3  1  0.666667  0.333333  0.750000  1
  Pd  Pd4  1  0.501655  0.498345  0.503016  1
  Pd  Pd5  1  0.501655  0.003308  0.503016  1
  Pd  Pd6  1  0.996692  0.498345  0.503016  1
  Pd  Pd7  1  0.501655  0.498345  0.996984  1
  Pd  Pd8  1  0.501655  0.003308  0.996984  1
  Pd  Pd9  1  0.996692  0.498345  0.996984  1
  Pd  Pd10  1  0.833056  0.666114  0.250000  1
  Pd  Pd11  1  0.333886  0.166944  0.250000  1
  Pd  Pd12  1  0.833056  0.166944  0.250000  1
  Pd  Pd13  1  0.165688  0.331375  0.750000  1
  Pd  Pd14  1  0.668625  0.834312  0.750000  1
  Pd  Pd15  1  0.165688  0.834312  0.750000  1
