# generated using pymatgen
data_Sr5FeOs3O16
_symmetry_space_group_name_H-M   'P 1'
_cell_length_a   5.73828090
_cell_length_b   5.74002765
_cell_length_c   10.16901148
_cell_angle_alpha   93.29251781
_cell_angle_beta   93.25804278
_cell_angle_gamma   90.57045464
_symmetry_Int_Tables_number   1
_chemical_formula_structural   Sr5FeOs3O16
_chemical_formula_sum   'Sr5 Fe1 Os3 O16'
_cell_volume   333.82305973
_cell_formula_units_Z   1
loop_
 _symmetry_equiv_pos_site_id
 _symmetry_equiv_pos_as_xyz
  1  'x, y, z'
loop_
 _atom_site_type_symbol
 _atom_site_label
 _atom_site_symmetry_multiplicity
 _atom_site_fract_x
 _atom_site_fract_y
 _atom_site_fract_z
 _atom_site_occupancy
  Sr  Sr0  1  0.514568  0.028741  0.196352  1
  Sr  Sr1  1  0.029282  0.514239  0.196602  1
  Sr  Sr2  1  0.000000  0.000005  0.500010  1
  Sr  Sr3  1  0.970739  0.485786  0.803417  1
  Sr  Sr4  1  0.485471  0.971295  0.803666  1
  Fe  Fe5  1  0.499979  0.500076  0.000120  1
  Os  Os6  1  0.999997  0.000020  0.999941  1
  Os  Os7  1  0.564247  0.564129  0.389557  1
  Os  Os8  1  0.435721  0.435801  0.610424  1
  O  O9  1  0.753738  0.240292  0.999656  1
  O  O10  1  0.764143  0.758769  0.031282  1
  O  O11  1  0.057910  0.059154  0.178802  1
  O  O12  1  0.469987  0.469364  0.191322  1
  O  O13  1  0.774123  0.774327  0.324265  1
  O  O14  1  0.308286  0.755526  0.369465  1
  O  O15  1  0.756373  0.308823  0.369688  1
  O  O16  1  0.316317  0.315520  0.437309  1
  O  O17  1  0.683673  0.684449  0.562640  1
  O  O18  1  0.243575  0.691274  0.630301  1
  O  O19  1  0.691836  0.244398  0.630536  1
  O  O20  1  0.225839  0.225617  0.675734  1
  O  O21  1  0.530017  0.530632  0.808707  1
  O  O22  1  0.942059  0.940790  0.821185  1
  O  O23  1  0.235824  0.241220  0.968701  1
  O  O24  1  0.246297  0.759743  0.000326  1
