# generated using pymatgen
data_Dy2(P2Pd7)3
_symmetry_space_group_name_H-M   'P 1'
_cell_length_a   8.62901018
_cell_length_b   8.62901954
_cell_length_c   8.62894900
_cell_angle_alpha   60.00020890
_cell_angle_beta   59.99997980
_cell_angle_gamma   60.00074939
_symmetry_Int_Tables_number   1
_chemical_formula_structural   Dy2(P2Pd7)3
_chemical_formula_sum   'Dy2 P6 Pd21'
_cell_volume   454.32686358
_cell_formula_units_Z   1
loop_
 _symmetry_equiv_pos_site_id
 _symmetry_equiv_pos_as_xyz
  1  'x, y, z'
loop_
 _atom_site_type_symbol
 _atom_site_label
 _atom_site_symmetry_multiplicity
 _atom_site_fract_x
 _atom_site_fract_y
 _atom_site_fract_z
 _atom_site_occupancy
  Dy  Dy0  1  0.249987  0.249986  0.250020  1
  Dy  Dy1  1  0.750013  0.750014  0.749980  1
  P  P2  1  0.739274  0.739273  0.260727  1
  P  P3  1  0.260726  0.260727  0.739273  1
  P  P4  1  0.260728  0.739271  0.739275  1
  P  P5  1  0.739272  0.260728  0.739276  1
  P  P6  1  0.260728  0.739272  0.260724  1
  P  P7  1  0.739272  0.260729  0.260725  1
  Pd  Pd8  1  0.000000  0.000000  0.000000  1
  Pd  Pd9  1  0.615089  0.615089  0.615089  1
  Pd  Pd10  1  0.384912  0.845262  0.384912  1
  Pd  Pd11  1  0.654919  0.345081  0.999999  1
  Pd  Pd12  1  0.999999  0.345080  0.654920  1
  Pd  Pd13  1  0.654919  0.000001  0.999999  1
  Pd  Pd14  1  0.615090  0.615091  0.154729  1
  Pd  Pd15  1  0.999999  0.000001  0.654918  1
  Pd  Pd16  1  0.000000  0.345080  0.000000  1
  Pd  Pd17  1  0.654917  0.000001  0.345081  1
  Pd  Pd18  1  0.345081  0.999999  0.000001  1
  Pd  Pd19  1  0.000000  0.654920  0.000000  1
  Pd  Pd20  1  0.345083  0.999999  0.654919  1
  Pd  Pd21  1  0.000001  0.654920  0.345080  1
  Pd  Pd22  1  0.345081  0.654919  0.000001  1
  Pd  Pd23  1  0.154739  0.615087  0.615087  1
  Pd  Pd24  1  0.384911  0.384911  0.384911  1
  Pd  Pd25  1  0.845261  0.384913  0.384913  1
  Pd  Pd26  1  0.384910  0.384909  0.845271  1
  Pd  Pd27  1  0.615088  0.154738  0.615088  1
  Pd  Pd28  1  0.000001  0.999999  0.345082  1
