# generated using pymatgen
data_Sc2Pa6Bi9Pb
_symmetry_space_group_name_H-M   'P 1'
_cell_length_a   9.54130900
_cell_length_b   9.54130877
_cell_length_c   6.39852000
_cell_angle_alpha   90.00000000
_cell_angle_beta   90.00000000
_cell_angle_gamma   119.99999734
_symmetry_Int_Tables_number   1
_chemical_formula_structural   Sc2Pa6Bi9Pb
_chemical_formula_sum   'Sc2 Pa6 Bi9 Pb1'
_cell_volume   504.45924596
_cell_formula_units_Z   1
loop_
 _symmetry_equiv_pos_site_id
 _symmetry_equiv_pos_as_xyz
  1  'x, y, z'
loop_
 _atom_site_type_symbol
 _atom_site_label
 _atom_site_symmetry_multiplicity
 _atom_site_fract_x
 _atom_site_fract_y
 _atom_site_fract_z
 _atom_site_occupancy
  Sc  Sc0  1  0.000000  0.000000  0.000000  1
  Sc  Sc1  1  0.000000  0.000000  0.500000  1
  Pa  Pa2  1  0.002320  0.611733  0.251287  1
  Pa  Pa3  1  0.388267  0.390586  0.251287  1
  Pa  Pa4  1  0.388267  0.997680  0.748713  1
  Pa  Pa5  1  0.609414  0.611733  0.748713  1
  Pa  Pa6  1  0.609414  0.997680  0.251287  1
  Pa  Pa7  1  0.002320  0.390586  0.748713  1
  Bi  Bi8  1  0.999562  0.268628  0.250228  1
  Bi  Bi9  1  0.666667  0.333333  0.000000  1
  Bi  Bi10  1  0.333333  0.666667  0.000000  1
  Bi  Bi11  1  0.269066  0.268628  0.749772  1
  Bi  Bi12  1  0.731372  0.000438  0.749772  1
  Bi  Bi13  1  0.999562  0.730934  0.749772  1
  Bi  Bi14  1  0.731372  0.730934  0.250228  1
  Bi  Bi15  1  0.269066  0.000438  0.250228  1
  Bi  Bi16  1  0.666667  0.333333  0.500000  1
  Pb  Pb17  1  0.333333  0.666667  0.500000  1
