# generated using pymatgen
data_Y4ZrSc3Ir4
_symmetry_space_group_name_H-M   'P 1'
_cell_length_a   4.42033000
_cell_length_b   7.11345230
_cell_length_c   8.49988762
_cell_angle_alpha   91.08191666
_cell_angle_beta   90.00000000
_cell_angle_gamma   90.00000000
_symmetry_Int_Tables_number   1
_chemical_formula_structural   Y4ZrSc3Ir4
_chemical_formula_sum   'Y4 Zr1 Sc3 Ir4'
_cell_volume   267.22117418
_cell_formula_units_Z   1
loop_
 _symmetry_equiv_pos_site_id
 _symmetry_equiv_pos_as_xyz
  1  'x, y, z'
loop_
 _atom_site_type_symbol
 _atom_site_label
 _atom_site_symmetry_multiplicity
 _atom_site_fract_x
 _atom_site_fract_y
 _atom_site_fract_z
 _atom_site_occupancy
  Y  Y0  1  0.250000  0.980385  0.325127  1
  Y  Y1  1  0.250000  0.484894  0.172591  1
  Y  Y2  1  0.750000  0.015818  0.677317  1
  Y  Y3  1  0.750000  0.517182  0.827341  1
  Zr  Zr4  1  0.250000  0.358339  0.567410  1
  Sc  Sc5  1  0.250000  0.861149  0.931670  1
  Sc  Sc6  1  0.750000  0.639100  0.429959  1
  Sc  Sc7  1  0.750000  0.145463  0.070539  1
  Ir  Ir8  1  0.250000  0.237200  0.892223  1
  Ir  Ir9  1  0.250000  0.734569  0.599096  1
  Ir  Ir10  1  0.750000  0.765681  0.102990  1
  Ir  Ir11  1  0.750000  0.260219  0.403737  1
