# generated using pymatgen
data_Tb6Co16Si7Tc2P5
_symmetry_space_group_name_H-M   'P 1'
_cell_length_a   3.76289300
_cell_length_b   10.69413506
_cell_length_c   12.36901307
_cell_angle_alpha   90.01237931
_cell_angle_beta   90.00000000
_cell_angle_gamma   90.00000000
_symmetry_Int_Tables_number   1
_chemical_formula_structural   Tb6Co16Si7Tc2P5
_chemical_formula_sum   'Tb6 Co16 Si7 Tc2 P5'
_cell_volume   497.74003295
_cell_formula_units_Z   1
loop_
 _symmetry_equiv_pos_site_id
 _symmetry_equiv_pos_as_xyz
  1  'x, y, z'
loop_
 _atom_site_type_symbol
 _atom_site_label
 _atom_site_symmetry_multiplicity
 _atom_site_fract_x
 _atom_site_fract_y
 _atom_site_fract_z
 _atom_site_occupancy
  Tb  Tb0  1  0.000000  0.499616  0.523668  1
  Tb  Tb1  1  0.500000  0.000208  0.474946  1
  Tb  Tb2  1  0.500000  0.820357  0.203647  1
  Tb  Tb3  1  0.500000  0.182290  0.202284  1
  Tb  Tb4  1  0.000000  0.679589  0.797459  1
  Tb  Tb5  1  0.000000  0.320148  0.795712  1
  Co  Co6  1  0.500000  0.499926  0.703028  1
  Co  Co7  1  0.000000  0.000001  0.298017  1
  Co  Co8  1  0.000000  0.496516  0.984140  1
  Co  Co9  1  0.500000  0.001471  0.019817  1
  Co  Co10  1  0.500000  0.332978  0.993115  1
  Co  Co11  1  0.500000  0.665478  0.991774  1
  Co  Co12  1  0.000000  0.169364  0.010843  1
  Co  Co13  1  0.000000  0.833806  0.009078  1
  Co  Co14  1  0.500000  0.304327  0.427484  1
  Co  Co15  1  0.500000  0.696083  0.429132  1
  Co  Co16  1  0.000000  0.196679  0.570189  1
  Co  Co17  1  0.000000  0.803639  0.571101  1
  Co  Co18  1  0.500000  0.883490  0.705965  1
  Co  Co19  1  0.500000  0.117265  0.705448  1
  Co  Co20  1  0.000000  0.615671  0.293843  1
  Co  Co21  1  0.000000  0.381644  0.288873  1
  Si  Si22  1  0.500000  0.305520  0.613254  1
  Si  Si23  1  0.500000  0.694766  0.614425  1
  Si  Si24  1  0.000000  0.195086  0.384847  1
  Si  Si25  1  0.000000  0.804684  0.385728  1
  Si  Si26  1  0.500000  0.849539  0.894407  1
  Si  Si27  1  0.500000  0.151119  0.893469  1
  Si  Si28  1  0.000000  0.651386  0.106711  1
  Tc  Tc29  1  0.500000  0.498327  0.154043  1
  Tc  Tc30  1  0.000000  0.001187  0.846448  1
  P  P31  1  0.500000  0.499349  0.884086  1
  P  P32  1  0.000000  0.000335  0.117110  1
  P  P33  1  0.500000  0.500195  0.343265  1
  P  P34  1  0.000000  0.000130  0.656910  1
  P  P35  1  0.000000  0.347829  0.105733  1
