# generated using pymatgen
data_Sc8MnCr(B12Ir)2
_symmetry_space_group_name_H-M   'P 1'
_cell_length_a   3.43080500
_cell_length_b   8.86943465
_cell_length_c   11.18822943
_cell_angle_alpha   90.05077959
_cell_angle_beta   90.00000000
_cell_angle_gamma   90.00000000
_symmetry_Int_Tables_number   1
_chemical_formula_structural   Sc8MnCr(B12Ir)2
_chemical_formula_sum   'Sc8 Mn1 Cr1 B24 Ir2'
_cell_volume   340.44986425
_cell_formula_units_Z   1
loop_
 _symmetry_equiv_pos_site_id
 _symmetry_equiv_pos_as_xyz
  1  'x, y, z'
loop_
 _atom_site_type_symbol
 _atom_site_label
 _atom_site_symmetry_multiplicity
 _atom_site_fract_x
 _atom_site_fract_y
 _atom_site_fract_z
 _atom_site_occupancy
  Sc  Sc0  1  0.500000  0.310941  0.409118  1
  Sc  Sc1  1  0.500000  0.689299  0.591458  1
  Sc  Sc2  1  0.500000  0.173640  0.918404  1
  Sc  Sc3  1  0.500000  0.825693  0.080481  1
  Sc  Sc4  1  0.500000  0.440791  0.125332  1
  Sc  Sc5  1  0.500000  0.561747  0.873638  1
  Sc  Sc6  1  0.500000  0.052048  0.629611  1
  Sc  Sc7  1  0.500000  0.946935  0.372190  1
  Mn  Mn8  1  0.500000  0.860512  0.818573  1
  Cr  Cr9  1  0.500000  0.138497  0.180594  1
  B  B10  1  0.000000  0.101771  0.472528  1
  B  B11  1  0.000000  0.897648  0.528709  1
  B  B12  1  0.000000  0.398358  0.971761  1
  B  B13  1  0.000000  0.603239  0.027507  1
  B  B14  1  0.000000  0.129474  0.316646  1
  B  B15  1  0.000000  0.870329  0.684769  1
  B  B16  1  0.000000  0.370087  0.819057  1
  B  B17  1  0.000000  0.630343  0.180973  1
  B  B18  1  0.000000  0.052286  0.064848  1
  B  B19  1  0.000000  0.946369  0.933164  1
  B  B20  1  0.000000  0.446757  0.564272  1
  B  B21  1  0.000000  0.552937  0.435810  1
  B  B22  1  0.000000  0.477546  0.286546  1
  B  B23  1  0.000000  0.522823  0.713313  1
  B  B24  1  0.000000  0.017857  0.788446  1
  B  B25  1  0.000000  0.979350  0.211848  1
  B  B26  1  0.000000  0.250105  0.078656  1
  B  B27  1  0.000000  0.751506  0.919597  1
  B  B28  1  0.000000  0.246563  0.577859  1
  B  B29  1  0.000000  0.752998  0.422633  1
  B  B30  1  0.000000  0.293347  0.235148  1
  B  B31  1  0.000000  0.708379  0.765359  1
  B  B32  1  0.000000  0.205049  0.737269  1
  B  B33  1  0.000000  0.794668  0.263442  1
  Ir  Ir34  1  0.500000  0.361712  0.679209  1
  Ir  Ir35  1  0.500000  0.638397  0.321232  1
