# generated using pymatgen
data_Ta2Ti3NbC5
_symmetry_space_group_name_H-M   'P 1'
_cell_length_a   5.41333243
_cell_length_b   5.42856692
_cell_length_c   5.39511390
_cell_angle_alpha   80.33403751
_cell_angle_beta   80.17670783
_cell_angle_gamma   119.82935908
_symmetry_Int_Tables_number   1
_chemical_formula_structural   Ta2Ti3NbC5
_chemical_formula_sum   'Ta2 Ti3 Nb1 C5'
_cell_volume   129.46156683
_cell_formula_units_Z   1
loop_
 _symmetry_equiv_pos_site_id
 _symmetry_equiv_pos_as_xyz
  1  'x, y, z'
loop_
 _atom_site_type_symbol
 _atom_site_label
 _atom_site_symmetry_multiplicity
 _atom_site_fract_x
 _atom_site_fract_y
 _atom_site_fract_z
 _atom_site_occupancy
  Ta  Ta0  1  0.735639  0.735516  0.734098  1
  Ta  Ta1  1  0.263865  0.265803  0.265062  1
  Ti  Ti2  1  0.082135  0.438165  0.747163  1
  Ti  Ti3  1  0.560242  0.916102  0.253555  1
  Ti  Ti4  1  0.916910  0.561012  0.252579  1
  Nb  Nb5  1  0.434938  0.082155  0.749678  1
  C  C6  1  0.501908  0.505942  0.496552  1
  C  C7  1  0.673113  0.334854  0.003270  1
  C  C8  1  0.330772  0.663576  0.002921  1
  C  C9  1  0.835302  0.168474  0.497726  1
  C  C10  1  0.165177  0.828400  0.497396  1
