# generated using pymatgen
data_Lu2Fe4Co6Mo2P7
_symmetry_space_group_name_H-M   'P 1'
_cell_length_a   3.66095300
_cell_length_b   8.98972562
_cell_length_c   8.99676363
_cell_angle_alpha   119.86943452
_cell_angle_beta   90.00000000
_cell_angle_gamma   90.00000000
_symmetry_Int_Tables_number   1
_chemical_formula_structural   Lu2Fe4Co6Mo2P7
_chemical_formula_sum   'Lu2 Fe4 Co6 Mo2 P7'
_cell_volume   256.76002884
_cell_formula_units_Z   1
loop_
 _symmetry_equiv_pos_site_id
 _symmetry_equiv_pos_as_xyz
  1  'x, y, z'
loop_
 _atom_site_type_symbol
 _atom_site_label
 _atom_site_symmetry_multiplicity
 _atom_site_fract_x
 _atom_site_fract_y
 _atom_site_fract_z
 _atom_site_occupancy
  Lu  Lu0  1  0.000000  0.666344  0.334817  1
  Lu  Lu1  1  0.500000  0.332900  0.665867  1
  Fe  Fe2  1  0.000000  0.877734  0.723065  1
  Fe  Fe3  1  0.000000  0.282666  0.162248  1
  Fe  Fe4  1  0.000000  0.836729  0.116189  1
  Fe  Fe5  1  0.500000  0.778662  0.873193  1
  Co  Co6  1  0.000000  0.370455  0.935400  1
  Co  Co7  1  0.000000  0.061025  0.432410  1
  Co  Co8  1  0.000000  0.571213  0.631880  1
  Co  Co9  1  0.500000  0.945796  0.559873  1
  Co  Co10  1  0.500000  0.444937  0.391839  1
  Co  Co11  1  0.500000  0.611528  0.046906  1
  Mo  Mo12  1  0.500000  0.119827  0.900680  1
  Mo  Mo13  1  0.500000  0.100400  0.221996  1
  P  P14  1  0.000000  0.111754  0.696336  1
  P  P15  1  0.000000  0.302271  0.415960  1
  P  P16  1  0.000000  0.588176  0.885721  1
  P  P17  1  0.500000  0.714999  0.597799  1
  P  P18  1  0.500000  0.411578  0.121836  1
  P  P19  1  0.500000  0.875535  0.285793  1
  P  P20  1  0.000000  0.995471  0.000194  1
