# generated using pymatgen
data_Sr6OsRhO12
_symmetry_space_group_name_H-M   'P 1'
_cell_length_a   5.87381115
_cell_length_b   6.10407396
_cell_length_c   8.42181401
_cell_angle_alpha   90.81188209
_cell_angle_beta   90.85383551
_cell_angle_gamma   90.03453243
_symmetry_Int_Tables_number   1
_chemical_formula_structural   Sr6OsRhO12
_chemical_formula_sum   'Sr6 Os1 Rh1 O12'
_cell_volume   301.89327681
_cell_formula_units_Z   1
loop_
 _symmetry_equiv_pos_site_id
 _symmetry_equiv_pos_as_xyz
  1  'x, y, z'
loop_
 _atom_site_type_symbol
 _atom_site_label
 _atom_site_symmetry_multiplicity
 _atom_site_fract_x
 _atom_site_fract_y
 _atom_site_fract_z
 _atom_site_occupancy
  Sr  Sr0  1  0.483894  0.561585  0.264856  1
  Sr  Sr1  1  0.985003  0.950449  0.733944  1
  Sr  Sr2  1  0.516106  0.438415  0.735144  1
  Sr  Sr3  1  0.014997  0.049551  0.266056  1
  Sr  Sr4  1  0.000000  0.500000  0.500000  1
  Sr  Sr5  1  0.500000  0.000000  0.000000  1
  Os  Os6  1  0.000000  0.500000  0.000000  1
  Rh  Rh7  1  0.500000  0.000000  0.500000  1
  O  O8  1  0.226640  0.815673  0.451671  1
  O  O9  1  0.736211  0.670620  0.951766  1
  O  O10  1  0.773360  0.184327  0.548329  1
  O  O11  1  0.263789  0.329380  0.048234  1
  O  O12  1  0.674253  0.729732  0.558249  1
  O  O13  1  0.164021  0.762117  0.061258  1
  O  O14  1  0.325747  0.270268  0.441751  1
  O  O15  1  0.835979  0.237883  0.938742  1
  O  O16  1  0.602337  0.958826  0.275849  1
  O  O17  1  0.098766  0.535646  0.786201  1
  O  O18  1  0.397663  0.041174  0.724151  1
  O  O19  1  0.901234  0.464354  0.213799  1
