# generated using pymatgen
data_TbGd(Y2H9)2
_symmetry_space_group_name_H-M   'P 1'
_cell_length_a   6.36998907
_cell_length_b   6.37033650
_cell_length_c   6.63244009
_cell_angle_alpha   90.00437581
_cell_angle_beta   89.98331700
_cell_angle_gamma   119.99706198
_symmetry_Int_Tables_number   1
_chemical_formula_structural   TbGd(Y2H9)2
_chemical_formula_sum   'Tb1 Gd1 Y4 H18'
_cell_volume   233.08689935
_cell_formula_units_Z   1
loop_
 _symmetry_equiv_pos_site_id
 _symmetry_equiv_pos_as_xyz
  1  'x, y, z'
loop_
 _atom_site_type_symbol
 _atom_site_label
 _atom_site_symmetry_multiplicity
 _atom_site_fract_x
 _atom_site_fract_y
 _atom_site_fract_z
 _atom_site_occupancy
  Tb  Tb0  1  0.999909  0.665068  0.749996  1
  Gd  Gd1  1  0.334902  0.334981  0.749993  1
  Y  Y2  1  0.338708  0.999812  0.250096  1
  Y  Y3  1  0.999530  0.338331  0.249974  1
  Y  Y4  1  0.661565  0.661850  0.249932  1
  Y  Y5  1  0.665072  0.999985  0.750010  1
  H  H6  1  0.000374  0.000089  0.250000  1
  H  H7  1  0.997852  0.999256  0.750001  1
  H  H8  1  0.333068  0.666328  0.179046  1
  H  H9  1  0.666530  0.333596  0.320953  1
  H  H10  1  0.667371  0.331832  0.810438  1
  H  H11  1  0.334661  0.668973  0.689562  1
  H  H12  1  0.359846  0.326072  0.093182  1
  H  H13  1  0.673757  0.032336  0.091979  1
  H  H14  1  0.966536  0.640628  0.092746  1
  H  H15  1  0.033571  0.673813  0.407314  1
  H  H16  1  0.641484  0.967666  0.408023  1
  H  H17  1  0.325857  0.359525  0.406756  1
  H  H18  1  0.659009  0.683797  0.908003  1
  H  H19  1  0.316782  0.976048  0.908416  1
  H  H20  1  0.024346  0.341923  0.909308  1
  H  H21  1  0.975272  0.316435  0.592152  1
  H  H22  1  0.340751  0.023386  0.591240  1
  H  H23  1  0.683246  0.658273  0.590883  1
