# generated using pymatgen
data_Tb4Fe3RhO12
_symmetry_space_group_name_H-M   'P 1'
_cell_length_a   5.35843564
_cell_length_b   5.69181447
_cell_length_c   7.72574513
_cell_angle_alpha   90.45384692
_cell_angle_beta   89.59485802
_cell_angle_gamma   90.07403537
_symmetry_Int_Tables_number   1
_chemical_formula_structural   Tb4Fe3RhO12
_chemical_formula_sum   'Tb4 Fe3 Rh1 O12'
_cell_volume   235.61574896
_cell_formula_units_Z   1
loop_
 _symmetry_equiv_pos_site_id
 _symmetry_equiv_pos_as_xyz
  1  'x, y, z'
loop_
 _atom_site_type_symbol
 _atom_site_label
 _atom_site_symmetry_multiplicity
 _atom_site_fract_x
 _atom_site_fract_y
 _atom_site_fract_z
 _atom_site_occupancy
  Tb  Tb0  1  0.022903  0.929939  0.749257  1
  Tb  Tb1  1  0.517442  0.570702  0.250527  1
  Tb  Tb2  1  0.482558  0.429298  0.749473  1
  Tb  Tb3  1  0.977097  0.070061  0.250743  1
  Fe  Fe4  1  0.000000  0.500000  0.500000  1
  Fe  Fe5  1  0.000000  0.500000  0.000000  1
  Fe  Fe6  1  0.500000  0.000000  0.000000  1
  Rh  Rh7  1  0.500000  0.000000  0.500000  1
  O  O8  1  0.691481  0.308075  0.441522  1
  O  O9  1  0.186248  0.199470  0.559672  1
  O  O10  1  0.807021  0.805367  0.058671  1
  O  O11  1  0.307908  0.695109  0.941005  1
  O  O12  1  0.308519  0.691925  0.558478  1
  O  O13  1  0.813752  0.800530  0.440328  1
  O  O14  1  0.192979  0.194633  0.941329  1
  O  O15  1  0.692092  0.304891  0.058995  1
  O  O16  1  0.113638  0.458847  0.249382  1
  O  O17  1  0.619230  0.042763  0.752767  1
  O  O18  1  0.380770  0.957237  0.247233  1
  O  O19  1  0.886362  0.541153  0.750618  1
