# generated using pymatgen
data_Ho3Er9InCo4Ir
_symmetry_space_group_name_H-M   'P 1'
_cell_length_a   8.22176443
_cell_length_b   8.22176446
_cell_length_c   8.22111628
_cell_angle_alpha   111.15957632
_cell_angle_beta   110.81059251
_cell_angle_gamma   106.48772440
_symmetry_Int_Tables_number   1
_chemical_formula_structural   Ho3Er9InCo4Ir
_chemical_formula_sum   'Ho3 Er9 In1 Co4 Ir1'
_cell_volume   426.91104429
_cell_formula_units_Z   1
loop_
 _symmetry_equiv_pos_site_id
 _symmetry_equiv_pos_as_xyz
  1  'x, y, z'
loop_
 _atom_site_type_symbol
 _atom_site_label
 _atom_site_symmetry_multiplicity
 _atom_site_fract_x
 _atom_site_fract_y
 _atom_site_fract_z
 _atom_site_occupancy
  Ho  Ho0  1  0.183352  0.284554  0.467906  1
  Ho  Ho1  1  0.816521  0.715395  0.531916  1
  Ho  Ho2  1  0.183530  0.715473  0.899003  1
  Er  Er3  1  0.816616  0.284397  0.101013  1
  Er  Er4  1  0.315132  0.620880  0.305622  1
  Er  Er5  1  0.684792  0.379037  0.694465  1
  Er  Er6  1  0.315428  0.009672  0.694465  1
  Er  Er7  1  0.684742  0.990490  0.305622  1
  Er  Er8  1  0.412904  0.218209  0.194504  1
  Er  Er9  1  0.587301  0.782022  0.805551  1
  Er  Er10  1  0.023529  0.218250  0.805551  1
  Er  Er11  1  0.976295  0.781601  0.194504  1
  In  In12  1  0.500030  0.499969  0.999999  1
  Co  Co13  1  0.112010  0.611967  0.499793  1
  Co  Co14  1  0.887826  0.387783  0.499793  1
  Co  Co15  1  0.377405  0.999995  0.377401  1
  Co  Co16  1  0.622641  0.000115  0.622756  1
  Ir  Ir17  1  0.999947  0.000191  0.000138  1
