# generated using pymatgen
data_La12Pr8Si15Pb
_symmetry_space_group_name_H-M   'P 1'
_cell_length_a   8.04043661
_cell_length_b   8.03625712
_cell_length_c   15.43657600
_cell_angle_alpha   90.03256829
_cell_angle_beta   89.72204396
_cell_angle_gamma   89.86972942
_symmetry_Int_Tables_number   1
_chemical_formula_structural   La12Pr8Si15Pb
_chemical_formula_sum   'La12 Pr8 Si15 Pb1'
_cell_volume   997.42012251
_cell_formula_units_Z   1
loop_
 _symmetry_equiv_pos_site_id
 _symmetry_equiv_pos_as_xyz
  1  'x, y, z'
loop_
 _atom_site_type_symbol
 _atom_site_label
 _atom_site_symmetry_multiplicity
 _atom_site_fract_x
 _atom_site_fract_y
 _atom_site_fract_z
 _atom_site_occupancy
  La  La0  1  0.309417  0.309529  0.000853  1
  La  La1  1  0.192200  0.808876  0.249506  1
  La  La2  1  0.795858  0.187616  0.753804  1
  La  La3  1  0.689380  0.690106  0.496686  1
  La  La4  1  0.375228  0.012705  0.448702  1
  La  La5  1  0.495345  0.868525  0.698954  1
  La  La6  1  0.511346  0.122242  0.197828  1
  La  La7  1  0.877769  0.488388  0.299994  1
  La  La8  1  0.120130  0.519556  0.805355  1
  La  La9  1  0.625031  0.986984  0.950906  1
  La  La10  1  0.001138  0.385329  0.545616  1
  La  La11  1  0.989246  0.623276  0.053100  1
  Pr  Pr12  1  0.127367  0.983095  0.880456  1
  Pr  Pr13  1  0.517880  0.627786  0.126835  1
  Pr  Pr14  1  0.494304  0.381541  0.624831  1
  Pr  Pr15  1  0.629115  0.518812  0.876992  1
  Pr  Pr16  1  0.373509  0.484817  0.372214  1
  Pr  Pr17  1  0.872912  0.016821  0.375549  1
  Pr  Pr18  1  0.984615  0.127763  0.124731  1
  Pr  Pr19  1  0.004166  0.857033  0.619945  1
  Si  Si20  1  0.332654  0.697684  0.952567  1
  Si  Si21  1  0.664165  0.300524  0.449075  1
  Si  Si22  1  0.700249  0.333002  0.050611  1
  Si  Si23  1  0.302590  0.668648  0.547477  1
  Si  Si24  1  0.802922  0.832904  0.200908  1
  Si  Si25  1  0.167291  0.198966  0.299633  1
  Si  Si26  1  0.835791  0.801419  0.800183  1
  Si  Si27  1  0.288848  0.920951  0.059736  1
  Si  Si28  1  0.580345  0.789621  0.308218  1
  Si  Si29  1  0.431148  0.211428  0.815722  1
  Si  Si30  1  0.788642  0.577578  0.692653  1
  Si  Si31  1  0.212515  0.419867  0.191413  1
  Si  Si32  1  0.709693  0.080310  0.558507  1
  Si  Si33  1  0.922455  0.289544  0.942268  1
  Si  Si34  1  0.081051  0.714039  0.439052  1
  Pb  Pb35  1  0.193676  0.162719  0.689121  1
