# generated using pymatgen
data_Tb2Er6ReOsBr8
_symmetry_space_group_name_H-M   'P 1'
_cell_length_a   8.99695327
_cell_length_b   8.93617334
_cell_length_c   6.52923061
_cell_angle_alpha   89.60442367
_cell_angle_beta   89.21418030
_cell_angle_gamma   89.33050089
_symmetry_Int_Tables_number   1
_chemical_formula_structural   Tb2Er6ReOsBr8
_chemical_formula_sum   'Tb2 Er6 Re1 Os1 Br8'
_cell_volume   524.84211965
_cell_formula_units_Z   1
loop_
 _symmetry_equiv_pos_site_id
 _symmetry_equiv_pos_as_xyz
  1  'x, y, z'
loop_
 _atom_site_type_symbol
 _atom_site_label
 _atom_site_symmetry_multiplicity
 _atom_site_fract_x
 _atom_site_fract_y
 _atom_site_fract_z
 _atom_site_occupancy
  Tb  Tb0  1  0.250403  0.900021  0.009095  1
  Tb  Tb1  1  0.748763  0.100233  0.992082  1
  Er  Er2  1  0.098305  0.752988  0.487436  1
  Er  Er3  1  0.901424  0.247677  0.511363  1
  Er  Er4  1  0.755541  0.903109  0.508755  1
  Er  Er5  1  0.244512  0.096925  0.490106  1
  Er  Er6  1  0.095293  0.246392  0.991785  1
  Er  Er7  1  0.904645  0.753521  0.009255  1
  Re  Re8  1  0.995311  0.005148  0.250105  1
  Os  Os9  1  0.004777  0.994797  0.749343  1
  Br  Br10  1  0.418289  0.817386  0.416744  1
  Br  Br11  1  0.581866  0.182440  0.584742  1
  Br  Br12  1  0.181209  0.579334  0.088493  1
  Br  Br13  1  0.818659  0.420503  0.910551  1
  Br  Br14  1  0.410901  0.192624  0.088385  1
  Br  Br15  1  0.590004  0.807266  0.911410  1
  Br  Br16  1  0.812036  0.585902  0.409665  1
  Br  Br17  1  0.188062  0.413734  0.590685  1
