# generated using pymatgen
data_Pr7ThTe12
_symmetry_space_group_name_H-M   'P 1'
_cell_length_a   12.40802821
_cell_length_b   4.43739700
_cell_length_c   12.14536196
_cell_angle_alpha   90.00000000
_cell_angle_beta   89.80331783
_cell_angle_gamma   90.00000000
_symmetry_Int_Tables_number   1
_chemical_formula_structural   Pr7ThTe12
_chemical_formula_sum   'Pr7 Th1 Te12'
_cell_volume   668.71176022
_cell_formula_units_Z   1
loop_
 _symmetry_equiv_pos_site_id
 _symmetry_equiv_pos_as_xyz
  1  'x, y, z'
loop_
 _atom_site_type_symbol
 _atom_site_label
 _atom_site_symmetry_multiplicity
 _atom_site_fract_x
 _atom_site_fract_y
 _atom_site_fract_z
 _atom_site_occupancy
  Pr  Pr0  1  0.479629  0.249999  0.190064  1
  Pr  Pr1  1  0.984343  0.249999  0.314282  1
  Pr  Pr2  1  0.304227  0.249999  0.500601  1
  Pr  Pr3  1  0.695234  0.749999  0.493054  1
  Pr  Pr4  1  0.017080  0.749999  0.686811  1
  Pr  Pr5  1  0.517715  0.749999  0.809084  1
  Pr  Pr6  1  0.197826  0.749999  0.995501  1
  Th  Th7  1  0.803616  0.249999  0.009746  1
  Te  Te8  1  0.617853  0.749999  0.054305  1
  Te  Te9  1  0.955376  0.749999  0.122902  1
  Te  Te10  1  0.221949  0.249999  0.195874  1
  Te  Te11  1  0.727392  0.249999  0.291208  1
  Te  Te12  1  0.455137  0.749999  0.376691  1
  Te  Te13  1  0.120586  0.749999  0.443955  1
  Te  Te14  1  0.877227  0.249999  0.556436  1
  Te  Te15  1  0.547610  0.249999  0.621970  1
  Te  Te16  1  0.274510  0.749999  0.701102  1
  Te  Te17  1  0.780479  0.749999  0.813069  1
  Te  Te18  1  0.039112  0.249999  0.878187  1
  Te  Te19  1  0.383100  0.249999  0.945162  1
