# generated using pymatgen
data_Dy16Cd2Hg2OsPt3
_symmetry_space_group_name_H-M   'P 1'
_cell_length_a   9.68193046
_cell_length_b   9.68192900
_cell_length_c   9.69110205
_cell_angle_alpha   59.52848609
_cell_angle_beta   59.52848117
_cell_angle_gamma   59.55160117
_symmetry_Int_Tables_number   1
_chemical_formula_structural   Dy16Cd2Hg2OsPt3
_chemical_formula_sum   'Dy16 Cd2 Hg2 Os1 Pt3'
_cell_volume   635.59078598
_cell_formula_units_Z   1
loop_
 _symmetry_equiv_pos_site_id
 _symmetry_equiv_pos_as_xyz
  1  'x, y, z'
loop_
 _atom_site_type_symbol
 _atom_site_label
 _atom_site_symmetry_multiplicity
 _atom_site_fract_x
 _atom_site_fract_y
 _atom_site_fract_z
 _atom_site_occupancy
  Dy  Dy0  1  0.352315  0.352315  0.351640  1
  Dy  Dy1  1  0.350427  0.350427  0.947318  1
  Dy  Dy2  1  0.351189  0.945563  0.350760  1
  Dy  Dy3  1  0.945563  0.351189  0.350760  1
  Dy  Dy4  1  0.814098  0.188707  0.189647  1
  Dy  Dy5  1  0.188091  0.809258  0.809227  1
  Dy  Dy6  1  0.188707  0.814098  0.189647  1
  Dy  Dy7  1  0.809258  0.188091  0.809227  1
  Dy  Dy8  1  0.188674  0.188674  0.814615  1
  Dy  Dy9  1  0.808474  0.808474  0.189182  1
  Dy  Dy10  1  0.934890  0.564713  0.565420  1
  Dy  Dy11  1  0.558058  0.936475  0.938656  1
  Dy  Dy12  1  0.564713  0.934890  0.565420  1
  Dy  Dy13  1  0.936475  0.558057  0.938656  1
  Dy  Dy14  1  0.564622  0.564622  0.936615  1
  Dy  Dy15  1  0.937067  0.937067  0.558666  1
  Cd  Cd16  1  0.580629  0.254902  0.581317  1
  Cd  Cd17  1  0.254902  0.580629  0.581317  1
  Hg  Hg18  1  0.583623  0.583623  0.585242  1
  Hg  Hg19  1  0.584614  0.584614  0.242602  1
  Os  Os20  1  0.143374  0.143374  0.144080  1
  Pt  Pt21  1  0.144107  0.144107  0.571881  1
  Pt  Pt22  1  0.143874  0.572256  0.144052  1
  Pt  Pt23  1  0.572256  0.143874  0.144052  1
