# generated using pymatgen
data_HoTm4ReOsC7
_symmetry_space_group_name_H-M   'P 1'
_cell_length_a   8.16459700
_cell_length_b   8.16459889
_cell_length_c   3.42928500
_cell_angle_alpha   90.00000000
_cell_angle_beta   90.00000000
_cell_angle_gamma   121.85122850
_symmetry_Int_Tables_number   1
_chemical_formula_structural   HoTm4ReOsC7
_chemical_formula_sum   'Ho1 Tm4 Re1 Os1 C7'
_cell_volume   194.17632714
_cell_formula_units_Z   1
loop_
 _symmetry_equiv_pos_site_id
 _symmetry_equiv_pos_as_xyz
  1  'x, y, z'
loop_
 _atom_site_type_symbol
 _atom_site_label
 _atom_site_symmetry_multiplicity
 _atom_site_fract_x
 _atom_site_fract_y
 _atom_site_fract_z
 _atom_site_occupancy
  Ho  Ho0  1  0.500744  0.499256  0.000000  1
  Tm  Tm1  1  0.076857  0.337808  0.500000  1
  Tm  Tm2  1  0.921576  0.661497  0.500000  1
  Tm  Tm3  1  0.662192  0.923143  0.500000  1
  Tm  Tm4  1  0.338503  0.078424  0.500000  1
  Re  Re5  1  0.284099  0.715901  0.000000  1
  Os  Os6  1  0.714244  0.285756  0.000000  1
  C  C7  1  0.630299  0.369701  0.500000  1
  C  C8  1  0.374689  0.625311  0.500000  1
  C  C9  1  0.999420  0.000580  0.000000  1
  C  C10  1  0.170633  0.171324  0.000000  1
  C  C11  1  0.828676  0.829367  0.000000  1
  C  C12  1  0.999292  0.501222  0.000000  1
  C  C13  1  0.498778  0.000708  0.000000  1
