# generated using pymatgen
data_YbYIn8Co
_symmetry_space_group_name_H-M   'P 1'
_cell_length_a   4.63361500
_cell_length_b   4.63361500
_cell_length_c   12.16398500
_cell_angle_alpha   90.00000000
_cell_angle_beta   90.00000000
_cell_angle_gamma   90.00000000
_symmetry_Int_Tables_number   1
_chemical_formula_structural   YbYIn8Co
_chemical_formula_sum   'Yb1 Y1 In8 Co1'
_cell_volume   261.16547719
_cell_formula_units_Z   1
loop_
 _symmetry_equiv_pos_site_id
 _symmetry_equiv_pos_as_xyz
  1  'x, y, z'
loop_
 _atom_site_type_symbol
 _atom_site_label
 _atom_site_symmetry_multiplicity
 _atom_site_fract_x
 _atom_site_fract_y
 _atom_site_fract_z
 _atom_site_occupancy
  Yb  Yb0  1  0.000000  0.000000  0.693098  1
  Y  Y1  1  0.000000  0.000000  0.304336  1
  In  In2  1  0.500000  0.000000  0.880912  1
  In  In3  1  0.000000  0.500000  0.880912  1
  In  In4  1  0.500000  0.000000  0.117942  1
  In  In5  1  0.000000  0.500000  0.117942  1
  In  In6  1  0.500000  0.000000  0.500799  1
  In  In7  1  0.000000  0.500000  0.500799  1
  In  In8  1  0.500000  0.500000  0.693900  1
  In  In9  1  0.500000  0.500000  0.306714  1
  Co  Co10  1  0.000000  0.000000  0.002647  1
