# generated using pymatgen
data_TbY3(AlSi)2
_symmetry_space_group_name_H-M   'P 1'
_cell_length_a   3.98866800
_cell_length_b   5.84475443
_cell_length_c   8.06549576
_cell_angle_alpha   90.00281824
_cell_angle_beta   90.00000000
_cell_angle_gamma   90.00000000
_symmetry_Int_Tables_number   1
_chemical_formula_structural   TbY3(AlSi)2
_chemical_formula_sum   'Tb1 Y3 Al2 Si2'
_cell_volume   188.02916817
_cell_formula_units_Z   1
loop_
 _symmetry_equiv_pos_site_id
 _symmetry_equiv_pos_as_xyz
  1  'x, y, z'
loop_
 _atom_site_type_symbol
 _atom_site_label
 _atom_site_symmetry_multiplicity
 _atom_site_fract_x
 _atom_site_fract_y
 _atom_site_fract_z
 _atom_site_occupancy
  Tb  Tb0  1  0.750000  0.891482  0.821934  1
  Y  Y1  1  0.250000  0.378875  0.679325  1
  Y  Y2  1  0.250000  0.120864  0.179018  1
  Y  Y3  1  0.750000  0.608917  0.321713  1
  Al  Al4  1  0.250000  0.873358  0.536500  1
  Al  Al5  1  0.250000  0.626774  0.035513  1
  Si  Si6  1  0.750000  0.125094  0.463266  1
  Si  Si7  1  0.750000  0.374637  0.962727  1
