# generated using pymatgen
data_Y6Al15Si9Ru8
_symmetry_space_group_name_H-M   'P 1'
_cell_length_a   8.67541800
_cell_length_b   8.67856550
_cell_length_c   9.39673200
_cell_angle_alpha   90.00000000
_cell_angle_beta   90.00000000
_cell_angle_gamma   119.98801115
_symmetry_Int_Tables_number   1
_chemical_formula_structural   Y6Al15Si9Ru8
_chemical_formula_sum   'Y6 Al15 Si9 Ru8'
_cell_volume   612.77110851
_cell_formula_units_Z   1
loop_
 _symmetry_equiv_pos_site_id
 _symmetry_equiv_pos_as_xyz
  1  'x, y, z'
loop_
 _atom_site_type_symbol
 _atom_site_label
 _atom_site_symmetry_multiplicity
 _atom_site_fract_x
 _atom_site_fract_y
 _atom_site_fract_z
 _atom_site_occupancy
  Y  Y0  1  0.807579  0.194008  0.750000  1
  Y  Y1  1  0.190448  0.805587  0.250000  1
  Y  Y2  1  0.386430  0.194008  0.750000  1
  Y  Y3  1  0.615138  0.805587  0.250000  1
  Y  Y4  1  0.806240  0.612479  0.750000  1
  Y  Y5  1  0.193126  0.386253  0.250000  1
  Al  Al6  1  0.834376  0.163724  0.422505  1
  Al  Al7  1  0.164477  0.834864  0.579756  1
  Al  Al8  1  0.329348  0.163724  0.422505  1
  Al  Al9  1  0.164477  0.834864  0.920244  1
  Al  Al10  1  0.670387  0.834864  0.579756  1
  Al  Al11  1  0.834376  0.163724  0.077495  1
  Al  Al12  1  0.835303  0.670605  0.422567  1
  Al  Al13  1  0.670387  0.834864  0.920244  1
  Al  Al14  1  0.165149  0.330298  0.578622  1
  Al  Al15  1  0.329348  0.163724  0.077495  1
  Al  Al16  1  0.165149  0.330298  0.921378  1
  Al  Al17  1  0.835303  0.670605  0.077433  1
  Al  Al18  1  0.564119  0.128237  0.250000  1
  Al  Al19  1  0.999485  0.998969  0.750000  1
  Al  Al20  1  0.000188  0.000377  0.250000  1
  Si  Si21  1  0.665521  0.331041  0.960317  1
  Si  Si22  1  0.334155  0.668310  0.040882  1
  Si  Si23  1  0.334155  0.668310  0.459118  1
  Si  Si24  1  0.665521  0.331041  0.539683  1
  Si  Si25  1  0.438230  0.562712  0.750000  1
  Si  Si26  1  0.564523  0.439957  0.250000  1
  Si  Si27  1  0.124483  0.562712  0.750000  1
  Si  Si28  1  0.875434  0.439957  0.250000  1
  Si  Si29  1  0.437368  0.874737  0.750000  1
  Ru  Ru30  1  0.499689  0.500848  0.999171  1
  Ru  Ru31  1  0.001159  0.500848  0.999171  1
  Ru  Ru32  1  0.499689  0.500848  0.500829  1
  Ru  Ru33  1  0.498967  0.997935  0.992949  1
  Ru  Ru34  1  0.001159  0.500848  0.500829  1
  Ru  Ru35  1  0.498967  0.997935  0.507051  1
  Ru  Ru36  1  0.000074  0.000147  0.000314  1
  Ru  Ru37  1  0.000074  0.000147  0.499686  1
