# generated using pymatgen
data_Nb3V9Si9Ge
_symmetry_space_group_name_H-M   'P 1'
_cell_length_a   4.92218489
_cell_length_b   7.63895775
_cell_length_c   9.25878233
_cell_angle_alpha   65.49948658
_cell_angle_beta   74.58481808
_cell_angle_gamma   89.99999732
_symmetry_Int_Tables_number   1
_chemical_formula_structural   Nb3V9Si9Ge
_chemical_formula_sum   'Nb3 V9 Si9 Ge1'
_cell_volume   302.96962271
_cell_formula_units_Z   1
loop_
 _symmetry_equiv_pos_site_id
 _symmetry_equiv_pos_as_xyz
  1  'x, y, z'
loop_
 _atom_site_type_symbol
 _atom_site_label
 _atom_site_symmetry_multiplicity
 _atom_site_fract_x
 _atom_site_fract_y
 _atom_site_fract_z
 _atom_site_occupancy
  Nb  Nb0  1  0.857588  0.736304  0.284826  1
  Nb  Nb1  1  0.640859  0.027850  0.718282  1
  Nb  Nb2  1  0.359183  0.973212  0.281632  1
  V  V3  1  0.441194  0.687487  0.620321  1
  V  V4  1  0.058437  0.313431  0.378565  1
  V  V5  1  0.562997  0.313431  0.378565  1
  V  V6  1  0.938486  0.687487  0.620321  1
  V  V7  1  0.436400  0.681661  0.127200  1
  V  V8  1  0.563354  0.318614  0.873294  1
  V  V9  1  0.937388  0.190616  0.125225  1
  V  V10  1  0.060947  0.807050  0.878105  1
  V  V11  1  0.142455  0.267151  0.715090  1
  Si  Si12  1  0.064805  0.477702  0.870388  1
  Si  Si13  1  0.937171  0.516289  0.125659  1
  Si  Si14  1  0.563423  0.646598  0.873152  1
  Si  Si15  1  0.436345  0.353246  0.127311  1
  Si  Si16  1  0.753557  0.002960  0.996792  1
  Si  Si17  1  0.249651  0.002960  0.996792  1
  Si  Si18  1  0.284377  0.575765  0.431248  1
  Si  Si19  1  0.712215  0.416592  0.575572  1
  Si  Si20  1  0.787616  0.991402  0.424767  1
  Ge  Ge21  1  0.211553  0.012193  0.576894  1
