# generated using pymatgen
data_Ba4Pr7NdS16
_symmetry_space_group_name_H-M   'P 1'
_cell_length_a   4.15140000
_cell_length_b   12.47932388
_cell_length_c   14.89277200
_cell_angle_alpha   89.97846701
_cell_angle_beta   90.00000000
_cell_angle_gamma   90.00000000
_symmetry_Int_Tables_number   1
_chemical_formula_structural   Ba4Pr7NdS16
_chemical_formula_sum   'Ba4 Pr7 Nd1 S16'
_cell_volume   771.54479783
_cell_formula_units_Z   1
loop_
 _symmetry_equiv_pos_site_id
 _symmetry_equiv_pos_as_xyz
  1  'x, y, z'
loop_
 _atom_site_type_symbol
 _atom_site_label
 _atom_site_symmetry_multiplicity
 _atom_site_fract_x
 _atom_site_fract_y
 _atom_site_fract_z
 _atom_site_occupancy
  Ba  Ba0  1  0.250000  0.750744  0.342173  1
  Ba  Ba1  1  0.250000  0.250676  0.158430  1
  Ba  Ba2  1  0.750000  0.248730  0.657493  1
  Ba  Ba3  1  0.750000  0.749289  0.842192  1
  Pr  Pr4  1  0.250000  0.416833  0.394201  1
  Pr  Pr5  1  0.250000  0.918299  0.106036  1
  Pr  Pr6  1  0.750000  0.582124  0.606310  1
  Pr  Pr7  1  0.750000  0.082342  0.894674  1
  Pr  Pr8  1  0.250000  0.425687  0.894695  1
  Pr  Pr9  1  0.250000  0.926905  0.605174  1
  Pr  Pr10  1  0.750000  0.573819  0.105344  1
  Nd  Nd11  1  0.750000  0.073557  0.393989  1
  S  S12  1  0.250000  0.214371  0.822398  1
  S  S13  1  0.250000  0.714887  0.677272  1
  S  S14  1  0.750000  0.785508  0.177445  1
  S  S15  1  0.750000  0.284262  0.322922  1
  S  S16  1  0.250000  0.134532  0.519091  1
  S  S17  1  0.250000  0.634768  0.978988  1
  S  S18  1  0.750000  0.866677  0.478430  1
  S  S19  1  0.750000  0.364835  0.020988  1
  S  S20  1  0.250000  0.512398  0.218793  1
  S  S21  1  0.250000  0.013896  0.281893  1
  S  S22  1  0.750000  0.487349  0.781254  1
  S  S23  1  0.750000  0.987735  0.718873  1
  S  S24  1  0.250000  0.424197  0.582489  1
  S  S25  1  0.250000  0.924321  0.917977  1
  S  S26  1  0.750000  0.575113  0.417780  1
  S  S27  1  0.750000  0.076143  0.082697  1
