# generated using pymatgen
data_Er2Lu2C7
_symmetry_space_group_name_H-M   'P 1'
_cell_length_a   13.62763900
_cell_length_b   3.63411747
_cell_length_c   6.35987418
_cell_angle_alpha   74.38487530
_cell_angle_beta   90.00000000
_cell_angle_gamma   90.00000000
_symmetry_Int_Tables_number   1
_chemical_formula_structural   Er2Lu2C7
_chemical_formula_sum   'Er4 Lu4 C14'
_cell_volume   303.34418619
_cell_formula_units_Z   2
loop_
 _symmetry_equiv_pos_site_id
 _symmetry_equiv_pos_as_xyz
  1  'x, y, z'
loop_
 _atom_site_type_symbol
 _atom_site_label
 _atom_site_symmetry_multiplicity
 _atom_site_fract_x
 _atom_site_fract_y
 _atom_site_fract_z
 _atom_site_occupancy
  Er  Er0  1  0.055501  0.633329  0.739224  1
  Er  Er1  1  0.944499  0.366671  0.260776  1
  Er  Er2  1  0.555501  0.366671  0.760776  1
  Er  Er3  1  0.444499  0.633329  0.239224  1
  Lu  Lu4  1  0.340476  0.941041  0.661278  1
  Lu  Lu5  1  0.659524  0.058959  0.338722  1
  Lu  Lu6  1  0.840476  0.058959  0.838722  1
  Lu  Lu7  1  0.159524  0.941041  0.161278  1
  C  C8  1  0.895932  0.735389  0.554020  1
  C  C9  1  0.104068  0.264611  0.445980  1
  C  C10  1  0.395932  0.264611  0.945980  1
  C  C11  1  0.604068  0.735389  0.054020  1
  C  C12  1  0.215602  0.538498  0.931307  1
  C  C13  1  0.784398  0.461502  0.068693  1
  C  C14  1  0.715602  0.461502  0.568693  1
  C  C15  1  0.284398  0.538498  0.431307  1
  C  C16  1  0.803214  0.623969  0.543027  1
  C  C17  1  0.196786  0.376031  0.456973  1
  C  C18  1  0.303214  0.376031  0.956973  1
  C  C19  1  0.696786  0.623969  0.043027  1
  C  C20  1  0.500000  0.000000  0.500000  1
  C  C21  1  0.000000  0.000000  0.000000  1
