# generated using pymatgen
data_LiNd4Co19P12
_symmetry_space_group_name_H-M   'P 1'
_cell_length_a   3.70938700
_cell_length_b   10.40861584
_cell_length_c   11.90724647
_cell_angle_alpha   90.02298761
_cell_angle_beta   90.00000000
_cell_angle_gamma   90.00000000
_symmetry_Int_Tables_number   1
_chemical_formula_structural   LiNd4Co19P12
_chemical_formula_sum   'Li1 Nd4 Co19 P12'
_cell_volume   459.73379930
_cell_formula_units_Z   1
loop_
 _symmetry_equiv_pos_site_id
 _symmetry_equiv_pos_as_xyz
  1  'x, y, z'
loop_
 _atom_site_type_symbol
 _atom_site_label
 _atom_site_symmetry_multiplicity
 _atom_site_fract_x
 _atom_site_fract_y
 _atom_site_fract_z
 _atom_site_occupancy
  Li  Li0  1  0.250000  0.701233  0.991979  1
  Nd  Nd1  1  0.250000  0.581845  0.700771  1
  Nd  Nd2  1  0.250000  0.918920  0.200731  1
  Nd  Nd3  1  0.750000  0.417506  0.298717  1
  Nd  Nd4  1  0.750000  0.081646  0.797247  1
  Co  Co5  1  0.250000  0.787315  0.491429  1
  Co  Co6  1  0.750000  0.291670  0.010578  1
  Co  Co7  1  0.750000  0.212416  0.508618  1
  Co  Co8  1  0.250000  0.404280  0.489944  1
  Co  Co9  1  0.250000  0.098770  0.988725  1
  Co  Co10  1  0.750000  0.593989  0.511694  1
  Co  Co11  1  0.750000  0.911400  0.009377  1
  Co  Co12  1  0.250000  0.223166  0.174784  1
  Co  Co13  1  0.250000  0.277895  0.674315  1
  Co  Co14  1  0.750000  0.779729  0.822525  1
  Co  Co15  1  0.750000  0.721006  0.329449  1
  Co  Co16  1  0.250000  0.883184  0.695787  1
  Co  Co17  1  0.250000  0.618508  0.200241  1
  Co  Co18  1  0.750000  0.118884  0.301408  1
  Co  Co19  1  0.750000  0.380026  0.801990  1
  Co  Co20  1  0.250000  0.465660  0.932996  1
  Co  Co21  1  0.250000  0.032214  0.431879  1
  Co  Co22  1  0.750000  0.531981  0.066667  1
  Co  Co23  1  0.750000  0.968447  0.565306  1
  P  P24  1  0.250000  0.421127  0.110602  1
  P  P25  1  0.250000  0.080420  0.609169  1
  P  P26  1  0.750000  0.578126  0.886847  1
  P  P27  1  0.750000  0.919822  0.388875  1
  P  P28  1  0.250000  0.273580  0.867323  1
  P  P29  1  0.250000  0.225424  0.368370  1
  P  P30  1  0.750000  0.723382  0.139861  1
  P  P31  1  0.750000  0.775762  0.631267  1
  P  P32  1  0.250000  0.604720  0.396217  1
  P  P33  1  0.250000  0.894971  0.892569  1
  P  P34  1  0.750000  0.393337  0.606453  1
  P  P35  1  0.750000  0.107635  0.105291  1
