# generated using pymatgen
data_MgMnGaB2Rh5
_symmetry_space_group_name_H-M   'P 1'
_cell_length_a   9.38951800
_cell_length_b   9.39160500
_cell_length_c   2.93688400
_cell_angle_alpha   90.00000000
_cell_angle_beta   90.00000000
_cell_angle_gamma   90.00000000
_symmetry_Int_Tables_number   1
_chemical_formula_structural   MgMnGaB2Rh5
_chemical_formula_sum   'Mg2 Mn2 Ga2 B4 Rh10'
_cell_volume   258.98219682
_cell_formula_units_Z   2
loop_
 _symmetry_equiv_pos_site_id
 _symmetry_equiv_pos_as_xyz
  1  'x, y, z'
loop_
 _atom_site_type_symbol
 _atom_site_label
 _atom_site_symmetry_multiplicity
 _atom_site_fract_x
 _atom_site_fract_y
 _atom_site_fract_z
 _atom_site_occupancy
  Mg  Mg0  1  0.824561  0.324332  0.000000  1
  Mg  Mg1  1  0.324561  0.175668  0.000000  1
  Mn  Mn2  1  0.677279  0.823899  0.000000  1
  Mn  Mn3  1  0.177279  0.676101  0.000000  1
  Ga  Ga4  1  0.000512  0.001886  0.000000  1
  Ga  Ga5  1  0.500512  0.498114  0.000000  1
  B  B6  1  0.625914  0.125443  0.000000  1
  B  B7  1  0.125914  0.374557  0.000000  1
  B  B8  1  0.872952  0.627619  0.000000  1
  B  B9  1  0.372952  0.872381  0.000000  1
  Rh  Rh10  1  0.071494  0.216551  0.500000  1
  Rh  Rh11  1  0.213597  0.924556  0.500000  1
  Rh  Rh12  1  0.783481  0.066573  0.500000  1
  Rh  Rh13  1  0.929169  0.786250  0.500000  1
  Rh  Rh14  1  0.429169  0.713750  0.500000  1
  Rh  Rh15  1  0.571494  0.283449  0.500000  1
  Rh  Rh16  1  0.713597  0.575444  0.500000  1
  Rh  Rh17  1  0.283481  0.433427  0.500000  1
  Rh  Rh18  1  0.501041  0.996623  0.500000  1
  Rh  Rh19  1  0.001041  0.503377  0.500000  1
