# generated using pymatgen
data_Hf5Zr5(GaPb3)2
_symmetry_space_group_name_H-M   'P 1'
_cell_length_a   8.82991740
_cell_length_b   8.82991742
_cell_length_c   5.92462500
_cell_angle_alpha   90.00000000
_cell_angle_beta   90.00000000
_cell_angle_gamma   120.03442912
_symmetry_Int_Tables_number   1
_chemical_formula_structural   Hf5Zr5(GaPb3)2
_chemical_formula_sum   'Hf5 Zr5 Ga2 Pb6'
_cell_volume   399.90239655
_cell_formula_units_Z   1
loop_
 _symmetry_equiv_pos_site_id
 _symmetry_equiv_pos_as_xyz
  1  'x, y, z'
loop_
 _atom_site_type_symbol
 _atom_site_label
 _atom_site_symmetry_multiplicity
 _atom_site_fract_x
 _atom_site_fract_y
 _atom_site_fract_z
 _atom_site_occupancy
  Hf  Hf0  1  0.666814  0.333653  0.999964  1
  Hf  Hf1  1  0.333653  0.666814  0.999964  1
  Hf  Hf2  1  0.333653  0.666814  0.500036  1
  Hf  Hf3  1  0.666814  0.333653  0.500036  1
  Hf  Hf4  1  0.736842  0.736842  0.750000  1
  Zr  Zr5  1  0.263652  0.000680  0.750000  1
  Zr  Zr6  1  0.000680  0.263652  0.750000  1
  Zr  Zr7  1  0.262323  0.262323  0.250000  1
  Zr  Zr8  1  0.737046  0.999036  0.250000  1
  Zr  Zr9  1  0.999036  0.737046  0.250000  1
  Ga  Ga10  1  0.999228  0.999228  0.998682  1
  Ga  Ga11  1  0.999228  0.999228  0.501318  1
  Pb  Pb12  1  0.391012  0.391012  0.750000  1
  Pb  Pb13  1  0.610640  0.999698  0.750000  1
  Pb  Pb14  1  0.999698  0.610640  0.750000  1
  Pb  Pb15  1  0.609644  0.609644  0.250000  1
  Pb  Pb16  1  0.390057  0.999981  0.250000  1
  Pb  Pb17  1  0.999981  0.390057  0.250000  1
