# generated using pymatgen
data_Th3GaIr(RhAu)2
_symmetry_space_group_name_H-M   'P 1'
_cell_length_a   7.46262715
_cell_length_b   7.58193605
_cell_length_c   3.90478200
_cell_angle_alpha   90.00000000
_cell_angle_beta   90.00000000
_cell_angle_gamma   119.45796414
_symmetry_Int_Tables_number   1
_chemical_formula_structural   Th3GaIr(RhAu)2
_chemical_formula_sum   'Th3 Ga1 Ir1 Rh2 Au2'
_cell_volume   192.37363234
_cell_formula_units_Z   1
loop_
 _symmetry_equiv_pos_site_id
 _symmetry_equiv_pos_as_xyz
  1  'x, y, z'
loop_
 _atom_site_type_symbol
 _atom_site_label
 _atom_site_symmetry_multiplicity
 _atom_site_fract_x
 _atom_site_fract_y
 _atom_site_fract_z
 _atom_site_occupancy
  Th  Th0  1  0.004384  0.396700  0.500000  1
  Th  Th1  1  0.606252  0.604583  0.500000  1
  Th  Th2  1  0.396586  0.997151  0.500000  1
  Ga  Ga3  1  0.740676  0.001080  0.000000  1
  Ir  Ir4  1  0.357365  0.680838  0.000000  1
  Rh  Rh5  1  0.677793  0.320757  0.000000  1
  Rh  Rh6  1  0.956009  0.000005  0.500000  1
  Au  Au7  1  0.003118  0.747328  0.000000  1
  Au  Au8  1  0.257817  0.251557  0.000000  1
