# generated using pymatgen
data_La4HoRu2
_symmetry_space_group_name_H-M   'P 1'
_cell_length_a   9.04118370
_cell_length_b   9.04118591
_cell_length_c   7.25426768
_cell_angle_alpha   85.56523915
_cell_angle_beta   85.56522841
_cell_angle_gamma   43.34044207
_symmetry_Int_Tables_number   1
_chemical_formula_structural   La4HoRu2
_chemical_formula_sum   'La8 Ho2 Ru4'
_cell_volume   405.57381163
_cell_formula_units_Z   2
loop_
 _symmetry_equiv_pos_site_id
 _symmetry_equiv_pos_as_xyz
  1  'x, y, z'
loop_
 _atom_site_type_symbol
 _atom_site_label
 _atom_site_symmetry_multiplicity
 _atom_site_fract_x
 _atom_site_fract_y
 _atom_site_fract_z
 _atom_site_occupancy
  La  La0  1  0.203406  0.977363  0.591809  1
  La  La1  1  0.022637  0.796594  0.908191  1
  La  La2  1  0.210044  0.364083  0.315176  1
  La  La3  1  0.635917  0.789956  0.184824  1
  La  La4  1  0.789956  0.635917  0.684824  1
  La  La5  1  0.364083  0.210044  0.815176  1
  La  La6  1  0.977363  0.203406  0.091809  1
  La  La7  1  0.796594  0.022637  0.408191  1
  Ho  Ho8  1  0.569298  0.430702  0.750000  1
  Ho  Ho9  1  0.430702  0.569298  0.250000  1
  Ru  Ru10  1  0.179179  0.601960  0.579016  1
  Ru  Ru11  1  0.398040  0.820821  0.920984  1
  Ru  Ru12  1  0.820821  0.398040  0.420984  1
  Ru  Ru13  1  0.601960  0.179179  0.079016  1
