# generated using pymatgen
data_CeFe3Sb12Rh
_symmetry_space_group_name_H-M   'P 1'
_cell_length_a   8.02260630
_cell_length_b   8.02260704
_cell_length_c   8.02260732
_cell_angle_alpha   109.49238513
_cell_angle_beta   109.49239558
_cell_angle_gamma   109.49237967
_symmetry_Int_Tables_number   1
_chemical_formula_structural   CeFe3Sb12Rh
_chemical_formula_sum   'Ce1 Fe3 Sb12 Rh1'
_cell_volume   397.17677036
_cell_formula_units_Z   1
loop_
 _symmetry_equiv_pos_site_id
 _symmetry_equiv_pos_as_xyz
  1  'x, y, z'
loop_
 _atom_site_type_symbol
 _atom_site_label
 _atom_site_symmetry_multiplicity
 _atom_site_fract_x
 _atom_site_fract_y
 _atom_site_fract_z
 _atom_site_occupancy
  Ce  Ce0  1  0.000000  0.000000  0.000000  1
  Fe  Fe1  1  0.500000  0.000000  0.000000  1
  Fe  Fe2  1  0.000000  0.500000  0.000000  1
  Fe  Fe3  1  0.000000  0.000000  0.500000  1
  Sb  Sb4  1  0.169783  0.836736  0.332567  1
  Sb  Sb5  1  0.152301  0.331449  0.497389  1
  Sb  Sb6  1  0.667433  0.830217  0.163264  1
  Sb  Sb7  1  0.668551  0.502611  0.847699  1
  Sb  Sb8  1  0.502611  0.847699  0.668551  1
  Sb  Sb9  1  0.830217  0.163264  0.667433  1
  Sb  Sb10  1  0.332567  0.169783  0.836736  1
  Sb  Sb11  1  0.836736  0.332567  0.169783  1
  Sb  Sb12  1  0.497389  0.152301  0.331449  1
  Sb  Sb13  1  0.331449  0.497389  0.152301  1
  Sb  Sb14  1  0.163264  0.667433  0.830217  1
  Sb  Sb15  1  0.847699  0.668551  0.502611  1
  Rh  Rh16  1  0.500000  0.500000  0.500000  1
