# generated using pymatgen
data_K6Ba6AlGaAs3P5
_symmetry_space_group_name_H-M   'P 1'
_cell_length_a   10.21651200
_cell_length_b   10.21651119
_cell_length_c   7.82959900
_cell_angle_alpha   90.00000000
_cell_angle_beta   90.00000000
_cell_angle_gamma   120.00000261
_symmetry_Int_Tables_number   1
_chemical_formula_structural   K6Ba6AlGaAs3P5
_chemical_formula_sum   'K6 Ba6 Al1 Ga1 As3 P5'
_cell_volume   707.74271017
_cell_formula_units_Z   1
loop_
 _symmetry_equiv_pos_site_id
 _symmetry_equiv_pos_as_xyz
  1  'x, y, z'
loop_
 _atom_site_type_symbol
 _atom_site_label
 _atom_site_symmetry_multiplicity
 _atom_site_fract_x
 _atom_site_fract_y
 _atom_site_fract_z
 _atom_site_occupancy
  K  K0  1  0.132495  0.867505  0.176284  1
  K  K1  1  0.267086  0.134190  0.673012  1
  K  K2  1  0.865810  0.732914  0.673012  1
  K  K3  1  0.137788  0.267419  0.173140  1
  K  K4  1  0.732581  0.862212  0.173140  1
  K  K5  1  0.867042  0.132958  0.680522  1
  Ba  Ba6  1  0.475764  0.952661  0.502200  1
  Ba  Ba7  1  0.519076  0.042688  0.999617  1
  Ba  Ba8  1  0.957312  0.480924  0.999617  1
  Ba  Ba9  1  0.475544  0.524456  0.502820  1
  Ba  Ba10  1  0.522415  0.477585  0.001736  1
  Ba  Ba11  1  0.047339  0.524236  0.502200  1
  Al  Al12  1  0.664295  0.335705  0.370435  1
  Ga  Ga13  1  0.333455  0.666545  0.866648  1
  As  As14  1  0.802914  0.197086  0.278737  1
  As  As15  1  0.332961  0.667039  0.207164  1
  As  As16  1  0.665970  0.334030  0.705298  1
  P  P17  1  0.199294  0.800706  0.779635  1
  P  P18  1  0.401727  0.201052  0.279356  1
  P  P19  1  0.798948  0.598273  0.279356  1
  P  P20  1  0.200116  0.399928  0.778717  1
  P  P21  1  0.600072  0.799884  0.778717  1
