# generated using pymatgen
data_UVBr10
_symmetry_space_group_name_H-M   'P 1'
_cell_length_a   8.39318742
_cell_length_b   8.74188979
_cell_length_c   16.14206721
_cell_angle_alpha   92.21627256
_cell_angle_beta   90.69245747
_cell_angle_gamma   106.08582652
_symmetry_Int_Tables_number   1
_chemical_formula_structural   UVBr10
_chemical_formula_sum   'U2 V2 Br20'
_cell_volume   1136.83775935
_cell_formula_units_Z   2
loop_
 _symmetry_equiv_pos_site_id
 _symmetry_equiv_pos_as_xyz
  1  'x, y, z'
loop_
 _atom_site_type_symbol
 _atom_site_label
 _atom_site_symmetry_multiplicity
 _atom_site_fract_x
 _atom_site_fract_y
 _atom_site_fract_z
 _atom_site_occupancy
  U  U0  1  0.000000  0.000000  0.000000  1
  U  U1  1  0.000000  0.000000  0.500000  1
  V  V2  1  0.383295  0.587731  0.261677  1
  V  V3  1  0.616705  0.412269  0.738323  1
  Br  Br4  1  0.221895  0.851814  0.950982  1
  Br  Br5  1  0.778105  0.148186  0.049018  1
  Br  Br6  1  0.781903  0.720159  0.021804  1
  Br  Br7  1  0.218097  0.279841  0.978196  1
  Br  Br8  1  0.892356  0.995302  0.844649  1
  Br  Br9  1  0.107644  0.004698  0.155351  1
  Br  Br10  1  0.877572  0.162106  0.392028  1
  Br  Br11  1  0.122428  0.837894  0.607972  1
  Br  Br12  1  0.289170  0.074534  0.424200  1
  Br  Br13  1  0.710830  0.925466  0.575800  1
  Br  Br14  1  0.894958  0.736515  0.403224  1
  Br  Br15  1  0.105042  0.263485  0.596776  1
  Br  Br16  1  0.133078  0.519903  0.193608  1
  Br  Br17  1  0.866922  0.480097  0.806392  1
  Br  Br18  1  0.530940  0.834999  0.226078  1
  Br  Br19  1  0.469060  0.165001  0.773922  1
  Br  Br20  1  0.525719  0.408934  0.224975  1
  Br  Br21  1  0.474281  0.591066  0.775025  1
  Br  Br22  1  0.342390  0.585758  0.400606  1
  Br  Br23  1  0.657610  0.414242  0.599394  1
