# generated using pymatgen
data_Ca10TiReN10
_symmetry_space_group_name_H-M   'P 1'
_cell_length_a   6.91306733
_cell_length_b   6.91306664
_cell_length_c   8.92519453
_cell_angle_alpha   80.49233455
_cell_angle_beta   80.49233251
_cell_angle_gamma   59.82643085
_symmetry_Int_Tables_number   1
_chemical_formula_structural   Ca10TiReN10
_chemical_formula_sum   'Ca10 Ti1 Re1 N10'
_cell_volume   361.98871152
_cell_formula_units_Z   1
loop_
 _symmetry_equiv_pos_site_id
 _symmetry_equiv_pos_as_xyz
  1  'x, y, z'
loop_
 _atom_site_type_symbol
 _atom_site_label
 _atom_site_symmetry_multiplicity
 _atom_site_fract_x
 _atom_site_fract_y
 _atom_site_fract_z
 _atom_site_occupancy
  Ca  Ca0  1  0.877507  0.351719  0.829329  1
  Ca  Ca1  1  0.874147  0.874147  0.821470  1
  Ca  Ca2  1  0.739124  0.739124  0.535977  1
  Ca  Ca3  1  0.747183  0.249062  0.514158  1
  Ca  Ca4  1  0.629644  0.139425  0.144740  1
  Ca  Ca5  1  0.351719  0.877507  0.829329  1
  Ca  Ca6  1  0.249062  0.747183  0.514158  1
  Ca  Ca7  1  0.243039  0.243039  0.503761  1
  Ca  Ca8  1  0.142241  0.142241  0.155435  1
  Ca  Ca9  1  0.139425  0.629644  0.144740  1
  Ti  Ti10  1  0.369192  0.369192  0.775667  1
  Re  Re11  1  0.632236  0.632236  0.227818  1
  N  N12  1  0.905391  0.473503  0.315656  1
  N  N13  1  0.996220  0.996220  0.016958  1
  N  N14  1  0.676352  0.676352  0.021616  1
  N  N15  1  0.535824  0.535824  0.692086  1
  N  N16  1  0.473503  0.905391  0.315656  1
  N  N17  1  0.537744  0.084429  0.676588  1
  N  N18  1  0.475062  0.475062  0.294286  1
  N  N19  1  0.321499  0.321499  0.993951  1
  N  N20  1  0.061742  0.061742  0.645841  1
  N  N21  1  0.084429  0.537744  0.676588  1
