# generated using pymatgen
data_Cs8SnGeS8
_symmetry_space_group_name_H-M   'P 1'
_cell_length_a   8.74235467
_cell_length_b   10.41456400
_cell_length_c   15.30016715
_cell_angle_alpha   90.00000000
_cell_angle_beta   89.85699878
_cell_angle_gamma   90.00000000
_symmetry_Int_Tables_number   1
_chemical_formula_structural   Cs8SnGeS8
_chemical_formula_sum   'Cs16 Sn2 Ge2 S16'
_cell_volume   1393.04240738
_cell_formula_units_Z   2
loop_
 _symmetry_equiv_pos_site_id
 _symmetry_equiv_pos_as_xyz
  1  'x, y, z'
loop_
 _atom_site_type_symbol
 _atom_site_label
 _atom_site_symmetry_multiplicity
 _atom_site_fract_x
 _atom_site_fract_y
 _atom_site_fract_z
 _atom_site_occupancy
  Cs  Cs0  1  0.000000  0.000000  0.000000  1
  Cs  Cs1  1  0.500000  0.000000  0.500000  1
  Cs  Cs2  1  0.000000  0.500000  0.000000  1
  Cs  Cs3  1  0.500000  0.500000  0.500000  1
  Cs  Cs4  1  0.998522  0.750000  0.424005  1
  Cs  Cs5  1  0.493502  0.250000  0.077722  1
  Cs  Cs6  1  0.001478  0.250000  0.575995  1
  Cs  Cs7  1  0.506498  0.750000  0.922278  1
  Cs  Cs8  1  0.829307  0.060447  0.282024  1
  Cs  Cs9  1  0.330641  0.946249  0.221572  1
  Cs  Cs10  1  0.170693  0.560447  0.717976  1
  Cs  Cs11  1  0.669359  0.446249  0.778428  1
  Cs  Cs12  1  0.170693  0.939553  0.717976  1
  Cs  Cs13  1  0.669359  0.053751  0.778428  1
  Cs  Cs14  1  0.829307  0.439553  0.282024  1
  Cs  Cs15  1  0.330641  0.553751  0.221572  1
  Sn  Sn16  1  0.737019  0.750000  0.164645  1
  Sn  Sn17  1  0.262981  0.250000  0.835355  1
  Ge  Ge18  1  0.764928  0.750000  0.662945  1
  Ge  Ge19  1  0.235072  0.250000  0.337055  1
  S  S20  1  0.985089  0.250000  0.827065  1
  S  S21  1  0.494546  0.250000  0.327633  1
  S  S22  1  0.505454  0.750000  0.672367  1
  S  S23  1  0.014911  0.750000  0.172935  1
  S  S24  1  0.651693  0.559252  0.089683  1
  S  S25  1  0.154048  0.426698  0.407398  1
  S  S26  1  0.348307  0.059252  0.910317  1
  S  S27  1  0.845952  0.926698  0.592602  1
  S  S28  1  0.348307  0.440748  0.910317  1
  S  S29  1  0.845952  0.573302  0.592602  1
  S  S30  1  0.651693  0.940748  0.089683  1
  S  S31  1  0.154048  0.073302  0.407398  1
  S  S32  1  0.634182  0.750000  0.313632  1
  S  S33  1  0.138511  0.250000  0.198723  1
  S  S34  1  0.365818  0.250000  0.686368  1
  S  S35  1  0.861489  0.750000  0.801277  1
