# generated using pymatgen
data_VBiI18
_symmetry_space_group_name_H-M   'P 1'
_cell_length_a   10.23995835
_cell_length_b   10.28559302
_cell_length_c   10.22081194
_cell_angle_alpha   88.71150135
_cell_angle_beta   88.63580984
_cell_angle_gamma   88.49773127
_symmetry_Int_Tables_number   1
_chemical_formula_structural   VBiI18
_chemical_formula_sum   'V1 Bi1 I18'
_cell_volume   1075.56477179
_cell_formula_units_Z   1
loop_
 _symmetry_equiv_pos_site_id
 _symmetry_equiv_pos_as_xyz
  1  'x, y, z'
loop_
 _atom_site_type_symbol
 _atom_site_label
 _atom_site_symmetry_multiplicity
 _atom_site_fract_x
 _atom_site_fract_y
 _atom_site_fract_z
 _atom_site_occupancy
  V  V0  1  0.500000  0.500000  0.500000  1
  Bi  Bi1  1  0.000000  0.000000  0.000000  1
  I  I2  1  0.768888  0.477309  0.500664  1
  I  I3  1  0.499047  0.767460  0.476348  1
  I  I4  1  0.476124  0.500306  0.769291  1
  I  I5  1  0.231112  0.522691  0.499336  1
  I  I6  1  0.500953  0.232540  0.523652  1
  I  I7  1  0.523876  0.499694  0.230709  1
  I  I8  1  0.885455  0.383623  0.745113  1
  I  I9  1  0.743193  0.884131  0.384024  1
  I  I10  1  0.384172  0.744360  0.885984  1
  I  I11  1  0.114545  0.616377  0.254887  1
  I  I12  1  0.256807  0.115869  0.615976  1
  I  I13  1  0.615828  0.255640  0.114016  1
  I  I14  1  0.019586  0.974225  0.695678  1
  I  I15  1  0.696416  0.018527  0.972023  1
  I  I16  1  0.972974  0.697786  0.016902  1
  I  I17  1  0.980414  0.025775  0.304322  1
  I  I18  1  0.303584  0.981473  0.027977  1
  I  I19  1  0.027026  0.302214  0.983098  1
