# generated using pymatgen
data_Y9TmSi5P
_symmetry_space_group_name_H-M   'P 1'
_cell_length_a   8.42157101
_cell_length_b   8.42490485
_cell_length_c   6.31083308
_cell_angle_alpha   89.98269297
_cell_angle_beta   90.00546115
_cell_angle_gamma   119.98954626
_symmetry_Int_Tables_number   1
_chemical_formula_structural   Y9TmSi5P
_chemical_formula_sum   'Y9 Tm1 Si5 P1'
_cell_volume   387.81192751
_cell_formula_units_Z   1
loop_
 _symmetry_equiv_pos_site_id
 _symmetry_equiv_pos_as_xyz
  1  'x, y, z'
loop_
 _atom_site_type_symbol
 _atom_site_label
 _atom_site_symmetry_multiplicity
 _atom_site_fract_x
 _atom_site_fract_y
 _atom_site_fract_z
 _atom_site_occupancy
  Y  Y0  1  0.000798  0.756255  0.749523  1
  Y  Y1  1  0.001352  0.244890  0.250436  1
  Y  Y2  1  0.756175  0.755353  0.250475  1
  Y  Y3  1  0.754051  0.999798  0.749608  1
  Y  Y4  1  0.244347  0.243990  0.749619  1
  Y  Y5  1  0.244547  0.999788  0.250376  1
  Y  Y6  1  0.666231  0.332480  0.999539  1
  Y  Y7  1  0.666117  0.332295  0.500565  1
  Y  Y8  1  0.333801  0.667618  0.999727  1
  Tm  Tm9  1  0.333805  0.667338  0.499977  1
  Si  Si10  1  0.393796  0.394064  0.251160  1
  Si  Si11  1  0.001807  0.607030  0.251225  1
  Si  Si12  1  0.001211  0.394166  0.748846  1
  Si  Si13  1  0.606083  0.607004  0.748867  1
  Si  Si14  1  0.606936  0.998945  0.251103  1
  P  P15  1  0.388942  0.998985  0.748955  1
