# generated using pymatgen
data_AcU3F15
_symmetry_space_group_name_H-M   'P 1'
_cell_length_a   8.03444234
_cell_length_b   8.03444150
_cell_length_c   8.03444319
_cell_angle_alpha   112.74880168
_cell_angle_beta   112.74880617
_cell_angle_gamma   112.74882077
_symmetry_Int_Tables_number   1
_chemical_formula_structural   AcU3F15
_chemical_formula_sum   'Ac1 U3 F15'
_cell_volume   342.36773557
_cell_formula_units_Z   1
loop_
 _symmetry_equiv_pos_site_id
 _symmetry_equiv_pos_as_xyz
  1  'x, y, z'
loop_
 _atom_site_type_symbol
 _atom_site_label
 _atom_site_symmetry_multiplicity
 _atom_site_fract_x
 _atom_site_fract_y
 _atom_site_fract_z
 _atom_site_occupancy
  Ac  Ac0  1  0.499020  0.499020  0.499020  1
  U  U1  1  0.859148  0.291439  0.859148  1
  U  U2  1  0.291439  0.859148  0.859148  1
  U  U3  1  0.859148  0.859148  0.291439  1
  F  F4  1  0.601425  0.930155  0.143115  1
  F  F5  1  0.930155  0.143115  0.601425  1
  F  F6  1  0.143115  0.601425  0.930155  1
  F  F7  1  0.930155  0.601425  0.143115  1
  F  F8  1  0.596624  0.596624  0.256012  1
  F  F9  1  0.256012  0.596624  0.596624  1
  F  F10  1  0.596624  0.256012  0.596624  1
  F  F11  1  0.136578  0.136578  0.355418  1
  F  F12  1  0.355418  0.136578  0.136578  1
  F  F13  1  0.136578  0.355418  0.136578  1
  F  F14  1  0.671315  0.671315  0.908557  1
  F  F15  1  0.908557  0.671315  0.671315  1
  F  F16  1  0.671315  0.908557  0.671315  1
  F  F17  1  0.143115  0.930155  0.601425  1
  F  F18  1  0.601425  0.143115  0.930155  1
