# generated using pymatgen
data_Hg(S8I)3
_symmetry_space_group_name_H-M   'P 1'
_cell_length_a   15.35568989
_cell_length_b   15.35568946
_cell_length_c   15.35569038
_cell_angle_alpha   118.88246224
_cell_angle_beta   118.88245842
_cell_angle_gamma   118.88245918
_symmetry_Int_Tables_number   1
_chemical_formula_structural   Hg(S8I)3
_chemical_formula_sum   'Hg1 S24 I3'
_cell_volume   989.71327809
_cell_formula_units_Z   1
loop_
 _symmetry_equiv_pos_site_id
 _symmetry_equiv_pos_as_xyz
  1  'x, y, z'
loop_
 _atom_site_type_symbol
 _atom_site_label
 _atom_site_symmetry_multiplicity
 _atom_site_fract_x
 _atom_site_fract_y
 _atom_site_fract_z
 _atom_site_occupancy
  Hg  Hg0  1  0.069580  0.069580  0.069580  1
  S  S1  1  0.013987  0.607830  0.607830  1
  S  S2  1  0.607830  0.607830  0.013987  1
  S  S3  1  0.607830  0.013987  0.607830  1
  S  S4  1  0.239022  0.847838  0.720961  1
  S  S5  1  0.847838  0.720961  0.239022  1
  S  S6  1  0.720961  0.239022  0.847838  1
  S  S7  1  0.847838  0.239022  0.720961  1
  S  S8  1  0.239022  0.720961  0.847838  1
  S  S9  1  0.720961  0.847838  0.239022  1
  S  S10  1  0.097333  0.624335  0.445864  1
  S  S11  1  0.624335  0.445864  0.097333  1
  S  S12  1  0.445864  0.097333  0.624335  1
  S  S13  1  0.624335  0.097333  0.445864  1
  S  S14  1  0.097333  0.445864  0.624335  1
  S  S15  1  0.445864  0.624335  0.097333  1
  S  S16  1  0.359404  0.748098  0.621409  1
  S  S17  1  0.748098  0.621409  0.359404  1
  S  S18  1  0.621409  0.359404  0.748098  1
  S  S19  1  0.748098  0.359404  0.621409  1
  S  S20  1  0.359404  0.621409  0.748098  1
  S  S21  1  0.621409  0.748098  0.359404  1
  S  S22  1  0.185242  0.466390  0.466390  1
  S  S23  1  0.466390  0.466390  0.185242  1
  S  S24  1  0.466390  0.185242  0.466390  1
  I  I25  1  0.192785  0.014269  0.014269  1
  I  I26  1  0.014269  0.014269  0.192785  1
  I  I27  1  0.014269  0.192785  0.014269  1
