# generated using pymatgen
data_TbDy9(SnBi2)2
_symmetry_space_group_name_H-M   'P 1'
_cell_length_a   9.11827601
_cell_length_b   9.08779275
_cell_length_c   6.43911200
_cell_angle_alpha   90.00383326
_cell_angle_beta   89.99808978
_cell_angle_gamma   119.88947513
_symmetry_Int_Tables_number   1
_chemical_formula_structural   TbDy9(SnBi2)2
_chemical_formula_sum   'Tb1 Dy9 Sn2 Bi4'
_cell_volume   462.60504477
_cell_formula_units_Z   1
loop_
 _symmetry_equiv_pos_site_id
 _symmetry_equiv_pos_as_xyz
  1  'x, y, z'
loop_
 _atom_site_type_symbol
 _atom_site_label
 _atom_site_symmetry_multiplicity
 _atom_site_fract_x
 _atom_site_fract_y
 _atom_site_fract_z
 _atom_site_occupancy
  Tb  Tb0  1  0.340501  0.670251  0.000000  1
  Dy  Dy1  1  0.994536  0.758902  0.749963  1
  Dy  Dy2  1  0.994536  0.235634  0.250037  1
  Dy  Dy3  1  0.757245  0.761874  0.250033  1
  Dy  Dy4  1  0.757245  0.995371  0.749967  1
  Dy  Dy5  1  0.244943  0.245265  0.749965  1
  Dy  Dy6  1  0.244943  0.999678  0.250035  1
  Dy  Dy7  1  0.340417  0.670209  0.500000  1
  Dy  Dy8  1  0.664801  0.332399  0.000000  1
  Dy  Dy9  1  0.664808  0.332403  0.500000  1
  Sn  Sn10  1  0.607949  0.605634  0.749788  1
  Sn  Sn11  1  0.607949  0.002316  0.250212  1
  Bi  Bi12  1  0.389117  0.998967  0.749918  1
  Bi  Bi13  1  0.389117  0.390150  0.250082  1
  Bi  Bi14  1  0.000946  0.609074  0.250053  1
  Bi  Bi15  1  0.000946  0.391873  0.749947  1
