# generated using pymatgen
data_NaEr4(PtPb2)2
_symmetry_space_group_name_H-M   'P 1'
_cell_length_a   3.65249600
_cell_length_b   8.28498700
_cell_length_c   18.47260200
_cell_angle_alpha   90.00000000
_cell_angle_beta   90.00000000
_cell_angle_gamma   90.00000000
_symmetry_Int_Tables_number   1
_chemical_formula_structural   NaEr4(PtPb2)2
_chemical_formula_sum   'Na2 Er8 Pt4 Pb8'
_cell_volume   558.99722709
_cell_formula_units_Z   2
loop_
 _symmetry_equiv_pos_site_id
 _symmetry_equiv_pos_as_xyz
  1  'x, y, z'
loop_
 _atom_site_type_symbol
 _atom_site_label
 _atom_site_symmetry_multiplicity
 _atom_site_fract_x
 _atom_site_fract_y
 _atom_site_fract_z
 _atom_site_occupancy
  Na  Na0  1  0.000000  0.000000  0.000000  1
  Na  Na1  1  0.000000  0.500000  0.500000  1
  Er  Er2  1  0.000000  0.114859  0.411952  1
  Er  Er3  1  0.000000  0.885141  0.588048  1
  Er  Er4  1  0.000000  0.385141  0.911952  1
  Er  Er5  1  0.000000  0.614859  0.088048  1
  Er  Er6  1  0.000000  0.240366  0.218001  1
  Er  Er7  1  0.000000  0.759634  0.781999  1
  Er  Er8  1  0.000000  0.259634  0.718001  1
  Er  Er9  1  0.000000  0.740366  0.281999  1
  Pt  Pt10  1  0.500000  0.029394  0.302015  1
  Pt  Pt11  1  0.500000  0.970606  0.697985  1
  Pt  Pt12  1  0.500000  0.470606  0.802015  1
  Pt  Pt13  1  0.500000  0.529394  0.197985  1
  Pb  Pb14  1  0.500000  0.417115  0.351793  1
  Pb  Pb15  1  0.500000  0.582885  0.648207  1
  Pb  Pb16  1  0.500000  0.082885  0.851793  1
  Pb  Pb17  1  0.500000  0.917115  0.148207  1
  Pb  Pb18  1  0.500000  0.291113  0.061875  1
  Pb  Pb19  1  0.500000  0.708887  0.938125  1
  Pb  Pb20  1  0.500000  0.208887  0.561875  1
  Pb  Pb21  1  0.500000  0.791113  0.438125  1
