# generated using pymatgen
data_HoAlSi2Rh
_symmetry_space_group_name_H-M   'P 1'
_cell_length_a   6.04587686
_cell_length_b   6.04587672
_cell_length_c   6.04587685
_cell_angle_alpha   142.08770846
_cell_angle_beta   142.08771165
_cell_angle_gamma   54.69670854
_symmetry_Int_Tables_number   1
_chemical_formula_structural   HoAlSi2Rh
_chemical_formula_sum   'Ho1 Al1 Si2 Rh1'
_cell_volume   82.85407165
_cell_formula_units_Z   1
loop_
 _symmetry_equiv_pos_site_id
 _symmetry_equiv_pos_as_xyz
  1  'x, y, z'
loop_
 _atom_site_type_symbol
 _atom_site_label
 _atom_site_symmetry_multiplicity
 _atom_site_fract_x
 _atom_site_fract_y
 _atom_site_fract_z
 _atom_site_occupancy
  Ho  Ho0  1  0.000000  0.000000  0.000000  1
  Al  Al1  1  0.750000  0.250000  0.500000  1
  Si  Si2  1  0.608872  0.608872  0.000000  1
  Si  Si3  1  0.391128  0.391128  0.000000  1
  Rh  Rh4  1  0.250000  0.750000  0.500000  1
