# generated using pymatgen
data_Ho10(IrPt)3
_symmetry_space_group_name_H-M   'P 1'
_cell_length_a   10.98804414
_cell_length_b   10.98654100
_cell_length_c   6.30878008
_cell_angle_alpha   90.00000000
_cell_angle_beta   90.01792905
_cell_angle_gamma   90.00000000
_symmetry_Int_Tables_number   1
_chemical_formula_structural   Ho10(IrPt)3
_chemical_formula_sum   'Ho20 Ir6 Pt6'
_cell_volume   761.59966246
_cell_formula_units_Z   2
loop_
 _symmetry_equiv_pos_site_id
 _symmetry_equiv_pos_as_xyz
  1  'x, y, z'
loop_
 _atom_site_type_symbol
 _atom_site_label
 _atom_site_symmetry_multiplicity
 _atom_site_fract_x
 _atom_site_fract_y
 _atom_site_fract_z
 _atom_site_occupancy
  Ho  Ho0  1  0.295439  0.090430  0.372892  1
  Ho  Ho1  1  0.295439  0.909570  0.872892  1
  Ho  Ho2  1  0.704545  0.087296  0.872458  1
  Ho  Ho3  1  0.704545  0.912704  0.372458  1
  Ho  Ho4  1  0.584236  0.792347  0.873061  1
  Ho  Ho5  1  0.584236  0.207653  0.373061  1
  Ho  Ho6  1  0.410937  0.792917  0.377802  1
  Ho  Ho7  1  0.410937  0.207083  0.877802  1
  Ho  Ho8  1  0.209304  0.414006  0.623858  1
  Ho  Ho9  1  0.209304  0.585994  0.123858  1
  Ho  Ho10  1  0.794832  0.412451  0.125383  1
  Ho  Ho11  1  0.794832  0.587549  0.625383  1
  Ho  Ho12  1  0.913521  0.704669  0.126987  1
  Ho  Ho13  1  0.913521  0.295331  0.626987  1
  Ho  Ho14  1  0.091129  0.704552  0.627637  1
  Ho  Ho15  1  0.091129  0.295448  0.127637  1
  Ho  Ho16  1  0.999858  0.999784  0.499964  1
  Ho  Ho17  1  0.999858  0.000216  0.999964  1
  Ho  Ho18  1  0.497150  0.499299  0.000033  1
  Ho  Ho19  1  0.497150  0.500701  0.500033  1
  Ir  Ir20  1  0.346077  0.345656  0.249955  1
  Ir  Ir21  1  0.346077  0.654344  0.749955  1
  Ir  Ir22  1  0.500290  0.999854  0.121726  1
  Ir  Ir23  1  0.500290  0.000146  0.621726  1
  Ir  Ir24  1  0.999343  0.500083  0.878293  1
  Ir  Ir25  1  0.999343  0.499917  0.378293  1
  Pt  Pt26  1  0.845640  0.153902  0.250321  1
  Pt  Pt27  1  0.845640  0.846098  0.750321  1
  Pt  Pt28  1  0.153469  0.153843  0.749602  1
  Pt  Pt29  1  0.153469  0.846157  0.249602  1
  Pt  Pt30  1  0.654230  0.346027  0.750028  1
  Pt  Pt31  1  0.654230  0.653973  0.250028  1
