# generated using pymatgen
data_Ti12Zn7AuO4
_symmetry_space_group_name_H-M   'P 1'
_cell_length_a   6.87244340
_cell_length_b   6.87244340
_cell_length_c   6.87244340
_cell_angle_alpha   89.90830603
_cell_angle_beta   90.09169397
_cell_angle_gamma   90.09169397
_symmetry_Int_Tables_number   1
_chemical_formula_structural   Ti12Zn7AuO4
_chemical_formula_sum   'Ti12 Zn7 Au1 O4'
_cell_volume   324.58754267
_cell_formula_units_Z   1
loop_
 _symmetry_equiv_pos_site_id
 _symmetry_equiv_pos_as_xyz
  1  'x, y, z'
loop_
 _atom_site_type_symbol
 _atom_site_label
 _atom_site_symmetry_multiplicity
 _atom_site_fract_x
 _atom_site_fract_y
 _atom_site_fract_z
 _atom_site_occupancy
  Ti  Ti0  1  0.788021  0.960867  0.374450  1
  Ti  Ti1  1  0.709042  0.039759  0.873421  1
  Ti  Ti2  1  0.211276  0.459359  0.122593  1
  Ti  Ti3  1  0.287759  0.541268  0.623211  1
  Ti  Ti4  1  0.960241  0.373421  0.790958  1
  Ti  Ti5  1  0.039133  0.874450  0.711979  1
  Ti  Ti6  1  0.458732  0.123211  0.212241  1
  Ti  Ti7  1  0.540641  0.622593  0.288724  1
  Ti  Ti8  1  0.377407  0.788724  0.959359  1
  Ti  Ti9  1  0.876789  0.712241  0.041268  1
  Ti  Ti10  1  0.125550  0.211979  0.460867  1
  Ti  Ti11  1  0.626579  0.290958  0.539759  1
  Zn  Zn12  1  0.322224  0.179844  0.821527  1
  Zn  Zn13  1  0.820156  0.321527  0.177776  1
  Zn  Zn14  1  0.678473  0.677776  0.679844  1
  Zn  Zn15  1  0.571666  0.428334  0.928334  1
  Zn  Zn16  1  0.434984  0.931347  0.577962  1
  Zn  Zn17  1  0.922038  0.565016  0.431347  1
  Zn  Zn18  1  0.068653  0.077962  0.065016  1
  Au  Au19  1  0.178829  0.821171  0.321171  1
  O  O20  1  0.876057  0.123943  0.623943  1
  O  O21  1  0.625295  0.874267  0.125279  1
  O  O22  1  0.125733  0.625279  0.874705  1
  O  O23  1  0.374721  0.374705  0.374267  1
