# generated using pymatgen
data_MgGaAg2F7
_symmetry_space_group_name_H-M   'P 1'
_cell_length_a   7.48581011
_cell_length_b   7.48580895
_cell_length_c   7.48580999
_cell_angle_alpha   120.97628104
_cell_angle_beta   116.94468734
_cell_angle_gamma   91.84447532
_symmetry_Int_Tables_number   1
_chemical_formula_structural   MgGaAg2F7
_chemical_formula_sum   'Mg2 Ga2 Ag4 F14'
_cell_volume   300.66427440
_cell_formula_units_Z   2
loop_
 _symmetry_equiv_pos_site_id
 _symmetry_equiv_pos_as_xyz
  1  'x, y, z'
loop_
 _atom_site_type_symbol
 _atom_site_label
 _atom_site_symmetry_multiplicity
 _atom_site_fract_x
 _atom_site_fract_y
 _atom_site_fract_z
 _atom_site_occupancy
  Mg  Mg0  1  0.500000  0.500000  0.500000  1
  Mg  Mg1  1  0.500000  0.000000  0.000000  1
  Ga  Ga2  1  0.000000  0.500000  0.500000  1
  Ga  Ga3  1  0.500000  0.000000  0.500000  1
  Ag  Ag4  1  0.500000  0.500000  0.000000  1
  Ag  Ag5  1  0.000000  0.000000  0.000000  1
  Ag  Ag6  1  0.000000  0.500000  0.000000  1
  Ag  Ag7  1  0.000000  0.000000  0.500000  1
  F  F8  1  0.871749  0.589961  0.281788  1
  F  F9  1  0.191827  0.910039  0.281788  1
  F  F10  1  0.188238  0.802222  0.760600  1
  F  F11  1  0.458377  0.697778  0.386016  1
  F  F12  1  0.458377  0.072362  0.760600  1
  F  F13  1  0.188238  0.427638  0.386016  1
  F  F14  1  0.811762  0.572362  0.613984  1
  F  F15  1  0.541623  0.927638  0.239400  1
  F  F16  1  0.541623  0.302222  0.613984  1
  F  F17  1  0.811762  0.197778  0.239400  1
  F  F18  1  0.407837  0.250000  0.157837  1
  F  F19  1  0.128251  0.410039  0.718212  1
  F  F20  1  0.808173  0.089961  0.718212  1
  F  F21  1  0.592163  0.750000  0.842163  1
