# generated using pymatgen
data_Li6PuSc2N6
_symmetry_space_group_name_H-M   'P 1'
_cell_length_a   5.69740000
_cell_length_b   5.69740175
_cell_length_c   5.44584100
_cell_angle_alpha   90.00000000
_cell_angle_beta   90.00000000
_cell_angle_gamma   120.00000302
_symmetry_Int_Tables_number   1
_chemical_formula_structural   Li6PuSc2N6
_chemical_formula_sum   'Li6 Pu1 Sc2 N6'
_cell_volume   153.09081375
_cell_formula_units_Z   1
loop_
 _symmetry_equiv_pos_site_id
 _symmetry_equiv_pos_as_xyz
  1  'x, y, z'
loop_
 _atom_site_type_symbol
 _atom_site_label
 _atom_site_symmetry_multiplicity
 _atom_site_fract_x
 _atom_site_fract_y
 _atom_site_fract_z
 _atom_site_occupancy
  Li  Li0  1  0.995669  0.665429  0.618260  1
  Li  Li1  1  0.334571  0.330240  0.618260  1
  Li  Li2  1  0.669760  0.004331  0.618260  1
  Li  Li3  1  0.008051  0.336596  0.380440  1
  Li  Li4  1  0.663404  0.671456  0.380440  1
  Li  Li5  1  0.328544  0.991949  0.380440  1
  Pu  Pu6  1  0.666667  0.333333  0.002543  1
  Sc  Sc7  1  0.000000  0.000000  0.000436  1
  Sc  Sc8  1  0.333333  0.666667  0.995541  1
  N  N9  1  0.985143  0.652593  0.221400  1
  N  N10  1  0.347407  0.332550  0.221400  1
  N  N11  1  0.667450  0.014857  0.221400  1
  N  N12  1  0.986463  0.334092  0.780393  1
  N  N13  1  0.665908  0.652370  0.780393  1
  N  N14  1  0.347630  0.013537  0.780393  1
