# generated using pymatgen
data_Dy2Pa(SnIr)3
_symmetry_space_group_name_H-M   'P 1'
_cell_length_a   7.46384472
_cell_length_b   7.55631280
_cell_length_c   3.97823100
_cell_angle_alpha   90.00000000
_cell_angle_beta   90.00000000
_cell_angle_gamma   120.41068456
_symmetry_Int_Tables_number   1
_chemical_formula_structural   Dy2Pa(SnIr)3
_chemical_formula_sum   'Dy2 Pa1 Sn3 Ir3'
_cell_volume   193.50000542
_cell_formula_units_Z   1
loop_
 _symmetry_equiv_pos_site_id
 _symmetry_equiv_pos_as_xyz
  1  'x, y, z'
loop_
 _atom_site_type_symbol
 _atom_site_label
 _atom_site_symmetry_multiplicity
 _atom_site_fract_x
 _atom_site_fract_y
 _atom_site_fract_z
 _atom_site_occupancy
  Dy  Dy0  1  0.405260  0.405501  0.500000  1
  Dy  Dy1  1  0.594740  0.000240  0.500000  1
  Pa  Pa2  1  0.000000  0.587355  0.500000  1
  Sn  Sn3  1  0.729908  0.743548  0.000000  1
  Sn  Sn4  1  0.270092  0.013640  0.000000  1
  Sn  Sn5  1  0.000000  0.243790  0.000000  1
  Ir  Ir6  1  0.693711  0.357242  0.000000  1
  Ir  Ir7  1  0.306289  0.663532  0.000000  1
  Ir  Ir8  1  0.000000  0.985151  0.500000  1
