# generated using pymatgen
data_Sc3Ti2Sn3O
_symmetry_space_group_name_H-M   'P 1'
_cell_length_a   8.28694700
_cell_length_b   8.28694571
_cell_length_c   5.65537500
_cell_angle_alpha   90.00000000
_cell_angle_beta   90.00000000
_cell_angle_gamma   119.99999317
_symmetry_Int_Tables_number   1
_chemical_formula_structural   Sc3Ti2Sn3O
_chemical_formula_sum   'Sc6 Ti4 Sn6 O2'
_cell_volume   336.34201703
_cell_formula_units_Z   2
loop_
 _symmetry_equiv_pos_site_id
 _symmetry_equiv_pos_as_xyz
  1  'x, y, z'
loop_
 _atom_site_type_symbol
 _atom_site_label
 _atom_site_symmetry_multiplicity
 _atom_site_fract_x
 _atom_site_fract_y
 _atom_site_fract_z
 _atom_site_occupancy
  Sc  Sc0  1  0.778125  0.778125  0.750000  1
  Sc  Sc1  1  0.221875  0.000000  0.750000  1
  Sc  Sc2  1  0.000000  0.221875  0.750000  1
  Sc  Sc3  1  0.221875  0.221875  0.250000  1
  Sc  Sc4  1  0.778125  0.000000  0.250000  1
  Sc  Sc5  1  0.000000  0.778125  0.250000  1
  Ti  Ti6  1  0.666667  0.333333  0.000000  1
  Ti  Ti7  1  0.333333  0.666667  0.000000  1
  Ti  Ti8  1  0.333333  0.666667  0.500000  1
  Ti  Ti9  1  0.666667  0.333333  0.500000  1
  Sn  Sn10  1  0.407804  0.407804  0.750000  1
  Sn  Sn11  1  0.592196  0.000000  0.750000  1
  Sn  Sn12  1  0.000000  0.592196  0.750000  1
  Sn  Sn13  1  0.592196  0.592196  0.250000  1
  Sn  Sn14  1  0.407804  0.000000  0.250000  1
  Sn  Sn15  1  0.000000  0.407804  0.250000  1
  O  O16  1  0.000000  0.000000  0.000000  1
  O  O17  1  0.000000  0.000000  0.500000  1
