# generated using pymatgen
data_Ta8ReMo3Os4
_symmetry_space_group_name_H-M   'P 1'
_cell_length_a   6.41097100
_cell_length_b   4.51483800
_cell_length_c   9.08799300
_cell_angle_alpha   90.00000000
_cell_angle_beta   90.00136379
_cell_angle_gamma   90.00000000
_symmetry_Int_Tables_number   1
_chemical_formula_structural   Ta8ReMo3Os4
_chemical_formula_sum   'Ta8 Re1 Mo3 Os4'
_cell_volume   263.04737234
_cell_formula_units_Z   1
loop_
 _symmetry_equiv_pos_site_id
 _symmetry_equiv_pos_as_xyz
  1  'x, y, z'
loop_
 _atom_site_type_symbol
 _atom_site_label
 _atom_site_symmetry_multiplicity
 _atom_site_fract_x
 _atom_site_fract_y
 _atom_site_fract_z
 _atom_site_occupancy
  Ta  Ta0  1  0.998980  0.750001  0.125725  1
  Ta  Ta1  1  0.501071  0.750001  0.125726  1
  Ta  Ta2  1  0.000086  0.250000  0.374994  1
  Ta  Ta3  1  0.499983  0.250000  0.374991  1
  Ta  Ta4  1  0.501018  0.750001  0.624293  1
  Ta  Ta5  1  0.998908  0.750001  0.624293  1
  Ta  Ta6  1  0.500355  0.250000  0.874990  1
  Ta  Ta7  1  0.999601  0.250000  0.874989  1
  Re  Re8  1  0.249964  0.750001  0.875031  1
  Mo  Mo9  1  0.750024  0.250000  0.124385  1
  Mo  Mo10  1  0.250023  0.750001  0.374988  1
  Mo  Mo11  1  0.749980  0.250000  0.625617  1
  Os  Os12  1  0.250024  0.250000  0.123953  1
  Os  Os13  1  0.750026  0.750001  0.374995  1
  Os  Os14  1  0.249983  0.250000  0.626038  1
  Os  Os15  1  0.749977  0.750001  0.874989  1
