# generated using pymatgen
data_Ho15ErMgHg3Rh4
_symmetry_space_group_name_H-M   'P 1'
_cell_length_a   9.60420328
_cell_length_b   9.58691463
_cell_length_c   9.58691575
_cell_angle_alpha   59.74374788
_cell_angle_beta   59.85561733
_cell_angle_gamma   59.85561826
_symmetry_Int_Tables_number   1
_chemical_formula_structural   Ho15ErMgHg3Rh4
_chemical_formula_sum   'Ho15 Er1 Mg1 Hg3 Rh4'
_cell_volume   621.59631232
_cell_formula_units_Z   1
loop_
 _symmetry_equiv_pos_site_id
 _symmetry_equiv_pos_as_xyz
  1  'x, y, z'
loop_
 _atom_site_type_symbol
 _atom_site_label
 _atom_site_symmetry_multiplicity
 _atom_site_fract_x
 _atom_site_fract_y
 _atom_site_fract_z
 _atom_site_occupancy
  Ho  Ho0  1  0.185497  0.812294  0.812294  1
  Ho  Ho1  1  0.186500  0.811716  0.188284  1
  Ho  Ho2  1  0.808848  0.189566  0.809851  1
  Ho  Ho3  1  0.186500  0.188284  0.811716  1
  Ho  Ho4  1  0.808848  0.809851  0.189566  1
  Ho  Ho5  1  0.935920  0.563791  0.563791  1
  Ho  Ho6  1  0.561982  0.936510  0.936510  1
  Ho  Ho7  1  0.562948  0.937700  0.564378  1
  Ho  Ho8  1  0.935399  0.562381  0.938366  1
  Ho  Ho9  1  0.562948  0.564378  0.937700  1
  Ho  Ho10  1  0.935399  0.938366  0.562381  1
  Ho  Ho11  1  0.349857  0.347876  0.347876  1
  Ho  Ho12  1  0.352246  0.349009  0.952453  1
  Ho  Ho13  1  0.352246  0.952453  0.349009  1
  Ho  Ho14  1  0.940935  0.353763  0.353763  1
  Er  Er15  1  0.808658  0.190211  0.190211  1
  Mg  Mg16  1  0.282633  0.571813  0.571813  1
  Hg  Hg17  1  0.582402  0.586255  0.586255  1
  Hg  Hg18  1  0.582402  0.586649  0.243294  1
  Hg  Hg19  1  0.582402  0.243294  0.586649  1
  Rh  Rh20  1  0.139589  0.144333  0.144333  1
  Rh  Rh21  1  0.141102  0.144579  0.571813  1
  Rh  Rh22  1  0.141102  0.571813  0.144579  1
  Rh  Rh23  1  0.573641  0.143113  0.143113  1
