# generated using pymatgen
data_Er4AlPd
_symmetry_space_group_name_H-M   'P 1'
_cell_length_a   9.50949950
_cell_length_b   9.50949975
_cell_length_c   9.50949900
_cell_angle_alpha   59.99999914
_cell_angle_beta   59.99999826
_cell_angle_gamma   59.99999972
_symmetry_Int_Tables_number   1
_chemical_formula_structural   Er4AlPd
_chemical_formula_sum   'Er16 Al4 Pd4'
_cell_volume   608.07613785
_cell_formula_units_Z   4
loop_
 _symmetry_equiv_pos_site_id
 _symmetry_equiv_pos_as_xyz
  1  'x, y, z'
loop_
 _atom_site_type_symbol
 _atom_site_label
 _atom_site_symmetry_multiplicity
 _atom_site_fract_x
 _atom_site_fract_y
 _atom_site_fract_z
 _atom_site_occupancy
  Er  Er0  1  0.356431  0.356431  0.356431  1
  Er  Er1  1  0.356431  0.356431  0.930705  1
  Er  Er2  1  0.356431  0.930705  0.356431  1
  Er  Er3  1  0.930705  0.356431  0.356431  1
  Er  Er4  1  0.806874  0.193126  0.193126  1
  Er  Er5  1  0.193126  0.806874  0.806874  1
  Er  Er6  1  0.193126  0.806874  0.193126  1
  Er  Er7  1  0.806874  0.193126  0.806874  1
  Er  Er8  1  0.193126  0.193126  0.806874  1
  Er  Er9  1  0.806874  0.806874  0.193126  1
  Er  Er10  1  0.933696  0.566304  0.566304  1
  Er  Er11  1  0.566304  0.933696  0.933696  1
  Er  Er12  1  0.566304  0.933696  0.566304  1
  Er  Er13  1  0.933696  0.566304  0.933696  1
  Er  Er14  1  0.566304  0.566304  0.933696  1
  Er  Er15  1  0.933696  0.933696  0.566304  1
  Al  Al16  1  0.578096  0.578096  0.578096  1
  Al  Al17  1  0.578096  0.578096  0.265712  1
  Al  Al18  1  0.578096  0.265712  0.578096  1
  Al  Al19  1  0.265712  0.578096  0.578096  1
  Pd  Pd20  1  0.144696  0.144696  0.144696  1
  Pd  Pd21  1  0.144696  0.144696  0.565912  1
  Pd  Pd22  1  0.144696  0.565912  0.144696  1
  Pd  Pd23  1  0.565912  0.144696  0.144696  1
