# generated using pymatgen
data_CsRbLa2(SiSe4)2
_symmetry_space_group_name_H-M   'P 1'
_cell_length_a   7.25477977
_cell_length_b   6.90738022
_cell_length_c   19.34834100
_cell_angle_alpha   71.77837058
_cell_angle_beta   90.17483076
_cell_angle_gamma   89.96833581
_symmetry_Int_Tables_number   1
_chemical_formula_structural   CsRbLa2(SiSe4)2
_chemical_formula_sum   'Cs2 Rb2 La4 Si4 Se16'
_cell_volume   920.94915003
_cell_formula_units_Z   2
loop_
 _symmetry_equiv_pos_site_id
 _symmetry_equiv_pos_as_xyz
  1  'x, y, z'
loop_
 _atom_site_type_symbol
 _atom_site_label
 _atom_site_symmetry_multiplicity
 _atom_site_fract_x
 _atom_site_fract_y
 _atom_site_fract_z
 _atom_site_occupancy
  Cs  Cs0  1  0.745606  0.731290  0.532754  1
  Cs  Cs1  1  0.254394  0.268710  0.467246  1
  Rb  Rb2  1  0.749124  0.732263  0.032425  1
  Rb  Rb3  1  0.250876  0.267737  0.967575  1
  La  La4  1  0.233415  0.234275  0.221259  1
  La  La5  1  0.734227  0.771867  0.269296  1
  La  La6  1  0.766585  0.765725  0.778741  1
  La  La7  1  0.265773  0.228133  0.730704  1
  Si  Si8  1  0.730013  0.208483  0.841462  1
  Si  Si9  1  0.769203  0.212959  0.332146  1
  Si  Si10  1  0.230797  0.787041  0.667854  1
  Si  Si11  1  0.269987  0.791517  0.158538  1
  Se  Se12  1  0.503877  0.028086  0.134347  1
  Se  Se13  1  0.763255  0.406128  0.407867  1
  Se  Se14  1  0.993863  0.013262  0.855915  1
  Se  Se15  1  0.820292  0.410855  0.214261  1
  Se  Se16  1  0.997673  0.025268  0.644443  1
  Se  Se17  1  0.259842  0.597184  0.083217  1
  Se  Se18  1  0.740158  0.402816  0.916783  1
  Se  Se19  1  0.320948  0.595427  0.276754  1
  Se  Se20  1  0.236745  0.593872  0.592133  1
  Se  Se21  1  0.496123  0.971914  0.865653  1
  Se  Se22  1  0.679052  0.404573  0.723246  1
  Se  Se23  1  0.179708  0.589145  0.785739  1
  Se  Se24  1  0.002327  0.974732  0.355557  1
  Se  Se25  1  0.006137  0.986738  0.144085  1
  Se  Se26  1  0.504905  0.019626  0.345870  1
  Se  Se27  1  0.495095  0.980374  0.654130  1
