# generated using pymatgen
data_BaYPPt8
_symmetry_space_group_name_H-M   'P 1'
_cell_length_a   9.40079084
_cell_length_b   9.37858543
_cell_length_c   4.28913200
_cell_angle_alpha   90.00000000
_cell_angle_beta   90.00000000
_cell_angle_gamma   145.89646511
_symmetry_Int_Tables_number   1
_chemical_formula_structural   BaYPPt8
_chemical_formula_sum   'Ba1 Y1 P1 Pt8'
_cell_volume   212.02838943
_cell_formula_units_Z   1
loop_
 _symmetry_equiv_pos_site_id
 _symmetry_equiv_pos_as_xyz
  1  'x, y, z'
loop_
 _atom_site_type_symbol
 _atom_site_label
 _atom_site_symmetry_multiplicity
 _atom_site_fract_x
 _atom_site_fract_y
 _atom_site_fract_z
 _atom_site_occupancy
  Ba  Ba0  1  0.620186  0.382623  0.500000  1
  Y  Y1  1  0.365729  0.625013  0.500000  1
  P  P2  1  0.213056  0.210318  0.000000  1
  Pt  Pt3  1  0.113898  0.889554  0.000000  1
  Pt  Pt4  1  0.894504  0.110541  0.000000  1
  Pt  Pt5  1  0.496519  0.978393  0.000000  1
  Pt  Pt6  1  0.003344  0.491225  0.000000  1
  Pt  Pt7  1  0.201749  0.790016  0.500000  1
  Pt  Pt8  1  0.797526  0.191183  0.500000  1
  Pt  Pt9  1  0.005893  0.011530  0.500000  1
  Pt  Pt10  1  0.601194  0.633203  0.000000  1
