# generated using pymatgen
data_Hf9TaCuTcW2
_symmetry_space_group_name_H-M   'P 1'
_cell_length_a   8.75166821
_cell_length_b   8.72357548
_cell_length_c   8.51056100
_cell_angle_alpha   90.00000000
_cell_angle_beta   90.00000000
_cell_angle_gamma   119.89386934
_symmetry_Int_Tables_number   1
_chemical_formula_structural   Hf9TaCuTcW2
_chemical_formula_sum   'Hf18 Ta2 Cu2 Tc2 W4'
_cell_volume   563.29727294
_cell_formula_units_Z   2
loop_
 _symmetry_equiv_pos_site_id
 _symmetry_equiv_pos_as_xyz
  1  'x, y, z'
loop_
 _atom_site_type_symbol
 _atom_site_label
 _atom_site_symmetry_multiplicity
 _atom_site_fract_x
 _atom_site_fract_y
 _atom_site_fract_z
 _atom_site_occupancy
  Hf  Hf0  1  0.199268  0.802003  0.444881  1
  Hf  Hf1  1  0.199268  0.397266  0.444881  1
  Hf  Hf2  1  0.602322  0.801163  0.445087  1
  Hf  Hf3  1  0.802403  0.198260  0.555075  1
  Hf  Hf4  1  0.802403  0.604142  0.555075  1
  Hf  Hf5  1  0.396265  0.198133  0.554916  1
  Hf  Hf6  1  0.802403  0.198260  0.944925  1
  Hf  Hf7  1  0.802403  0.604142  0.944925  1
  Hf  Hf8  1  0.396265  0.198133  0.945084  1
  Hf  Hf9  1  0.199268  0.802003  0.055119  1
  Hf  Hf10  1  0.199268  0.397266  0.055119  1
  Hf  Hf11  1  0.602322  0.801163  0.054913  1
  Hf  Hf12  1  0.542498  0.456962  0.250000  1
  Hf  Hf13  1  0.542498  0.085536  0.250000  1
  Hf  Hf14  1  0.914461  0.457231  0.250000  1
  Hf  Hf15  1  0.457668  0.542030  0.750000  1
  Hf  Hf16  1  0.457668  0.915639  0.750000  1
  Hf  Hf17  1  0.083935  0.541969  0.750000  1
  Ta  Ta18  1  0.998063  0.999032  0.494821  1
  Ta  Ta19  1  0.998063  0.999032  0.005179  1
  Cu  Cu20  1  0.334368  0.667184  0.250000  1
  Cu  Cu21  1  0.666292  0.333147  0.750000  1
  Tc  Tc22  1  0.886761  0.115000  0.250000  1
  Tc  Tc23  1  0.886761  0.771760  0.250000  1
  W  W24  1  0.230335  0.115168  0.250000  1
  W  W25  1  0.111940  0.886237  0.750000  1
  W  W26  1  0.111940  0.225701  0.750000  1
  W  W27  1  0.772889  0.886444  0.750000  1
