# generated using pymatgen
data_Y5TmAl24Ir5Os3
_symmetry_space_group_name_H-M   'P 1'
_cell_length_a   8.84354506
_cell_length_b   8.83489389
_cell_length_c   9.52037369
_cell_angle_alpha   90.00480856
_cell_angle_beta   89.75640204
_cell_angle_gamma   119.92050830
_symmetry_Int_Tables_number   1
_chemical_formula_structural   Y5TmAl24Ir5Os3
_chemical_formula_sum   'Y5 Tm1 Al24 Ir5 Os3'
_cell_volume   644.69537014
_cell_formula_units_Z   1
loop_
 _symmetry_equiv_pos_site_id
 _symmetry_equiv_pos_as_xyz
  1  'x, y, z'
loop_
 _atom_site_type_symbol
 _atom_site_label
 _atom_site_symmetry_multiplicity
 _atom_site_fract_x
 _atom_site_fract_y
 _atom_site_fract_z
 _atom_site_occupancy
  Y  Y0  1  0.808860  0.613921  0.748661  1
  Y  Y1  1  0.614306  0.806970  0.250190  1
  Y  Y2  1  0.385746  0.192592  0.749760  1
  Y  Y3  1  0.190888  0.804895  0.251292  1
  Y  Y4  1  0.808687  0.194539  0.748695  1
  Tm  Tm5  1  0.192611  0.389849  0.251817  1
  Al  Al6  1  0.333309  0.666653  0.026262  1
  Al  Al7  1  0.666525  0.333036  0.975232  1
  Al  Al8  1  0.668079  0.333760  0.523141  1
  Al  Al9  1  0.332153  0.666175  0.475638  1
  Al  Al10  1  0.162687  0.327311  0.573919  1
  Al  Al11  1  0.837119  0.672291  0.424600  1
  Al  Al12  1  0.673494  0.836668  0.575442  1
  Al  Al13  1  0.836378  0.673020  0.075162  1
  Al  Al14  1  0.325947  0.163168  0.423505  1
  Al  Al15  1  0.163467  0.326700  0.926467  1
  Al  Al16  1  0.162872  0.835050  0.574723  1
  Al  Al17  1  0.325748  0.163216  0.076698  1
  Al  Al18  1  0.837697  0.164804  0.424195  1
  Al  Al19  1  0.673443  0.836661  0.924362  1
  Al  Al20  1  0.836874  0.163291  0.075604  1
  Al  Al21  1  0.163597  0.836437  0.925392  1
  Al  Al22  1  0.561578  0.123941  0.249601  1
  Al  Al23  1  0.438210  0.875639  0.750313  1
  Al  Al24  1  0.875161  0.437197  0.250611  1
  Al  Al25  1  0.124750  0.561987  0.749172  1
  Al  Al26  1  0.561012  0.437241  0.249564  1
  Al  Al27  1  0.438040  0.562026  0.750375  1
  Al  Al28  1  0.000941  0.003445  0.250091  1
  Al  Al29  1  0.001038  0.000378  0.749921  1
  Ir  Ir30  1  0.499855  0.999806  0.999981  1
  Ir  Ir31  1  0.000258  0.499577  0.000469  1
  Ir  Ir32  1  0.499926  0.999873  0.499968  1
  Ir  Ir33  1  0.499267  0.499580  0.000461  1
  Ir  Ir34  1  0.499393  0.499564  0.499533  1
  Os  Os35  1  0.000459  0.499493  0.499161  1
  Os  Os36  1  0.999787  0.999638  0.999953  1
  Os  Os37  1  0.999840  0.999608  0.500069  1
