# generated using pymatgen
data_HoEr7Re3TcC8
_symmetry_space_group_name_H-M   'P 1'
_cell_length_a   5.06466600
_cell_length_b   6.53818801
_cell_length_c   9.80330469
_cell_angle_alpha   89.98186306
_cell_angle_beta   90.00000000
_cell_angle_gamma   90.00000000
_symmetry_Int_Tables_number   1
_chemical_formula_structural   HoEr7Re3TcC8
_chemical_formula_sum   'Ho1 Er7 Re3 Tc1 C8'
_cell_volume   324.62405173
_cell_formula_units_Z   1
loop_
 _symmetry_equiv_pos_site_id
 _symmetry_equiv_pos_as_xyz
  1  'x, y, z'
loop_
 _atom_site_type_symbol
 _atom_site_label
 _atom_site_symmetry_multiplicity
 _atom_site_fract_x
 _atom_site_fract_y
 _atom_site_fract_z
 _atom_site_occupancy
  Ho  Ho0  1  0.750000  0.533378  0.783519  1
  Er  Er1  1  0.250000  0.965716  0.283167  1
  Er  Er2  1  0.750000  0.677911  0.442417  1
  Er  Er3  1  0.250000  0.823584  0.942704  1
  Er  Er4  1  0.750000  0.177428  0.057860  1
  Er  Er5  1  0.250000  0.321683  0.558174  1
  Er  Er6  1  0.250000  0.465425  0.216926  1
  Er  Er7  1  0.750000  0.033861  0.716895  1
  Re  Re8  1  0.250000  0.782494  0.632033  1
  Re  Re9  1  0.750000  0.218274  0.367946  1
  Re  Re10  1  0.750000  0.718124  0.132225  1
  Tc  Tc11  1  0.250000  0.281935  0.868064  1
  C  C12  1  0.250000  0.675318  0.448042  1
  C  C13  1  0.250000  0.550361  0.757897  1
  C  C14  1  0.750000  0.451014  0.241206  1
  C  C15  1  0.750000  0.824736  0.948321  1
  C  C16  1  0.250000  0.048712  0.740762  1
  C  C17  1  0.250000  0.174888  0.051046  1
  C  C18  1  0.750000  0.324339  0.551792  1
  C  C19  1  0.750000  0.950818  0.259004  1
