# generated using pymatgen
data_Li6In5PRh12
_symmetry_space_group_name_H-M   'P 1'
_cell_length_a   4.31500700
_cell_length_b   6.30891900
_cell_length_c   12.97953901
_cell_angle_alpha   90.00000000
_cell_angle_beta   89.99515990
_cell_angle_gamma   90.00000000
_symmetry_Int_Tables_number   1
_chemical_formula_structural   Li6In5PRh12
_chemical_formula_sum   'Li6 In5 P1 Rh12'
_cell_volume   353.34237438
_cell_formula_units_Z   1
loop_
 _symmetry_equiv_pos_site_id
 _symmetry_equiv_pos_as_xyz
  1  'x, y, z'
loop_
 _atom_site_type_symbol
 _atom_site_label
 _atom_site_symmetry_multiplicity
 _atom_site_fract_x
 _atom_site_fract_y
 _atom_site_fract_z
 _atom_site_occupancy
  Li  Li0  1  0.000000  0.500000  0.000000  1
  Li  Li1  1  0.499874  0.000000  0.171682  1
  Li  Li2  1  0.999859  0.500000  0.327088  1
  Li  Li3  1  0.500000  0.000000  0.500000  1
  Li  Li4  1  0.000141  0.500000  0.672912  1
  Li  Li5  1  0.500126  0.000000  0.828318  1
  In  In6  1  0.499462  0.500000  0.158963  1
  In  In7  1  0.999929  0.000000  0.329292  1
  In  In8  1  0.500000  0.500000  0.500000  1
  In  In9  1  0.000071  0.000000  0.670708  1
  In  In10  1  0.500538  0.500000  0.841036  1
  P  P11  1  0.000000  0.000000  0.000000  1
  Rh  Rh12  1  0.500000  0.214092  0.000000  1
  Rh  Rh13  1  0.500000  0.785909  0.000000  1
  Rh  Rh14  1  0.999808  0.228440  0.148224  1
  Rh  Rh15  1  0.999808  0.771560  0.148224  1
  Rh  Rh16  1  0.499886  0.253414  0.328772  1
  Rh  Rh17  1  0.499886  0.746585  0.328772  1
  Rh  Rh18  1  0.000000  0.246448  0.500000  1
  Rh  Rh19  1  0.000000  0.753553  0.500000  1
  Rh  Rh20  1  0.500114  0.253414  0.671228  1
  Rh  Rh21  1  0.500114  0.746585  0.671228  1
  Rh  Rh22  1  0.000192  0.228440  0.851776  1
  Rh  Rh23  1  0.000192  0.771560  0.851776  1
