# generated using pymatgen
data_Yb(Cd2Ag)4
_symmetry_space_group_name_H-M   'P 1'
_cell_length_a   7.55318833
_cell_length_b   7.55318805
_cell_length_c   7.55318935
_cell_angle_alpha   98.66442910
_cell_angle_beta   98.66442702
_cell_angle_gamma   134.32326642
_symmetry_Int_Tables_number   1
_chemical_formula_structural   Yb(Cd2Ag)4
_chemical_formula_sum   'Yb1 Cd8 Ag4'
_cell_volume   284.11195498
_cell_formula_units_Z   1
loop_
 _symmetry_equiv_pos_site_id
 _symmetry_equiv_pos_as_xyz
  1  'x, y, z'
loop_
 _atom_site_type_symbol
 _atom_site_label
 _atom_site_symmetry_multiplicity
 _atom_site_fract_x
 _atom_site_fract_y
 _atom_site_fract_z
 _atom_site_occupancy
  Yb  Yb0  1  0.000000  0.000000  0.000000  1
  Cd  Cd1  1  0.000000  0.341431  0.341431  1
  Cd  Cd2  1  0.000000  0.658569  0.658569  1
  Cd  Cd3  1  0.658569  0.000000  0.658569  1
  Cd  Cd4  1  0.341431  0.000000  0.341431  1
  Cd  Cd5  1  0.500000  0.284264  0.784264  1
  Cd  Cd6  1  0.500000  0.715736  0.215736  1
  Cd  Cd7  1  0.715736  0.500000  0.215736  1
  Cd  Cd8  1  0.284264  0.500000  0.784264  1
  Ag  Ag9  1  0.000000  0.000000  0.500000  1
  Ag  Ag10  1  0.500000  0.500000  0.500000  1
  Ag  Ag11  1  0.500000  0.000000  0.000000  1
  Ag  Ag12  1  0.000000  0.500000  0.000000  1
