# generated using pymatgen
data_Er2PS
_symmetry_space_group_name_H-M   'P 1'
_cell_length_a   6.79414129
_cell_length_b   6.79414123
_cell_length_c   6.79414137
_cell_angle_alpha   131.90301292
_cell_angle_beta   131.90300945
_cell_angle_gamma   70.38224940
_symmetry_Int_Tables_number   1
_chemical_formula_structural   Er2PS
_chemical_formula_sum   'Er4 P2 S2'
_cell_volume   170.24962388
_cell_formula_units_Z   2
loop_
 _symmetry_equiv_pos_site_id
 _symmetry_equiv_pos_as_xyz
  1  'x, y, z'
loop_
 _atom_site_type_symbol
 _atom_site_label
 _atom_site_symmetry_multiplicity
 _atom_site_fract_x
 _atom_site_fract_y
 _atom_site_fract_z
 _atom_site_occupancy
  Er  Er0  1  0.495886  0.995886  0.500000  1
  Er  Er1  1  0.004114  0.504114  0.500000  1
  Er  Er2  1  0.745886  0.745886  0.000000  1
  Er  Er3  1  0.254114  0.254114  0.000000  1
  P  P4  1  0.250000  0.750000  0.500000  1
  P  P5  1  0.500000  0.500000  0.000000  1
  S  S6  1  0.000000  0.000000  0.000000  1
  S  S7  1  0.750000  0.250000  0.500000  1
