# generated using pymatgen
data_Yb2YHo(FeB4)4
_symmetry_space_group_name_H-M   'P 1'
_cell_length_a   3.35123700
_cell_length_b   5.88282472
_cell_length_c   11.37941576
_cell_angle_alpha   89.93531546
_cell_angle_beta   90.00000000
_cell_angle_gamma   90.00000000
_symmetry_Int_Tables_number   1
_chemical_formula_structural   Yb2YHo(FeB4)4
_chemical_formula_sum   'Yb2 Y1 Ho1 Fe4 B16'
_cell_volume   224.34207842
_cell_formula_units_Z   1
loop_
 _symmetry_equiv_pos_site_id
 _symmetry_equiv_pos_as_xyz
  1  'x, y, z'
loop_
 _atom_site_type_symbol
 _atom_site_label
 _atom_site_symmetry_multiplicity
 _atom_site_fract_x
 _atom_site_fract_y
 _atom_site_fract_z
 _atom_site_occupancy
  Yb  Yb0  1  0.000000  0.625808  0.849935  1
  Yb  Yb1  1  0.000000  0.374150  0.149883  1
  Y  Y2  1  0.000000  0.873308  0.349026  1
  Ho  Ho3  1  0.000000  0.126798  0.651078  1
  Fe  Fe4  1  0.000000  0.127664  0.915127  1
  Fe  Fe5  1  0.000000  0.872342  0.084347  1
  Fe  Fe6  1  0.000000  0.632999  0.587557  1
  Fe  Fe7  1  0.000000  0.366865  0.413067  1
  B  B8  1  0.500000  0.361163  0.967567  1
  B  B9  1  0.500000  0.638714  0.032012  1
  B  B10  1  0.500000  0.860616  0.532348  1
  B  B11  1  0.500000  0.139576  0.468440  1
  B  B12  1  0.500000  0.475291  0.690894  1
  B  B13  1  0.500000  0.524231  0.309316  1
  B  B14  1  0.500000  0.976018  0.810089  1
  B  B15  1  0.500000  0.024329  0.189428  1
  B  B16  1  0.500000  0.281057  0.817685  1
  B  B17  1  0.500000  0.718740  0.181825  1
  B  B18  1  0.500000  0.780461  0.684180  1
  B  B19  1  0.500000  0.220222  0.316004  1
  B  B20  1  0.500000  0.388742  0.546806  1
  B  B21  1  0.500000  0.610677  0.453847  1
  B  B22  1  0.500000  0.887028  0.953795  1
  B  B23  1  0.500000  0.113202  0.045743  1
