# generated using pymatgen
data_CePrCrN3
_symmetry_space_group_name_H-M   'P 1'
_cell_length_a   3.55576169
_cell_length_b   3.75585915
_cell_length_c   6.86270131
_cell_angle_alpha   105.88116841
_cell_angle_beta   105.01454440
_cell_angle_gamma   89.99998677
_symmetry_Int_Tables_number   1
_chemical_formula_structural   CePrCrN3
_chemical_formula_sum   'Ce1 Pr1 Cr1 N3'
_cell_volume   84.89497866
_cell_formula_units_Z   1
loop_
 _symmetry_equiv_pos_site_id
 _symmetry_equiv_pos_as_xyz
  1  'x, y, z'
loop_
 _atom_site_type_symbol
 _atom_site_label
 _atom_site_symmetry_multiplicity
 _atom_site_fract_x
 _atom_site_fract_y
 _atom_site_fract_z
 _atom_site_occupancy
  Ce  Ce0  1  0.350449  0.350450  0.700900  1
  Pr  Pr1  1  0.645277  0.645276  0.290552  1
  Cr  Cr2  1  0.997932  0.997932  0.995863  1
  N  N3  1  0.997667  0.497667  0.995335  1
  N  N4  1  0.167936  0.167936  0.335870  1
  N  N5  1  0.840740  0.840739  0.681478  1
