# generated using pymatgen
data_Ba4Al6TcO16
_symmetry_space_group_name_H-M   'P 1'
_cell_length_a   8.46550785
_cell_length_b   8.46550730
_cell_length_c   8.46550727
_cell_angle_alpha   109.86633966
_cell_angle_beta   109.86633471
_cell_angle_gamma   108.68383921
_symmetry_Int_Tables_number   1
_chemical_formula_structural   Ba4Al6TcO16
_chemical_formula_sum   'Ba4 Al6 Tc1 O16'
_cell_volume   466.95573915
_cell_formula_units_Z   1
loop_
 _symmetry_equiv_pos_site_id
 _symmetry_equiv_pos_as_xyz
  1  'x, y, z'
loop_
 _atom_site_type_symbol
 _atom_site_label
 _atom_site_symmetry_multiplicity
 _atom_site_fract_x
 _atom_site_fract_y
 _atom_site_fract_z
 _atom_site_occupancy
  Ba  Ba0  1  0.494864  0.994864  0.989730  1
  Ba  Ba1  1  0.005136  0.994864  0.500000  1
  Ba  Ba2  1  0.005136  0.505136  0.010270  1
  Ba  Ba3  1  0.494864  0.505136  0.500000  1
  Al  Al4  1  0.502134  0.250794  0.748661  1
  Al  Al5  1  0.750000  0.250000  0.500000  1
  Al  Al6  1  0.246528  0.497866  0.748661  1
  Al  Al7  1  0.250000  0.750000  0.500000  1
  Al  Al8  1  0.502134  0.753472  0.251339  1
  Al  Al9  1  0.749206  0.497866  0.251339  1
  Tc  Tc10  1  0.000000  0.000000  0.000000  1
  O  O11  1  0.656451  0.000780  0.344331  1
  O  O12  1  0.297358  0.648054  0.649305  1
  O  O13  1  0.654441  0.345559  0.000000  1
  O  O14  1  0.351946  0.001251  0.649305  1
  O  O15  1  0.999220  0.343549  0.655669  1
  O  O16  1  0.654441  0.654441  0.308884  1
  O  O17  1  0.656451  0.312121  0.655669  1
  O  O18  1  0.998749  0.648054  0.350695  1
  O  O19  1  0.345559  0.654441  0.000000  1
  O  O20  1  0.351946  0.702642  0.350695  1
  O  O21  1  0.687879  0.343549  0.344331  1
  O  O22  1  0.345559  0.345559  0.691116  1
  O  O23  1  0.110213  0.963499  0.853287  1
  O  O24  1  0.036501  0.889787  0.146713  1
  O  O25  1  0.110213  0.256925  0.146713  1
  O  O26  1  0.743075  0.889787  0.853287  1
