# generated using pymatgen
data_TiMn2Nb3(B2Ru5)2
_symmetry_space_group_name_H-M   'P 1'
_cell_length_a   9.29262450
_cell_length_b   9.29262450
_cell_length_c   2.98470300
_cell_angle_alpha   90.00000000
_cell_angle_beta   90.00000000
_cell_angle_gamma   89.60753842
_symmetry_Int_Tables_number   1
_chemical_formula_structural   TiMn2Nb3(B2Ru5)2
_chemical_formula_sum   'Ti1 Mn2 Nb3 B4 Ru10'
_cell_volume   257.73162407
_cell_formula_units_Z   1
loop_
 _symmetry_equiv_pos_site_id
 _symmetry_equiv_pos_as_xyz
  1  'x, y, z'
loop_
 _atom_site_type_symbol
 _atom_site_label
 _atom_site_symmetry_multiplicity
 _atom_site_fract_x
 _atom_site_fract_y
 _atom_site_fract_z
 _atom_site_occupancy
  Ti  Ti0  1  0.822561  0.677439  0.000000  1
  Mn  Mn1  1  0.500956  0.500592  0.000000  1
  Mn  Mn2  1  0.999408  0.999044  0.000000  1
  Nb  Nb3  1  0.175704  0.324296  0.000000  1
  Nb  Nb4  1  0.322893  0.821670  0.000000  1
  Nb  Nb5  1  0.678330  0.177107  0.000000  1
  B  B6  1  0.625814  0.874186  0.000000  1
  B  B7  1  0.375856  0.124144  0.000000  1
  B  B8  1  0.122665  0.624152  0.000000  1
  B  B9  1  0.875848  0.377335  0.000000  1
  Ru  Ru10  1  0.572902  0.712701  0.500000  1
  Ru  Ru11  1  0.428997  0.286247  0.500000  1
  Ru  Ru12  1  0.070107  0.786641  0.500000  1
  Ru  Ru13  1  0.930068  0.214447  0.500000  1
  Ru  Ru14  1  0.285553  0.569932  0.500000  1
  Ru  Ru15  1  0.713359  0.429893  0.500000  1
  Ru  Ru16  1  0.213753  0.071003  0.500000  1
  Ru  Ru17  1  0.787299  0.927098  0.500000  1
  Ru  Ru18  1  0.500687  0.999313  0.500000  1
  Ru  Ru19  1  0.997241  0.502759  0.500000  1
