# generated using pymatgen
data_La7Ho3(RuRh)2
_symmetry_space_group_name_H-M   'P 1'
_cell_length_a   6.60030149
_cell_length_b   7.25418570
_cell_length_c   9.10255332
_cell_angle_alpha   95.19705063
_cell_angle_beta   111.75934905
_cell_angle_gamma   90.20063812
_symmetry_Int_Tables_number   1
_chemical_formula_structural   La7Ho3(RuRh)2
_chemical_formula_sum   'La7 Ho3 Ru2 Rh2'
_cell_volume   402.78727218
_cell_formula_units_Z   1
loop_
 _symmetry_equiv_pos_site_id
 _symmetry_equiv_pos_as_xyz
  1  'x, y, z'
loop_
 _atom_site_type_symbol
 _atom_site_label
 _atom_site_symmetry_multiplicity
 _atom_site_fract_x
 _atom_site_fract_y
 _atom_site_fract_z
 _atom_site_occupancy
  La  La0  1  0.984105  0.920228  0.185342  1
  La  La1  1  0.804320  0.583010  0.815091  1
  La  La2  1  0.021572  0.089504  0.818081  1
  La  La3  1  0.211773  0.407826  0.188550  1
  La  La4  1  0.635933  0.817109  0.422364  1
  La  La5  1  0.208645  0.680909  0.574167  1
  La  La6  1  0.357321  0.187705  0.570823  1
  Ho  Ho7  1  0.788206  0.313786  0.426291  1
  Ho  Ho8  1  0.431662  0.748986  0.999566  1
  Ho  Ho9  1  0.571888  0.251031  0.004118  1
  Ru  Ru10  1  0.171398  0.421746  0.771173  1
  Ru  Ru11  1  0.402043  0.078881  0.218684  1
  Rh  Rh12  1  0.812232  0.575427  0.218312  1
  Rh  Rh13  1  0.598901  0.923851  0.787438  1
