# generated using pymatgen
data_Sc(OsO3)2
_symmetry_space_group_name_H-M   'P 1'
_cell_length_a   4.81501400
_cell_length_b   5.62457031
_cell_length_c   7.63849692
_cell_angle_alpha   83.29162268
_cell_angle_beta   90.00000000
_cell_angle_gamma   90.00000000
_symmetry_Int_Tables_number   1
_chemical_formula_structural   Sc(OsO3)2
_chemical_formula_sum   'Sc2 Os4 O12'
_cell_volume   205.45240261
_cell_formula_units_Z   2
loop_
 _symmetry_equiv_pos_site_id
 _symmetry_equiv_pos_as_xyz
  1  'x, y, z'
loop_
 _atom_site_type_symbol
 _atom_site_label
 _atom_site_symmetry_multiplicity
 _atom_site_fract_x
 _atom_site_fract_y
 _atom_site_fract_z
 _atom_site_occupancy
  Sc  Sc0  1  0.500000  0.000000  0.500000  1
  Sc  Sc1  1  0.000000  0.500000  0.500000  1
  Os  Os2  1  0.991788  0.133400  0.847590  1
  Os  Os3  1  0.008212  0.866600  0.152410  1
  Os  Os4  1  0.508212  0.633400  0.847590  1
  Os  Os5  1  0.491788  0.366600  0.152410  1
  O  O6  1  0.325656  0.674983  0.617337  1
  O  O7  1  0.227427  0.847815  0.930448  1
  O  O8  1  0.213658  0.572868  0.251312  1
  O  O9  1  0.825656  0.825017  0.382663  1
  O  O10  1  0.713658  0.927132  0.748688  1
  O  O11  1  0.786342  0.427132  0.748688  1
  O  O12  1  0.674344  0.325017  0.382663  1
  O  O13  1  0.286342  0.072868  0.251312  1
  O  O14  1  0.272573  0.347815  0.930448  1
  O  O15  1  0.174344  0.174983  0.617337  1
  O  O16  1  0.772573  0.152185  0.069552  1
  O  O17  1  0.727427  0.652185  0.069552  1
