# generated using pymatgen
data_Ce6IrAu7
_symmetry_space_group_name_H-M   'P 1'
_cell_length_a   8.24167147
_cell_length_b   8.24167081
_cell_length_c   8.24166959
_cell_angle_alpha   114.17283167
_cell_angle_beta   114.17283865
_cell_angle_gamma   114.17284098
_symmetry_Int_Tables_number   1
_chemical_formula_structural   Ce6IrAu7
_chemical_formula_sum   'Ce6 Ir1 Au7'
_cell_volume   335.71431012
_cell_formula_units_Z   1
loop_
 _symmetry_equiv_pos_site_id
 _symmetry_equiv_pos_as_xyz
  1  'x, y, z'
loop_
 _atom_site_type_symbol
 _atom_site_label
 _atom_site_symmetry_multiplicity
 _atom_site_fract_x
 _atom_site_fract_y
 _atom_site_fract_z
 _atom_site_occupancy
  Ce  Ce0  1  0.382791  0.018356  0.267764  1
  Ce  Ce1  1  0.018356  0.267764  0.382791  1
  Ce  Ce2  1  0.267764  0.382791  0.018356  1
  Ce  Ce3  1  0.617209  0.981644  0.732236  1
  Ce  Ce4  1  0.981644  0.732236  0.617209  1
  Ce  Ce5  1  0.732236  0.617209  0.981644  1
  Ir  Ir6  1  0.000000  0.000000  0.000000  1
  Au  Au7  1  0.068747  0.567707  0.233479  1
  Au  Au8  1  0.233479  0.068747  0.567707  1
  Au  Au9  1  0.567707  0.233479  0.068747  1
  Au  Au10  1  0.766521  0.931253  0.432293  1
  Au  Au11  1  0.931253  0.432293  0.766521  1
  Au  Au12  1  0.432293  0.766521  0.931253  1
  Au  Au13  1  0.500000  0.500000  0.500000  1
