# generated using pymatgen
data_Tm4Cu2OsRu5
_symmetry_space_group_name_H-M   'P 1'
_cell_length_a   5.34610821
_cell_length_b   5.16150176
_cell_length_c   8.74015000
_cell_angle_alpha   90.00000000
_cell_angle_beta   90.00000000
_cell_angle_gamma   120.00302673
_symmetry_Int_Tables_number   1
_chemical_formula_structural   Tm4Cu2OsRu5
_chemical_formula_sum   'Tm4 Cu2 Os1 Ru5'
_cell_volume   208.85750993
_cell_formula_units_Z   1
loop_
 _symmetry_equiv_pos_site_id
 _symmetry_equiv_pos_as_xyz
  1  'x, y, z'
loop_
 _atom_site_type_symbol
 _atom_site_label
 _atom_site_symmetry_multiplicity
 _atom_site_fract_x
 _atom_site_fract_y
 _atom_site_fract_z
 _atom_site_occupancy
  Tm  Tm0  1  0.674353  0.340135  0.563848  1
  Tm  Tm1  1  0.341246  0.671777  0.436466  1
  Tm  Tm2  1  0.341246  0.671777  0.063534  1
  Tm  Tm3  1  0.674353  0.340135  0.936152  1
  Cu  Cu4  1  0.811699  0.650988  0.250000  1
  Cu  Cu5  1  0.815194  0.160617  0.250000  1
  Os  Os6  1  0.164272  0.328455  0.750000  1
  Ru  Ru7  1  0.021533  0.022933  0.498095  1
  Ru  Ru8  1  0.021533  0.022933  0.001905  1
  Ru  Ru9  1  0.171315  0.821984  0.750000  1
  Ru  Ru10  1  0.653272  0.817910  0.750000  1
  Ru  Ru11  1  0.309983  0.150354  0.250000  1
