# generated using pymatgen
data_Tb3Co7(As3Rh)2
_symmetry_space_group_name_H-M   'P 1'
_cell_length_a   3.84886000
_cell_length_b   11.02417500
_cell_length_c   12.90884800
_cell_angle_alpha   90.00000000
_cell_angle_beta   90.00000000
_cell_angle_gamma   90.00000000
_symmetry_Int_Tables_number   1
_chemical_formula_structural   Tb3Co7(As3Rh)2
_chemical_formula_sum   'Tb6 Co14 As12 Rh4'
_cell_volume   547.72895498
_cell_formula_units_Z   2
loop_
 _symmetry_equiv_pos_site_id
 _symmetry_equiv_pos_as_xyz
  1  'x, y, z'
loop_
 _atom_site_type_symbol
 _atom_site_label
 _atom_site_symmetry_multiplicity
 _atom_site_fract_x
 _atom_site_fract_y
 _atom_site_fract_z
 _atom_site_occupancy
  Tb  Tb0  1  0.000000  0.500000  0.521611  1
  Tb  Tb1  1  0.500000  0.000000  0.478389  1
  Tb  Tb2  1  0.500000  0.815073  0.208062  1
  Tb  Tb3  1  0.500000  0.184927  0.208062  1
  Tb  Tb4  1  0.000000  0.684927  0.791938  1
  Tb  Tb5  1  0.000000  0.315073  0.791938  1
  Co  Co6  1  0.000000  0.500000  0.988734  1
  Co  Co7  1  0.500000  0.000000  0.011266  1
  Co  Co8  1  0.500000  0.331585  0.995790  1
  Co  Co9  1  0.500000  0.668415  0.995790  1
  Co  Co10  1  0.000000  0.168415  0.004210  1
  Co  Co11  1  0.000000  0.831585  0.004210  1
  Co  Co12  1  0.500000  0.302543  0.429427  1
  Co  Co13  1  0.500000  0.697457  0.429427  1
  Co  Co14  1  0.000000  0.197457  0.570573  1
  Co  Co15  1  0.000000  0.802543  0.570573  1
  Co  Co16  1  0.500000  0.882887  0.709374  1
  Co  Co17  1  0.500000  0.117113  0.709374  1
  Co  Co18  1  0.000000  0.617113  0.290626  1
  Co  Co19  1  0.000000  0.382887  0.290626  1
  As  As20  1  0.500000  0.500000  0.889174  1
  As  As21  1  0.000000  0.000000  0.110826  1
  As  As22  1  0.500000  0.500000  0.350561  1
  As  As23  1  0.000000  0.000000  0.649439  1
  As  As24  1  0.500000  0.303701  0.612898  1
  As  As25  1  0.500000  0.696299  0.612898  1
  As  As26  1  0.000000  0.196299  0.387102  1
  As  As27  1  0.000000  0.803701  0.387102  1
  As  As28  1  0.500000  0.844158  0.892038  1
  As  As29  1  0.500000  0.155842  0.892038  1
  As  As30  1  0.000000  0.655842  0.107962  1
  As  As31  1  0.000000  0.344158  0.107962  1
  Rh  Rh32  1  0.500000  0.500000  0.157395  1
  Rh  Rh33  1  0.000000  0.000000  0.842605  1
  Rh  Rh34  1  0.500000  0.500000  0.703252  1
  Rh  Rh35  1  0.000000  0.000000  0.296748  1
