# generated using pymatgen
data_Tb2Sm5Ho13Pt16
_symmetry_space_group_name_H-M   'P 1'
_cell_length_a   7.50251279
_cell_length_b   7.58147395
_cell_length_c   14.79592700
_cell_angle_alpha   89.92387489
_cell_angle_beta   89.88623334
_cell_angle_gamma   90.01483502
_symmetry_Int_Tables_number   1
_chemical_formula_structural   Tb2Sm5Ho13Pt16
_chemical_formula_sum   'Tb2 Sm5 Ho13 Pt16'
_cell_volume   841.59145487
_cell_formula_units_Z   1
loop_
 _symmetry_equiv_pos_site_id
 _symmetry_equiv_pos_as_xyz
  1  'x, y, z'
loop_
 _atom_site_type_symbol
 _atom_site_label
 _atom_site_symmetry_multiplicity
 _atom_site_fract_x
 _atom_site_fract_y
 _atom_site_fract_z
 _atom_site_occupancy
  Tb  Tb0  1  0.498413  0.680172  0.405657  1
  Tb  Tb1  1  0.998171  0.820593  0.094826  1
  Sm  Sm2  1  0.499104  0.678842  0.094410  1
  Sm  Sm3  1  0.501295  0.323657  0.593141  1
  Sm  Sm4  1  0.000948  0.176495  0.907027  1
  Sm  Sm5  1  0.000833  0.175863  0.592764  1
  Sm  Sm6  1  0.501158  0.322629  0.906209  1
  Ho  Ho7  1  0.680527  0.989113  0.250738  1
  Ho  Ho8  1  0.180599  0.510858  0.250930  1
  Ho  Ho9  1  0.819988  0.488429  0.749631  1
  Ho  Ho10  1  0.319809  0.011454  0.749731  1
  Ho  Ho11  1  0.655572  0.831673  0.621527  1
  Ho  Ho12  1  0.155231  0.668756  0.877975  1
  Ho  Ho13  1  0.842863  0.332368  0.377693  1
  Ho  Ho14  1  0.342413  0.167491  0.123085  1
  Ho  Ho15  1  0.342177  0.166989  0.377781  1
  Ho  Ho16  1  0.843831  0.331738  0.123330  1
  Ho  Ho17  1  0.155644  0.668558  0.621523  1
  Ho  Ho18  1  0.656667  0.831991  0.877594  1
  Ho  Ho19  1  0.997542  0.818875  0.405549  1
  Pt  Pt20  1  0.817014  0.642309  0.251700  1
  Pt  Pt21  1  0.313541  0.859212  0.251639  1
  Pt  Pt22  1  0.684722  0.139633  0.749508  1
  Pt  Pt23  1  0.184555  0.360338  0.749622  1
  Pt  Pt24  1  0.547495  0.382049  0.250967  1
  Pt  Pt25  1  0.045889  0.116532  0.250724  1
  Pt  Pt26  1  0.952950  0.879594  0.749404  1
  Pt  Pt27  1  0.452734  0.620515  0.749644  1
  Pt  Pt28  1  0.819749  0.538070  0.539711  1
  Pt  Pt29  1  0.319947  0.964645  0.958972  1
  Pt  Pt30  1  0.684780  0.029144  0.455790  1
  Pt  Pt31  1  0.178799  0.468714  0.044020  1
  Pt  Pt32  1  0.182303  0.471716  0.455465  1
  Pt  Pt33  1  0.682803  0.032366  0.043148  1
  Pt  Pt34  1  0.320042  0.963078  0.539994  1
  Pt  Pt35  1  0.819891  0.535541  0.958565  1
