# generated using pymatgen
data_Tm4Mg4CdIn7
_symmetry_space_group_name_H-M   'P 1'
_cell_length_a   6.59977500
_cell_length_b   6.59329595
_cell_length_c   8.82933600
_cell_angle_alpha   89.99701064
_cell_angle_beta   90.00121541
_cell_angle_gamma   90.77551116
_symmetry_Int_Tables_number   1
_chemical_formula_structural   Tm4Mg4CdIn7
_chemical_formula_sum   'Tm4 Mg4 Cd1 In7'
_cell_volume   384.16691552
_cell_formula_units_Z   1
loop_
 _symmetry_equiv_pos_site_id
 _symmetry_equiv_pos_as_xyz
  1  'x, y, z'
loop_
 _atom_site_type_symbol
 _atom_site_label
 _atom_site_symmetry_multiplicity
 _atom_site_fract_x
 _atom_site_fract_y
 _atom_site_fract_z
 _atom_site_occupancy
  Tm  Tm0  1  0.247695  0.252249  0.999859  1
  Tm  Tm1  1  0.752353  0.747740  0.999731  1
  Tm  Tm2  1  0.247766  0.252297  0.500130  1
  Tm  Tm3  1  0.752257  0.747726  0.500288  1
  Mg  Mg4  1  0.747654  0.247653  0.996991  1
  Mg  Mg5  1  0.252327  0.752341  0.502933  1
  Mg  Mg6  1  0.747569  0.247661  0.503044  1
  Mg  Mg7  1  0.252250  0.752316  0.996994  1
  Cd  Cd8  1  0.499993  0.000001  0.750044  1
  In  In9  1  0.500031  0.500108  0.249723  1
  In  In10  1  0.499926  0.000062  0.249751  1
  In  In11  1  0.000003  0.499994  0.250225  1
  In  In12  1  0.999935  0.999972  0.250222  1
  In  In13  1  0.000113  0.499929  0.749841  1
  In  In14  1  0.000058  0.999942  0.749856  1
  In  In15  1  0.500071  0.500012  0.750366  1
