# generated using pymatgen
data_Pr3Sc3Al6PtAu5
_symmetry_space_group_name_H-M   'P 1'
_cell_length_a   7.32122700
_cell_length_b   7.32122799
_cell_length_c   8.00612600
_cell_angle_alpha   90.00000000
_cell_angle_beta   90.00000000
_cell_angle_gamma   119.99999101
_symmetry_Int_Tables_number   1
_chemical_formula_structural   Pr3Sc3Al6PtAu5
_chemical_formula_sum   'Pr3 Sc3 Al6 Pt1 Au5'
_cell_volume   371.63866883
_cell_formula_units_Z   1
loop_
 _symmetry_equiv_pos_site_id
 _symmetry_equiv_pos_as_xyz
  1  'x, y, z'
loop_
 _atom_site_type_symbol
 _atom_site_label
 _atom_site_symmetry_multiplicity
 _atom_site_fract_x
 _atom_site_fract_y
 _atom_site_fract_z
 _atom_site_occupancy
  Pr  Pr0  1  0.578396  0.999344  0.750000  1
  Pr  Pr1  1  0.000656  0.579053  0.750000  1
  Pr  Pr2  1  0.420947  0.421604  0.750000  1
  Sc  Sc3  1  0.997764  0.602679  0.250000  1
  Sc  Sc4  1  0.604915  0.002236  0.250000  1
  Sc  Sc5  1  0.397321  0.395085  0.250000  1
  Al  Al6  1  0.752480  0.753796  0.022151  1
  Al  Al7  1  0.246204  0.998684  0.022151  1
  Al  Al8  1  0.001316  0.247520  0.022151  1
  Al  Al9  1  0.752480  0.753796  0.477849  1
  Al  Al10  1  0.246204  0.998684  0.477849  1
  Al  Al11  1  0.001316  0.247520  0.477849  1
  Pt  Pt12  1  0.000000  0.000000  0.250000  1
  Au  Au13  1  0.000000  0.000000  0.750000  1
  Au  Au14  1  0.666667  0.333333  0.034309  1
  Au  Au15  1  0.666667  0.333333  0.465691  1
  Au  Au16  1  0.333333  0.666667  0.461940  1
  Au  Au17  1  0.333333  0.666667  0.038060  1
