# generated using pymatgen
data_Tb8HoThIr4
_symmetry_space_group_name_H-M   'P 1'
_cell_length_a   6.49368459
_cell_length_b   7.20511872
_cell_length_c   8.68903867
_cell_angle_alpha   96.61285348
_cell_angle_beta   111.94219782
_cell_angle_gamma   90.00000090
_symmetry_Int_Tables_number   1
_chemical_formula_structural   Tb8HoThIr4
_chemical_formula_sum   'Tb8 Ho1 Th1 Ir4'
_cell_volume   374.17389840
_cell_formula_units_Z   1
loop_
 _symmetry_equiv_pos_site_id
 _symmetry_equiv_pos_as_xyz
  1  'x, y, z'
loop_
 _atom_site_type_symbol
 _atom_site_label
 _atom_site_symmetry_multiplicity
 _atom_site_fract_x
 _atom_site_fract_y
 _atom_site_fract_z
 _atom_site_occupancy
  Tb  Tb0  1  0.978138  0.921371  0.184999  1
  Tb  Tb1  1  0.793139  0.578629  0.815001  1
  Tb  Tb2  1  0.016215  0.086356  0.814617  1
  Tb  Tb3  1  0.201597  0.413644  0.185383  1
  Tb  Tb4  1  0.662425  0.814612  0.445289  1
  Tb  Tb5  1  0.217136  0.685388  0.554711  1
  Tb  Tb6  1  0.352105  0.184665  0.563041  1
  Tb  Tb7  1  0.789064  0.315335  0.436959  1
  Ho  Ho8  1  0.568954  0.250000  0.000000  1
  Th  Th9  1  0.420806  0.750000  0.000000  1
  Ir  Ir10  1  0.813319  0.575364  0.216288  1
  Ir  Ir11  1  0.597032  0.924636  0.783712  1
  Ir  Ir12  1  0.184263  0.430823  0.778455  1
  Ir  Ir13  1  0.405807  0.069177  0.221545  1
