# generated using pymatgen
data_ErLu3V4F28
_symmetry_space_group_name_H-M   'P 1'
_cell_length_a   5.47563312
_cell_length_b   8.71222266
_cell_length_c   11.67730000
_cell_angle_alpha   64.30091599
_cell_angle_beta   90.01184499
_cell_angle_gamma   89.99948732
_symmetry_Int_Tables_number   1
_chemical_formula_structural   ErLu3V4F28
_chemical_formula_sum   'Er1 Lu3 V4 F28'
_cell_volume   501.96217209
_cell_formula_units_Z   1
loop_
 _symmetry_equiv_pos_site_id
 _symmetry_equiv_pos_as_xyz
  1  'x, y, z'
loop_
 _atom_site_type_symbol
 _atom_site_label
 _atom_site_symmetry_multiplicity
 _atom_site_fract_x
 _atom_site_fract_y
 _atom_site_fract_z
 _atom_site_occupancy
  Er  Er0  1  0.243185  0.809148  0.773787  1
  Lu  Lu1  1  0.256911  0.807443  0.274336  1
  Lu  Lu2  1  0.742127  0.198819  0.723130  1
  Lu  Lu3  1  0.756876  0.194636  0.224128  1
  V  V4  1  0.753019  0.725490  0.050749  1
  V  V5  1  0.247486  0.272552  0.951995  1
  V  V6  1  0.253405  0.273294  0.451124  1
  V  V7  1  0.748458  0.727022  0.545574  1
  F  F8  1  0.961389  0.704602  0.425345  1
  F  F9  1  0.038405  0.295263  0.570925  1
  F  F10  1  0.462083  0.295105  0.071671  1
  F  F11  1  0.539226  0.705319  0.929833  1
  F  F12  1  0.481543  0.731549  0.151442  1
  F  F13  1  0.520538  0.269046  0.851698  1
  F  F14  1  0.983075  0.264180  0.351431  1
  F  F15  1  0.021983  0.732527  0.644194  1
  F  F16  1  0.966386  0.746487  0.174012  1
  F  F17  1  0.033936  0.249353  0.829258  1
  F  F18  1  0.466735  0.248956  0.329353  1
  F  F19  1  0.539646  0.747406  0.670358  1
  F  F20  1  0.762862  0.490778  0.141945  1
  F  F21  1  0.233004  0.506026  0.860906  1
  F  F22  1  0.263881  0.506183  0.359849  1
  F  F23  1  0.736425  0.492523  0.636895  1
  F  F24  1  0.967452  0.285305  0.047162  1
  F  F25  1  0.032146  0.713237  0.955667  1
  F  F26  1  0.466852  0.713932  0.451414  1
  F  F27  1  0.533820  0.287009  0.545473  1
  F  F28  1  0.746411  0.956065  0.457129  1
  F  F29  1  0.255437  0.043242  0.543265  1
  F  F30  1  0.247022  0.042885  0.041354  1
  F  F31  1  0.753346  0.954163  0.963903  1
  F  F32  1  0.558855  0.980621  0.235917  1
  F  F33  1  0.437228  0.027968  0.765686  1
  F  F34  1  0.058918  0.021344  0.262997  1
  F  F35  1  0.929924  0.980519  0.736100  1
