# generated using pymatgen
data_NbWF10
_symmetry_space_group_name_H-M   'P 1'
_cell_length_a   5.87156290
_cell_length_b   7.61036305
_cell_length_c   10.04023851
_cell_angle_alpha   88.01452631
_cell_angle_beta   106.21420188
_cell_angle_gamma   99.31393691
_symmetry_Int_Tables_number   1
_chemical_formula_structural   NbWF10
_chemical_formula_sum   'Nb2 W2 F20'
_cell_volume   425.09437590
_cell_formula_units_Z   2
loop_
 _symmetry_equiv_pos_site_id
 _symmetry_equiv_pos_as_xyz
  1  'x, y, z'
loop_
 _atom_site_type_symbol
 _atom_site_label
 _atom_site_symmetry_multiplicity
 _atom_site_fract_x
 _atom_site_fract_y
 _atom_site_fract_z
 _atom_site_occupancy
  Nb  Nb0  1  0.339731  0.382841  0.222624  1
  Nb  Nb1  1  0.660269  0.617159  0.777376  1
  W  W2  1  0.964693  0.763773  0.314613  1
  W  W3  1  0.035307  0.236227  0.685387  1
  F  F4  1  0.031674  0.252055  0.169195  1
  F  F5  1  0.968326  0.747945  0.830805  1
  F  F6  1  0.493506  0.223008  0.158351  1
  F  F7  1  0.506494  0.776992  0.841649  1
  F  F8  1  0.114960  0.231559  0.880516  1
  F  F9  1  0.885040  0.768441  0.119484  1
  F  F10  1  0.963651  0.295383  0.496598  1
  F  F11  1  0.036349  0.704617  0.503402  1
  F  F12  1  0.770728  0.048031  0.664756  1
  F  F13  1  0.229272  0.951969  0.335244  1
  F  F14  1  0.244598  0.075423  0.672494  1
  F  F15  1  0.755402  0.924577  0.327506  1
  F  F16  1  0.320845  0.444130  0.712495  1
  F  F17  1  0.679155  0.555870  0.287505  1
  F  F18  1  0.814619  0.417353  0.701008  1
  F  F19  1  0.185381  0.582647  0.298992  1
  F  F20  1  0.693669  0.456694  0.927326  1
  F  F21  1  0.306331  0.543306  0.072674  1
  F  F22  1  0.572753  0.670710  0.586902  1
  F  F23  1  0.427247  0.329290  0.413098  1
