# generated using pymatgen
data_Cs2Np2CdCuSe6
_symmetry_space_group_name_H-M   'P 1'
_cell_length_a   8.49024017
_cell_length_b   8.49024143
_cell_length_c   11.03621400
_cell_angle_alpha   90.00000000
_cell_angle_beta   90.00000000
_cell_angle_gamma   150.69375372
_symmetry_Int_Tables_number   1
_chemical_formula_structural   Cs2Np2CdCuSe6
_chemical_formula_sum   'Cs2 Np2 Cd1 Cu1 Se6'
_cell_volume   389.39725007
_cell_formula_units_Z   1
loop_
 _symmetry_equiv_pos_site_id
 _symmetry_equiv_pos_as_xyz
  1  'x, y, z'
loop_
 _atom_site_type_symbol
 _atom_site_label
 _atom_site_symmetry_multiplicity
 _atom_site_fract_x
 _atom_site_fract_y
 _atom_site_fract_z
 _atom_site_occupancy
  Cs  Cs0  1  0.744959  0.255041  0.250000  1
  Cs  Cs1  1  0.255699  0.744301  0.750000  1
  Np  Np2  1  0.998277  0.001723  0.489880  1
  Np  Np3  1  0.998277  0.001723  0.010120  1
  Cd  Cd4  1  0.534084  0.465916  0.750000  1
  Cu  Cu5  1  0.468607  0.531393  0.250000  1
  Se  Se6  1  0.615657  0.384343  0.545477  1
  Se  Se7  1  0.388920  0.611080  0.437800  1
  Se  Se8  1  0.055542  0.944458  0.250000  1
  Se  Se9  1  0.935400  0.064600  0.750000  1
  Se  Se10  1  0.615657  0.384343  0.954523  1
  Se  Se11  1  0.388920  0.611080  0.062200  1
