# generated using pymatgen
data_Li2YbCu9
_symmetry_space_group_name_H-M   'P 1'
_cell_length_a   4.89382400
_cell_length_b   4.89382358
_cell_length_c   16.29319800
_cell_angle_alpha   90.00000000
_cell_angle_beta   90.00000000
_cell_angle_gamma   119.99998931
_symmetry_Int_Tables_number   1
_chemical_formula_structural   Li2YbCu9
_chemical_formula_sum   'Li4 Yb2 Cu18'
_cell_volume   337.93538551
_cell_formula_units_Z   2
loop_
 _symmetry_equiv_pos_site_id
 _symmetry_equiv_pos_as_xyz
  1  'x, y, z'
loop_
 _atom_site_type_symbol
 _atom_site_label
 _atom_site_symmetry_multiplicity
 _atom_site_fract_x
 _atom_site_fract_y
 _atom_site_fract_z
 _atom_site_occupancy
  Li  Li0  1  0.666667  0.333333  0.471183  1
  Li  Li1  1  0.333333  0.666667  0.971183  1
  Li  Li2  1  0.666667  0.333333  0.028817  1
  Li  Li3  1  0.333333  0.666667  0.528817  1
  Yb  Yb4  1  0.666667  0.333333  0.250000  1
  Yb  Yb5  1  0.333333  0.666667  0.750000  1
  Cu  Cu6  1  0.333333  0.666667  0.250000  1
  Cu  Cu7  1  0.666667  0.333333  0.750000  1
  Cu  Cu8  1  0.167853  0.832147  0.376991  1
  Cu  Cu9  1  0.167853  0.335706  0.376991  1
  Cu  Cu10  1  0.000000  0.000000  0.750000  1
  Cu  Cu11  1  0.000000  0.000000  0.250000  1
  Cu  Cu12  1  0.000000  0.000000  0.000000  1
  Cu  Cu13  1  0.000000  0.000000  0.500000  1
  Cu  Cu14  1  0.167853  0.335706  0.123009  1
  Cu  Cu15  1  0.832147  0.167853  0.623009  1
  Cu  Cu16  1  0.335706  0.167853  0.623009  1
  Cu  Cu17  1  0.664294  0.832147  0.123009  1
  Cu  Cu18  1  0.167853  0.832147  0.123009  1
  Cu  Cu19  1  0.832147  0.664294  0.876991  1
  Cu  Cu20  1  0.832147  0.167853  0.876991  1
  Cu  Cu21  1  0.832147  0.664294  0.623009  1
  Cu  Cu22  1  0.335706  0.167853  0.876991  1
  Cu  Cu23  1  0.664294  0.832147  0.376991  1
