# generated using pymatgen
data_Er5InGa2
_symmetry_space_group_name_H-M   'P 1'
_cell_length_a   8.93003778
_cell_length_b   8.93003735
_cell_length_c   8.93003831
_cell_angle_alpha   128.95411356
_cell_angle_beta   128.95411274
_cell_angle_gamma   75.08442031
_symmetry_Int_Tables_number   1
_chemical_formula_structural   Er5InGa2
_chemical_formula_sum   'Er10 In2 Ga4'
_cell_volume   419.31305562
_cell_formula_units_Z   2
loop_
 _symmetry_equiv_pos_site_id
 _symmetry_equiv_pos_as_xyz
  1  'x, y, z'
loop_
 _atom_site_type_symbol
 _atom_site_label
 _atom_site_symmetry_multiplicity
 _atom_site_fract_x
 _atom_site_fract_y
 _atom_site_fract_z
 _atom_site_occupancy
  Er  Er0  1  0.000000  0.000000  0.000000  1
  Er  Er1  1  0.500000  0.500000  0.000000  1
  Er  Er2  1  0.809663  0.309663  0.829855  1
  Er  Er3  1  0.190337  0.690337  0.170145  1
  Er  Er4  1  0.479807  0.979807  0.170145  1
  Er  Er5  1  0.309663  0.479807  0.500000  1
  Er  Er6  1  0.020193  0.190337  0.500000  1
  Er  Er7  1  0.520193  0.020193  0.829855  1
  Er  Er8  1  0.690337  0.520193  0.500000  1
  Er  Er9  1  0.979807  0.809663  0.500000  1
  In  In10  1  0.250000  0.250000  0.000000  1
  In  In11  1  0.750000  0.750000  0.000000  1
  Ga  Ga12  1  0.125807  0.625807  0.751615  1
  Ga  Ga13  1  0.874193  0.374193  0.248385  1
  Ga  Ga14  1  0.625807  0.874193  0.500000  1
  Ga  Ga15  1  0.374193  0.125807  0.500000  1
