# generated using pymatgen
data_Ce6HfTaSb10
_symmetry_space_group_name_H-M   'P 1'
_cell_length_a   9.36591036
_cell_length_b   9.37571301
_cell_length_c   6.22501030
_cell_angle_alpha   90.00242327
_cell_angle_beta   90.02963878
_cell_angle_gamma   119.95501162
_symmetry_Int_Tables_number   1
_chemical_formula_structural   Ce6HfTaSb10
_chemical_formula_sum   'Ce6 Hf1 Ta1 Sb10'
_cell_volume   473.61083011
_cell_formula_units_Z   1
loop_
 _symmetry_equiv_pos_site_id
 _symmetry_equiv_pos_as_xyz
  1  'x, y, z'
loop_
 _atom_site_type_symbol
 _atom_site_label
 _atom_site_symmetry_multiplicity
 _atom_site_fract_x
 _atom_site_fract_y
 _atom_site_fract_z
 _atom_site_occupancy
  Ce  Ce0  1  0.618491  0.999908  0.250485  1
  Ce  Ce1  1  0.381509  0.000092  0.749515  1
  Ce  Ce2  1  0.999867  0.618499  0.250487  1
  Ce  Ce3  1  0.000133  0.381501  0.749513  1
  Ce  Ce4  1  0.381154  0.381197  0.250334  1
  Ce  Ce5  1  0.618846  0.618803  0.749666  1
  Hf  Hf6  1  0.000000  0.000000  0.500000  1
  Ta  Ta7  1  0.000000  0.000000  0.000000  1
  Sb  Sb8  1  0.263983  0.999596  0.245651  1
  Sb  Sb9  1  0.736017  0.000404  0.754349  1
  Sb  Sb10  1  0.999674  0.264031  0.245527  1
  Sb  Sb11  1  0.000326  0.735969  0.754473  1
  Sb  Sb12  1  0.736054  0.735972  0.245457  1
  Sb  Sb13  1  0.263946  0.264028  0.754543  1
  Sb  Sb14  1  0.333173  0.666770  0.000007  1
  Sb  Sb15  1  0.666827  0.333230  0.999993  1
  Sb  Sb16  1  0.666807  0.333314  0.500004  1
  Sb  Sb17  1  0.333193  0.666686  0.499996  1
