# generated using pymatgen
data_TlHg2Pt4PbO14
_symmetry_space_group_name_H-M   'P 1'
_cell_length_a   7.40595830
_cell_length_b   7.29178915
_cell_length_c   7.29178929
_cell_angle_alpha   59.44670730
_cell_angle_beta   59.97655335
_cell_angle_gamma   59.97654623
_symmetry_Int_Tables_number   1
_chemical_formula_structural   TlHg2Pt4PbO14
_chemical_formula_sum   'Tl1 Hg2 Pt4 Pb1 O14'
_cell_volume   277.16140552
_cell_formula_units_Z   1
loop_
 _symmetry_equiv_pos_site_id
 _symmetry_equiv_pos_as_xyz
  1  'x, y, z'
loop_
 _atom_site_type_symbol
 _atom_site_label
 _atom_site_symmetry_multiplicity
 _atom_site_fract_x
 _atom_site_fract_y
 _atom_site_fract_z
 _atom_site_occupancy
  Tl  Tl0  1  0.125000  0.125000  0.125000  1
  Hg  Hg1  1  0.125000  0.625000  0.125000  1
  Hg  Hg2  1  0.125000  0.125000  0.625000  1
  Pt  Pt3  1  0.625000  0.625000  0.125000  1
  Pt  Pt4  1  0.625000  0.625000  0.625000  1
  Pt  Pt5  1  0.625000  0.125000  0.625000  1
  Pt  Pt6  1  0.125000  0.625000  0.625000  1
  Pb  Pb7  1  0.625000  0.125000  0.125000  1
  O  O8  1  0.706137  0.290366  0.290366  1
  O  O9  1  0.700541  0.291264  0.714738  1
  O  O10  1  0.992754  0.000851  0.000851  1
  O  O11  1  0.294625  0.714061  0.290552  1
  O  O12  1  0.700541  0.714738  0.291264  1
  O  O13  1  0.952765  0.546508  0.546508  1
  O  O14  1  0.297235  0.703492  0.703492  1
  O  O15  1  0.257246  0.249149  0.249149  1
  O  O16  1  0.955375  0.535939  0.959448  1
  O  O17  1  0.549459  0.958736  0.535262  1
  O  O18  1  0.549459  0.535262  0.958736  1
  O  O19  1  0.955375  0.959448  0.535939  1
  O  O20  1  0.543863  0.959634  0.959634  1
  O  O21  1  0.294625  0.290552  0.714061  1
