# generated using pymatgen
data_La9NdTc2I15
_symmetry_space_group_name_H-M   'P 1'
_cell_length_a   10.12379214
_cell_length_b   11.26003654
_cell_length_c   11.99911752
_cell_angle_alpha   91.20796587
_cell_angle_beta   113.95550743
_cell_angle_gamma   110.37407212
_symmetry_Int_Tables_number   1
_chemical_formula_structural   La9NdTc2I15
_chemical_formula_sum   'La9 Nd1 Tc2 I15'
_cell_volume   1150.54851519
_cell_formula_units_Z   1
loop_
 _symmetry_equiv_pos_site_id
 _symmetry_equiv_pos_as_xyz
  1  'x, y, z'
loop_
 _atom_site_type_symbol
 _atom_site_label
 _atom_site_symmetry_multiplicity
 _atom_site_fract_x
 _atom_site_fract_y
 _atom_site_fract_z
 _atom_site_occupancy
  La  La0  1  0.774803  0.422265  0.949322  1
  La  La1  1  0.295254  0.903016  0.273010  1
  La  La2  1  0.693408  0.086230  0.718821  1
  La  La3  1  0.088738  0.548701  0.329813  1
  La  La4  1  0.914357  0.448868  0.676110  1
  La  La5  1  0.837186  0.749746  0.176853  1
  La  La6  1  0.159301  0.252061  0.824946  1
  La  La7  1  0.975992  0.794884  0.906486  1
  La  La8  1  0.023093  0.207684  0.087324  1
  Nd  Nd9  1  0.227186  0.584805  0.055306  1
  Tc  Tc10  1  0.026852  0.684557  0.126533  1
  Tc  Tc11  1  0.980050  0.319013  0.877220  1
  I  I12  1  0.335684  0.444632  0.295497  1
  I  I13  1  0.665824  0.557210  0.701758  1
  I  I14  1  0.211501  0.733237  0.819546  1
  I  I15  1  0.792662  0.266909  0.183276  1
  I  I16  1  0.144064  0.387105  0.582490  1
  I  I17  1  0.856664  0.612451  0.418001  1
  I  I18  1  0.387390  0.798287  0.531134  1
  I  I19  1  0.610727  0.199550  0.468617  1
  I  I20  1  0.264743  0.086338  0.054035  1
  I  I21  1  0.734967  0.913294  0.945124  1
  I  I22  1  0.559695  0.839031  0.222661  1
  I  I23  1  0.441170  0.159594  0.776299  1
  I  I24  1  0.090474  0.038671  0.334558  1
  I  I25  1  0.908708  0.960086  0.664035  1
  I  I26  1  0.499510  0.501774  0.001224  1
