# generated using pymatgen
data_Er6Tm2Re3OsC8
_symmetry_space_group_name_H-M   'P 1'
_cell_length_a   5.05661400
_cell_length_b   6.51846816
_cell_length_c   9.74508309
_cell_angle_alpha   89.80151597
_cell_angle_beta   90.00000000
_cell_angle_gamma   90.00000000
_symmetry_Int_Tables_number   1
_chemical_formula_structural   Er6Tm2Re3OsC8
_chemical_formula_sum   'Er6 Tm2 Re3 Os1 C8'
_cell_volume   321.20943344
_cell_formula_units_Z   1
loop_
 _symmetry_equiv_pos_site_id
 _symmetry_equiv_pos_as_xyz
  1  'x, y, z'
loop_
 _atom_site_type_symbol
 _atom_site_label
 _atom_site_symmetry_multiplicity
 _atom_site_fract_x
 _atom_site_fract_y
 _atom_site_fract_z
 _atom_site_occupancy
  Er  Er0  1  0.750000  0.321750  0.443178  1
  Er  Er1  1  0.750000  0.822722  0.056477  1
  Er  Er2  1  0.250000  0.533140  0.216544  1
  Er  Er3  1  0.750000  0.465266  0.784265  1
  Er  Er4  1  0.750000  0.967814  0.713005  1
  Er  Er5  1  0.250000  0.033146  0.283989  1
  Tm  Tm6  1  0.250000  0.674641  0.556458  1
  Tm  Tm7  1  0.250000  0.176654  0.942760  1
  Re  Re8  1  0.250000  0.718856  0.867150  1
  Re  Re9  1  0.750000  0.281237  0.131266  1
  Re  Re10  1  0.750000  0.779997  0.368231  1
  Os  Os11  1  0.250000  0.219581  0.633568  1
  C  C12  1  0.250000  0.452475  0.759695  1
  C  C13  1  0.750000  0.548286  0.240416  1
  C  C14  1  0.750000  0.048076  0.259500  1
  C  C15  1  0.250000  0.952201  0.741747  1
  C  C16  1  0.250000  0.826658  0.052483  1
  C  C17  1  0.750000  0.174702  0.945962  1
  C  C18  1  0.750000  0.674816  0.554524  1
  C  C19  1  0.250000  0.327979  0.448779  1
