# generated using pymatgen
data_CsSb12(OsPd)2
_symmetry_space_group_name_H-M   'P 1'
_cell_length_a   8.29004007
_cell_length_b   8.24492693
_cell_length_c   8.24492756
_cell_angle_alpha   109.27724039
_cell_angle_beta   109.41743360
_cell_angle_gamma   109.49759166
_symmetry_Int_Tables_number   1
_chemical_formula_structural   CsSb12(OsPd)2
_chemical_formula_sum   'Cs1 Sb12 Os2 Pd2'
_cell_volume   434.99888560
_cell_formula_units_Z   1
loop_
 _symmetry_equiv_pos_site_id
 _symmetry_equiv_pos_as_xyz
  1  'x, y, z'
loop_
 _atom_site_type_symbol
 _atom_site_label
 _atom_site_symmetry_multiplicity
 _atom_site_fract_x
 _atom_site_fract_y
 _atom_site_fract_z
 _atom_site_occupancy
  Cs  Cs0  1  0.000000  0.000000  0.000000  1
  Sb  Sb1  1  0.349779  0.187999  0.847473  1
  Sb  Sb2  1  0.650221  0.812001  0.152527  1
  Sb  Sb3  1  0.650221  0.497693  0.838220  1
  Sb  Sb4  1  0.349779  0.502307  0.161780  1
  Sb  Sb5  1  0.195176  0.844796  0.350379  1
  Sb  Sb6  1  0.804824  0.155204  0.649621  1
  Sb  Sb7  1  0.502065  0.842131  0.659935  1
  Sb  Sb8  1  0.497935  0.157869  0.340065  1
  Sb  Sb9  1  0.838575  0.339740  0.188474  1
  Sb  Sb10  1  0.161425  0.660260  0.811526  1
  Sb  Sb11  1  0.838575  0.650101  0.498834  1
  Sb  Sb12  1  0.161425  0.349899  0.501166  1
  Os  Os13  1  0.500000  0.000000  0.000000  1
  Os  Os14  1  0.500000  0.500000  0.500000  1
  Pd  Pd15  1  0.000000  0.000000  0.500000  1
  Pd  Pd16  1  0.000000  0.500000  0.000000  1
