# generated using pymatgen
data_RbLu2BiS5
_symmetry_space_group_name_H-M   'P 1'
_cell_length_a   3.95195500
_cell_length_b   11.94065200
_cell_length_c   21.11789800
_cell_angle_alpha   90.00000000
_cell_angle_beta   90.00000000
_cell_angle_gamma   90.00000000
_symmetry_Int_Tables_number   1
_chemical_formula_structural   RbLu2BiS5
_chemical_formula_sum   'Rb4 Lu8 Bi4 S20'
_cell_volume   996.53078608
_cell_formula_units_Z   4
loop_
 _symmetry_equiv_pos_site_id
 _symmetry_equiv_pos_as_xyz
  1  'x, y, z'
loop_
 _atom_site_type_symbol
 _atom_site_label
 _atom_site_symmetry_multiplicity
 _atom_site_fract_x
 _atom_site_fract_y
 _atom_site_fract_z
 _atom_site_occupancy
  Rb  Rb0  1  0.250000  0.847970  0.093512  1
  Rb  Rb1  1  0.750000  0.152030  0.906488  1
  Rb  Rb2  1  0.750000  0.347970  0.406488  1
  Rb  Rb3  1  0.250000  0.652030  0.593512  1
  Lu  Lu4  1  0.250000  0.957215  0.693873  1
  Lu  Lu5  1  0.750000  0.042785  0.306127  1
  Lu  Lu6  1  0.750000  0.457215  0.806127  1
  Lu  Lu7  1  0.250000  0.542785  0.193873  1
  Lu  Lu8  1  0.750000  0.392056  0.052379  1
  Lu  Lu9  1  0.250000  0.607944  0.947621  1
  Lu  Lu10  1  0.250000  0.892056  0.447621  1
  Lu  Lu11  1  0.750000  0.107944  0.552379  1
  Bi  Bi12  1  0.750000  0.801226  0.825310  1
  Bi  Bi13  1  0.250000  0.198774  0.174690  1
  Bi  Bi14  1  0.250000  0.301226  0.674690  1
  Bi  Bi15  1  0.750000  0.698774  0.325310  1
  S  S16  1  0.250000  0.952643  0.567636  1
  S  S17  1  0.750000  0.047357  0.432364  1
  S  S18  1  0.750000  0.452643  0.932364  1
  S  S19  1  0.250000  0.547357  0.067636  1
  S  S20  1  0.750000  0.758960  0.958338  1
  S  S21  1  0.250000  0.241040  0.041662  1
  S  S22  1  0.250000  0.258960  0.541662  1
  S  S23  1  0.750000  0.741040  0.458338  1
  S  S24  1  0.250000  0.959175  0.822788  1
  S  S25  1  0.750000  0.040825  0.177212  1
  S  S26  1  0.750000  0.459175  0.677212  1
  S  S27  1  0.250000  0.540825  0.322788  1
  S  S28  1  0.750000  0.116171  0.681102  1
  S  S29  1  0.250000  0.883829  0.318898  1
  S  S30  1  0.250000  0.616171  0.818898  1
  S  S31  1  0.750000  0.383829  0.181102  1
  S  S32  1  0.750000  0.688544  0.193789  1
  S  S33  1  0.250000  0.311456  0.806211  1
  S  S34  1  0.250000  0.188544  0.306211  1
  S  S35  1  0.750000  0.811456  0.693789  1
