# generated using pymatgen
data_Pr6CdIn4Pb5
_symmetry_space_group_name_H-M   'P 1'
_cell_length_a   6.74046500
_cell_length_b   6.74046565
_cell_length_c   10.65775800
_cell_angle_alpha   90.00000000
_cell_angle_beta   90.00000000
_cell_angle_gamma   102.76560516
_symmetry_Int_Tables_number   1
_chemical_formula_structural   Pr6CdIn4Pb5
_chemical_formula_sum   'Pr6 Cd1 In4 Pb5'
_cell_volume   472.25427646
_cell_formula_units_Z   1
loop_
 _symmetry_equiv_pos_site_id
 _symmetry_equiv_pos_as_xyz
  1  'x, y, z'
loop_
 _atom_site_type_symbol
 _atom_site_label
 _atom_site_symmetry_multiplicity
 _atom_site_fract_x
 _atom_site_fract_y
 _atom_site_fract_z
 _atom_site_occupancy
  Pr  Pr0  1  0.630446  0.630446  0.250000  1
  Pr  Pr1  1  0.372837  0.372837  0.750000  1
  Pr  Pr2  1  0.204788  0.796386  0.498104  1
  Pr  Pr3  1  0.204788  0.796386  0.001896  1
  Pr  Pr4  1  0.796386  0.204788  0.498104  1
  Pr  Pr5  1  0.796386  0.204788  0.001896  1
  Cd  Cd6  1  0.012767  0.012767  0.250000  1
  In  In7  1  0.307548  0.307548  0.048185  1
  In  In8  1  0.691041  0.691041  0.959499  1
  In  In9  1  0.307548  0.307548  0.451815  1
  In  In10  1  0.691041  0.691041  0.540501  1
  Pb  Pb11  1  0.984133  0.984133  0.750000  1
  Pb  Pb12  1  0.503085  0.077680  0.250000  1
  Pb  Pb13  1  0.922721  0.496807  0.750000  1
  Pb  Pb14  1  0.496807  0.922721  0.750000  1
  Pb  Pb15  1  0.077680  0.503085  0.250000  1
