# generated using pymatgen
data_Zr8Al14SiPt4Rh3
_symmetry_space_group_name_H-M   'P 1'
_cell_length_a   8.92049348
_cell_length_b   8.91818439
_cell_length_c   8.93916599
_cell_angle_alpha   120.07341863
_cell_angle_beta   119.97402483
_cell_angle_gamma   89.97784665
_symmetry_Int_Tables_number   1
_chemical_formula_structural   Zr8Al14SiPt4Rh3
_chemical_formula_sum   'Zr8 Al14 Si1 Pt4 Rh3'
_cell_volume   502.59641983
_cell_formula_units_Z   1
loop_
 _symmetry_equiv_pos_site_id
 _symmetry_equiv_pos_as_xyz
  1  'x, y, z'
loop_
 _atom_site_type_symbol
 _atom_site_label
 _atom_site_symmetry_multiplicity
 _atom_site_fract_x
 _atom_site_fract_y
 _atom_site_fract_z
 _atom_site_occupancy
  Zr  Zr0  1  0.802276  0.299812  0.094065  1
  Zr  Zr1  1  0.206429  0.298918  0.497185  1
  Zr  Zr2  1  0.196563  0.696850  0.500056  1
  Zr  Zr3  1  0.205390  0.708726  0.905669  1
  Zr  Zr4  1  0.803030  0.710192  0.504192  1
  Zr  Zr5  1  0.788578  0.288866  0.499829  1
  Zr  Zr6  1  0.379090  0.118191  0.737957  1
  Zr  Zr7  1  0.376693  0.640775  0.259913  1
  Al  Al8  1  0.160979  0.328519  0.162357  1
  Al  Al9  1  0.163754  0.002168  0.837580  1
  Al  Al10  1  0.155998  0.335242  0.824308  1
  Al  Al11  1  0.509624  0.334198  0.175506  1
  Al  Al12  1  0.837668  0.666799  0.834230  1
  Al  Al13  1  0.836159  0.002164  0.166232  1
  Al  Al14  1  0.834585  0.665743  0.162782  1
  Al  Al15  1  0.504380  0.667653  0.835427  1
  Al  Al16  1  0.374855  0.116669  0.259990  1
  Al  Al17  1  0.857468  0.122310  0.743889  1
  Al  Al18  1  0.621656  0.880423  0.259953  1
  Al  Al19  1  0.626156  0.362153  0.743295  1
  Al  Al20  1  0.629520  0.883018  0.744726  1
  Al  Al21  1  0.137177  0.879018  0.252343  1
  Si  Si22  1  0.992189  0.492088  0.499872  1
  Pt  Pt23  1  0.994551  0.997735  0.497077  1
  Pt  Pt24  1  0.500214  0.998086  0.003022  1
  Pt  Pt25  1  0.501317  0.502050  0.000325  1
  Pt  Pt26  1  0.499751  0.496790  0.500968  1
  Rh  Rh27  1  0.996853  0.497582  0.997773  1
  Rh  Rh28  1  0.001557  0.001281  0.999768  1
  Rh  Rh29  1  0.505541  0.005980  0.499714  1
