# generated using pymatgen
data_Tb5YbMn2(VC6)2
_symmetry_space_group_name_H-M   'P 1'
_cell_length_a   8.17722183
_cell_length_b   8.19031277
_cell_length_c   4.99929800
_cell_angle_alpha   90.00000000
_cell_angle_beta   90.00000000
_cell_angle_gamma   120.29096327
_symmetry_Int_Tables_number   1
_chemical_formula_structural   Tb5YbMn2(VC6)2
_chemical_formula_sum   'Tb5 Yb1 Mn2 V2 C12'
_cell_volume   289.11133362
_cell_formula_units_Z   1
loop_
 _symmetry_equiv_pos_site_id
 _symmetry_equiv_pos_as_xyz
  1  'x, y, z'
loop_
 _atom_site_type_symbol
 _atom_site_label
 _atom_site_symmetry_multiplicity
 _atom_site_fract_x
 _atom_site_fract_y
 _atom_site_fract_z
 _atom_site_occupancy
  Tb  Tb0  1  0.935350  0.620282  0.250000  1
  Tb  Tb1  1  0.682383  0.061872  0.250000  1
  Tb  Tb2  1  0.317258  0.937227  0.750000  1
  Tb  Tb3  1  0.064413  0.381908  0.750000  1
  Tb  Tb4  1  0.381994  0.320467  0.250000  1
  Yb  Yb5  1  0.613626  0.680274  0.750000  1
  Mn  Mn6  1  0.667977  0.331543  0.750000  1
  Mn  Mn7  1  0.332451  0.667069  0.250000  1
  V  V8  1  0.998633  0.998908  0.501817  1
  V  V9  1  0.998633  0.998908  0.998183  1
  C  C10  1  0.959583  0.765771  0.750000  1
  C  C11  1  0.195022  0.962031  0.250000  1
  C  C12  1  0.766313  0.807479  0.250000  1
  C  C13  1  0.235503  0.197452  0.750000  1
  C  C14  1  0.809550  0.040631  0.750000  1
  C  C15  1  0.039493  0.232086  0.250000  1
  C  C16  1  0.861572  0.572897  0.750000  1
  C  C17  1  0.289377  0.862982  0.250000  1
  C  C18  1  0.572962  0.712203  0.250000  1
  C  C19  1  0.428960  0.287130  0.750000  1
  C  C20  1  0.137373  0.426101  0.250000  1
  C  C21  1  0.711576  0.134779  0.750000  1
