# generated using pymatgen
data_Hf12Ti4Mn7Ir
_symmetry_space_group_name_H-M   'P 1'
_cell_length_a   8.40667465
_cell_length_b   8.40667442
_cell_length_c   8.37637246
_cell_angle_alpha   59.88026054
_cell_angle_beta   59.88026052
_cell_angle_gamma   60.00000078
_symmetry_Int_Tables_number   1
_chemical_formula_structural   Hf12Ti4Mn7Ir
_chemical_formula_sum   'Hf12 Ti4 Mn7 Ir1'
_cell_volume   417.83139066
_cell_formula_units_Z   1
loop_
 _symmetry_equiv_pos_site_id
 _symmetry_equiv_pos_as_xyz
  1  'x, y, z'
loop_
 _atom_site_type_symbol
 _atom_site_label
 _atom_site_symmetry_multiplicity
 _atom_site_fract_x
 _atom_site_fract_y
 _atom_site_fract_z
 _atom_site_occupancy
  Hf  Hf0  1  0.432955  0.815999  0.818091  1
  Hf  Hf1  1  0.817152  0.432048  0.433648  1
  Hf  Hf2  1  0.815999  0.432955  0.818091  1
  Hf  Hf3  1  0.432048  0.817152  0.433648  1
  Hf  Hf4  1  0.817152  0.817152  0.433648  1
  Hf  Hf5  1  0.432955  0.432955  0.818091  1
  Hf  Hf6  1  0.567167  0.182763  0.182903  1
  Hf  Hf7  1  0.182202  0.573162  0.562434  1
  Hf  Hf8  1  0.182763  0.567167  0.182903  1
  Hf  Hf9  1  0.573162  0.182202  0.562434  1
  Hf  Hf10  1  0.182202  0.182202  0.562434  1
  Hf  Hf11  1  0.567167  0.567167  0.182903  1
  Ti  Ti12  1  0.999821  0.999821  0.500538  1
  Ti  Ti13  1  0.995610  0.508857  0.999923  1
  Ti  Ti14  1  0.508857  0.995610  0.999923  1
  Ti  Ti15  1  0.995610  0.995610  0.999923  1
  Mn  Mn16  1  0.207393  0.875129  0.210083  1
  Mn  Mn17  1  0.875129  0.207393  0.210083  1
  Mn  Mn18  1  0.207393  0.207393  0.210083  1
  Mn  Mn19  1  0.791238  0.791238  0.126288  1
  Mn  Mn20  1  0.791630  0.125070  0.791672  1
  Mn  Mn21  1  0.125070  0.791630  0.791672  1
  Mn  Mn22  1  0.791630  0.791630  0.791672  1
  Ir  Ir23  1  0.207695  0.207695  0.876915  1
