# generated using pymatgen
data_V5SiGe2H
_symmetry_space_group_name_H-M   'P 1'
_cell_length_a   4.90692305
_cell_length_b   7.18910428
_cell_length_c   7.23067804
_cell_angle_alpha   60.19002708
_cell_angle_beta   89.99174013
_cell_angle_gamma   89.98337478
_symmetry_Int_Tables_number   1
_chemical_formula_structural   V5SiGe2H
_chemical_formula_sum   'V10 Si2 Ge4 H2'
_cell_volume   221.32072887
_cell_formula_units_Z   2
loop_
 _symmetry_equiv_pos_site_id
 _symmetry_equiv_pos_as_xyz
  1  'x, y, z'
loop_
 _atom_site_type_symbol
 _atom_site_label
 _atom_site_symmetry_multiplicity
 _atom_site_fract_x
 _atom_site_fract_y
 _atom_site_fract_z
 _atom_site_occupancy
  V  V0  1  0.250192  0.241169  0.000000  1
  V  V1  1  0.749816  0.758818  0.000000  1
  V  V2  1  0.749983  0.006242  0.229435  1
  V  V3  1  0.250019  0.764358  0.229407  1
  V  V4  1  0.500006  0.337130  0.325747  1
  V  V5  1  0.999995  0.337169  0.325675  1
  V  V6  1  0.999995  0.662841  0.674325  1
  V  V7  1  0.500005  0.662877  0.674254  1
  V  V8  1  0.250019  0.993766  0.770592  1
  V  V9  1  0.749982  0.235676  0.770566  1
  Si  Si10  1  0.750252  0.400230  0.000000  1
  Si  Si11  1  0.249763  0.599825  0.000000  1
  Ge  Ge12  1  0.249846  0.997837  0.397469  1
  Ge  Ge13  1  0.750161  0.604747  0.397404  1
  Ge  Ge14  1  0.249846  0.395308  0.602529  1
  Ge  Ge15  1  0.750161  0.002150  0.602597  1
  H  H16  1  0.999955  0.000015  0.000000  1
  H  H17  1  0.500022  0.000015  0.000000  1
