# generated using pymatgen
data_Ho4MnV2ReB16
_symmetry_space_group_name_H-M   'P 1'
_cell_length_a   3.49356200
_cell_length_b   5.95267062
_cell_length_c   11.50330102
_cell_angle_alpha   90.07505319
_cell_angle_beta   90.00000000
_cell_angle_gamma   90.00000000
_symmetry_Int_Tables_number   1
_chemical_formula_structural   Ho4MnV2ReB16
_chemical_formula_sum   'Ho4 Mn1 V2 Re1 B16'
_cell_volume   239.22271758
_cell_formula_units_Z   1
loop_
 _symmetry_equiv_pos_site_id
 _symmetry_equiv_pos_as_xyz
  1  'x, y, z'
loop_
 _atom_site_type_symbol
 _atom_site_label
 _atom_site_symmetry_multiplicity
 _atom_site_fract_x
 _atom_site_fract_y
 _atom_site_fract_z
 _atom_site_occupancy
  Ho  Ho0  1  0.500000  0.625094  0.147830  1
  Ho  Ho1  1  0.500000  0.375913  0.850146  1
  Ho  Ho2  1  0.500000  0.126066  0.348300  1
  Ho  Ho3  1  0.500000  0.874630  0.652891  1
  Mn  Mn4  1  0.500000  0.876020  0.919811  1
  V  V5  1  0.500000  0.372134  0.584377  1
  V  V6  1  0.500000  0.124437  0.079733  1
  Re  Re7  1  0.500000  0.627718  0.416969  1
  B  B8  1  0.000000  0.974865  0.190987  1
  B  B9  1  0.000000  0.021704  0.809190  1
  B  B10  1  0.000000  0.474455  0.306634  1
  B  B11  1  0.000000  0.526188  0.694348  1
  B  B12  1  0.000000  0.784688  0.313619  1
  B  B13  1  0.000000  0.214556  0.687386  1
  B  B14  1  0.000000  0.283887  0.184183  1
  B  B15  1  0.000000  0.720342  0.817841  1
  B  B16  1  0.000000  0.865778  0.468131  1
  B  B17  1  0.000000  0.134504  0.533128  1
  B  B18  1  0.000000  0.364603  0.030623  1
  B  B19  1  0.000000  0.638274  0.966475  1
  B  B20  1  0.000000  0.884273  0.044551  1
  B  B21  1  0.000000  0.110418  0.951094  1
  B  B22  1  0.000000  0.385050  0.453386  1
  B  B23  1  0.000000  0.614403  0.548366  1
