# generated using pymatgen
data_Ce5Er5Tm6(CdRu)4
_symmetry_space_group_name_H-M   'P 1'
_cell_length_a   9.50360988
_cell_length_b   9.56237557
_cell_length_c   9.55959602
_cell_angle_alpha   59.83504199
_cell_angle_beta   60.17737412
_cell_angle_gamma   60.18036463
_symmetry_Int_Tables_number   1
_chemical_formula_structural   Ce5Er5Tm6(CdRu)4
_chemical_formula_sum   'Ce5 Er5 Tm6 Cd4 Ru4'
_cell_volume   615.17769514
_cell_formula_units_Z   1
loop_
 _symmetry_equiv_pos_site_id
 _symmetry_equiv_pos_as_xyz
  1  'x, y, z'
loop_
 _atom_site_type_symbol
 _atom_site_label
 _atom_site_symmetry_multiplicity
 _atom_site_fract_x
 _atom_site_fract_y
 _atom_site_fract_z
 _atom_site_occupancy
  Ce  Ce0  1  0.814384  0.185317  0.185378  1
  Ce  Ce1  1  0.348232  0.347331  0.957359  1
  Ce  Ce2  1  0.348250  0.957236  0.347369  1
  Ce  Ce3  1  0.956244  0.350703  0.350696  1
  Ce  Ce4  1  0.342018  0.350085  0.349921  1
  Er  Er5  1  0.561087  0.562725  0.936812  1
  Er  Er6  1  0.939444  0.562226  0.936324  1
  Er  Er7  1  0.564736  0.934492  0.934656  1
  Er  Er8  1  0.939766  0.936474  0.561964  1
  Er  Er9  1  0.560892  0.936942  0.562470  1
  Tm  Tm10  1  0.934637  0.566247  0.566034  1
  Tm  Tm11  1  0.191557  0.186860  0.808691  1
  Tm  Tm12  1  0.812788  0.185616  0.808955  1
  Tm  Tm13  1  0.186374  0.813243  0.813398  1
  Tm  Tm14  1  0.812753  0.808963  0.185534  1
  Tm  Tm15  1  0.191639  0.808746  0.186811  1
  Cd  Cd16  1  0.580466  0.584597  0.253763  1
  Cd  Cd17  1  0.580416  0.253781  0.584634  1
  Cd  Cd18  1  0.255138  0.580630  0.580839  1
  Cd  Cd19  1  0.581073  0.581156  0.581351  1
  Ru  Ru20  1  0.147694  0.141232  0.565301  1
  Ru  Ru21  1  0.147706  0.565256  0.141652  1
  Ru  Ru22  1  0.584259  0.150723  0.150663  1
  Ru  Ru23  1  0.118445  0.149424  0.149427  1
