# generated using pymatgen
data_CaPr5Cr(SiSe7)2
_symmetry_space_group_name_H-M   'P 1'
_cell_length_a   10.66290359
_cell_length_b   10.68031518
_cell_length_c   6.09052856
_cell_angle_alpha   89.88602906
_cell_angle_beta   89.88880748
_cell_angle_gamma   120.06199672
_symmetry_Int_Tables_number   1
_chemical_formula_structural   CaPr5Cr(SiSe7)2
_chemical_formula_sum   'Ca1 Pr5 Cr1 Si2 Se14'
_cell_volume   600.30250504
_cell_formula_units_Z   1
loop_
 _symmetry_equiv_pos_site_id
 _symmetry_equiv_pos_as_xyz
  1  'x, y, z'
loop_
 _atom_site_type_symbol
 _atom_site_label
 _atom_site_symmetry_multiplicity
 _atom_site_fract_x
 _atom_site_fract_y
 _atom_site_fract_z
 _atom_site_occupancy
  Ca  Ca0  1  0.433650  0.461939  0.746530  1
  Pr  Pr1  1  0.026183  0.566415  0.747708  1
  Pr  Pr2  1  0.537435  0.972494  0.746571  1
  Pr  Pr3  1  0.900686  0.207809  0.250070  1
  Pr  Pr4  1  0.311106  0.105351  0.247659  1
  Pr  Pr5  1  0.789288  0.687682  0.251364  1
  Cr  Cr6  1  0.665809  0.333962  0.519426  1
  Si  Si7  1  0.333164  0.666425  0.166810  1
  Si  Si8  1  0.999816  0.000385  0.658764  1
  Se  Se9  1  0.331995  0.667245  0.537519  1
  Se  Se10  1  0.999447  0.998864  0.030953  1
  Se  Se11  1  0.516226  0.417144  0.290354  1
  Se  Se12  1  0.904823  0.485151  0.283206  1
  Se  Se13  1  0.582618  0.097013  0.283102  1
  Se  Se14  1  0.824375  0.251470  0.741999  1
  Se  Se15  1  0.429593  0.176536  0.741089  1
  Se  Se16  1  0.747430  0.569390  0.742531  1
  Se  Se17  1  0.559390  0.746559  0.019818  1
  Se  Se18  1  0.186943  0.440708  0.017880  1
  Se  Se19  1  0.253877  0.814803  0.019535  1
  Se  Se20  1  0.772736  0.918835  0.513822  1
  Se  Se21  1  0.146798  0.226078  0.514773  1
  Se  Se22  1  0.079946  0.854410  0.511788  1
