# generated using pymatgen
data_Ce4BeZnRh11
_symmetry_space_group_name_H-M   'P 1'
_cell_length_a   7.14737868
_cell_length_b   7.14737828
_cell_length_c   7.14737906
_cell_angle_alpha   108.54661787
_cell_angle_beta   108.54660943
_cell_angle_gamma   111.33668557
_symmetry_Int_Tables_number   1
_chemical_formula_structural   Ce4BeZnRh11
_chemical_formula_sum   'Ce4 Be1 Zn1 Rh11'
_cell_volume   280.84833519
_cell_formula_units_Z   1
loop_
 _symmetry_equiv_pos_site_id
 _symmetry_equiv_pos_as_xyz
  1  'x, y, z'
loop_
 _atom_site_type_symbol
 _atom_site_label
 _atom_site_symmetry_multiplicity
 _atom_site_fract_x
 _atom_site_fract_y
 _atom_site_fract_z
 _atom_site_occupancy
  Ce  Ce0  1  0.006993  0.993007  0.500000  1
  Ce  Ce1  1  0.006993  0.506993  0.013985  1
  Ce  Ce2  1  0.493007  0.993007  0.986015  1
  Ce  Ce3  1  0.493007  0.506993  0.500000  1
  Be  Be4  1  0.000000  0.000000  0.000000  1
  Zn  Zn5  1  0.750000  0.250000  0.500000  1
  Rh  Rh6  1  0.750173  0.496632  0.253541  1
  Rh  Rh7  1  0.503368  0.249827  0.746459  1
  Rh  Rh8  1  0.243092  0.496632  0.746459  1
  Rh  Rh9  1  0.250000  0.750000  0.500000  1
  Rh  Rh10  1  0.503368  0.756908  0.253541  1
  Rh  Rh11  1  0.729403  0.729403  0.000000  1
  Rh  Rh12  1  0.274308  0.007006  0.267302  1
  Rh  Rh13  1  0.992994  0.260296  0.267302  1
  Rh  Rh14  1  0.270597  0.270597  0.000000  1
  Rh  Rh15  1  0.739704  0.007006  0.732698  1
  Rh  Rh16  1  0.992994  0.725692  0.732698  1
