# generated using pymatgen
data_Yb3Er(Al3Ir)2
_symmetry_space_group_name_H-M   'P 1'
_cell_length_a   5.51514600
_cell_length_b   5.51514640
_cell_length_c   8.71901300
_cell_angle_alpha   90.00000000
_cell_angle_beta   90.00000000
_cell_angle_gamma   119.99999762
_symmetry_Int_Tables_number   1
_chemical_formula_structural   Yb3Er(Al3Ir)2
_chemical_formula_sum   'Yb3 Er1 Al6 Ir2'
_cell_volume   229.67410157
_cell_formula_units_Z   1
loop_
 _symmetry_equiv_pos_site_id
 _symmetry_equiv_pos_as_xyz
  1  'x, y, z'
loop_
 _atom_site_type_symbol
 _atom_site_label
 _atom_site_symmetry_multiplicity
 _atom_site_fract_x
 _atom_site_fract_y
 _atom_site_fract_z
 _atom_site_occupancy
  Yb  Yb0  1  0.666665  0.333333  0.055878  1
  Yb  Yb1  1  0.666665  0.333333  0.444477  1
  Yb  Yb2  1  0.333334  0.666667  0.553780  1
  Er  Er3  1  0.333334  0.666667  0.948831  1
  Al  Al4  1  0.161905  0.323808  0.248364  1
  Al  Al5  1  0.161906  0.838096  0.248364  1
  Al  Al6  1  0.676191  0.838096  0.248364  1
  Al  Al7  1  0.323418  0.161710  0.750926  1
  Al  Al8  1  0.838292  0.161710  0.750926  1
  Al  Al9  1  0.838290  0.676582  0.750926  1
  Ir  Ir10  1  0.000000  0.000000  0.999548  1
  Ir  Ir11  1  0.000000  0.000000  0.499610  1
