# generated using pymatgen
data_AcCe(CoP)4
_symmetry_space_group_name_H-M   'P 1'
_cell_length_a   4.03480000
_cell_length_b   4.03480000
_cell_length_c   9.35993700
_cell_angle_alpha   90.00000000
_cell_angle_beta   90.00000000
_cell_angle_gamma   90.00000000
_symmetry_Int_Tables_number   1
_chemical_formula_structural   AcCe(CoP)4
_chemical_formula_sum   'Ac1 Ce1 Co4 P4'
_cell_volume   152.37613372
_cell_formula_units_Z   1
loop_
 _symmetry_equiv_pos_site_id
 _symmetry_equiv_pos_as_xyz
  1  'x, y, z'
loop_
 _atom_site_type_symbol
 _atom_site_label
 _atom_site_symmetry_multiplicity
 _atom_site_fract_x
 _atom_site_fract_y
 _atom_site_fract_z
 _atom_site_occupancy
  Ac  Ac0  1  0.500000  0.000000  0.247187  1
  Ce  Ce1  1  0.000000  0.500000  0.750948  1
  Co  Co2  1  0.500000  0.000000  0.881119  1
  Co  Co3  1  0.500000  0.500000  0.512252  1
  Co  Co4  1  0.000000  0.500000  0.095626  1
  Co  Co5  1  0.000000  0.000000  0.512252  1
  P  P6  1  0.000000  0.500000  0.384404  1
  P  P7  1  0.500000  0.500000  0.989924  1
  P  P8  1  0.000000  0.000000  0.989924  1
  P  P9  1  0.500000  0.000000  0.636367  1
