# generated using pymatgen
data_HoEr4Ga2P10Ir19
_symmetry_space_group_name_H-M   'P 1'
_cell_length_a   12.79522619
_cell_length_b   12.79131667
_cell_length_c   3.96527700
_cell_angle_alpha   90.00000000
_cell_angle_beta   90.00000000
_cell_angle_gamma   119.98460891
_symmetry_Int_Tables_number   1
_chemical_formula_structural   HoEr4Ga2P10Ir19
_chemical_formula_sum   'Ho1 Er4 Ga2 P10 Ir19'
_cell_volume   562.12734862
_cell_formula_units_Z   1
loop_
 _symmetry_equiv_pos_site_id
 _symmetry_equiv_pos_as_xyz
  1  'x, y, z'
loop_
 _atom_site_type_symbol
 _atom_site_label
 _atom_site_symmetry_multiplicity
 _atom_site_fract_x
 _atom_site_fract_y
 _atom_site_fract_z
 _atom_site_occupancy
  Ho  Ho0  1  0.662529  0.329568  0.000000  1
  Er  Er1  1  0.337477  0.667081  0.000000  1
  Er  Er2  1  0.822465  0.818875  0.500000  1
  Er  Er3  1  0.177558  0.996415  0.500000  1
  Er  Er4  1  0.999995  0.184299  0.500000  1
  Ga  Ga5  1  0.644313  0.644061  0.000000  1
  Ga  Ga6  1  0.355674  0.999721  0.000000  1
  P  P7  1  0.682632  0.166478  0.500000  1
  P  P8  1  0.819960  0.511633  0.500000  1
  P  P9  1  0.479471  0.310570  0.500000  1
  P  P10  1  0.180265  0.691678  0.500000  1
  P  P11  1  0.520350  0.830949  0.500000  1
  P  P12  1  0.317339  0.484026  0.500000  1
  P  P13  1  0.999972  0.357126  0.000000  1
  P  P14  1  0.175611  0.176182  0.000000  1
  P  P15  1  0.824353  0.000525  0.000000  1
  P  P16  1  0.000017  0.815644  0.000000  1
  Ir  Ir17  1  0.814063  0.183050  0.000000  1
  Ir  Ir18  1  0.825609  0.614376  0.000000  1
  Ir  Ir19  1  0.376513  0.207880  0.000000  1
  Ir  Ir20  1  0.174466  0.788688  0.000000  1
  Ir  Ir21  1  0.623356  0.831288  0.000000  1
  Ir  Ir22  1  0.185951  0.369049  0.000000  1
  Ir  Ir23  1  0.438595  0.458947  0.000000  1
  Ir  Ir24  1  0.561408  0.020353  0.000000  1
  Ir  Ir25  1  0.000010  0.534255  0.000000  1
  Ir  Ir26  1  0.277395  0.283508  0.500000  1
  Ir  Ir27  1  0.722585  0.006027  0.500000  1
  Ir  Ir28  1  0.000033  0.714202  0.500000  1
  Ir  Ir29  1  0.861570  0.357140  0.500000  1
  Ir  Ir30  1  0.631833  0.503824  0.500000  1
  Ir  Ir31  1  0.490570  0.135147  0.500000  1
  Ir  Ir32  1  0.368123  0.871743  0.500000  1
  Ir  Ir33  1  0.509155  0.644576  0.500000  1
  Ir  Ir34  1  0.138780  0.495874  0.500000  1
  Ir  Ir35  1  0.000001  0.995243  0.000000  1
