# generated using pymatgen
data_Sm2PSe
_symmetry_space_group_name_H-M   'P 1'
_cell_length_a   7.24395084
_cell_length_b   7.24395050
_cell_length_c   7.24395002
_cell_angle_alpha   33.09178764
_cell_angle_beta   33.09178886
_cell_angle_gamma   33.09179127
_symmetry_Int_Tables_number   1
_chemical_formula_structural   Sm2PSe
_chemical_formula_sum   'Sm2 P1 Se1'
_cell_volume   100.85454772
_cell_formula_units_Z   1
loop_
 _symmetry_equiv_pos_site_id
 _symmetry_equiv_pos_as_xyz
  1  'x, y, z'
loop_
 _atom_site_type_symbol
 _atom_site_label
 _atom_site_symmetry_multiplicity
 _atom_site_fract_x
 _atom_site_fract_y
 _atom_site_fract_z
 _atom_site_occupancy
  Sm  Sm0  1  0.256930  0.256930  0.256930  1
  Sm  Sm1  1  0.743070  0.743070  0.743070  1
  P  P2  1  0.000000  0.000000  0.000000  1
  Se  Se3  1  0.500000  0.500000  0.500000  1
