# generated using pymatgen
data_Sc3Co8P6Os
_symmetry_space_group_name_H-M   'P 1'
_cell_length_a   11.89989998
_cell_length_b   11.91676146
_cell_length_c   3.61997700
_cell_angle_alpha   90.00000000
_cell_angle_beta   90.00000000
_cell_angle_gamma   120.04688333
_symmetry_Int_Tables_number   1
_chemical_formula_structural   Sc3Co8P6Os
_chemical_formula_sum   'Sc6 Co16 P12 Os2'
_cell_volume   444.35762171
_cell_formula_units_Z   2
loop_
 _symmetry_equiv_pos_site_id
 _symmetry_equiv_pos_as_xyz
  1  'x, y, z'
loop_
 _atom_site_type_symbol
 _atom_site_label
 _atom_site_symmetry_multiplicity
 _atom_site_fract_x
 _atom_site_fract_y
 _atom_site_fract_z
 _atom_site_occupancy
  Sc  Sc0  1  0.818108  0.815953  0.500000  1
  Sc  Sc1  1  0.000000  0.178911  0.500000  1
  Sc  Sc2  1  0.333540  0.667738  0.000000  1
  Sc  Sc3  1  0.666460  0.334198  0.000000  1
  Sc  Sc4  1  0.000000  0.557333  0.000000  1
  Sc  Sc5  1  0.181892  0.997845  0.500000  1
  Co  Co6  1  0.624321  0.823150  0.000000  1
  Co  Co7  1  0.375679  0.198829  0.000000  1
  Co  Co8  1  0.000000  0.720751  0.500000  1
  Co  Co9  1  0.283165  0.281405  0.500000  1
  Co  Co10  1  0.870797  0.349791  0.500000  1
  Co  Co11  1  0.716835  0.998241  0.500000  1
  Co  Co12  1  0.816033  0.625776  0.000000  1
  Co  Co13  1  0.183967  0.809742  0.000000  1
  Co  Co14  1  0.359072  0.877328  0.500000  1
  Co  Co15  1  0.129203  0.478993  0.500000  1
  Co  Co16  1  0.640928  0.518255  0.500000  1
  Co  Co17  1  0.000000  0.999167  0.000000  1
  Co  Co18  1  0.514983  0.645978  0.500000  1
  Co  Co19  1  0.485017  0.130995  0.500000  1
  Co  Co20  1  0.196496  0.368919  0.000000  1
  Co  Co21  1  0.803504  0.172422  0.000000  1
  P  P22  1  0.000000  0.348598  0.000000  1
  P  P23  1  0.825426  0.514872  0.500000  1
  P  P24  1  0.685128  0.166345  0.500000  1
  P  P25  1  0.176144  0.173103  0.000000  1
  P  P26  1  0.641149  0.645968  0.000000  1
  P  P27  1  0.823856  0.996959  0.000000  1
  P  P28  1  0.516492  0.833450  0.500000  1
  P  P29  1  0.174574  0.689444  0.500000  1
  P  P30  1  0.358851  0.004819  0.000000  1
  P  P31  1  0.483508  0.316959  0.500000  1
  P  P32  1  0.000000  0.823179  0.000000  1
  P  P33  1  0.314872  0.481216  0.500000  1
  Os  Os34  1  0.448046  0.450706  0.000000  1
  Os  Os35  1  0.551954  0.002660  0.000000  1
