# generated using pymatgen
data_Ta8VRe3Os4
_symmetry_space_group_name_H-M   'P 1'
_cell_length_a   6.37830000
_cell_length_b   4.49883500
_cell_length_c   9.02439101
_cell_angle_alpha   90.00000000
_cell_angle_beta   89.99573515
_cell_angle_gamma   90.00000000
_symmetry_Int_Tables_number   1
_chemical_formula_structural   Ta8VRe3Os4
_chemical_formula_sum   'Ta8 V1 Re3 Os4'
_cell_volume   258.95417094
_cell_formula_units_Z   1
loop_
 _symmetry_equiv_pos_site_id
 _symmetry_equiv_pos_as_xyz
  1  'x, y, z'
loop_
 _atom_site_type_symbol
 _atom_site_label
 _atom_site_symmetry_multiplicity
 _atom_site_fract_x
 _atom_site_fract_y
 _atom_site_fract_z
 _atom_site_occupancy
  Ta  Ta0  1  0.002267  0.750001  0.121577  1
  Ta  Ta1  1  0.497752  0.750001  0.121570  1
  Ta  Ta2  1  0.000650  0.250000  0.375043  1
  Ta  Ta3  1  0.499341  0.250000  0.374986  1
  Ta  Ta4  1  0.497713  0.750001  0.628398  1
  Ta  Ta5  1  0.002278  0.750001  0.628403  1
  Ta  Ta6  1  0.495521  0.250000  0.875074  1
  Ta  Ta7  1  0.004484  0.250000  0.875022  1
  V  V8  1  0.250056  0.750001  0.875003  1
  Re  Re9  1  0.749919  0.250000  0.125747  1
  Re  Re10  1  0.249911  0.750001  0.375196  1
  Re  Re11  1  0.750093  0.250000  0.624133  1
  Os  Os12  1  0.249896  0.250000  0.124873  1
  Os  Os13  1  0.749993  0.750001  0.374853  1
  Os  Os14  1  0.250099  0.250000  0.625192  1
  Os  Os15  1  0.750028  0.750001  0.874933  1
