# generated using pymatgen
data_Ho2Er6Sc11Si16Ru
_symmetry_space_group_name_H-M   'P 1'
_cell_length_a   6.97830302
_cell_length_b   7.33505531
_cell_length_c   13.85084605
_cell_angle_alpha   90.00890703
_cell_angle_beta   89.99566927
_cell_angle_gamma   90.09194497
_symmetry_Int_Tables_number   1
_chemical_formula_structural   Ho2Er6Sc11Si16Ru
_chemical_formula_sum   'Ho2 Er6 Sc11 Si16 Ru1'
_cell_volume   708.97178837
_cell_formula_units_Z   1
loop_
 _symmetry_equiv_pos_site_id
 _symmetry_equiv_pos_as_xyz
  1  'x, y, z'
loop_
 _atom_site_type_symbol
 _atom_site_label
 _atom_site_symmetry_multiplicity
 _atom_site_fract_x
 _atom_site_fract_y
 _atom_site_fract_z
 _atom_site_occupancy
  Ho  Ho0  1  0.511172  0.323325  0.405161  1
  Ho  Ho1  1  0.488624  0.673221  0.597617  1
  Er  Er2  1  0.012037  0.178327  0.093457  1
  Er  Er3  1  0.992577  0.817877  0.901083  1
  Er  Er4  1  0.488592  0.673220  0.902355  1
  Er  Er5  1  0.992565  0.817881  0.598945  1
  Er  Er6  1  0.511180  0.323274  0.094871  1
  Er  Er7  1  0.012049  0.178330  0.406530  1
  Sc  Sc8  1  0.841150  0.495798  0.249987  1
  Sc  Sc9  1  0.341763  0.003618  0.249983  1
  Sc  Sc10  1  0.657553  0.995876  0.750014  1
  Sc  Sc11  1  0.325952  0.177001  0.627111  1
  Sc  Sc12  1  0.672082  0.824751  0.374386  1
  Sc  Sc13  1  0.172718  0.674052  0.376593  1
  Sc  Sc14  1  0.672080  0.824721  0.125593  1
  Sc  Sc15  1  0.826181  0.330885  0.628263  1
  Sc  Sc16  1  0.325979  0.177043  0.872898  1
  Sc  Sc17  1  0.826133  0.330895  0.871758  1
  Sc  Sc18  1  0.172739  0.674034  0.123384  1
  Si  Si19  1  0.028952  0.116345  0.750008  1
  Si  Si20  1  0.973164  0.885944  0.249994  1
  Si  Si21  1  0.469182  0.615233  0.249973  1
  Si  Si22  1  0.515794  0.395476  0.750036  1
  Si  Si23  1  0.284724  0.863135  0.750044  1
  Si  Si24  1  0.716594  0.129890  0.249961  1
  Si  Si25  1  0.214748  0.370549  0.249964  1
  Si  Si26  1  0.794665  0.629747  0.750031  1
  Si  Si27  1  0.157030  0.465488  0.546974  1
  Si  Si28  1  0.843142  0.535788  0.463334  1
  Si  Si29  1  0.344788  0.964849  0.463099  1
  Si  Si30  1  0.842989  0.535738  0.036676  1
  Si  Si31  1  0.659106  0.034428  0.539804  1
  Si  Si32  1  0.157196  0.465551  0.953006  1
  Si  Si33  1  0.659060  0.034416  0.960199  1
  Si  Si34  1  0.344838  0.964855  0.036896  1
  Ru  Ru35  1  0.150905  0.498439  0.750011  1
