# generated using pymatgen
data_TbLu2Pa(Al3Ir)6
_symmetry_space_group_name_H-M   'P 1'
_cell_length_a   7.56461723
_cell_length_b   7.55819710
_cell_length_c   9.40069600
_cell_angle_alpha   90.00000000
_cell_angle_beta   90.00000000
_cell_angle_gamma   119.59865587
_symmetry_Int_Tables_number   1
_chemical_formula_structural   TbLu2Pa(Al3Ir)6
_chemical_formula_sum   'Tb1 Lu2 Pa1 Al18 Ir6'
_cell_volume   467.34545174
_cell_formula_units_Z   1
loop_
 _symmetry_equiv_pos_site_id
 _symmetry_equiv_pos_as_xyz
  1  'x, y, z'
loop_
 _atom_site_type_symbol
 _atom_site_label
 _atom_site_symmetry_multiplicity
 _atom_site_fract_x
 _atom_site_fract_y
 _atom_site_fract_z
 _atom_site_occupancy
  Tb  Tb0  1  0.672427  0.994816  0.250000  1
  Lu  Lu1  1  0.004630  0.328372  0.750000  1
  Lu  Lu2  1  0.328530  0.004235  0.750000  1
  Pa  Pa3  1  0.996006  0.671771  0.250000  1
  Al  Al4  1  0.132885  0.131515  0.250000  1
  Al  Al5  1  0.873131  0.874825  0.750000  1
  Al  Al6  1  0.001542  0.332789  0.073426  1
  Al  Al7  1  0.999768  0.664468  0.918984  1
  Al  Al8  1  0.999768  0.664468  0.581016  1
  Al  Al9  1  0.338434  0.004106  0.426346  1
  Al  Al10  1  0.001542  0.332789  0.426574  1
  Al  Al11  1  0.664861  0.000689  0.578119  1
  Al  Al12  1  0.664861  0.000689  0.921881  1
  Al  Al13  1  0.338434  0.004106  0.073654  1
  Al  Al14  1  0.331858  0.331963  0.558113  1
  Al  Al15  1  0.663093  0.665311  0.449807  1
  Al  Al16  1  0.663093  0.665311  0.050193  1
  Al  Al17  1  0.331858  0.331963  0.941887  1
  Al  Al18  1  0.339113  0.546659  0.250000  1
  Al  Al19  1  0.658750  0.448477  0.750000  1
  Al  Al20  1  0.546934  0.342077  0.250000  1
  Al  Al21  1  0.449335  0.660573  0.750000  1
  Ir  Ir22  1  0.673990  0.329688  0.001164  1
  Ir  Ir23  1  0.325275  0.671822  0.001171  1
  Ir  Ir24  1  0.325275  0.671822  0.498829  1
  Ir  Ir25  1  0.673990  0.329688  0.498836  1
  Ir  Ir26  1  0.000307  0.997504  0.001900  1
  Ir  Ir27  1  0.000307  0.997504  0.498100  1
