# generated using pymatgen
data_YEr4(In2Ir)2
_symmetry_space_group_name_H-M   'P 1'
_cell_length_a   3.63476900
_cell_length_b   7.98039900
_cell_length_c   18.20663700
_cell_angle_alpha   90.00000000
_cell_angle_beta   90.00000000
_cell_angle_gamma   90.00000000
_symmetry_Int_Tables_number   1
_chemical_formula_structural   YEr4(In2Ir)2
_chemical_formula_sum   'Y2 Er8 In8 Ir4'
_cell_volume   528.11822429
_cell_formula_units_Z   2
loop_
 _symmetry_equiv_pos_site_id
 _symmetry_equiv_pos_as_xyz
  1  'x, y, z'
loop_
 _atom_site_type_symbol
 _atom_site_label
 _atom_site_symmetry_multiplicity
 _atom_site_fract_x
 _atom_site_fract_y
 _atom_site_fract_z
 _atom_site_occupancy
  Y  Y0  1  0.000000  0.000000  0.000000  1
  Y  Y1  1  0.000000  0.500000  0.500000  1
  Er  Er2  1  0.000000  0.115501  0.410804  1
  Er  Er3  1  0.000000  0.884499  0.589196  1
  Er  Er4  1  0.000000  0.384499  0.910804  1
  Er  Er5  1  0.000000  0.615501  0.089196  1
  Er  Er6  1  0.000000  0.244505  0.221366  1
  Er  Er7  1  0.000000  0.755495  0.778634  1
  Er  Er8  1  0.000000  0.255495  0.721366  1
  Er  Er9  1  0.000000  0.744505  0.278634  1
  In  In10  1  0.500000  0.425375  0.350088  1
  In  In11  1  0.500000  0.574625  0.649912  1
  In  In12  1  0.500000  0.074625  0.850088  1
  In  In13  1  0.500000  0.925375  0.149912  1
  In  In14  1  0.500000  0.294473  0.067444  1
  In  In15  1  0.500000  0.705527  0.932556  1
  In  In16  1  0.500000  0.205527  0.567444  1
  In  In17  1  0.500000  0.794473  0.432556  1
  Ir  Ir18  1  0.500000  0.022089  0.304125  1
  Ir  Ir19  1  0.500000  0.977911  0.695875  1
  Ir  Ir20  1  0.500000  0.477911  0.804125  1
  Ir  Ir21  1  0.500000  0.522089  0.195875  1
