# generated using pymatgen
data_La8Cd2CoRu
_symmetry_space_group_name_H-M   'P 1'
_cell_length_a   10.05004131
_cell_length_b   10.01370252
_cell_length_c   10.05004303
_cell_angle_alpha   60.11953761
_cell_angle_beta   60.36955219
_cell_angle_gamma   60.11953697
_symmetry_Int_Tables_number   1
_chemical_formula_structural   La8Cd2CoRu
_chemical_formula_sum   'La16 Cd4 Co2 Ru2'
_cell_volume   718.45645540
_cell_formula_units_Z   2
loop_
 _symmetry_equiv_pos_site_id
 _symmetry_equiv_pos_as_xyz
  1  'x, y, z'
loop_
 _atom_site_type_symbol
 _atom_site_label
 _atom_site_symmetry_multiplicity
 _atom_site_fract_x
 _atom_site_fract_y
 _atom_site_fract_z
 _atom_site_occupancy
  La  La0  1  0.939140  0.942823  0.557097  1
  La  La1  1  0.559745  0.940255  0.559745  1
  La  La2  1  0.557097  0.942823  0.939140  1
  La  La3  1  0.686046  0.693118  0.309791  1
  La  La4  1  0.158715  0.151560  0.538164  1
  La  La5  1  0.309791  0.693118  0.686046  1
  La  La6  1  0.157566  0.148856  0.157566  1
  La  La7  1  0.538164  0.151560  0.158715  1
  La  La8  1  0.310139  0.689861  0.310139  1
  La  La9  1  0.309791  0.311046  0.686046  1
  La  La10  1  0.688359  0.311641  0.688359  1
  La  La11  1  0.939140  0.560939  0.557097  1
  La  La12  1  0.557097  0.560939  0.939140  1
  La  La13  1  0.157566  0.536011  0.157566  1
  La  La14  1  0.686046  0.311046  0.309791  1
  La  La15  1  0.940966  0.559034  0.940966  1
  Cd  Cd16  1  0.237744  0.921047  0.920161  1
  Cd  Cd17  1  0.921333  0.921517  0.921333  1
  Cd  Cd18  1  0.920161  0.921047  0.237744  1
  Cd  Cd19  1  0.921333  0.235816  0.921333  1
  Co  Co20  1  0.362409  0.917195  0.362409  1
  Co  Co21  1  0.362409  0.357986  0.362409  1
  Ru  Ru22  1  0.914011  0.360380  0.365227  1
  Ru  Ru23  1  0.365227  0.360380  0.914011  1
