# generated using pymatgen
data_Zr6Co16Si6P
_symmetry_space_group_name_H-M   'P 1'
_cell_length_a   8.05543996
_cell_length_b   8.06681793
_cell_length_c   8.05543205
_cell_angle_alpha   59.95439869
_cell_angle_beta   60.16638562
_cell_angle_gamma   59.95433989
_symmetry_Int_Tables_number   1
_chemical_formula_structural   Zr6Co16Si6P
_chemical_formula_sum   'Zr6 Co16 Si6 P1'
_cell_volume   370.34616836
_cell_formula_units_Z   1
loop_
 _symmetry_equiv_pos_site_id
 _symmetry_equiv_pos_as_xyz
  1  'x, y, z'
loop_
 _atom_site_type_symbol
 _atom_site_label
 _atom_site_symmetry_multiplicity
 _atom_site_fract_x
 _atom_site_fract_y
 _atom_site_fract_z
 _atom_site_occupancy
  Zr  Zr0  1  0.706832  0.293181  0.293173  1
  Zr  Zr1  1  0.293166  0.293188  0.706824  1
  Zr  Zr2  1  0.293168  0.706819  0.706827  1
  Zr  Zr3  1  0.706834  0.706812  0.293176  1
  Zr  Zr4  1  0.293296  0.706697  0.293303  1
  Zr  Zr5  1  0.706704  0.293303  0.706697  1
  Co  Co6  1  0.118828  0.119546  0.642079  1
  Co  Co7  1  0.669616  0.984279  0.669618  1
  Co  Co8  1  0.357928  0.880446  0.881181  1
  Co  Co9  1  0.018209  0.327194  0.327391  1
  Co  Co10  1  0.981791  0.672806  0.672609  1
  Co  Co11  1  0.327405  0.327204  0.018173  1
  Co  Co12  1  0.672595  0.672796  0.981827  1
  Co  Co13  1  0.642072  0.119554  0.118819  1
  Co  Co14  1  0.669598  0.676487  0.669600  1
  Co  Co15  1  0.881172  0.880454  0.357921  1
  Co  Co16  1  0.120257  0.119186  0.120257  1
  Co  Co17  1  0.879735  0.359725  0.879734  1
  Co  Co18  1  0.879743  0.880814  0.879743  1
  Co  Co19  1  0.330402  0.323513  0.330400  1
  Co  Co20  1  0.120265  0.640275  0.120266  1
  Co  Co21  1  0.330384  0.015721  0.330382  1
  Si  Si22  1  0.000000  0.500000  0.000000  1
  Si  Si23  1  0.000000  0.000000  0.500000  1
  Si  Si24  1  0.000000  0.000000  0.000000  1
  Si  Si25  1  0.500000  0.500000  0.000000  1
  Si  Si26  1  0.500000  0.000000  0.000000  1
  Si  Si27  1  0.000000  0.500000  0.500000  1
  P  P28  1  0.500000  0.000000  0.500000  1
