# generated using pymatgen
data_Eu4InW3O14
_symmetry_space_group_name_H-M   'P 1'
_cell_length_a   7.61094723
_cell_length_b   7.51814998
_cell_length_c   7.61094800
_cell_angle_alpha   59.59085217
_cell_angle_beta   60.00000533
_cell_angle_gamma   59.59085291
_symmetry_Int_Tables_number   1
_chemical_formula_structural   Eu4InW3O14
_chemical_formula_sum   'Eu4 In1 W3 O14'
_cell_volume   306.02704729
_cell_formula_units_Z   1
loop_
 _symmetry_equiv_pos_site_id
 _symmetry_equiv_pos_as_xyz
  1  'x, y, z'
loop_
 _atom_site_type_symbol
 _atom_site_label
 _atom_site_symmetry_multiplicity
 _atom_site_fract_x
 _atom_site_fract_y
 _atom_site_fract_z
 _atom_site_occupancy
  Eu  Eu0  1  0.125000  0.625000  0.125000  1
  Eu  Eu1  1  0.125000  0.125000  0.625000  1
  Eu  Eu2  1  0.625000  0.125000  0.125000  1
  Eu  Eu3  1  0.125000  0.125000  0.125000  1
  In  In4  1  0.625000  0.125000  0.625000  1
  W  W5  1  0.625000  0.625000  0.625000  1
  W  W6  1  0.125000  0.625000  0.625000  1
  W  W7  1  0.625000  0.625000  0.125000  1
  O  O8  1  0.303214  0.687558  0.706014  1
  O  O9  1  0.544223  0.941379  0.970174  1
  O  O10  1  0.706014  0.687558  0.303214  1
  O  O11  1  0.279826  0.308621  0.705777  1
  O  O12  1  0.999493  0.001522  0.999493  1
  O  O13  1  0.303214  0.687558  0.303214  1
  O  O14  1  0.705777  0.308621  0.705777  1
  O  O15  1  0.946786  0.562442  0.946786  1
  O  O16  1  0.543986  0.562442  0.946786  1
  O  O17  1  0.970174  0.941379  0.544223  1
  O  O18  1  0.250507  0.248478  0.250507  1
  O  O19  1  0.544223  0.941379  0.544223  1
  O  O20  1  0.705777  0.308621  0.279826  1
  O  O21  1  0.946786  0.562442  0.543986  1
