# generated using pymatgen
data_Pr4Nd7In9Rh4
_symmetry_space_group_name_H-M   'P 1'
_cell_length_a   13.48918923
_cell_length_b   13.48918778
_cell_length_c   3.85129800
_cell_angle_alpha   90.00000000
_cell_angle_beta   90.00000000
_cell_angle_gamma   112.49203644
_symmetry_Int_Tables_number   1
_chemical_formula_structural   Pr4Nd7In9Rh4
_chemical_formula_sum   'Pr4 Nd7 In9 Rh4'
_cell_volume   647.46920286
_cell_formula_units_Z   1
loop_
 _symmetry_equiv_pos_site_id
 _symmetry_equiv_pos_as_xyz
  1  'x, y, z'
loop_
 _atom_site_type_symbol
 _atom_site_label
 _atom_site_symmetry_multiplicity
 _atom_site_fract_x
 _atom_site_fract_y
 _atom_site_fract_z
 _atom_site_occupancy
  Pr  Pr0  1  0.126398  0.873602  0.500000  1
  Pr  Pr1  1  0.873602  0.126398  0.500000  1
  Pr  Pr2  1  0.340757  0.659243  0.500000  1
  Pr  Pr3  1  0.659243  0.340757  0.500000  1
  Nd  Nd4  1  0.500000  0.500000  0.500000  1
  Nd  Nd5  1  0.812642  0.812642  0.500000  1
  Nd  Nd6  1  0.187358  0.187358  0.500000  1
  Nd  Nd7  1  0.578954  0.918952  0.500000  1
  Nd  Nd8  1  0.421046  0.081048  0.500000  1
  Nd  Nd9  1  0.918952  0.578954  0.500000  1
  Nd  Nd10  1  0.081048  0.421046  0.500000  1
  In  In11  1  0.338299  0.866028  0.000000  1
  In  In12  1  0.661701  0.133972  0.000000  1
  In  In13  1  0.866028  0.338299  0.000000  1
  In  In14  1  0.133972  0.661701  0.000000  1
  In  In15  1  0.579296  0.720090  0.000000  1
  In  In16  1  0.420704  0.279910  0.000000  1
  In  In17  1  0.720090  0.579296  0.000000  1
  In  In18  1  0.279910  0.420704  0.000000  1
  In  In19  1  0.000000  0.000000  0.000000  1
  Rh  Rh20  1  0.746185  0.952576  0.000000  1
  Rh  Rh21  1  0.253815  0.047424  0.000000  1
  Rh  Rh22  1  0.952576  0.746185  0.000000  1
  Rh  Rh23  1  0.047424  0.253815  0.000000  1
