# generated using pymatgen
data_Ba2AcB18
_symmetry_space_group_name_H-M   'P 1'
_cell_length_a   4.24686400
_cell_length_b   4.24686400
_cell_length_c   12.78103600
_cell_angle_alpha   90.00000000
_cell_angle_beta   90.00000000
_cell_angle_gamma   90.00000000
_symmetry_Int_Tables_number   1
_chemical_formula_structural   Ba2AcB18
_chemical_formula_sum   'Ba2 Ac1 B18'
_cell_volume   230.51689715
_cell_formula_units_Z   1
loop_
 _symmetry_equiv_pos_site_id
 _symmetry_equiv_pos_as_xyz
  1  'x, y, z'
loop_
 _atom_site_type_symbol
 _atom_site_label
 _atom_site_symmetry_multiplicity
 _atom_site_fract_x
 _atom_site_fract_y
 _atom_site_fract_z
 _atom_site_occupancy
  Ba  Ba0  1  0.000000  0.000000  0.334758  1
  Ba  Ba1  1  0.000000  0.000000  0.665242  1
  Ac  Ac2  1  0.000000  0.000000  0.000000  1
  B  B3  1  0.203084  0.500000  0.164446  1
  B  B4  1  0.204049  0.500000  0.500000  1
  B  B5  1  0.203084  0.500000  0.835554  1
  B  B6  1  0.500000  0.500000  0.263570  1
  B  B7  1  0.500000  0.500000  0.598510  1
  B  B8  1  0.500000  0.500000  0.933175  1
  B  B9  1  0.500000  0.203084  0.164446  1
  B  B10  1  0.500000  0.204049  0.500000  1
  B  B11  1  0.500000  0.203084  0.835554  1
  B  B12  1  0.500000  0.500000  0.066825  1
  B  B13  1  0.500000  0.500000  0.401490  1
  B  B14  1  0.500000  0.500000  0.736430  1
  B  B15  1  0.500000  0.796916  0.164446  1
  B  B16  1  0.500000  0.795951  0.500000  1
  B  B17  1  0.500000  0.796916  0.835554  1
  B  B18  1  0.796916  0.500000  0.164446  1
  B  B19  1  0.795951  0.500000  0.500000  1
  B  B20  1  0.796916  0.500000  0.835554  1
