# generated using pymatgen
data_Lu5Mg(P2Ru3)6
_symmetry_space_group_name_H-M   'P 1'
_cell_length_a   12.41841400
_cell_length_b   12.58672102
_cell_length_c   3.95710600
_cell_angle_alpha   90.00000000
_cell_angle_beta   90.00000000
_cell_angle_gamma   119.55864175
_symmetry_Int_Tables_number   1
_chemical_formula_structural   Lu5Mg(P2Ru3)6
_chemical_formula_sum   'Lu5 Mg1 P12 Ru18'
_cell_volume   538.02371112
_cell_formula_units_Z   1
loop_
 _symmetry_equiv_pos_site_id
 _symmetry_equiv_pos_as_xyz
  1  'x, y, z'
loop_
 _atom_site_type_symbol
 _atom_site_label
 _atom_site_symmetry_multiplicity
 _atom_site_fract_x
 _atom_site_fract_y
 _atom_site_fract_z
 _atom_site_occupancy
  Lu  Lu0  1  0.819554  0.000000  0.500000  1
  Lu  Lu1  1  0.998684  0.816625  0.500000  1
  Lu  Lu2  1  0.182059  0.183375  0.500000  1
  Lu  Lu3  1  0.331585  0.660319  0.000000  1
  Lu  Lu4  1  0.671268  0.339681  0.000000  1
  Mg  Mg5  1  0.438416  0.000000  0.000000  1
  P  P6  1  0.187772  0.000000  0.000000  1
  P  P7  1  0.999161  0.181623  0.000000  1
  P  P8  1  0.817539  0.818377  0.000000  1
  P  P9  1  0.518624  0.691561  0.500000  1
  P  P10  1  0.300207  0.817720  0.500000  1
  P  P11  1  0.167887  0.475020  0.500000  1
  P  P12  1  0.482487  0.182280  0.500000  1
  P  P13  1  0.692867  0.524980  0.500000  1
  P  P14  1  0.827063  0.308439  0.500000  1
  P  P15  1  0.640484  0.000000  0.000000  1
  P  P16  1  0.999835  0.625796  0.000000  1
  P  P17  1  0.374039  0.374204  0.000000  1
  Ru  Ru18  1  0.999360  0.444055  0.000000  1
  Ru  Ru19  1  0.555304  0.555945  0.000000  1
  Ru  Ru20  1  0.283125  0.000000  0.500000  1
  Ru  Ru21  1  0.998235  0.280390  0.500000  1
  Ru  Ru22  1  0.717845  0.719610  0.500000  1
  Ru  Ru23  1  0.621224  0.806050  0.000000  1
  Ru  Ru24  1  0.192310  0.812727  0.000000  1
  Ru  Ru25  1  0.184260  0.372563  0.000000  1
  Ru  Ru26  1  0.379583  0.187273  0.000000  1
  Ru  Ru27  1  0.811697  0.627437  0.000000  1
  Ru  Ru28  1  0.815174  0.193950  0.000000  1
  Ru  Ru29  1  0.508345  0.874021  0.500000  1
  Ru  Ru30  1  0.121989  0.630695  0.500000  1
  Ru  Ru31  1  0.363645  0.493515  0.500000  1
  Ru  Ru32  1  0.491293  0.369305  0.500000  1
  Ru  Ru33  1  0.870130  0.506485  0.500000  1
  Ru  Ru34  1  0.634325  0.125979  0.500000  1
  Ru  Ru35  1  0.002625  0.000000  0.000000  1
