# generated using pymatgen
data_Ce2Ho4FeCl10
_symmetry_space_group_name_H-M   'P 1'
_cell_length_a   7.15205300
_cell_length_b   8.95769456
_cell_length_c   8.80770600
_cell_angle_alpha   108.37458428
_cell_angle_beta   95.11066725
_cell_angle_gamma   107.46930849
_symmetry_Int_Tables_number   1
_chemical_formula_structural   Ce2Ho4FeCl10
_chemical_formula_sum   'Ce2 Ho4 Fe1 Cl10'
_cell_volume   500.17692587
_cell_formula_units_Z   1
loop_
 _symmetry_equiv_pos_site_id
 _symmetry_equiv_pos_as_xyz
  1  'x, y, z'
loop_
 _atom_site_type_symbol
 _atom_site_label
 _atom_site_symmetry_multiplicity
 _atom_site_fract_x
 _atom_site_fract_y
 _atom_site_fract_z
 _atom_site_occupancy
  Ce  Ce0  1  0.626018  0.049805  0.773157  1
  Ce  Ce1  1  0.373982  0.950195  0.226843  1
  Ho  Ho2  1  0.871548  0.146125  0.188694  1
  Ho  Ho3  1  0.128452  0.853875  0.811306  1
  Ho  Ho4  1  0.522477  0.689295  0.894969  1
  Ho  Ho5  1  0.477523  0.310705  0.105031  1
  Fe  Fe6  1  0.500000  0.000000  0.000000  1
  Cl  Cl7  1  0.755914  0.084826  0.448704  1
  Cl  Cl8  1  0.244086  0.915174  0.551296  1
  Cl  Cl9  1  0.944675  0.826925  0.072395  1
  Cl  Cl10  1  0.055325  0.173075  0.927605  1
  Cl  Cl11  1  0.286492  0.261511  0.343638  1
  Cl  Cl12  1  0.713508  0.738489  0.656362  1
  Cl  Cl13  1  0.587657  0.377474  0.841826  1
  Cl  Cl14  1  0.412343  0.622526  0.158174  1
  Cl  Cl15  1  0.852145  0.452384  0.275108  1
  Cl  Cl16  1  0.147855  0.547616  0.724892  1
