# generated using pymatgen
data_Ti8Al15Ir3Rh4
_symmetry_space_group_name_H-M   'P 1'
_cell_length_a   8.65316717
_cell_length_b   8.65110572
_cell_length_c   8.65316623
_cell_angle_alpha   120.19553293
_cell_angle_beta   119.79330490
_cell_angle_gamma   90.01688653
_symmetry_Int_Tables_number   1
_chemical_formula_structural   Ti8Al15Ir3Rh4
_chemical_formula_sum   'Ti8 Al15 Ir3 Rh4'
_cell_volume   458.04765660
_cell_formula_units_Z   1
loop_
 _symmetry_equiv_pos_site_id
 _symmetry_equiv_pos_as_xyz
  1  'x, y, z'
loop_
 _atom_site_type_symbol
 _atom_site_label
 _atom_site_symmetry_multiplicity
 _atom_site_fract_x
 _atom_site_fract_y
 _atom_site_fract_z
 _atom_site_occupancy
  Ti  Ti0  1  0.787255  0.289117  0.072926  1
  Ti  Ti1  1  0.216191  0.289117  0.501862  1
  Ti  Ti2  1  0.207805  0.712337  0.504532  1
  Ti  Ti3  1  0.219121  0.718920  0.925727  1
  Ti  Ti4  1  0.793193  0.718920  0.499799  1
  Ti  Ti5  1  0.782205  0.277837  0.495632  1
  Ti  Ti6  1  0.378217  0.123005  0.744788  1
  Ti  Ti7  1  0.379490  0.635990  0.256500  1
  Al  Al8  1  0.996028  0.495383  0.499355  1
  Al  Al9  1  0.152040  0.346555  0.194513  1
  Al  Al10  1  0.153916  0.967895  0.813979  1
  Al  Al11  1  0.149340  0.348758  0.804825  1
  Al  Al12  1  0.543932  0.348758  0.199418  1
  Al  Al13  1  0.847445  0.650151  0.802706  1
  Al  Al14  1  0.846393  0.037019  0.190626  1
  Al  Al15  1  0.844084  0.653070  0.187175  1
  Al  Al16  1  0.465894  0.653070  0.808986  1
  Al  Al17  1  0.378519  0.122636  0.258927  1
  Al  Al18  1  0.863710  0.122636  0.744118  1
  Al  Al19  1  0.621459  0.876175  0.254716  1
  Al  Al20  1  0.621720  0.364614  0.742893  1
  Al  Al21  1  0.620595  0.877093  0.741207  1
  Al  Al22  1  0.135885  0.877093  0.256498  1
  Ir  Ir23  1  0.001811  0.999891  0.501957  1
  Ir  Ir24  1  0.497935  0.999891  0.998081  1
  Ir  Ir25  1  0.497170  0.497386  0.000216  1
  Rh  Rh26  1  0.498502  0.499246  0.498421  1
  Rh  Rh27  1  0.000825  0.499246  0.000745  1
  Rh  Rh28  1  0.999124  0.998789  0.999665  1
  Rh  Rh29  1  0.500194  0.999397  0.499203  1
