# generated using pymatgen
data_Y4Sc(InSb)2
_symmetry_space_group_name_H-M   'P 1'
_cell_length_a   8.73731567
_cell_length_b   8.73731442
_cell_length_c   8.02358500
_cell_angle_alpha   90.00000000
_cell_angle_beta   90.00000000
_cell_angle_gamma   125.22933478
_symmetry_Int_Tables_number   1
_chemical_formula_structural   Y4Sc(InSb)2
_chemical_formula_sum   'Y8 Sc2 In4 Sb4'
_cell_volume   500.34156645
_cell_formula_units_Z   2
loop_
 _symmetry_equiv_pos_site_id
 _symmetry_equiv_pos_as_xyz
  1  'x, y, z'
loop_
 _atom_site_type_symbol
 _atom_site_label
 _atom_site_symmetry_multiplicity
 _atom_site_fract_x
 _atom_site_fract_y
 _atom_site_fract_z
 _atom_site_occupancy
  Y  Y0  1  0.033185  0.307554  0.333247  1
  Y  Y1  1  0.966815  0.692446  0.666753  1
  Y  Y2  1  0.466815  0.192446  0.833247  1
  Y  Y3  1  0.807554  0.533185  0.166753  1
  Y  Y4  1  0.533185  0.807554  0.166753  1
  Y  Y5  1  0.192446  0.466815  0.833247  1
  Y  Y6  1  0.692446  0.966815  0.666753  1
  Y  Y7  1  0.307554  0.033185  0.333247  1
  Sc  Sc8  1  0.000000  0.000000  0.000000  1
  Sc  Sc9  1  0.500000  0.500000  0.500000  1
  In  In10  1  0.368049  0.368049  0.131048  1
  In  In11  1  0.631951  0.631951  0.868952  1
  In  In12  1  0.131951  0.131951  0.631048  1
  In  In13  1  0.868049  0.868049  0.368952  1
  Sb  Sb14  1  0.799327  0.200673  0.000000  1
  Sb  Sb15  1  0.200673  0.799327  0.000000  1
  Sb  Sb16  1  0.700673  0.299327  0.500000  1
  Sb  Sb17  1  0.299327  0.700673  0.500000  1
