# generated using pymatgen
data_Pu3U5(B6W)4
_symmetry_space_group_name_H-M   'P 1'
_cell_length_a   3.67450300
_cell_length_b   9.34900608
_cell_length_c   11.41520710
_cell_angle_alpha   89.98512908
_cell_angle_beta   90.00000000
_cell_angle_gamma   90.00000000
_symmetry_Int_Tables_number   1
_chemical_formula_structural   Pu3U5(B6W)4
_chemical_formula_sum   'Pu3 U5 B24 W4'
_cell_volume   392.14603549
_cell_formula_units_Z   1
loop_
 _symmetry_equiv_pos_site_id
 _symmetry_equiv_pos_as_xyz
  1  'x, y, z'
loop_
 _atom_site_type_symbol
 _atom_site_label
 _atom_site_symmetry_multiplicity
 _atom_site_fract_x
 _atom_site_fract_y
 _atom_site_fract_z
 _atom_site_occupancy
  Pu  Pu0  1  0.000000  0.336100  0.406536  1
  Pu  Pu1  1  0.000000  0.664658  0.592905  1
  Pu  Pu2  1  0.000000  0.836423  0.093333  1
  U  U3  1  0.000000  0.164387  0.907408  1
  U  U4  1  0.000000  0.956138  0.394859  1
  U  U5  1  0.000000  0.043497  0.604259  1
  U  U6  1  0.000000  0.457100  0.105375  1
  U  U7  1  0.000000  0.544050  0.894864  1
  B  B8  1  0.500000  0.550970  0.432930  1
  B  B9  1  0.500000  0.448276  0.567759  1
  B  B10  1  0.500000  0.051854  0.066139  1
  B  B11  1  0.500000  0.950579  0.932342  1
  B  B12  1  0.500000  0.744245  0.424355  1
  B  B13  1  0.500000  0.255487  0.575775  1
  B  B14  1  0.500000  0.243757  0.075122  1
  B  B15  1  0.500000  0.755532  0.923914  1
  B  B16  1  0.500000  0.804175  0.273920  1
  B  B17  1  0.500000  0.195388  0.727463  1
  B  B18  1  0.500000  0.304134  0.225920  1
  B  B19  1  0.500000  0.696092  0.774084  1
  B  B20  1  0.500000  0.643946  0.187178  1
  B  B21  1  0.500000  0.354580  0.813168  1
  B  B22  1  0.500000  0.144225  0.312418  1
  B  B23  1  0.500000  0.856022  0.687318  1
  B  B24  1  0.500000  0.987240  0.219907  1
  B  B25  1  0.500000  0.014043  0.781443  1
  B  B26  1  0.500000  0.487027  0.280458  1
  B  B27  1  0.500000  0.512551  0.719703  1
  B  B28  1  0.500000  0.640365  0.038890  1
  B  B29  1  0.500000  0.356965  0.960388  1
  B  B30  1  0.500000  0.140454  0.460746  1
  B  B31  1  0.500000  0.859874  0.539034  1
  W  W32  1  0.000000  0.646065  0.319361  1
  W  W33  1  0.000000  0.351929  0.682230  1
  W  W34  1  0.000000  0.145660  0.178637  1
  W  W35  1  0.000000  0.856215  0.819861  1
