# generated using pymatgen
data_Ni(S8Cl)3
_symmetry_space_group_name_H-M   'P 1'
_cell_length_a   15.33418599
_cell_length_b   15.33418756
_cell_length_c   15.33419068
_cell_angle_alpha   118.62401884
_cell_angle_beta   118.62401011
_cell_angle_gamma   118.62398884
_symmetry_Int_Tables_number   1
_chemical_formula_structural   Ni(S8Cl)3
_chemical_formula_sum   'Ni1 S24 Cl3'
_cell_volume   1091.37689695
_cell_formula_units_Z   1
loop_
 _symmetry_equiv_pos_site_id
 _symmetry_equiv_pos_as_xyz
  1  'x, y, z'
loop_
 _atom_site_type_symbol
 _atom_site_label
 _atom_site_symmetry_multiplicity
 _atom_site_fract_x
 _atom_site_fract_y
 _atom_site_fract_z
 _atom_site_occupancy
  Ni  Ni0  1  0.074728  0.074728  0.074728  1
  S  S1  1  0.026752  0.621697  0.621697  1
  S  S2  1  0.621697  0.621697  0.026752  1
  S  S3  1  0.621697  0.026752  0.621697  1
  S  S4  1  0.229410  0.838747  0.711053  1
  S  S5  1  0.838747  0.711053  0.229410  1
  S  S6  1  0.711053  0.229409  0.838747  1
  S  S7  1  0.838747  0.229410  0.711053  1
  S  S8  1  0.229409  0.711053  0.838747  1
  S  S9  1  0.711053  0.838747  0.229410  1
  S  S10  1  0.107965  0.636113  0.455838  1
  S  S11  1  0.636113  0.455838  0.107964  1
  S  S12  1  0.455838  0.107964  0.636113  1
  S  S13  1  0.636113  0.107965  0.455838  1
  S  S14  1  0.107964  0.455838  0.636113  1
  S  S15  1  0.455838  0.636113  0.107964  1
  S  S16  1  0.347740  0.736194  0.608432  1
  S  S17  1  0.736194  0.608432  0.347740  1
  S  S18  1  0.608432  0.347740  0.736194  1
  S  S19  1  0.736194  0.347740  0.608432  1
  S  S20  1  0.347740  0.608432  0.736194  1
  S  S21  1  0.608432  0.736194  0.347740  1
  S  S22  1  0.194529  0.475727  0.475727  1
  S  S23  1  0.475727  0.475727  0.194529  1
  S  S24  1  0.475727  0.194529  0.475727  1
  Cl  Cl25  1  0.162761  0.025248  0.025248  1
  Cl  Cl26  1  0.025249  0.025249  0.162762  1
  Cl  Cl27  1  0.025249  0.162761  0.025249  1
