# generated using pymatgen
data_Nd12Ta7Mo12WN48
_symmetry_space_group_name_H-M   'P 1'
_cell_length_a   11.29933504
_cell_length_b   11.29933513
_cell_length_c   11.26480300
_cell_angle_alpha   109.40932245
_cell_angle_beta   109.40932263
_cell_angle_gamma   109.53304748
_symmetry_Int_Tables_number   1
_chemical_formula_structural   Nd12Ta7Mo12WN48
_chemical_formula_sum   'Nd12 Ta7 Mo12 W1 N48'
_cell_volume   1107.99723755
_cell_formula_units_Z   1
loop_
 _symmetry_equiv_pos_site_id
 _symmetry_equiv_pos_as_xyz
  1  'x, y, z'
loop_
 _atom_site_type_symbol
 _atom_site_label
 _atom_site_symmetry_multiplicity
 _atom_site_fract_x
 _atom_site_fract_y
 _atom_site_fract_z
 _atom_site_occupancy
  Nd  Nd0  1  0.249921  0.375414  0.124903  1
  Nd  Nd1  1  0.375159  0.750467  0.126508  1
  Nd  Nd2  1  0.375309  0.124841  0.251349  1
  Nd  Nd3  1  0.875413  0.625492  0.250510  1
  Nd  Nd4  1  0.125492  0.250079  0.374983  1
  Nd  Nd5  1  0.749533  0.124692  0.376041  1
  Nd  Nd6  1  0.250467  0.875308  0.623959  1
  Nd  Nd7  1  0.874508  0.749921  0.625018  1
  Nd  Nd8  1  0.124587  0.374508  0.749490  1
  Nd  Nd9  1  0.624692  0.875159  0.748651  1
  Nd  Nd10  1  0.624841  0.249533  0.873492  1
  Nd  Nd11  1  0.750079  0.624587  0.875097  1
  Ta  Ta12  1  0.000000  0.000000  0.000000  1
  Ta  Ta13  1  0.500001  0.000000  0.000000  1
  Ta  Ta14  1  0.500000  0.500000  0.000000  1
  Ta  Ta15  1  0.000000  0.500001  0.000000  1
  Ta  Ta16  1  0.000000  0.500000  0.500000  1
  Ta  Ta17  1  0.000000  0.000000  0.500001  1
  Ta  Ta18  1  0.500001  0.500001  0.500001  1
  Mo  Mo19  1  0.749729  0.874867  0.125320  1
  Mo  Mo20  1  0.874862  0.249729  0.124408  1
  Mo  Mo21  1  0.625133  0.374862  0.250453  1
  Mo  Mo22  1  0.125108  0.875044  0.250012  1
  Mo  Mo23  1  0.624956  0.750065  0.374969  1
  Mo  Mo24  1  0.250065  0.625109  0.375097  1
  Mo  Mo25  1  0.749935  0.374892  0.624903  1
  Mo  Mo26  1  0.375044  0.249935  0.625032  1
  Mo  Mo27  1  0.874891  0.124956  0.749988  1
  Mo  Mo28  1  0.374868  0.625138  0.749547  1
  Mo  Mo29  1  0.250271  0.125132  0.874680  1
  Mo  Mo30  1  0.125138  0.750271  0.875591  1
  W  W31  1  0.500000  0.000000  0.500000  1
  N  N32  1  0.316784  0.899772  0.015874  1
  N  N33  1  0.199429  0.115934  0.015233  1
  N  N34  1  0.698639  0.683673  0.083495  1
  N  N35  1  0.883917  0.399489  0.082946  1
  N  N36  1  0.615934  0.416504  0.100700  1
  N  N37  1  0.984517  0.682544  0.099426  1
  N  N38  1  0.600228  0.917012  0.116102  1
  N  N39  1  0.014967  0.198639  0.115144  1
  N  N40  1  0.484282  0.600178  0.182709  1
  N  N41  1  0.199235  0.583493  0.183760  1
  N  N42  1  0.115897  0.015719  0.198429  1
  N  N43  1  0.582987  0.183216  0.199089  1
  N  N44  1  0.484428  0.383917  0.300971  1
  N  N45  1  0.317929  0.918764  0.306512  1
  N  N46  1  0.899489  0.015572  0.316543  1
  N  N47  1  0.916505  0.300572  0.315805  1
  N  N48  1  0.301973  0.484517  0.385092  1
  N  N49  1  0.581236  0.899166  0.387749  1
  N  N50  1  0.083493  0.884258  0.399734  1
  N  N51  1  0.816327  0.514967  0.399824  1
  N  N52  1  0.817456  0.801972  0.416880  1
  N  N53  1  0.100178  0.615897  0.417467  1
  N  N54  1  0.600835  0.182071  0.488584  1
  N  N55  1  0.384258  0.300765  0.484525  1
  N  N56  1  0.615742  0.699235  0.515475  1
  N  N57  1  0.399166  0.817929  0.511417  1
  N  N58  1  0.899823  0.384104  0.582532  1
  N  N59  1  0.182544  0.198027  0.583119  1
  N  N60  1  0.916506  0.115742  0.600266  1
  N  N61  1  0.183673  0.485034  0.600177  1
  N  N62  1  0.418763  0.100835  0.612252  1
  N  N63  1  0.698027  0.515483  0.614908  1
  N  N64  1  0.083495  0.699429  0.684195  1
  N  N65  1  0.100511  0.984428  0.683457  1
  N  N66  1  0.682071  0.081236  0.693489  1
  N  N67  1  0.515572  0.616083  0.699029  1
  N  N68  1  0.417012  0.816784  0.800910  1
  N  N69  1  0.884105  0.984282  0.801572  1
  N  N70  1  0.800764  0.416506  0.816240  1
  N  N71  1  0.515719  0.399823  0.817291  1
  N  N72  1  0.399772  0.082987  0.883898  1
  N  N73  1  0.985034  0.801362  0.884858  1
  N  N74  1  0.015483  0.317456  0.900574  1
  N  N75  1  0.384067  0.583495  0.899301  1
  N  N76  1  0.116083  0.600511  0.917053  1
  N  N77  1  0.301362  0.316327  0.916505  1
  N  N78  1  0.683216  0.100228  0.984126  1
  N  N79  1  0.800572  0.884068  0.984768  1
