# generated using pymatgen
data_Tb2Ho6Ti3Si16Tc9
_symmetry_space_group_name_H-M   'P 1'
_cell_length_a   6.78507399
_cell_length_b   6.78501079
_cell_length_c   12.95862933
_cell_angle_alpha   89.93329948
_cell_angle_beta   90.07138922
_cell_angle_gamma   89.30044356
_symmetry_Int_Tables_number   1
_chemical_formula_structural   Tb2Ho6Ti3Si16Tc9
_chemical_formula_sum   'Tb2 Ho6 Ti3 Si16 Tc9'
_cell_volume   596.52848592
_cell_formula_units_Z   1
loop_
 _symmetry_equiv_pos_site_id
 _symmetry_equiv_pos_as_xyz
  1  'x, y, z'
loop_
 _atom_site_type_symbol
 _atom_site_label
 _atom_site_symmetry_multiplicity
 _atom_site_fract_x
 _atom_site_fract_y
 _atom_site_fract_z
 _atom_site_occupancy
  Tb  Tb0  1  0.003063  0.336612  0.528780  1
  Tb  Tb1  1  0.997477  0.662861  0.028190  1
  Ho  Ho2  1  0.337500  0.002146  0.471292  1
  Ho  Ho3  1  0.509652  0.823899  0.716845  1
  Ho  Ho4  1  0.487861  0.178805  0.216720  1
  Ho  Ho5  1  0.823807  0.509689  0.283222  1
  Ho  Ho6  1  0.179014  0.487778  0.783351  1
  Ho  Ho7  1  0.661625  0.998788  0.971871  1
  Ti  Ti8  1  0.155556  0.845033  0.249203  1
  Ti  Ti9  1  0.845077  0.155567  0.751128  1
  Ti  Ti10  1  0.666045  0.665971  0.499920  1
  Si  Si11  1  0.211912  0.117764  0.680958  1
  Si  Si12  1  0.398072  0.681452  0.940115  1
  Si  Si13  1  0.610509  0.308607  0.437791  1
  Si  Si14  1  0.680971  0.396802  0.059793  1
  Si  Si15  1  0.309050  0.611937  0.562087  1
  Si  Si16  1  0.786619  0.883859  0.182574  1
  Si  Si17  1  0.118411  0.211203  0.318992  1
  Si  Si18  1  0.883239  0.787194  0.817380  1
  Si  Si19  1  0.263457  0.985763  0.055488  1
  Si  Si20  1  0.525410  0.803938  0.314312  1
  Si  Si21  1  0.471789  0.197568  0.815377  1
  Si  Si22  1  0.803459  0.525760  0.685909  1
  Si  Si23  1  0.198037  0.471333  0.184904  1
  Si  Si24  1  0.730020  0.022388  0.557641  1
  Si  Si25  1  0.985354  0.262170  0.944465  1
  Si  Si26  1  0.022739  0.731439  0.442271  1
  Tc  Tc27  1  0.334394  0.333821  0.999931  1
  Tc  Tc28  1  0.182811  0.981351  0.864326  1
  Tc  Tc29  1  0.474422  0.693329  0.132147  1
  Tc  Tc30  1  0.522940  0.314706  0.632664  1
  Tc  Tc31  1  0.692841  0.473652  0.867758  1
  Tc  Tc32  1  0.315413  0.523852  0.367205  1
  Tc  Tc33  1  0.817931  0.012146  0.363768  1
  Tc  Tc34  1  0.981260  0.182400  0.135548  1
  Tc  Tc35  1  0.012264  0.818419  0.636076  1
