# generated using pymatgen
data_Tm3Al12Fe3Au
_symmetry_space_group_name_H-M   'P 1'
_cell_length_a   8.72944546
_cell_length_b   8.69205880
_cell_length_c   9.33036907
_cell_angle_alpha   90.00000087
_cell_angle_beta   89.98308063
_cell_angle_gamma   119.85843606
_symmetry_Int_Tables_number   1
_chemical_formula_structural   Tm3Al12Fe3Au
_chemical_formula_sum   'Tm6 Al24 Fe6 Au2'
_cell_volume   613.98320637
_cell_formula_units_Z   2
loop_
 _symmetry_equiv_pos_site_id
 _symmetry_equiv_pos_as_xyz
  1  'x, y, z'
loop_
 _atom_site_type_symbol
 _atom_site_label
 _atom_site_symmetry_multiplicity
 _atom_site_fract_x
 _atom_site_fract_y
 _atom_site_fract_z
 _atom_site_occupancy
  Tm  Tm0  1  0.806785  0.195666  0.743087  1
  Tm  Tm1  1  0.193215  0.804334  0.256913  1
  Tm  Tm2  1  0.387586  0.193793  0.747764  1
  Tm  Tm3  1  0.612414  0.806207  0.252236  1
  Tm  Tm4  1  0.806785  0.611119  0.743087  1
  Tm  Tm5  1  0.193215  0.388881  0.256913  1
  Al  Al6  1  0.685964  0.342982  0.978315  1
  Al  Al7  1  0.314036  0.657018  0.021685  1
  Al  Al8  1  0.333910  0.666956  0.480524  1
  Al  Al9  1  0.666090  0.333044  0.519476  1
  Al  Al10  1  0.838710  0.162682  0.425262  1
  Al  Al11  1  0.161290  0.837318  0.574738  1
  Al  Al12  1  0.322192  0.161096  0.427684  1
  Al  Al13  1  0.146743  0.829481  0.918692  1
  Al  Al14  1  0.677808  0.838904  0.572316  1
  Al  Al15  1  0.853257  0.170519  0.081308  1
  Al  Al16  1  0.838710  0.676028  0.425262  1
  Al  Al17  1  0.689442  0.844721  0.915218  1
  Al  Al18  1  0.161290  0.323972  0.574738  1
  Al  Al19  1  0.310558  0.155279  0.084782  1
  Al  Al20  1  0.146743  0.317261  0.918692  1
  Al  Al21  1  0.853257  0.682739  0.081308  1
  Al  Al22  1  0.437458  0.562047  0.737714  1
  Al  Al23  1  0.562542  0.437953  0.262286  1
  Al  Al24  1  0.115541  0.557771  0.749812  1
  Al  Al25  1  0.884459  0.442229  0.250188  1
  Al  Al26  1  0.437458  0.875412  0.737714  1
  Al  Al27  1  0.562542  0.124588  0.262286  1
  Al  Al28  1  0.002302  0.001151  0.748426  1
  Al  Al29  1  0.997698  0.998849  0.251574  1
  Fe  Fe30  1  0.000000  0.500000  0.000000  1
  Fe  Fe31  1  0.500000  0.500000  0.500000  1
  Fe  Fe32  1  0.000000  0.500000  0.500000  1
  Fe  Fe33  1  0.500000  0.000000  0.500000  1
  Fe  Fe34  1  0.000000  0.000000  0.000000  1
  Fe  Fe35  1  0.000000  0.000000  0.500000  1
  Au  Au36  1  0.500000  0.500000  0.000000  1
  Au  Au37  1  0.500000  0.000000  0.000000  1
