# generated using pymatgen
data_Ca4BP3Pt4
_symmetry_space_group_name_H-M   'P 1'
_cell_length_a   4.26348500
_cell_length_b   6.61263748
_cell_length_c   8.21977307
_cell_angle_alpha   89.51825010
_cell_angle_beta   90.00000000
_cell_angle_gamma   90.00000000
_symmetry_Int_Tables_number   1
_chemical_formula_structural   Ca4BP3Pt4
_chemical_formula_sum   'Ca4 B1 P3 Pt4'
_cell_volume   231.73089013
_cell_formula_units_Z   1
loop_
 _symmetry_equiv_pos_site_id
 _symmetry_equiv_pos_as_xyz
  1  'x, y, z'
loop_
 _atom_site_type_symbol
 _atom_site_label
 _atom_site_symmetry_multiplicity
 _atom_site_fract_x
 _atom_site_fract_y
 _atom_site_fract_z
 _atom_site_occupancy
  Ca  Ca0  1  0.000000  0.869816  0.869489  1
  Ca  Ca1  1  0.000000  0.933432  0.415319  1
  Ca  Ca2  1  0.000000  0.428232  0.586998  1
  Ca  Ca3  1  0.000000  0.365651  0.124414  1
  B  B4  1  0.500000  0.173560  0.924177  1
  P  P5  1  0.500000  0.743663  0.625126  1
  P  P6  1  0.500000  0.674970  0.070699  1
  P  P7  1  0.500000  0.247952  0.374555  1
  Pt  Pt8  1  0.500000  0.112335  0.676521  1
  Pt  Pt9  1  0.500000  0.470057  0.845936  1
  Pt  Pt10  1  0.500000  0.009897  0.141639  1
  Pt  Pt11  1  0.500000  0.622032  0.345128  1
