# generated using pymatgen
data_Cs4K2(TcH9)3
_symmetry_space_group_name_H-M   'P 1'
_cell_length_a   10.25361300
_cell_length_b   10.00799529
_cell_length_c   6.07956900
_cell_angle_alpha   90.00000000
_cell_angle_beta   90.00000000
_cell_angle_gamma   120.81522029
_symmetry_Int_Tables_number   1
_chemical_formula_structural   Cs4K2(TcH9)3
_chemical_formula_sum   'Cs4 K2 Tc3 H27'
_cell_volume   535.79776821
_cell_formula_units_Z   1
loop_
 _symmetry_equiv_pos_site_id
 _symmetry_equiv_pos_as_xyz
  1  'x, y, z'
loop_
 _atom_site_type_symbol
 _atom_site_label
 _atom_site_symmetry_multiplicity
 _atom_site_fract_x
 _atom_site_fract_y
 _atom_site_fract_z
 _atom_site_occupancy
  Cs  Cs0  1  0.255419  0.000000  0.500000  1
  Cs  Cs1  1  0.591344  0.000000  0.000000  1
  Cs  Cs2  1  0.999842  0.586126  0.000000  1
  Cs  Cs3  1  0.413716  0.413874  0.000000  1
  K  K4  1  0.995557  0.260755  0.500000  1
  K  K5  1  0.734803  0.739245  0.500000  1
  Tc  Tc6  1  0.983966  0.000000  0.000000  1
  Tc  Tc7  1  0.336768  0.655588  0.500000  1
  Tc  Tc8  1  0.681182  0.344412  0.500000  1
  H  H9  1  0.869673  0.000000  0.201322  1
  H  H10  1  0.980439  0.876159  0.193002  1
  H  H11  1  0.869673  0.000000  0.798678  1
  H  H12  1  0.980439  0.876159  0.806998  1
  H  H13  1  0.104280  0.123841  0.193002  1
  H  H14  1  0.104280  0.123841  0.806998  1
  H  H15  1  0.146678  0.000000  0.000000  1
  H  H16  1  0.982518  0.166049  0.000000  1
  H  H17  1  0.816469  0.833951  0.000000  1
  H  H18  1  0.230346  0.523274  0.304493  1
  H  H19  1  0.468252  0.685250  0.305775  1
  H  H20  1  0.230346  0.523274  0.695507  1
  H  H21  1  0.558041  0.245074  0.705253  1
  H  H22  1  0.312967  0.754926  0.294747  1
  H  H23  1  0.468252  0.685250  0.694225  1
  H  H24  1  0.707072  0.476726  0.695507  1
  H  H25  1  0.558041  0.245074  0.294747  1
  H  H26  1  0.312967  0.754926  0.705253  1
  H  H27  1  0.707072  0.476726  0.304493  1
  H  H28  1  0.783001  0.314750  0.694225  1
  H  H29  1  0.783001  0.314750  0.305775  1
  H  H30  1  0.368854  0.508590  0.500000  1
  H  H31  1  0.475492  0.842040  0.500000  1
  H  H32  1  0.534434  0.373331  0.500000  1
  H  H33  1  0.161104  0.626669  0.500000  1
  H  H34  1  0.860263  0.491410  0.500000  1
  H  H35  1  0.633452  0.157960  0.500000  1
