# generated using pymatgen
data_AcSiGe(AsRh3)2
_symmetry_space_group_name_H-M   'P 1'
_cell_length_a   7.25232902
_cell_length_b   7.25232749
_cell_length_c   3.92182800
_cell_angle_alpha   90.00000000
_cell_angle_beta   90.00000000
_cell_angle_gamma   119.54156034
_symmetry_Int_Tables_number   1
_chemical_formula_structural   AcSiGe(AsRh3)2
_chemical_formula_sum   'Ac1 Si1 Ge1 As2 Rh6'
_cell_volume   179.45759484
_cell_formula_units_Z   1
loop_
 _symmetry_equiv_pos_site_id
 _symmetry_equiv_pos_as_xyz
  1  'x, y, z'
loop_
 _atom_site_type_symbol
 _atom_site_label
 _atom_site_symmetry_multiplicity
 _atom_site_fract_x
 _atom_site_fract_y
 _atom_site_fract_z
 _atom_site_occupancy
  Ac  Ac0  1  0.999725  0.000275  0.000000  1
  Si  Si1  1  0.333571  0.666429  0.000000  1
  Ge  Ge2  1  0.800891  0.199109  0.500000  1
  As  As3  1  0.393648  0.195046  0.500000  1
  As  As4  1  0.804954  0.606352  0.500000  1
  Rh  Rh5  1  0.205010  0.794990  0.500000  1
  Rh  Rh6  1  0.204325  0.408753  0.500000  1
  Rh  Rh7  1  0.530428  0.061825  0.000000  1
  Rh  Rh8  1  0.938175  0.469572  0.000000  1
  Rh  Rh9  1  0.531358  0.468642  0.000000  1
  Rh  Rh10  1  0.591247  0.795675  0.500000  1
