# generated using pymatgen
data_La3Yb(ReC2)2
_symmetry_space_group_name_H-M   'P 1'
_cell_length_a   5.39396900
_cell_length_b   6.65478421
_cell_length_c   10.59626230
_cell_angle_alpha   89.32510841
_cell_angle_beta   90.00000000
_cell_angle_gamma   90.00000000
_symmetry_Int_Tables_number   1
_chemical_formula_structural   La3Yb(ReC2)2
_chemical_formula_sum   'La6 Yb2 Re4 C8'
_cell_volume   380.33386307
_cell_formula_units_Z   2
loop_
 _symmetry_equiv_pos_site_id
 _symmetry_equiv_pos_as_xyz
  1  'x, y, z'
loop_
 _atom_site_type_symbol
 _atom_site_label
 _atom_site_symmetry_multiplicity
 _atom_site_fract_x
 _atom_site_fract_y
 _atom_site_fract_z
 _atom_site_occupancy
  La  La0  1  0.250000  0.712750  0.547787  1
  La  La1  1  0.750000  0.287250  0.452213  1
  La  La2  1  0.750000  0.802083  0.048507  1
  La  La3  1  0.250000  0.197917  0.951493  1
  La  La4  1  0.250000  0.526291  0.222196  1
  La  La5  1  0.750000  0.473709  0.777804  1
  Yb  Yb6  1  0.750000  0.971340  0.728334  1
  Yb  Yb7  1  0.250000  0.028660  0.271666  1
  Re  Re8  1  0.250000  0.730897  0.852175  1
  Re  Re9  1  0.750000  0.269103  0.147825  1
  Re  Re10  1  0.750000  0.766650  0.353132  1
  Re  Re11  1  0.250000  0.233350  0.646868  1
  C  C12  1  0.250000  0.472573  0.754163  1
  C  C13  1  0.750000  0.527427  0.245837  1
  C  C14  1  0.750000  0.027582  0.257275  1
  C  C15  1  0.250000  0.972418  0.742725  1
  C  C16  1  0.250000  0.803537  0.026974  1
  C  C17  1  0.750000  0.196463  0.973026  1
  C  C18  1  0.750000  0.707201  0.530330  1
  C  C19  1  0.250000  0.292799  0.469670  1
