# generated using pymatgen
data_TbMn(TeBr2)4
_symmetry_space_group_name_H-M   'P 1'
_cell_length_a   7.28669832
_cell_length_b   7.85446876
_cell_length_c   9.72017664
_cell_angle_alpha   96.04823563
_cell_angle_beta   97.08363509
_cell_angle_gamma   102.41399679
_symmetry_Int_Tables_number   1
_chemical_formula_structural   TbMn(TeBr2)4
_chemical_formula_sum   'Tb1 Mn1 Te4 Br8'
_cell_volume   534.14776595
_cell_formula_units_Z   1
loop_
 _symmetry_equiv_pos_site_id
 _symmetry_equiv_pos_as_xyz
  1  'x, y, z'
loop_
 _atom_site_type_symbol
 _atom_site_label
 _atom_site_symmetry_multiplicity
 _atom_site_fract_x
 _atom_site_fract_y
 _atom_site_fract_z
 _atom_site_occupancy
  Tb  Tb0  1  0.719346  0.939043  0.418613  1
  Mn  Mn1  1  0.277121  0.066446  0.601504  1
  Te  Te2  1  0.935841  0.626474  0.843141  1
  Te  Te3  1  0.076453  0.370691  0.144409  1
  Te  Te4  1  0.768301  0.326675  0.941752  1
  Te  Te5  1  0.249075  0.666497  0.043154  1
  Br  Br6  1  0.543564  0.598254  0.287378  1
  Br  Br7  1  0.467791  0.361082  0.691369  1
  Br  Br8  1  0.765651  0.006342  0.143079  1
  Br  Br9  1  0.192721  0.025907  0.832872  1
  Br  Br10  1  0.576934  0.892443  0.667824  1
  Br  Br11  1  0.392233  0.087568  0.369907  1
  Br  Br12  1  0.042854  0.786286  0.495309  1
  Br  Br13  1  0.992113  0.246293  0.519687  1
