# generated using pymatgen
data_Ti2Co5GeB2
_symmetry_space_group_name_H-M   'P 1'
_cell_length_a   8.37647000
_cell_length_b   8.37647000
_cell_length_c   3.04272600
_cell_angle_alpha   90.00000000
_cell_angle_beta   90.00000000
_cell_angle_gamma   90.00000000
_symmetry_Int_Tables_number   1
_chemical_formula_structural   Ti2Co5GeB2
_chemical_formula_sum   'Ti4 Co10 Ge2 B4'
_cell_volume   213.49362944
_cell_formula_units_Z   2
loop_
 _symmetry_equiv_pos_site_id
 _symmetry_equiv_pos_as_xyz
  1  'x, y, z'
loop_
 _atom_site_type_symbol
 _atom_site_label
 _atom_site_symmetry_multiplicity
 _atom_site_fract_x
 _atom_site_fract_y
 _atom_site_fract_z
 _atom_site_occupancy
  Ti  Ti0  1  0.824554  0.324554  0.000000  1
  Ti  Ti1  1  0.324554  0.175446  0.000000  1
  Ti  Ti2  1  0.675446  0.824554  0.000000  1
  Ti  Ti3  1  0.175446  0.675446  0.000000  1
  Co  Co4  1  0.500000  0.000000  0.500000  1
  Co  Co5  1  0.000000  0.500000  0.500000  1
  Co  Co6  1  0.070284  0.219112  0.500000  1
  Co  Co7  1  0.219112  0.929716  0.500000  1
  Co  Co8  1  0.780888  0.070284  0.500000  1
  Co  Co9  1  0.929716  0.780888  0.500000  1
  Co  Co10  1  0.429716  0.719112  0.500000  1
  Co  Co11  1  0.570284  0.280888  0.500000  1
  Co  Co12  1  0.719112  0.570284  0.500000  1
  Co  Co13  1  0.280888  0.429716  0.500000  1
  Ge  Ge14  1  0.000000  0.000000  0.000000  1
  Ge  Ge15  1  0.500000  0.500000  0.000000  1
  B  B16  1  0.620697  0.120697  0.000000  1
  B  B17  1  0.120697  0.379303  0.000000  1
  B  B18  1  0.879303  0.620697  0.000000  1
  B  B19  1  0.379303  0.879303  0.000000  1
