# generated using pymatgen
data_AcHf(CuSn)2
_symmetry_space_group_name_H-M   'P 1'
_cell_length_a   4.52370800
_cell_length_b   4.52370796
_cell_length_c   7.73729300
_cell_angle_alpha   90.00000000
_cell_angle_beta   90.00000000
_cell_angle_gamma   120.00000030
_symmetry_Int_Tables_number   1
_chemical_formula_structural   AcHf(CuSn)2
_chemical_formula_sum   'Ac1 Hf1 Cu2 Sn2'
_cell_volume   137.12252368
_cell_formula_units_Z   1
loop_
 _symmetry_equiv_pos_site_id
 _symmetry_equiv_pos_as_xyz
  1  'x, y, z'
loop_
 _atom_site_type_symbol
 _atom_site_label
 _atom_site_symmetry_multiplicity
 _atom_site_fract_x
 _atom_site_fract_y
 _atom_site_fract_z
 _atom_site_occupancy
  Ac  Ac0  1  0.000000  0.000000  0.018798  1
  Hf  Hf1  1  0.000000  0.000000  0.518540  1
  Cu  Cu2  1  0.333333  0.666667  0.669637  1
  Cu  Cu3  1  0.666667  0.333333  0.366230  1
  Sn  Sn4  1  0.333333  0.666667  0.300245  1
  Sn  Sn5  1  0.666667  0.333333  0.737772  1
