# generated using pymatgen
data_NaPr(NbSe2)6
_symmetry_space_group_name_H-M   'P 1'
_cell_length_a   6.08420000
_cell_length_b   6.08419934
_cell_length_c   15.24896800
_cell_angle_alpha   90.00000000
_cell_angle_beta   90.00000000
_cell_angle_gamma   120.00000359
_symmetry_Int_Tables_number   1
_chemical_formula_structural   NaPr(NbSe2)6
_chemical_formula_sum   'Na1 Pr1 Nb6 Se12'
_cell_volume   488.85266318
_cell_formula_units_Z   1
loop_
 _symmetry_equiv_pos_site_id
 _symmetry_equiv_pos_as_xyz
  1  'x, y, z'
loop_
 _atom_site_type_symbol
 _atom_site_label
 _atom_site_symmetry_multiplicity
 _atom_site_fract_x
 _atom_site_fract_y
 _atom_site_fract_z
 _atom_site_occupancy
  Na  Na0  1  0.666667  0.333333  0.750000  1
  Pr  Pr1  1  0.333333  0.666667  0.250000  1
  Nb  Nb2  1  0.333333  0.666667  0.002858  1
  Nb  Nb3  1  0.000000  0.000000  0.000325  1
  Nb  Nb4  1  0.666667  0.333333  0.000155  1
  Nb  Nb5  1  0.333333  0.666667  0.497142  1
  Nb  Nb6  1  0.000000  0.000000  0.499675  1
  Nb  Nb7  1  0.666667  0.333333  0.499845  1
  Se  Se8  1  0.673689  0.666438  0.388847  1
  Se  Se9  1  0.665259  0.669546  0.607997  1
  Se  Se10  1  0.004289  0.669546  0.892003  1
  Se  Se11  1  0.665259  0.995711  0.892003  1
  Se  Se12  1  0.673689  0.007252  0.111153  1
  Se  Se13  1  0.333562  0.007252  0.388847  1
  Se  Se14  1  0.004289  0.334741  0.607997  1
  Se  Se15  1  0.330454  0.995711  0.607997  1
  Se  Se16  1  0.992748  0.666438  0.111153  1
  Se  Se17  1  0.330454  0.334741  0.892003  1
  Se  Se18  1  0.992748  0.326311  0.388847  1
  Se  Se19  1  0.333562  0.326311  0.111153  1
