# generated using pymatgen
data_YbPr14Ho5Sn16
_symmetry_space_group_name_H-M   'P 1'
_cell_length_a   8.18368540
_cell_length_b   8.42387748
_cell_length_c   15.99863538
_cell_angle_alpha   90.24507081
_cell_angle_beta   89.99121631
_cell_angle_gamma   89.99298546
_symmetry_Int_Tables_number   1
_chemical_formula_structural   YbPr14Ho5Sn16
_chemical_formula_sum   'Yb1 Pr14 Ho5 Sn16'
_cell_volume   1102.90962519
_cell_formula_units_Z   1
loop_
 _symmetry_equiv_pos_site_id
 _symmetry_equiv_pos_as_xyz
  1  'x, y, z'
loop_
 _atom_site_type_symbol
 _atom_site_label
 _atom_site_symmetry_multiplicity
 _atom_site_fract_x
 _atom_site_fract_y
 _atom_site_fract_z
 _atom_site_occupancy
  Yb  Yb0  1  0.680923  0.000026  0.250573  1
  Pr  Pr1  1  0.352543  0.833408  0.119830  1
  Pr  Pr2  1  0.849337  0.667475  0.380392  1
  Pr  Pr3  1  0.351742  0.832387  0.377518  1
  Pr  Pr4  1  0.848942  0.667087  0.122622  1
  Pr  Pr5  1  0.647960  0.167566  0.876646  1
  Pr  Pr6  1  0.149252  0.336541  0.621972  1
  Pr  Pr7  1  0.492614  0.679657  0.598645  1
  Pr  Pr8  1  0.992453  0.821845  0.901196  1
  Pr  Pr9  1  0.505356  0.315406  0.096019  1
  Pr  Pr10  1  0.003146  0.180488  0.404756  1
  Pr  Pr11  1  0.506927  0.316364  0.404793  1
  Pr  Pr12  1  0.004237  0.179871  0.094251  1
  Pr  Pr13  1  0.493751  0.680030  0.901334  1
  Pr  Pr14  1  0.993331  0.821042  0.599267  1
  Ho  Ho15  1  0.652358  0.166821  0.628879  1
  Ho  Ho16  1  0.152768  0.336078  0.872883  1
  Ho  Ho17  1  0.817611  0.500647  0.749419  1
  Ho  Ho18  1  0.318607  0.001618  0.750654  1
  Ho  Ho19  1  0.181315  0.497927  0.249085  1
  Sn  Sn20  1  0.687835  0.965787  0.467077  1
  Sn  Sn21  1  0.189012  0.531476  0.038519  1
  Sn  Sn22  1  0.302415  0.042651  0.955306  1
  Sn  Sn23  1  0.800765  0.458694  0.545136  1
  Sn  Sn24  1  0.321839  0.038728  0.544430  1
  Sn  Sn25  1  0.820140  0.463933  0.955123  1
  Sn  Sn26  1  0.693484  0.961190  0.038538  1
  Sn  Sn27  1  0.192130  0.533619  0.455159  1
  Sn  Sn28  1  0.454026  0.384677  0.750835  1
  Sn  Sn29  1  0.955724  0.118609  0.749209  1
  Sn  Sn30  1  0.546548  0.606911  0.249553  1
  Sn  Sn31  1  0.050335  0.885104  0.250699  1
  Sn  Sn32  1  0.687657  0.854708  0.749190  1
  Sn  Sn33  1  0.186534  0.646692  0.750626  1
  Sn  Sn34  1  0.302873  0.147093  0.249467  1
  Sn  Sn35  1  0.813509  0.357840  0.250399  1
