# generated using pymatgen
data_RbAgSn3
_symmetry_space_group_name_H-M   'P 1'
_cell_length_a   7.18806833
_cell_length_b   7.18806787
_cell_length_c   7.18806839
_cell_angle_alpha   139.97337042
_cell_angle_beta   139.97336109
_cell_angle_gamma   57.89373952
_symmetry_Int_Tables_number   1
_chemical_formula_structural   RbAgSn3
_chemical_formula_sum   'Rb1 Ag1 Sn3'
_cell_volume   152.26379315
_cell_formula_units_Z   1
loop_
 _symmetry_equiv_pos_site_id
 _symmetry_equiv_pos_as_xyz
  1  'x, y, z'
loop_
 _atom_site_type_symbol
 _atom_site_label
 _atom_site_symmetry_multiplicity
 _atom_site_fract_x
 _atom_site_fract_y
 _atom_site_fract_z
 _atom_site_occupancy
  Rb  Rb0  1  0.991890  0.991890  0.000000  1
  Ag  Ag1  1  0.371512  0.371512  0.000000  1
  Sn  Sn2  1  0.600544  0.600544  0.000000  1
  Sn  Sn3  1  0.746972  0.246972  0.500000  1
  Sn  Sn4  1  0.246972  0.746972  0.500000  1
