# generated using pymatgen
data_Er10(TlSb)3
_symmetry_space_group_name_H-M   'P 1'
_cell_length_a   8.89489400
_cell_length_b   8.87732750
_cell_length_c   6.49966100
_cell_angle_alpha   90.00000000
_cell_angle_beta   90.00000000
_cell_angle_gamma   120.06547252
_symmetry_Int_Tables_number   1
_chemical_formula_structural   Er10(TlSb)3
_chemical_formula_sum   'Er10 Tl3 Sb3'
_cell_volume   444.17841985
_cell_formula_units_Z   1
loop_
 _symmetry_equiv_pos_site_id
 _symmetry_equiv_pos_as_xyz
  1  'x, y, z'
loop_
 _atom_site_type_symbol
 _atom_site_label
 _atom_site_symmetry_multiplicity
 _atom_site_fract_x
 _atom_site_fract_y
 _atom_site_fract_z
 _atom_site_occupancy
  Er  Er0  1  0.002748  0.763791  0.750000  1
  Er  Er1  1  0.003470  0.238843  0.250000  1
  Er  Er2  1  0.764627  0.761157  0.250000  1
  Er  Er3  1  0.762250  0.000000  0.750000  1
  Er  Er4  1  0.238957  0.236209  0.750000  1
  Er  Er5  1  0.237394  0.000000  0.250000  1
  Er  Er6  1  0.330752  0.666226  0.499270  1
  Er  Er7  1  0.664527  0.333774  0.000730  1
  Er  Er8  1  0.664527  0.333774  0.499270  1
  Er  Er9  1  0.330752  0.666226  0.000730  1
  Tl  Tl10  1  0.396795  0.000000  0.750000  1
  Tl  Tl11  1  0.395004  0.397502  0.250000  1
  Tl  Tl12  1  0.997502  0.602498  0.250000  1
  Sb  Sb13  1  0.997248  0.391294  0.750000  1
  Sb  Sb14  1  0.605954  0.608706  0.750000  1
  Sb  Sb15  1  0.607491  0.000000  0.250000  1
