# generated using pymatgen
data_EuTh(Co5P3)2
_symmetry_space_group_name_H-M   'P 1'
_cell_length_a   5.99721528
_cell_length_b   5.99721628
_cell_length_c   11.39635600
_cell_angle_alpha   90.00000000
_cell_angle_beta   90.00000000
_cell_angle_gamma   144.91876923
_symmetry_Int_Tables_number   1
_chemical_formula_structural   EuTh(Co5P3)2
_chemical_formula_sum   'Eu1 Th1 Co10 P6'
_cell_volume   235.57796754
_cell_formula_units_Z   1
loop_
 _symmetry_equiv_pos_site_id
 _symmetry_equiv_pos_as_xyz
  1  'x, y, z'
loop_
 _atom_site_type_symbol
 _atom_site_label
 _atom_site_symmetry_multiplicity
 _atom_site_fract_x
 _atom_site_fract_y
 _atom_site_fract_z
 _atom_site_occupancy
  Eu  Eu0  1  0.660993  0.339007  0.750000  1
  Th  Th1  1  0.339462  0.660538  0.250000  1
  Co  Co2  1  0.052924  0.947076  0.142284  1
  Co  Co3  1  0.052924  0.947076  0.357716  1
  Co  Co4  1  0.699182  0.300818  0.427135  1
  Co  Co5  1  0.302086  0.697914  0.565375  1
  Co  Co6  1  0.302086  0.697914  0.934625  1
  Co  Co7  1  0.699182  0.300818  0.072865  1
  Co  Co8  1  0.500974  0.499026  0.498980  1
  Co  Co9  1  0.500974  0.499026  0.001020  1
  Co  Co10  1  0.945234  0.054766  0.642624  1
  Co  Co11  1  0.945234  0.054766  0.857376  1
  P  P12  1  0.609388  0.390612  0.250000  1
  P  P13  1  0.390300  0.609700  0.750000  1
  P  P14  1  0.116842  0.883158  0.539886  1
  P  P15  1  0.882686  0.117314  0.462122  1
  P  P16  1  0.882686  0.117314  0.037878  1
  P  P17  1  0.116842  0.883158  0.960114  1
