# generated using pymatgen
data_Dy3Er9Os3Rh
_symmetry_space_group_name_H-M   'P 1'
_cell_length_a   6.31687249
_cell_length_b   7.32333627
_cell_length_c   8.99210000
_cell_angle_alpha   90.00000000
_cell_angle_beta   90.00000000
_cell_angle_gamma   90.23200726
_symmetry_Int_Tables_number   1
_chemical_formula_structural   Dy3Er9Os3Rh
_chemical_formula_sum   'Dy3 Er9 Os3 Rh1'
_cell_volume   415.97636337
_cell_formula_units_Z   1
loop_
 _symmetry_equiv_pos_site_id
 _symmetry_equiv_pos_as_xyz
  1  'x, y, z'
loop_
 _atom_site_type_symbol
 _atom_site_label
 _atom_site_symmetry_multiplicity
 _atom_site_fract_x
 _atom_site_fract_y
 _atom_site_fract_z
 _atom_site_occupancy
  Dy  Dy0  1  0.870737  0.537891  0.250000  1
  Dy  Dy1  1  0.629033  0.039793  0.250000  1
  Dy  Dy2  1  0.128849  0.461889  0.750000  1
  Er  Er3  1  0.335281  0.673209  0.061323  1
  Er  Er4  1  0.168757  0.176465  0.438793  1
  Er  Er5  1  0.667810  0.324614  0.563575  1
  Er  Er6  1  0.827616  0.824636  0.933586  1
  Er  Er7  1  0.667810  0.324614  0.936425  1
  Er  Er8  1  0.827616  0.824636  0.566414  1
  Er  Er9  1  0.335281  0.673209  0.438677  1
  Er  Er10  1  0.168757  0.176465  0.061207  1
  Er  Er11  1  0.370101  0.961852  0.750000  1
  Os  Os12  1  0.458475  0.383054  0.250000  1
  Os  Os13  1  0.961820  0.115703  0.750000  1
  Os  Os14  1  0.539346  0.617866  0.750000  1
  Rh  Rh15  1  0.042713  0.884105  0.250000  1
