# generated using pymatgen
data_Er10Ga3TcPb2
_symmetry_space_group_name_H-M   'P 1'
_cell_length_a   8.74423961
_cell_length_b   8.74423934
_cell_length_c   8.70009500
_cell_angle_alpha   126.11149230
_cell_angle_beta   126.11149910
_cell_angle_gamma   80.05129674
_symmetry_Int_Tables_number   1
_chemical_formula_structural   Er10Ga3TcPb2
_chemical_formula_sum   'Er10 Ga3 Tc1 Pb2'
_cell_volume   418.34278060
_cell_formula_units_Z   1
loop_
 _symmetry_equiv_pos_site_id
 _symmetry_equiv_pos_as_xyz
  1  'x, y, z'
loop_
 _atom_site_type_symbol
 _atom_site_label
 _atom_site_symmetry_multiplicity
 _atom_site_fract_x
 _atom_site_fract_y
 _atom_site_fract_z
 _atom_site_occupancy
  Er  Er0  1  0.004752  0.990921  0.995673  1
  Er  Er1  1  0.490921  0.504752  0.995673  1
  Er  Er2  1  0.800258  0.300258  0.819527  1
  Er  Er3  1  0.299846  0.492818  0.510081  1
  Er  Er4  1  0.992818  0.799846  0.510081  1
  Er  Er5  1  0.710235  0.517263  0.510081  1
  Er  Er6  1  0.017263  0.210235  0.510081  1
  Er  Er7  1  0.519269  0.019269  0.819527  1
  Er  Er8  1  0.191087  0.691087  0.155131  1
  Er  Er9  1  0.464044  0.964044  0.155131  1
  Ga  Ga10  1  0.868124  0.368124  0.236248  1
  Ga  Ga11  1  0.367115  0.139370  0.506486  1
  Ga  Ga12  1  0.639370  0.867115  0.506486  1
  Tc  Tc13  1  0.125586  0.625586  0.751172  1
  Pb  Pb14  1  0.254655  0.254655  0.009311  1
  Pb  Pb15  1  0.754655  0.754655  0.009311  1
