# generated using pymatgen
data_Tb7Pr(PBr6)2
_symmetry_space_group_name_H-M   'P 1'
_cell_length_a   4.04053200
_cell_length_b   13.32464411
_cell_length_c   14.01742693
_cell_angle_alpha   89.56609173
_cell_angle_beta   90.00000000
_cell_angle_gamma   90.00000000
_symmetry_Int_Tables_number   1
_chemical_formula_structural   Tb7Pr(PBr6)2
_chemical_formula_sum   'Tb7 Pr1 P2 Br12'
_cell_volume   754.65771395
_cell_formula_units_Z   1
loop_
 _symmetry_equiv_pos_site_id
 _symmetry_equiv_pos_as_xyz
  1  'x, y, z'
loop_
 _atom_site_type_symbol
 _atom_site_label
 _atom_site_symmetry_multiplicity
 _atom_site_fract_x
 _atom_site_fract_y
 _atom_site_fract_z
 _atom_site_occupancy
  Tb  Tb0  1  0.500000  0.116347  0.342494  1
  Tb  Tb1  1  0.500000  0.881369  0.656196  1
  Tb  Tb2  1  0.500000  0.616758  0.156071  1
  Tb  Tb3  1  0.500000  0.384732  0.845139  1
  Tb  Tb4  1  0.000000  0.883810  0.422428  1
  Tb  Tb5  1  0.000000  0.614558  0.924237  1
  Tb  Tb6  1  0.000000  0.386101  0.077334  1
  Pr  Pr7  1  0.000000  0.117162  0.578703  1
  P  P8  1  0.500000  0.995475  0.497071  1
  P  P9  1  0.500000  0.500425  0.000987  1
  Br  Br10  1  0.500000  0.245541  0.162880  1
  Br  Br11  1  0.500000  0.752330  0.835734  1
  Br  Br12  1  0.500000  0.744390  0.334424  1
  Br  Br13  1  0.500000  0.265324  0.668029  1
  Br  Br14  1  0.000000  0.255923  0.405032  1
  Br  Br15  1  0.000000  0.744420  0.586484  1
  Br  Br16  1  0.000000  0.754311  0.085453  1
  Br  Br17  1  0.000000  0.246831  0.915372  1
  Br  Br18  1  0.000000  0.001225  0.243372  1
  Br  Br19  1  0.000000  0.990491  0.760801  1
  Br  Br20  1  0.000000  0.500697  0.255742  1
  Br  Br21  1  0.000000  0.501780  0.746016  1
