# generated using pymatgen
data_Th4In3Au10
_symmetry_space_group_name_H-M   'P 1'
_cell_length_a   8.85002800
_cell_length_b   8.85002809
_cell_length_c   10.30461200
_cell_angle_alpha   90.00000000
_cell_angle_beta   90.00000000
_cell_angle_gamma   71.15275039
_symmetry_Int_Tables_number   1
_chemical_formula_structural   Th4In3Au10
_chemical_formula_sum   'Th8 In6 Au20'
_cell_volume   763.81459050
_cell_formula_units_Z   2
loop_
 _symmetry_equiv_pos_site_id
 _symmetry_equiv_pos_as_xyz
  1  'x, y, z'
loop_
 _atom_site_type_symbol
 _atom_site_label
 _atom_site_symmetry_multiplicity
 _atom_site_fract_x
 _atom_site_fract_y
 _atom_site_fract_z
 _atom_site_occupancy
  Th  Th0  1  0.296349  0.296349  0.000000  1
  Th  Th1  1  0.703651  0.703651  0.000000  1
  Th  Th2  1  0.698818  0.301182  0.204037  1
  Th  Th3  1  0.198818  0.801182  0.295963  1
  Th  Th4  1  0.203651  0.203651  0.500000  1
  Th  Th5  1  0.796349  0.796349  0.500000  1
  Th  Th6  1  0.801182  0.198818  0.704037  1
  Th  Th7  1  0.301182  0.698818  0.795963  1
  In  In8  1  0.000000  0.000000  0.000000  1
  In  In9  1  0.485496  0.014504  0.250000  1
  In  In10  1  0.985495  0.514504  0.250000  1
  In  In11  1  0.500000  0.500000  0.500000  1
  In  In12  1  0.014504  0.485496  0.750000  1
  In  In13  1  0.514504  0.985495  0.750000  1
  Au  Au14  1  0.075218  0.653084  0.018535  1
  Au  Au15  1  0.346916  0.924782  0.018535  1
  Au  Au16  1  0.403638  0.596363  0.093637  1
  Au  Au17  1  0.110915  0.162572  0.210603  1
  Au  Au18  1  0.837427  0.889085  0.210603  1
  Au  Au19  1  0.337428  0.389086  0.289397  1
  Au  Au20  1  0.610914  0.662572  0.289397  1
  Au  Au21  1  0.903638  0.096363  0.406362  1
  Au  Au22  1  0.575218  0.153084  0.481465  1
  Au  Au23  1  0.846916  0.424782  0.481465  1
  Au  Au24  1  0.153084  0.575218  0.518535  1
  Au  Au25  1  0.424782  0.846916  0.518535  1
  Au  Au26  1  0.096363  0.903638  0.593637  1
  Au  Au27  1  0.389086  0.337428  0.710603  1
  Au  Au28  1  0.662572  0.610914  0.710603  1
  Au  Au29  1  0.162572  0.110915  0.789397  1
  Au  Au30  1  0.889085  0.837427  0.789397  1
  Au  Au31  1  0.596363  0.403638  0.906363  1
  Au  Au32  1  0.653084  0.075218  0.981465  1
  Au  Au33  1  0.924782  0.346916  0.981465  1
