# generated using pymatgen
data_Ho2NbB2Ir2Ru3
_symmetry_space_group_name_H-M   'P 1'
_cell_length_a   9.69558800
_cell_length_b   9.71422700
_cell_length_c   3.13148300
_cell_angle_alpha   90.00000000
_cell_angle_beta   90.00000000
_cell_angle_gamma   90.00000000
_symmetry_Int_Tables_number   1
_chemical_formula_structural   Ho2NbB2Ir2Ru3
_chemical_formula_sum   'Ho4 Nb2 B4 Ir4 Ru6'
_cell_volume   294.93917331
_cell_formula_units_Z   2
loop_
 _symmetry_equiv_pos_site_id
 _symmetry_equiv_pos_as_xyz
  1  'x, y, z'
loop_
 _atom_site_type_symbol
 _atom_site_label
 _atom_site_symmetry_multiplicity
 _atom_site_fract_x
 _atom_site_fract_y
 _atom_site_fract_z
 _atom_site_occupancy
  Ho  Ho0  1  0.825216  0.674679  0.000000  1
  Ho  Ho1  1  0.174784  0.325321  0.000000  1
  Ho  Ho2  1  0.325216  0.825321  0.000000  1
  Ho  Ho3  1  0.674784  0.174679  0.000000  1
  Nb  Nb4  1  0.500000  0.500000  0.000000  1
  Nb  Nb5  1  0.000000  0.000000  0.000000  1
  B  B6  1  0.624023  0.885480  0.000000  1
  B  B7  1  0.375977  0.114520  0.000000  1
  B  B8  1  0.124023  0.614520  0.000000  1
  B  B9  1  0.875977  0.385480  0.000000  1
  Ir  Ir10  1  0.571292  0.721012  0.500000  1
  Ir  Ir11  1  0.428708  0.278988  0.500000  1
  Ir  Ir12  1  0.071292  0.778988  0.500000  1
  Ir  Ir13  1  0.928708  0.221012  0.500000  1
  Ru  Ru14  1  0.282381  0.569786  0.500000  1
  Ru  Ru15  1  0.717619  0.430214  0.500000  1
  Ru  Ru16  1  0.217619  0.069786  0.500000  1
  Ru  Ru17  1  0.782381  0.930214  0.500000  1
  Ru  Ru18  1  0.500000  0.000000  0.500000  1
  Ru  Ru19  1  0.000000  0.500000  0.500000  1
