# generated using pymatgen
data_La2Al4Ir3Pt
_symmetry_space_group_name_H-M   'P 1'
_cell_length_a   4.34189200
_cell_length_b   4.34189200
_cell_length_c   10.21757500
_cell_angle_alpha   90.00000000
_cell_angle_beta   90.00000000
_cell_angle_gamma   90.00000000
_symmetry_Int_Tables_number   1
_chemical_formula_structural   La2Al4Ir3Pt
_chemical_formula_sum   'La2 Al4 Ir3 Pt1'
_cell_volume   192.62199098
_cell_formula_units_Z   1
loop_
 _symmetry_equiv_pos_site_id
 _symmetry_equiv_pos_as_xyz
  1  'x, y, z'
loop_
 _atom_site_type_symbol
 _atom_site_label
 _atom_site_symmetry_multiplicity
 _atom_site_fract_x
 _atom_site_fract_y
 _atom_site_fract_z
 _atom_site_occupancy
  La  La0  1  0.000000  0.500000  0.242169  1
  La  La1  1  0.500000  0.000000  0.760457  1
  Al  Al2  1  0.000000  0.000000  0.498298  1
  Al  Al3  1  0.500000  0.500000  0.498298  1
  Al  Al4  1  0.000000  0.500000  0.880616  1
  Al  Al5  1  0.500000  0.000000  0.120939  1
  Ir  Ir6  1  0.000000  0.000000  0.999034  1
  Ir  Ir7  1  0.500000  0.500000  0.999034  1
  Ir  Ir8  1  0.500000  0.000000  0.368990  1
  Pt  Pt9  1  0.000000  0.500000  0.632165  1
