# generated using pymatgen
data_Er8InCo2Ag
_symmetry_space_group_name_H-M   'P 1'
_cell_length_a   9.37518054
_cell_length_b   9.37518067
_cell_length_c   9.37142100
_cell_angle_alpha   60.01326134
_cell_angle_beta   60.01326088
_cell_angle_gamma   60.19582290
_symmetry_Int_Tables_number   1
_chemical_formula_structural   Er8InCo2Ag
_chemical_formula_sum   'Er16 In2 Co4 Ag2'
_cell_volume   583.41235617
_cell_formula_units_Z   2
loop_
 _symmetry_equiv_pos_site_id
 _symmetry_equiv_pos_as_xyz
  1  'x, y, z'
loop_
 _atom_site_type_symbol
 _atom_site_label
 _atom_site_symmetry_multiplicity
 _atom_site_fract_x
 _atom_site_fract_y
 _atom_site_fract_z
 _atom_site_occupancy
  Er  Er0  1  0.596364  0.596364  0.598824  1
  Er  Er1  1  0.596364  0.596364  0.208448  1
  Er  Er2  1  0.595822  0.209267  0.597455  1
  Er  Er3  1  0.209267  0.595822  0.597455  1
  Er  Er4  1  0.061218  0.438494  0.438629  1
  Er  Er5  1  0.438494  0.061218  0.061658  1
  Er  Er6  1  0.438494  0.061218  0.438629  1
  Er  Er7  1  0.061218  0.438494  0.061658  1
  Er  Er8  1  0.440409  0.440409  0.059591  1
  Er  Er9  1  0.061732  0.061732  0.438268  1
  Er  Er10  1  0.184301  0.811604  0.812031  1
  Er  Er11  1  0.811604  0.184301  0.192064  1
  Er  Er12  1  0.811604  0.184301  0.812031  1
  Er  Er13  1  0.184301  0.811604  0.192064  1
  Er  Er14  1  0.809246  0.809246  0.190754  1
  Er  Er15  1  0.187692  0.187692  0.812308  1
  In  In16  1  0.834329  0.509689  0.827990  1
  In  In17  1  0.509689  0.834329  0.827990  1
  Co  Co18  1  0.391475  0.391475  0.390273  1
  Co  Co19  1  0.391475  0.391475  0.826777  1
  Co  Co20  1  0.390933  0.826703  0.391182  1
  Co  Co21  1  0.826703  0.390933  0.391182  1
  Ag  Ag22  1  0.833632  0.833632  0.830385  1
  Ag  Ag23  1  0.833632  0.833632  0.502350  1
