# generated using pymatgen
data_LiCePr7Ir6
_symmetry_space_group_name_H-M   'P 1'
_cell_length_a   7.77233732
_cell_length_b   7.77233704
_cell_length_c   7.77233800
_cell_angle_alpha   68.40338620
_cell_angle_beta   68.40339494
_cell_angle_gamma   68.40337934
_symmetry_Int_Tables_number   1
_chemical_formula_structural   LiCePr7Ir6
_chemical_formula_sum   'Li1 Ce1 Pr7 Ir6'
_cell_volume   390.94572447
_cell_formula_units_Z   1
loop_
 _symmetry_equiv_pos_site_id
 _symmetry_equiv_pos_as_xyz
  1  'x, y, z'
loop_
 _atom_site_type_symbol
 _atom_site_label
 _atom_site_symmetry_multiplicity
 _atom_site_fract_x
 _atom_site_fract_y
 _atom_site_fract_z
 _atom_site_occupancy
  Li  Li0  1  0.996814  0.996814  0.996814  1
  Ce  Ce1  1  0.817192  0.817192  0.817192  1
  Pr  Pr2  1  0.183904  0.183904  0.183904  1
  Pr  Pr3  1  0.137398  0.381378  0.683594  1
  Pr  Pr4  1  0.683594  0.137398  0.381378  1
  Pr  Pr5  1  0.381378  0.683594  0.137398  1
  Pr  Pr6  1  0.863596  0.614014  0.321235  1
  Pr  Pr7  1  0.321235  0.863596  0.614014  1
  Pr  Pr8  1  0.614014  0.321235  0.863596  1
  Ir  Ir9  1  0.946734  0.170529  0.581294  1
  Ir  Ir10  1  0.581294  0.946734  0.170529  1
  Ir  Ir11  1  0.170529  0.581294  0.946734  1
  Ir  Ir12  1  0.044975  0.811559  0.445783  1
  Ir  Ir13  1  0.445783  0.044975  0.811559  1
  Ir  Ir14  1  0.811559  0.445783  0.044975  1
