# generated using pymatgen
data_Zr9CuRe3Mo
_symmetry_space_group_name_H-M   'P 1'
_cell_length_a   8.78413200
_cell_length_b   8.78413160
_cell_length_c   8.50969600
_cell_angle_alpha   90.00000000
_cell_angle_beta   90.00000000
_cell_angle_gamma   120.00000151
_symmetry_Int_Tables_number   1
_chemical_formula_structural   Zr9CuRe3Mo
_chemical_formula_sum   'Zr18 Cu2 Re6 Mo2'
_cell_volume   568.64648326
_cell_formula_units_Z   2
loop_
 _symmetry_equiv_pos_site_id
 _symmetry_equiv_pos_as_xyz
  1  'x, y, z'
loop_
 _atom_site_type_symbol
 _atom_site_label
 _atom_site_symmetry_multiplicity
 _atom_site_fract_x
 _atom_site_fract_y
 _atom_site_fract_z
 _atom_site_occupancy
  Zr  Zr0  1  0.195842  0.804158  0.445401  1
  Zr  Zr1  1  0.195842  0.391683  0.445401  1
  Zr  Zr2  1  0.608317  0.804158  0.445401  1
  Zr  Zr3  1  0.804158  0.195842  0.554599  1
  Zr  Zr4  1  0.804158  0.608317  0.554599  1
  Zr  Zr5  1  0.391683  0.195842  0.554599  1
  Zr  Zr6  1  0.804158  0.195842  0.945401  1
  Zr  Zr7  1  0.804158  0.608317  0.945401  1
  Zr  Zr8  1  0.391683  0.195842  0.945401  1
  Zr  Zr9  1  0.195842  0.804158  0.054599  1
  Zr  Zr10  1  0.195842  0.391683  0.054599  1
  Zr  Zr11  1  0.608317  0.804158  0.054599  1
  Zr  Zr12  1  0.541597  0.458403  0.250000  1
  Zr  Zr13  1  0.541597  0.083195  0.250000  1
  Zr  Zr14  1  0.916805  0.458403  0.250000  1
  Zr  Zr15  1  0.458403  0.541597  0.750000  1
  Zr  Zr16  1  0.458403  0.916805  0.750000  1
  Zr  Zr17  1  0.083195  0.541597  0.750000  1
  Cu  Cu18  1  0.333333  0.666667  0.250000  1
  Cu  Cu19  1  0.666667  0.333333  0.750000  1
  Re  Re20  1  0.890721  0.109279  0.250000  1
  Re  Re21  1  0.890721  0.781441  0.250000  1
  Re  Re22  1  0.218559  0.109279  0.250000  1
  Re  Re23  1  0.109279  0.890721  0.750000  1
  Re  Re24  1  0.109279  0.218559  0.750000  1
  Re  Re25  1  0.781441  0.890721  0.750000  1
  Mo  Mo26  1  0.000000  0.000000  0.500000  1
  Mo  Mo27  1  0.000000  0.000000  0.000000  1
