# generated using pymatgen
data_TbEr2Mg3Pb2Au
_symmetry_space_group_name_H-M   'P 1'
_cell_length_a   7.56400800
_cell_length_b   7.57165102
_cell_length_c   4.49909000
_cell_angle_alpha   90.00000000
_cell_angle_beta   90.00000000
_cell_angle_gamma   119.96661407
_symmetry_Int_Tables_number   1
_chemical_formula_structural   TbEr2Mg3Pb2Au
_chemical_formula_sum   'Tb1 Er2 Mg3 Pb2 Au1'
_cell_volume   223.22554283
_cell_formula_units_Z   1
loop_
 _symmetry_equiv_pos_site_id
 _symmetry_equiv_pos_as_xyz
  1  'x, y, z'
loop_
 _atom_site_type_symbol
 _atom_site_label
 _atom_site_symmetry_multiplicity
 _atom_site_fract_x
 _atom_site_fract_y
 _atom_site_fract_z
 _atom_site_occupancy
  Tb  Tb0  1  0.596071  0.000000  0.000000  1
  Er  Er1  1  0.999782  0.596904  0.000000  1
  Er  Er2  1  0.402878  0.403096  0.000000  1
  Mg  Mg3  1  0.233254  0.000000  0.500000  1
  Mg  Mg4  1  0.000275  0.233520  0.500000  1
  Mg  Mg5  1  0.766755  0.766480  0.500000  1
  Pb  Pb6  1  0.332564  0.665389  0.500000  1
  Pb  Pb7  1  0.667177  0.334611  0.500000  1
  Au  Au8  1  0.001245  0.000000  0.000000  1
