# generated using pymatgen
data_Ca7Yb3SnSb5
_symmetry_space_group_name_H-M   'P 1'
_cell_length_a   9.13077707
_cell_length_b   9.14024043
_cell_length_c   6.92472119
_cell_angle_alpha   89.97372229
_cell_angle_beta   90.00945498
_cell_angle_gamma   119.97601823
_symmetry_Int_Tables_number   1
_chemical_formula_structural   Ca7Yb3SnSb5
_chemical_formula_sum   'Ca7 Yb3 Sn1 Sb5'
_cell_volume   500.61416661
_cell_formula_units_Z   1
loop_
 _symmetry_equiv_pos_site_id
 _symmetry_equiv_pos_as_xyz
  1  'x, y, z'
loop_
 _atom_site_type_symbol
 _atom_site_label
 _atom_site_symmetry_multiplicity
 _atom_site_fract_x
 _atom_site_fract_y
 _atom_site_fract_z
 _atom_site_occupancy
  Ca  Ca0  1  0.003482  0.736744  0.750145  1
  Ca  Ca1  1  0.000283  0.262428  0.249877  1
  Ca  Ca2  1  0.737898  0.737514  0.249864  1
  Ca  Ca3  1  0.733540  0.000055  0.750115  1
  Ca  Ca4  1  0.266792  0.263225  0.750121  1
  Ca  Ca5  1  0.260344  0.000056  0.249850  1
  Ca  Ca6  1  0.333086  0.668757  0.501399  1
  Yb  Yb7  1  0.664028  0.331018  0.998408  1
  Yb  Yb8  1  0.664052  0.330998  0.501578  1
  Yb  Yb9  1  0.333010  0.668981  0.998362  1
  Sn  Sn10  1  0.384123  0.000488  0.750414  1
  Sb  Sb11  1  0.384988  0.387074  0.249834  1
  Sb  Sb12  1  0.997418  0.612645  0.249813  1
  Sb  Sb13  1  0.000705  0.380727  0.750204  1
  Sb  Sb14  1  0.620230  0.619039  0.750177  1
  Sb  Sb15  1  0.616021  0.000249  0.249840  1
