# generated using pymatgen
data_EuReSeO8
_symmetry_space_group_name_H-M   'P 1'
_cell_length_a   6.08595600
_cell_length_b   6.08595582
_cell_length_c   6.39464600
_cell_angle_alpha   90.00000000
_cell_angle_beta   90.00000000
_cell_angle_gamma   119.99999716
_symmetry_Int_Tables_number   1
_chemical_formula_structural   EuReSeO8
_chemical_formula_sum   'Eu1 Re1 Se1 O8'
_cell_volume   205.11846383
_cell_formula_units_Z   1
loop_
 _symmetry_equiv_pos_site_id
 _symmetry_equiv_pos_as_xyz
  1  'x, y, z'
loop_
 _atom_site_type_symbol
 _atom_site_label
 _atom_site_symmetry_multiplicity
 _atom_site_fract_x
 _atom_site_fract_y
 _atom_site_fract_z
 _atom_site_occupancy
  Eu  Eu0  1  0.000000  0.000000  0.973966  1
  Re  Re1  1  0.333333  0.666667  0.296972  1
  Se  Se2  1  0.666667  0.333333  0.705148  1
  O  O3  1  0.371436  0.215176  0.798214  1
  O  O4  1  0.192364  0.839554  0.204743  1
  O  O5  1  0.160446  0.352809  0.204743  1
  O  O6  1  0.666667  0.333333  0.448523  1
  O  O7  1  0.333333  0.666667  0.566519  1
  O  O8  1  0.843741  0.628564  0.798214  1
  O  O9  1  0.784824  0.156259  0.798214  1
  O  O10  1  0.647191  0.807636  0.204743  1
