# generated using pymatgen
data_Y8Cu3Si12Os
_symmetry_space_group_name_H-M   'P 1'
_cell_length_a   8.05494500
_cell_length_b   8.05494425
_cell_length_c   8.12903500
_cell_angle_alpha   90.00000000
_cell_angle_beta   90.00000000
_cell_angle_gamma   119.99999075
_symmetry_Int_Tables_number   1
_chemical_formula_structural   Y8Cu3Si12Os
_chemical_formula_sum   'Y8 Cu3 Si12 Os1'
_cell_volume   456.76706747
_cell_formula_units_Z   1
loop_
 _symmetry_equiv_pos_site_id
 _symmetry_equiv_pos_as_xyz
  1  'x, y, z'
loop_
 _atom_site_type_symbol
 _atom_site_label
 _atom_site_symmetry_multiplicity
 _atom_site_fract_x
 _atom_site_fract_y
 _atom_site_fract_z
 _atom_site_occupancy
  Y  Y0  1  0.498343  0.996686  0.253802  1
  Y  Y1  1  0.497719  0.995438  0.746186  1
  Y  Y2  1  0.003314  0.501657  0.253802  1
  Y  Y3  1  0.004562  0.502281  0.746186  1
  Y  Y4  1  0.498343  0.501657  0.253802  1
  Y  Y5  1  0.497719  0.502281  0.746186  1
  Y  Y6  1  0.000000  0.000000  0.248316  1
  Y  Y7  1  0.000000  0.000000  0.751608  1
  Cu  Cu8  1  0.333333  0.666667  0.001388  1
  Cu  Cu9  1  0.666667  0.333333  0.998949  1
  Cu  Cu10  1  0.666667  0.333333  0.500732  1
  Si  Si11  1  0.168728  0.337456  0.999798  1
  Si  Si12  1  0.831338  0.662676  0.000197  1
  Si  Si13  1  0.662544  0.831272  0.999798  1
  Si  Si14  1  0.832207  0.664413  0.500254  1
  Si  Si15  1  0.337324  0.168662  0.000197  1
  Si  Si16  1  0.166914  0.333826  0.499654  1
  Si  Si17  1  0.168728  0.831272  0.999798  1
  Si  Si18  1  0.335587  0.167793  0.500254  1
  Si  Si19  1  0.831338  0.168662  0.000197  1
  Si  Si20  1  0.666174  0.833086  0.499654  1
  Si  Si21  1  0.832207  0.167793  0.500254  1
  Si  Si22  1  0.166914  0.833086  0.499654  1
  Os  Os23  1  0.333333  0.666667  0.499337  1
