# generated using pymatgen
data_LiPr4Zr(P2Ru3)6
_symmetry_space_group_name_H-M   'P 1'
_cell_length_a   12.50305400
_cell_length_b   12.71115038
_cell_length_c   4.01182100
_cell_angle_alpha   90.00000000
_cell_angle_beta   90.00000000
_cell_angle_gamma   119.45656973
_symmetry_Int_Tables_number   1
_chemical_formula_structural   LiPr4Zr(P2Ru3)6
_chemical_formula_sum   'Li1 Pr4 Zr1 P12 Ru18'
_cell_volume   555.16921033
_cell_formula_units_Z   1
loop_
 _symmetry_equiv_pos_site_id
 _symmetry_equiv_pos_as_xyz
  1  'x, y, z'
loop_
 _atom_site_type_symbol
 _atom_site_label
 _atom_site_symmetry_multiplicity
 _atom_site_fract_x
 _atom_site_fract_y
 _atom_site_fract_z
 _atom_site_occupancy
  Li  Li0  1  0.438851  0.001165  0.000000  1
  Pr  Pr1  1  0.817474  0.000838  0.500000  1
  Pr  Pr2  1  0.001061  0.815815  0.500000  1
  Pr  Pr3  1  0.186647  0.182527  0.500000  1
  Pr  Pr4  1  0.671059  0.341655  0.000000  1
  Zr  Zr5  1  0.329383  0.656693  0.000000  1
  P  P6  1  0.195663  0.995970  0.000000  1
  P  P7  1  0.002102  0.186915  0.000000  1
  P  P8  1  0.810172  0.815517  0.000000  1
  P  P9  1  0.514819  0.697070  0.500000  1
  P  P10  1  0.297061  0.811669  0.500000  1
  P  P11  1  0.173428  0.475742  0.500000  1
  P  P12  1  0.478921  0.178887  0.500000  1
  P  P13  1  0.693406  0.528934  0.500000  1
  P  P14  1  0.830466  0.308761  0.500000  1
  P  P15  1  0.630936  0.003177  0.000000  1
  P  P16  1  0.998279  0.622936  0.000000  1
  P  P17  1  0.376763  0.374055  0.000000  1
  Ru  Ru18  1  0.999917  0.444497  0.000000  1
  Ru  Ru19  1  0.553085  0.556143  0.000000  1
  Ru  Ru20  1  0.292513  0.995588  0.500000  1
  Ru  Ru21  1  0.001460  0.285496  0.500000  1
  Ru  Ru22  1  0.709831  0.717669  0.500000  1
  Ru  Ru23  1  0.610606  0.803380  0.000000  1
  Ru  Ru24  1  0.197625  0.807472  0.000000  1
  Ru  Ru25  1  0.187670  0.379857  0.000000  1
  Ru  Ru26  1  0.382127  0.183800  0.000000  1
  Ru  Ru27  1  0.806858  0.627120  0.000000  1
  Ru  Ru28  1  0.816500  0.197221  0.000000  1
  Ru  Ru29  1  0.500935  0.874523  0.500000  1
  Ru  Ru30  1  0.125621  0.625756  0.500000  1
  Ru  Ru31  1  0.368294  0.500459  0.500000  1
  Ru  Ru32  1  0.487862  0.369508  0.500000  1
  Ru  Ru33  1  0.875486  0.511885  0.500000  1
  Ru  Ru34  1  0.632636  0.121826  0.500000  1
  Ru  Ru35  1  0.004483  0.999474  0.000000  1
