# generated using pymatgen
data_ReRu(SeBr2)4
_symmetry_space_group_name_H-M   'P 1'
_cell_length_a   10.99307986
_cell_length_b   10.99307924
_cell_length_c   10.87046560
_cell_angle_alpha   115.47820154
_cell_angle_beta   114.07475562
_cell_angle_gamma   99.86061131
_symmetry_Int_Tables_number   1
_chemical_formula_structural   ReRu(SeBr2)4
_chemical_formula_sum   'Re2 Ru2 Se8 Br16'
_cell_volume   982.29053973
_cell_formula_units_Z   2
loop_
 _symmetry_equiv_pos_site_id
 _symmetry_equiv_pos_as_xyz
  1  'x, y, z'
loop_
 _atom_site_type_symbol
 _atom_site_label
 _atom_site_symmetry_multiplicity
 _atom_site_fract_x
 _atom_site_fract_y
 _atom_site_fract_z
 _atom_site_occupancy
  Re  Re0  1  0.848892  0.429968  0.643551  1
  Re  Re1  1  0.786415  0.205341  0.356449  1
  Ru  Ru2  1  0.547354  0.224012  0.404807  1
  Ru  Ru3  1  0.819205  0.142548  0.595193  1
  Se  Se4  1  0.359356  0.323689  0.416859  1
  Se  Se5  1  0.906830  0.942497  0.583141  1
  Se  Se6  1  0.053620  0.634305  0.956516  1
  Se  Se7  1  0.677789  0.097104  0.043484  1
  Se  Se8  1  0.693730  0.291723  0.685308  1
  Se  Se9  1  0.606415  0.008423  0.314692  1
  Se  Se10  1  0.012885  0.307179  0.616295  1
  Se  Se11  1  0.690885  0.396591  0.383705  1
  Br  Br12  1  0.408296  0.447697  0.689557  1
  Br  Br13  1  0.758141  0.718740  0.310443  1
  Br  Br14  1  0.276842  0.596690  0.036703  1
  Br  Br15  1  0.559987  0.240139  0.963297  1
  Br  Br16  1  0.342706  0.057554  0.401492  1
  Br  Br17  1  0.656062  0.941216  0.598508  1
  Br  Br18  1  0.053733  0.649424  0.702172  1
  Br  Br19  1  0.947251  0.351562  0.297828  1
  Br  Br20  1  0.334847  0.125152  0.118256  1
  Br  Br21  1  0.006896  0.216592  0.881744  1
  Br  Br22  1  0.786722  0.648641  0.782273  1
  Br  Br23  1  0.866367  0.004449  0.217727  1
  Br  Br24  1  0.401178  0.537369  0.400224  1
  Br  Br25  1  0.137146  0.000953  0.599776  1
  Br  Br26  1  0.993179  0.598087  0.130820  1
  Br  Br27  1  0.467267  0.862357  0.869180  1
