# generated using pymatgen
data_La6TbPr3C4I15
_symmetry_space_group_name_H-M   'P 1'
_cell_length_a   9.86883966
_cell_length_b   10.77963471
_cell_length_c   11.88094151
_cell_angle_alpha   93.68738243
_cell_angle_beta   114.28832975
_cell_angle_gamma   109.48976761
_symmetry_Int_Tables_number   1
_chemical_formula_structural   La6TbPr3C4I15
_chemical_formula_sum   'La6 Tb1 Pr3 C4 I15'
_cell_volume   1055.74064406
_cell_formula_units_Z   1
loop_
 _symmetry_equiv_pos_site_id
 _symmetry_equiv_pos_as_xyz
  1  'x, y, z'
loop_
 _atom_site_type_symbol
 _atom_site_label
 _atom_site_symmetry_multiplicity
 _atom_site_fract_x
 _atom_site_fract_y
 _atom_site_fract_z
 _atom_site_occupancy
  La  La0  1  0.220121  0.113179  0.741738  1
  La  La1  1  0.401934  0.459284  0.655358  1
  La  La2  1  0.472157  0.814828  0.897740  1
  La  La3  1  0.706919  0.568491  0.046301  1
  La  La4  1  0.294376  0.432938  0.957040  1
  La  La5  1  0.657619  0.253915  0.833294  1
  Tb  Tb6  1  0.594341  0.544675  0.335051  1
  Pr  Pr7  1  0.346071  0.746617  0.165820  1
  Pr  Pr8  1  0.776591  0.882978  0.258606  1
  Pr  Pr9  1  0.528646  0.187344  0.102619  1
  C  C10  1  0.482161  0.300692  0.936723  1
  C  C11  1  0.518565  0.698977  0.062932  1
  C  C12  1  0.452362  0.361477  0.832812  1
  C  C13  1  0.546936  0.636469  0.165828  1
  I  I14  1  0.207031  0.907198  0.940470  1
  I  I15  1  0.101535  0.185666  0.465593  1
  I  I16  1  0.148709  0.554734  0.702990  1
  I  I17  1  0.403951  0.966289  0.644209  1
  I  I18  1  0.717017  0.735164  0.822101  1
  I  I19  1  0.296798  0.273367  0.186933  1
  I  I20  1  0.840728  0.447051  0.302346  1
  I  I21  1  0.885209  0.800940  0.527778  1
  I  I22  1  0.367831  0.627925  0.411477  1
  I  I23  1  0.055584  0.834230  0.222530  1
  I  I24  1  0.795097  0.095954  0.065693  1
  I  I25  1  0.642341  0.373794  0.582525  1
  I  I26  1  0.941981  0.164697  0.778833  1
  I  I27  1  0.594645  0.029656  0.352517  1
  I  I28  1  0.002744  0.501468  0.002143  1
