# generated using pymatgen
data_SmTh5Cd23Sb
_symmetry_space_group_name_H-M   'P 1'
_cell_length_a   10.09325476
_cell_length_b   10.11382120
_cell_length_c   10.11383025
_cell_angle_alpha   60.14045447
_cell_angle_beta   60.27913022
_cell_angle_gamma   60.27918049
_symmetry_Int_Tables_number   1
_chemical_formula_structural   SmTh5Cd23Sb
_chemical_formula_sum   'Sm1 Th5 Cd23 Sb1'
_cell_volume   733.88760164
_cell_formula_units_Z   1
loop_
 _symmetry_equiv_pos_site_id
 _symmetry_equiv_pos_as_xyz
  1  'x, y, z'
loop_
 _atom_site_type_symbol
 _atom_site_label
 _atom_site_symmetry_multiplicity
 _atom_site_fract_x
 _atom_site_fract_y
 _atom_site_fract_z
 _atom_site_occupancy
  Sm  Sm0  1  0.220496  0.781237  0.781236  1
  Th  Th1  1  0.780452  0.783658  0.220323  1
  Th  Th2  1  0.215987  0.782714  0.218842  1
  Th  Th3  1  0.784413  0.214429  0.214429  1
  Th  Th4  1  0.215986  0.218842  0.782713  1
  Th  Th5  1  0.780452  0.220322  0.783659  1
  Cd  Cd6  1  0.838351  0.837833  0.484762  1
  Cd  Cd7  1  0.838350  0.484762  0.837833  1
  Cd  Cd8  1  0.481281  0.838686  0.838687  1
  Cd  Cd9  1  0.841469  0.839168  0.839169  1
  Cd  Cd10  1  0.161802  0.160665  0.517028  1
  Cd  Cd11  1  0.161803  0.517028  0.160665  1
  Cd  Cd12  1  0.512310  0.162689  0.162691  1
  Cd  Cd13  1  0.162543  0.162322  0.162320  1
  Cd  Cd14  1  0.625880  0.625772  0.128016  1
  Cd  Cd15  1  0.625878  0.128016  0.625773  1
  Cd  Cd16  1  0.130250  0.626162  0.626162  1
  Cd  Cd17  1  0.620916  0.625419  0.625421  1
  Cd  Cd18  1  0.373159  0.377669  0.870014  1
  Cd  Cd19  1  0.373159  0.870015  0.377667  1
  Cd  Cd20  1  0.872252  0.373785  0.373785  1
  Cd  Cd21  1  0.375933  0.375361  0.375360  1
  Cd  Cd22  1  0.000930  0.998759  0.500472  1
  Cd  Cd23  1  0.499881  0.999734  0.500605  1
  Cd  Cd24  1  0.999523  0.500033  0.500033  1
  Cd  Cd25  1  0.499882  0.500604  0.999734  1
  Cd  Cd26  1  0.000931  0.500472  0.998759  1
  Cd  Cd27  1  0.500644  0.999316  0.999316  1
  Cd  Cd28  1  0.501468  0.498646  0.498646  1
  Sb  Sb29  1  0.003618  0.995883  0.995880  1
