# generated using pymatgen
data_Y2Si2Tc2C
_symmetry_space_group_name_H-M   'P 1'
_cell_length_a   5.85522014
_cell_length_b   5.85521985
_cell_length_c   6.96007217
_cell_angle_alpha   54.56555337
_cell_angle_beta   54.56555766
_cell_angle_gamma   40.10582081
_symmetry_Int_Tables_number   1
_chemical_formula_structural   Y2Si2Tc2C
_chemical_formula_sum   'Y2 Si2 Tc2 C1'
_cell_volume   120.94701720
_cell_formula_units_Z   1
loop_
 _symmetry_equiv_pos_site_id
 _symmetry_equiv_pos_as_xyz
  1  'x, y, z'
loop_
 _atom_site_type_symbol
 _atom_site_label
 _atom_site_symmetry_multiplicity
 _atom_site_fract_x
 _atom_site_fract_y
 _atom_site_fract_z
 _atom_site_occupancy
  Y  Y0  1  0.430387  0.430387  0.299061  1
  Y  Y1  1  0.569613  0.569613  0.700939  1
  Si  Si2  1  0.854798  0.854798  0.690082  1
  Si  Si3  1  0.145202  0.145202  0.309918  1
  Tc  Tc4  1  0.793914  0.793914  0.095721  1
  Tc  Tc5  1  0.206086  0.206086  0.904279  1
  C  C6  1  0.000000  0.000000  0.000000  1
