# generated using pymatgen
data_CaAc(FeN2)2
_symmetry_space_group_name_H-M   'P 1'
_cell_length_a   5.98410713
_cell_length_b   7.74560700
_cell_length_c   5.47630970
_cell_angle_alpha   90.00000000
_cell_angle_beta   115.80719771
_cell_angle_gamma   90.00000000
_symmetry_Int_Tables_number   1
_chemical_formula_structural   CaAc(FeN2)2
_chemical_formula_sum   'Ca2 Ac2 Fe4 N8'
_cell_volume   228.51396475
_cell_formula_units_Z   2
loop_
 _symmetry_equiv_pos_site_id
 _symmetry_equiv_pos_as_xyz
  1  'x, y, z'
loop_
 _atom_site_type_symbol
 _atom_site_label
 _atom_site_symmetry_multiplicity
 _atom_site_fract_x
 _atom_site_fract_y
 _atom_site_fract_z
 _atom_site_occupancy
  Ca  Ca0  1  0.695787  0.083858  0.332893  1
  Ca  Ca1  1  0.304213  0.583858  0.167107  1
  Ac  Ac2  1  0.338353  0.904891  0.672236  1
  Ac  Ac3  1  0.661647  0.404891  0.827764  1
  Fe  Fe4  1  0.074743  0.364454  0.601426  1
  Fe  Fe5  1  0.925257  0.864454  0.898574  1
  Fe  Fe6  1  0.899934  0.633977  0.390936  1
  Fe  Fe7  1  0.100066  0.133977  0.109064  1
  N  N8  1  0.270343  0.928840  0.117176  1
  N  N9  1  0.729657  0.428840  0.382824  1
  N  N10  1  0.754993  0.071695  0.903103  1
  N  N11  1  0.245007  0.571695  0.596897  1
  N  N12  1  0.128315  0.318371  0.936093  1
  N  N13  1  0.871685  0.818371  0.563907  1
  N  N14  1  0.862463  0.693913  0.068175  1
  N  N15  1  0.137537  0.193913  0.431825  1
