# generated using pymatgen
data_Nd2Mn3RuC4
_symmetry_space_group_name_H-M   'P 1'
_cell_length_a   6.37599073
_cell_length_b   5.61627854
_cell_length_c   5.28274108
_cell_angle_alpha   71.53233861
_cell_angle_beta   56.66653091
_cell_angle_gamma   52.75221656
_symmetry_Int_Tables_number   1
_chemical_formula_structural   Nd2Mn3RuC4
_chemical_formula_sum   'Nd2 Mn3 Ru1 C4'
_cell_volume   125.77634510
_cell_formula_units_Z   1
loop_
 _symmetry_equiv_pos_site_id
 _symmetry_equiv_pos_as_xyz
  1  'x, y, z'
loop_
 _atom_site_type_symbol
 _atom_site_label
 _atom_site_symmetry_multiplicity
 _atom_site_fract_x
 _atom_site_fract_y
 _atom_site_fract_z
 _atom_site_occupancy
  Nd  Nd0  1  0.003458  0.003458  0.996542  1
  Nd  Nd1  1  0.252545  0.252545  0.247455  1
  Mn  Mn2  1  0.616072  0.616072  0.883928  1
  Mn  Mn3  1  0.634148  0.634148  0.365852  1
  Mn  Mn4  1  0.363490  0.363490  0.636510  1
  Ru  Ru5  1  0.886782  0.886782  0.613218  1
  C  C6  1  0.668993  0.337343  0.682634  1
  C  C7  1  0.337343  0.668993  0.311030  1
  C  C8  1  0.939620  0.547551  0.939877  1
  C  C9  1  0.547551  0.939620  0.572952  1
