# generated using pymatgen
data_Tm8CrOs3C8
_symmetry_space_group_name_H-M   'P 1'
_cell_length_a   5.01568600
_cell_length_b   6.42335426
_cell_length_c   9.64831697
_cell_angle_alpha   90.10321518
_cell_angle_beta   90.00000000
_cell_angle_gamma   90.00000000
_symmetry_Int_Tables_number   1
_chemical_formula_structural   Tm8CrOs3C8
_chemical_formula_sum   'Tm8 Cr1 Os3 C8'
_cell_volume   310.84441800
_cell_formula_units_Z   1
loop_
 _symmetry_equiv_pos_site_id
 _symmetry_equiv_pos_as_xyz
  1  'x, y, z'
loop_
 _atom_site_type_symbol
 _atom_site_label
 _atom_site_symmetry_multiplicity
 _atom_site_fract_x
 _atom_site_fract_y
 _atom_site_fract_z
 _atom_site_occupancy
  Tm  Tm0  1  0.250000  0.681134  0.558537  1
  Tm  Tm1  1  0.750000  0.323113  0.445443  1
  Tm  Tm2  1  0.750000  0.819467  0.053425  1
  Tm  Tm3  1  0.250000  0.175488  0.943459  1
  Tm  Tm4  1  0.250000  0.530301  0.213221  1
  Tm  Tm5  1  0.750000  0.470819  0.781911  1
  Tm  Tm6  1  0.750000  0.973389  0.716110  1
  Tm  Tm7  1  0.250000  0.030336  0.285965  1
  Cr  Cr8  1  0.250000  0.724197  0.864968  1
  Os  Os9  1  0.750000  0.278881  0.132776  1
  Os  Os10  1  0.750000  0.779996  0.366681  1
  Os  Os11  1  0.250000  0.223995  0.635588  1
  C  C12  1  0.250000  0.462492  0.765032  1
  C  C13  1  0.750000  0.544642  0.241168  1
  C  C14  1  0.750000  0.043694  0.258145  1
  C  C15  1  0.250000  0.951362  0.743671  1
  C  C16  1  0.250000  0.816344  0.046076  1
  C  C17  1  0.750000  0.172457  0.945774  1
  C  C18  1  0.750000  0.673647  0.555360  1
  C  C19  1  0.250000  0.324248  0.446692  1
