# generated using pymatgen
data_Sr12SbMo3O22
_symmetry_space_group_name_H-M   'P 1'
_cell_length_a   6.04187828
_cell_length_b   6.02425276
_cell_length_c   23.95827200
_cell_angle_alpha   58.52025922
_cell_angle_beta   59.04667969
_cell_angle_gamma   59.99685435
_symmetry_Int_Tables_number   1
_chemical_formula_structural   Sr12SbMo3O22
_chemical_formula_sum   'Sr12 Sb1 Mo3 O22'
_cell_volume   604.99523923
_cell_formula_units_Z   1
loop_
 _symmetry_equiv_pos_site_id
 _symmetry_equiv_pos_as_xyz
  1  'x, y, z'
loop_
 _atom_site_type_symbol
 _atom_site_label
 _atom_site_symmetry_multiplicity
 _atom_site_fract_x
 _atom_site_fract_y
 _atom_site_fract_z
 _atom_site_occupancy
  Sr  Sr0  1  0.107642  0.332206  0.078957  1
  Sr  Sr1  1  0.434421  0.615623  0.108925  1
  Sr  Sr2  1  0.180225  0.358488  0.289736  1
  Sr  Sr3  1  0.368305  0.549944  0.387585  1
  Sr  Sr4  1  0.624905  0.805410  0.206074  1
  Sr  Sr5  1  0.228363  0.251173  0.576189  1
  Sr  Sr6  1  0.505153  0.520569  0.608633  1
  Sr  Sr7  1  0.229767  0.290786  0.791482  1
  Sr  Sr8  1  0.649969  0.868594  0.418063  1
  Sr  Sr9  1  0.451519  0.475933  0.888677  1
  Sr  Sr10  1  0.685642  0.742251  0.706440  1
  Sr  Sr11  1  0.717850  0.755948  0.920388  1
  Sb  Sb12  1  0.965986  0.013088  0.748363  1
  Mo  Mo13  1  0.997695  0.045544  0.998820  1
  Mo  Mo14  1  0.903829  0.082551  0.248586  1
  Mo  Mo15  1  0.938365  0.969042  0.497855  1
  O  O16  1  0.083196  0.381801  0.186071  1
  O  O17  1  0.207642  0.847955  0.191675  1
  O  O18  1  0.796546  0.376442  0.028868  1
  O  O19  1  0.796079  0.827091  0.080516  1
  O  O20  1  0.679293  0.235794  0.188812  1
  O  O21  1  0.607665  0.329026  0.301635  1
  O  O22  1  0.151905  0.174542  0.416086  1
  O  O23  1  0.120853  0.925977  0.310814  1
  O  O24  1  0.735899  0.773270  0.311865  1
  O  O25  1  0.606305  0.174807  0.467438  1
  O  O26  1  0.726421  0.049802  0.579204  1
  O  O27  1  0.142739  0.793541  0.685222  1
  O  O28  1  0.273040  0.715666  0.527301  1
  O  O29  1  0.327680  0.044549  0.999221  1
  O  O30  1  0.937573  0.638541  0.497980  1
  O  O31  1  0.756644  0.329117  0.684342  1
  O  O32  1  0.263756  0.187605  0.692931  1
  O  O33  1  0.787153  0.224209  0.812320  1
  O  O34  1  0.249871  0.712871  0.969113  1
  O  O35  1  0.188807  0.701685  0.810430  1
  O  O36  1  0.657170  0.847947  0.805723  1
  O  O37  1  0.909637  0.262108  0.917884  1
