# generated using pymatgen
data_Pr7Y10Mg3Pb16
_symmetry_space_group_name_H-M   'P 1'
_cell_length_a   8.32239631
_cell_length_b   8.36973806
_cell_length_c   15.87704200
_cell_angle_alpha   90.04801496
_cell_angle_beta   90.30421500
_cell_angle_gamma   89.93633526
_symmetry_Int_Tables_number   1
_chemical_formula_structural   Pr7Y10Mg3Pb16
_chemical_formula_sum   'Pr7 Y10 Mg3 Pb16'
_cell_volume   1105.91898388
_cell_formula_units_Z   1
loop_
 _symmetry_equiv_pos_site_id
 _symmetry_equiv_pos_as_xyz
  1  'x, y, z'
loop_
 _atom_site_type_symbol
 _atom_site_label
 _atom_site_symmetry_multiplicity
 _atom_site_fract_x
 _atom_site_fract_y
 _atom_site_fract_z
 _atom_site_occupancy
  Pr  Pr0  1  0.003397  0.173813  0.594565  1
  Pr  Pr1  1  0.490309  0.679228  0.404066  1
  Pr  Pr2  1  0.994138  0.816000  0.093023  1
  Pr  Pr3  1  0.488918  0.676785  0.095607  1
  Pr  Pr4  1  0.995281  0.820231  0.405758  1
  Pr  Pr5  1  0.510619  0.319063  0.594938  1
  Pr  Pr6  1  0.002903  0.176313  0.906583  1
  Y  Y7  1  0.355083  0.837833  0.874522  1
  Y  Y8  1  0.844468  0.666214  0.624305  1
  Y  Y9  1  0.649390  0.167047  0.372730  1
  Y  Y10  1  0.144605  0.342041  0.123276  1
  Y  Y11  1  0.646406  0.166646  0.126703  1
  Y  Y12  1  0.148288  0.339025  0.375258  1
  Y  Y13  1  0.355850  0.837794  0.626771  1
  Y  Y14  1  0.847463  0.664075  0.876970  1
  Y  Y15  1  0.513746  0.319355  0.904156  1
  Y  Y16  1  0.180688  0.502524  0.751405  1
  Mg  Mg17  1  0.680132  0.000466  0.751293  1
  Mg  Mg18  1  0.820202  0.495707  0.249902  1
  Mg  Mg19  1  0.324465  0.007273  0.249895  1
  Pb  Pb20  1  0.311872  0.043701  0.041215  1
  Pb  Pb21  1  0.808684  0.459808  0.458521  1
  Pb  Pb22  1  0.685767  0.957487  0.537801  1
  Pb  Pb23  1  0.199832  0.534592  0.955249  1
  Pb  Pb24  1  0.685147  0.959686  0.960667  1
  Pb  Pb25  1  0.190393  0.538029  0.544262  1
  Pb  Pb26  1  0.312557  0.043487  0.459681  1
  Pb  Pb27  1  0.799671  0.456218  0.039143  1
  Pb  Pb28  1  0.546728  0.613322  0.750526  1
  Pb  Pb29  1  0.040869  0.880742  0.750580  1
  Pb  Pb30  1  0.454454  0.387689  0.249950  1
  Pb  Pb31  1  0.961318  0.113274  0.248646  1
  Pb  Pb32  1  0.316387  0.150367  0.751906  1
  Pb  Pb33  1  0.820203  0.350539  0.750209  1
  Pb  Pb34  1  0.686921  0.849810  0.249827  1
  Pb  Pb35  1  0.182851  0.653816  0.250091  1
