# generated using pymatgen
data_K3Pr(BO3)2
_symmetry_space_group_name_H-M   'P 1'
_cell_length_a   5.68926600
_cell_length_b   7.12327800
_cell_length_c   9.67769200
_cell_angle_alpha   90.00000000
_cell_angle_beta   90.00000000
_cell_angle_gamma   90.00000000
_symmetry_Int_Tables_number   1
_chemical_formula_structural   K3Pr(BO3)2
_chemical_formula_sum   'K6 Pr2 B4 O12'
_cell_volume   392.20030735
_cell_formula_units_Z   2
loop_
 _symmetry_equiv_pos_site_id
 _symmetry_equiv_pos_as_xyz
  1  'x, y, z'
loop_
 _atom_site_type_symbol
 _atom_site_label
 _atom_site_symmetry_multiplicity
 _atom_site_fract_x
 _atom_site_fract_y
 _atom_site_fract_z
 _atom_site_occupancy
  K  K0  1  0.000000  0.231888  0.332494  1
  K  K1  1  0.000000  0.768112  0.667506  1
  K  K2  1  0.500000  0.731888  0.167506  1
  K  K3  1  0.500000  0.500000  0.500000  1
  K  K4  1  0.500000  0.268112  0.832494  1
  K  K5  1  0.000000  0.000000  0.000000  1
  Pr  Pr6  1  0.000000  0.500000  0.000000  1
  Pr  Pr7  1  0.500000  0.000000  0.500000  1
  B  B8  1  0.000000  0.760908  0.334027  1
  B  B9  1  0.000000  0.239092  0.665973  1
  B  B10  1  0.500000  0.739092  0.834027  1
  B  B11  1  0.500000  0.260908  0.165973  1
  O  O12  1  0.712124  0.292878  0.097408  1
  O  O13  1  0.212124  0.207122  0.597408  1
  O  O14  1  0.500000  0.199397  0.302809  1
  O  O15  1  0.712124  0.707122  0.902592  1
  O  O16  1  0.287876  0.292878  0.097408  1
  O  O17  1  0.212124  0.792878  0.402592  1
  O  O18  1  0.787876  0.207122  0.597408  1
  O  O19  1  0.287876  0.707122  0.902592  1
  O  O20  1  0.787876  0.792878  0.402592  1
  O  O21  1  0.000000  0.300603  0.802809  1
  O  O22  1  0.000000  0.699397  0.197191  1
  O  O23  1  0.500000  0.800603  0.697191  1
