# generated using pymatgen
data_Li9Yb3Sn4
_symmetry_space_group_name_H-M   'P 1'
_cell_length_a   6.85268721
_cell_length_b   6.85268732
_cell_length_c   6.85268710
_cell_angle_alpha   90.01932929
_cell_angle_beta   89.98067004
_cell_angle_gamma   89.98067191
_symmetry_Int_Tables_number   1
_chemical_formula_structural   Li9Yb3Sn4
_chemical_formula_sum   'Li9 Yb3 Sn4'
_cell_volume   321.79749044
_cell_formula_units_Z   1
loop_
 _symmetry_equiv_pos_site_id
 _symmetry_equiv_pos_as_xyz
  1  'x, y, z'
loop_
 _atom_site_type_symbol
 _atom_site_label
 _atom_site_symmetry_multiplicity
 _atom_site_fract_x
 _atom_site_fract_y
 _atom_site_fract_z
 _atom_site_occupancy
  Li  Li0  1  0.013370  0.986630  0.986630  1
  Li  Li1  1  0.486641  0.986624  0.986624  1
  Li  Li2  1  0.013376  0.513361  0.986624  1
  Li  Li3  1  0.486606  0.513396  0.986772  1
  Li  Li4  1  0.013376  0.986624  0.513361  1
  Li  Li5  1  0.486606  0.986772  0.513396  1
  Li  Li6  1  0.013228  0.513396  0.513396  1
  Li  Li7  1  0.486701  0.513301  0.513301  1
  Li  Li8  1  0.250446  0.749555  0.749555  1
  Yb  Yb9  1  0.249946  0.249936  0.249936  1
  Yb  Yb10  1  0.750065  0.750055  0.249936  1
  Yb  Yb11  1  0.750065  0.249936  0.750055  1
  Sn  Sn12  1  0.750322  0.249679  0.249679  1
  Sn  Sn13  1  0.249737  0.750264  0.250217  1
  Sn  Sn14  1  0.249737  0.250217  0.750264  1
  Sn  Sn15  1  0.749784  0.750264  0.750264  1
