# generated using pymatgen
data_DySc6Sn23Os6
_symmetry_space_group_name_H-M   'P 1'
_cell_length_a   9.72971300
_cell_length_b   9.72971357
_cell_length_c   9.96874700
_cell_angle_alpha   90.00000000
_cell_angle_beta   90.00000000
_cell_angle_gamma   120.00000146
_symmetry_Int_Tables_number   1
_chemical_formula_structural   DySc6Sn23Os6
_chemical_formula_sum   'Dy1 Sc6 Sn23 Os6'
_cell_volume   817.28077813
_cell_formula_units_Z   1
loop_
 _symmetry_equiv_pos_site_id
 _symmetry_equiv_pos_as_xyz
  1  'x, y, z'
loop_
 _atom_site_type_symbol
 _atom_site_label
 _atom_site_symmetry_multiplicity
 _atom_site_fract_x
 _atom_site_fract_y
 _atom_site_fract_z
 _atom_site_occupancy
  Dy  Dy0  1  0.000000  0.000000  0.000000  1
  Sc  Sc1  1  0.490414  0.509586  0.300797  1
  Sc  Sc2  1  0.509586  0.490414  0.699203  1
  Sc  Sc3  1  0.490414  0.980827  0.300797  1
  Sc  Sc4  1  0.509586  0.019173  0.699203  1
  Sc  Sc5  1  0.019173  0.509586  0.300797  1
  Sc  Sc6  1  0.980827  0.490414  0.699203  1
  Sn  Sn7  1  0.350808  0.000000  0.000000  1
  Sn  Sn8  1  0.649192  0.000000  0.000000  1
  Sn  Sn9  1  0.000000  0.350808  0.000000  1
  Sn  Sn10  1  0.000000  0.649192  0.000000  1
  Sn  Sn11  1  0.649192  0.649192  0.000000  1
  Sn  Sn12  1  0.350808  0.350808  0.000000  1
  Sn  Sn13  1  0.333333  0.666667  0.828729  1
  Sn  Sn14  1  0.666667  0.333333  0.171271  1
  Sn  Sn15  1  0.000000  0.000000  0.500000  1
  Sn  Sn16  1  0.776759  0.223241  0.466506  1
  Sn  Sn17  1  0.223241  0.776759  0.533494  1
  Sn  Sn18  1  0.776759  0.553520  0.466506  1
  Sn  Sn19  1  0.223241  0.446480  0.533494  1
  Sn  Sn20  1  0.446480  0.223241  0.466506  1
  Sn  Sn21  1  0.553520  0.776759  0.533494  1
  Sn  Sn22  1  0.333333  0.666667  0.146067  1
  Sn  Sn23  1  0.666667  0.333333  0.853933  1
  Sn  Sn24  1  0.122009  0.877991  0.279850  1
  Sn  Sn25  1  0.877991  0.122009  0.720150  1
  Sn  Sn26  1  0.122009  0.244019  0.279850  1
  Sn  Sn27  1  0.877991  0.755981  0.720150  1
  Sn  Sn28  1  0.755981  0.877991  0.279850  1
  Sn  Sn29  1  0.244019  0.122009  0.720150  1
  Os  Os30  1  0.828127  0.171873  0.204808  1
  Os  Os31  1  0.171873  0.828127  0.795192  1
  Os  Os32  1  0.828127  0.656252  0.204808  1
  Os  Os33  1  0.171873  0.343748  0.795192  1
  Os  Os34  1  0.343748  0.171873  0.204808  1
  Os  Os35  1  0.656252  0.828127  0.795192  1
