# generated using pymatgen
data_NaB9PbO15
_symmetry_space_group_name_H-M   'P 1'
_cell_length_a   8.58019862
_cell_length_b   8.58019810
_cell_length_c   8.58019800
_cell_angle_alpha   79.42582160
_cell_angle_beta   79.42582225
_cell_angle_gamma   79.42582233
_symmetry_Int_Tables_number   1
_chemical_formula_structural   NaB9PbO15
_chemical_formula_sum   'Na2 B18 Pb2 O30'
_cell_volume   603.01848512
_cell_formula_units_Z   2
loop_
 _symmetry_equiv_pos_site_id
 _symmetry_equiv_pos_as_xyz
  1  'x, y, z'
loop_
 _atom_site_type_symbol
 _atom_site_label
 _atom_site_symmetry_multiplicity
 _atom_site_fract_x
 _atom_site_fract_y
 _atom_site_fract_z
 _atom_site_occupancy
  Na  Na0  1  0.290581  0.290581  0.290581  1
  Na  Na1  1  0.790581  0.790581  0.790581  1
  B  B2  1  0.567881  0.710329  0.056302  1
  B  B3  1  0.556302  0.210329  0.067880  1
  B  B4  1  0.281755  0.718511  0.157101  1
  B  B5  1  0.067881  0.556301  0.210329  1
  B  B6  1  0.781756  0.657101  0.218511  1
  B  B7  1  0.887930  0.369066  0.219579  1
  B  B8  1  0.718511  0.157101  0.281755  1
  B  B9  1  0.219579  0.887930  0.369065  1
  B  B10  1  0.719579  0.869066  0.387930  1
  B  B11  1  0.210329  0.067881  0.556302  1
  B  B12  1  0.710329  0.056302  0.567880  1
  B  B13  1  0.218511  0.781756  0.657101  1
  B  B14  1  0.056302  0.567881  0.710329  1
  B  B15  1  0.157101  0.281755  0.718511  1
  B  B16  1  0.869066  0.387930  0.719579  1
  B  B17  1  0.657101  0.218511  0.781756  1
  B  B18  1  0.387930  0.719579  0.869066  1
  B  B19  1  0.369065  0.219579  0.887930  1
  Pb  Pb20  1  0.511844  0.511844  0.511844  1
  Pb  Pb21  1  0.011844  0.011844  0.011844  1
  O  O22  1  0.399501  0.208902  0.043332  1
  O  O23  1  0.717730  0.731057  0.070795  1
  O  O24  1  0.448665  0.692771  0.182946  1
  O  O25  1  0.948665  0.682947  0.192770  1
  O  O26  1  0.867829  0.220627  0.197123  1
  O  O27  1  0.043333  0.399501  0.208901  1
  O  O28  1  0.570795  0.231057  0.217729  1
  O  O29  1  0.197123  0.867829  0.220626  1
  O  O30  1  0.217730  0.570794  0.231058  1
  O  O31  1  0.760973  0.486081  0.252591  1
  O  O32  1  0.752591  0.986081  0.260973  1
  O  O33  1  0.697124  0.720627  0.367829  1
  O  O34  1  0.208902  0.043333  0.399501  1
  O  O35  1  0.692770  0.182946  0.448665  1
  O  O36  1  0.252591  0.760973  0.486081  1
  O  O37  1  0.708902  0.899501  0.543332  1
  O  O38  1  0.231057  0.217730  0.570795  1
  O  O39  1  0.192771  0.948665  0.682946  1
  O  O40  1  0.182946  0.448665  0.692770  1
  O  O41  1  0.720626  0.367829  0.697123  1
  O  O42  1  0.899501  0.543333  0.708901  1
  O  O43  1  0.731057  0.070795  0.717730  1
  O  O44  1  0.367829  0.697123  0.720627  1
  O  O45  1  0.070795  0.717730  0.731057  1
  O  O46  1  0.986081  0.260973  0.752591  1
  O  O47  1  0.486081  0.252591  0.760973  1
  O  O48  1  0.220626  0.197123  0.867829  1
  O  O49  1  0.543333  0.708902  0.899501  1
  O  O50  1  0.682946  0.192771  0.948665  1
  O  O51  1  0.260973  0.752591  0.986081  1
