# generated using pymatgen
data_Ce3Nd7Dy6(CdRu)4
_symmetry_space_group_name_H-M   'P 1'
_cell_length_a   9.80971371
_cell_length_b   9.80971479
_cell_length_c   9.74910068
_cell_angle_alpha   59.69596701
_cell_angle_beta   59.69596276
_cell_angle_gamma   59.57669510
_symmetry_Int_Tables_number   1
_chemical_formula_structural   Ce3Nd7Dy6(CdRu)4
_chemical_formula_sum   'Ce3 Nd7 Dy6 Cd4 Ru4'
_cell_volume   658.19606710
_cell_formula_units_Z   1
loop_
 _symmetry_equiv_pos_site_id
 _symmetry_equiv_pos_as_xyz
  1  'x, y, z'
loop_
 _atom_site_type_symbol
 _atom_site_label
 _atom_site_symmetry_multiplicity
 _atom_site_fract_x
 _atom_site_fract_y
 _atom_site_fract_z
 _atom_site_occupancy
  Ce  Ce0  1  0.344084  0.968889  0.342338  1
  Ce  Ce1  1  0.968889  0.344084  0.342338  1
  Ce  Ce2  1  0.345558  0.345558  0.336603  1
  Nd  Nd3  1  0.559933  0.559933  0.941253  1
  Nd  Nd4  1  0.938791  0.558500  0.944647  1
  Nd  Nd5  1  0.558500  0.938791  0.944647  1
  Nd  Nd6  1  0.941734  0.941734  0.557722  1
  Nd  Nd7  1  0.560813  0.938839  0.557920  1
  Nd  Nd8  1  0.938839  0.560813  0.557920  1
  Nd  Nd9  1  0.187674  0.187674  0.812084  1
  Dy  Dy10  1  0.810020  0.187103  0.813936  1
  Dy  Dy11  1  0.187102  0.810021  0.813936  1
  Dy  Dy12  1  0.812946  0.812947  0.187904  1
  Dy  Dy13  1  0.186176  0.810565  0.191002  1
  Dy  Dy14  1  0.810565  0.186177  0.191003  1
  Dy  Dy15  1  0.351004  0.351004  0.951108  1
  Cd  Cd16  1  0.579273  0.579273  0.261711  1
  Cd  Cd17  1  0.581617  0.261118  0.577660  1
  Cd  Cd18  1  0.261118  0.581617  0.577660  1
  Cd  Cd19  1  0.579440  0.579440  0.578848  1
  Ru  Ru20  1  0.143972  0.143971  0.564958  1
  Ru  Ru21  1  0.141987  0.570225  0.151072  1
  Ru  Ru22  1  0.570225  0.141987  0.151072  1
  Ru  Ru23  1  0.139739  0.139739  0.150658  1
