# generated using pymatgen
data_TbNd(Ga3Pd)2
_symmetry_space_group_name_H-M   'P 1'
_cell_length_a   6.07824555
_cell_length_b   6.07824558
_cell_length_c   5.85176400
_cell_angle_alpha   90.00000000
_cell_angle_beta   90.00000000
_cell_angle_gamma   116.30463237
_symmetry_Int_Tables_number   1
_chemical_formula_structural   TbNd(Ga3Pd)2
_chemical_formula_sum   'Tb1 Nd1 Ga6 Pd2'
_cell_volume   193.80708575
_cell_formula_units_Z   1
loop_
 _symmetry_equiv_pos_site_id
 _symmetry_equiv_pos_as_xyz
  1  'x, y, z'
loop_
 _atom_site_type_symbol
 _atom_site_label
 _atom_site_symmetry_multiplicity
 _atom_site_fract_x
 _atom_site_fract_y
 _atom_site_fract_z
 _atom_site_occupancy
  Tb  Tb0  1  0.767388  0.232612  0.250000  1
  Nd  Nd1  1  0.234530  0.765470  0.750000  1
  Ga  Ga2  1  0.666105  0.333895  0.750000  1
  Ga  Ga3  1  0.333872  0.666128  0.250000  1
  Ga  Ga4  1  0.715777  0.716011  0.000255  1
  Ga  Ga5  1  0.715777  0.716011  0.499745  1
  Ga  Ga6  1  0.283989  0.284223  0.000255  1
  Ga  Ga7  1  0.283989  0.284223  0.499745  1
  Pd  Pd8  1  0.903655  0.096345  0.750000  1
  Pd  Pd9  1  0.094915  0.905085  0.250000  1
