# generated using pymatgen
data_Pr8Zr11Si16Ag
_symmetry_space_group_name_H-M   'P 1'
_cell_length_a   7.21963616
_cell_length_b   7.47069477
_cell_length_c   14.20400900
_cell_angle_alpha   90.00000000
_cell_angle_beta   90.00000000
_cell_angle_gamma   90.30820964
_symmetry_Int_Tables_number   1
_chemical_formula_structural   Pr8Zr11Si16Ag
_chemical_formula_sum   'Pr8 Zr11 Si16 Ag1'
_cell_volume   766.09205693
_cell_formula_units_Z   1
loop_
 _symmetry_equiv_pos_site_id
 _symmetry_equiv_pos_as_xyz
  1  'x, y, z'
loop_
 _atom_site_type_symbol
 _atom_site_label
 _atom_site_symmetry_multiplicity
 _atom_site_fract_x
 _atom_site_fract_y
 _atom_site_fract_z
 _atom_site_occupancy
  Pr  Pr0  1  0.013410  0.172967  0.403200  1
  Pr  Pr1  1  0.511948  0.328838  0.401194  1
  Pr  Pr2  1  0.488883  0.677948  0.899919  1
  Pr  Pr3  1  0.488883  0.677948  0.600081  1
  Pr  Pr4  1  0.978995  0.826963  0.601072  1
  Pr  Pr5  1  0.978995  0.826963  0.898928  1
  Pr  Pr6  1  0.511948  0.328838  0.098806  1
  Pr  Pr7  1  0.013410  0.172967  0.096800  1
  Zr  Zr8  1  0.337983  0.176439  0.625309  1
  Zr  Zr9  1  0.670873  0.820846  0.374707  1
  Zr  Zr10  1  0.169993  0.678354  0.375693  1
  Zr  Zr11  1  0.826873  0.315385  0.874863  1
  Zr  Zr12  1  0.826873  0.315385  0.625137  1
  Zr  Zr13  1  0.840642  0.505515  0.250000  1
  Zr  Zr14  1  0.340864  0.993208  0.250000  1
  Zr  Zr15  1  0.337983  0.176439  0.874691  1
  Zr  Zr16  1  0.169993  0.678354  0.124307  1
  Zr  Zr17  1  0.670873  0.820846  0.125293  1
  Zr  Zr18  1  0.159454  0.495147  0.750000  1
  Si  Si19  1  0.275735  0.885171  0.750000  1
  Si  Si20  1  0.464232  0.625661  0.250000  1
  Si  Si21  1  0.043006  0.128652  0.750000  1
  Si  Si22  1  0.533565  0.385918  0.750000  1
  Si  Si23  1  0.153242  0.464428  0.543166  1
  Si  Si24  1  0.966071  0.874430  0.250000  1
  Si  Si25  1  0.715222  0.116603  0.250000  1
  Si  Si26  1  0.848202  0.534959  0.040090  1
  Si  Si27  1  0.347031  0.964309  0.040500  1
  Si  Si28  1  0.153242  0.464428  0.956834  1
  Si  Si29  1  0.654385  0.040603  0.531357  1
  Si  Si30  1  0.347031  0.964309  0.459500  1
  Si  Si31  1  0.848202  0.534959  0.459910  1
  Si  Si32  1  0.790510  0.599079  0.750000  1
  Si  Si33  1  0.213960  0.384760  0.250000  1
  Si  Si34  1  0.654385  0.040603  0.968643  1
  Ag  Ag35  1  0.653102  0.001780  0.750000  1
