# generated using pymatgen
data_Lu2Sn2Rh3
_symmetry_space_group_name_H-M   'P 1'
_cell_length_a   8.00978900
_cell_length_b   8.00978833
_cell_length_c   8.00978922
_cell_angle_alpha   33.45632502
_cell_angle_beta   33.45632922
_cell_angle_gamma   33.45632543
_symmetry_Int_Tables_number   1
_chemical_formula_structural   Lu2Sn2Rh3
_chemical_formula_sum   'Lu2 Sn2 Rh3'
_cell_volume   139.09514969
_cell_formula_units_Z   1
loop_
 _symmetry_equiv_pos_site_id
 _symmetry_equiv_pos_as_xyz
  1  'x, y, z'
loop_
 _atom_site_type_symbol
 _atom_site_label
 _atom_site_symmetry_multiplicity
 _atom_site_fract_x
 _atom_site_fract_y
 _atom_site_fract_z
 _atom_site_occupancy
  Lu  Lu0  1  0.754600  0.754600  0.754600  1
  Lu  Lu1  1  0.246450  0.246450  0.246450  1
  Sn  Sn2  1  0.997832  0.997832  0.997832  1
  Sn  Sn3  1  0.501853  0.501853  0.501853  1
  Rh  Rh4  1  0.121462  0.121462  0.121462  1
  Rh  Rh5  1  0.629202  0.629202  0.629202  1
  Rh  Rh6  1  0.373600  0.373600  0.373600  1
