# generated using pymatgen
data_Ta16CrCo4Ir3N4
_symmetry_space_group_name_H-M   'P 1'
_cell_length_a   8.25284619
_cell_length_b   8.25284681
_cell_length_c   8.25284557
_cell_angle_alpha   60.64399409
_cell_angle_beta   60.64400178
_cell_angle_gamma   60.64399936
_symmetry_Int_Tables_number   1
_chemical_formula_structural   Ta16CrCo4Ir3N4
_chemical_formula_sum   'Ta16 Cr1 Co4 Ir3 N4'
_cell_volume   403.24190850
_cell_formula_units_Z   1
loop_
 _symmetry_equiv_pos_site_id
 _symmetry_equiv_pos_as_xyz
  1  'x, y, z'
loop_
 _atom_site_type_symbol
 _atom_site_label
 _atom_site_symmetry_multiplicity
 _atom_site_fract_x
 _atom_site_fract_y
 _atom_site_fract_z
 _atom_site_occupancy
  Ta  Ta0  1  0.094536  0.634726  0.634726  1
  Ta  Ta1  1  0.634726  0.094536  0.634726  1
  Ta  Ta2  1  0.634726  0.634726  0.094536  1
  Ta  Ta3  1  0.636759  0.636759  0.636759  1
  Ta  Ta4  1  0.811706  0.811706  0.187161  1
  Ta  Ta5  1  0.190720  0.190720  0.807349  1
  Ta  Ta6  1  0.811706  0.187161  0.811706  1
  Ta  Ta7  1  0.190720  0.807349  0.190720  1
  Ta  Ta8  1  0.187161  0.811706  0.811706  1
  Ta  Ta9  1  0.807349  0.190720  0.190720  1
  Ta  Ta10  1  0.436117  0.436117  0.069352  1
  Ta  Ta11  1  0.065465  0.065465  0.435473  1
  Ta  Ta12  1  0.436117  0.069352  0.436117  1
  Ta  Ta13  1  0.065465  0.435473  0.065465  1
  Ta  Ta14  1  0.069352  0.436117  0.436117  1
  Ta  Ta15  1  0.435473  0.065465  0.065465  1
  Cr  Cr16  1  0.415562  0.415562  0.415562  1
  Co  Co17  1  0.458613  0.847539  0.847539  1
  Co  Co18  1  0.847539  0.458613  0.847539  1
  Co  Co19  1  0.847539  0.847539  0.458613  1
  Co  Co20  1  0.844794  0.844794  0.844794  1
  Ir  Ir21  1  0.745406  0.416603  0.416603  1
  Ir  Ir22  1  0.416603  0.745406  0.416603  1
  Ir  Ir23  1  0.416603  0.416603  0.745406  1
  N  N24  1  0.627403  0.123656  0.123656  1
  N  N25  1  0.123656  0.627403  0.123656  1
  N  N26  1  0.123656  0.123656  0.627403  1
  N  N27  1  0.124530  0.124530  0.124530  1
