# generated using pymatgen
data_Dy3Ho3NiI10
_symmetry_space_group_name_H-M   'P 1'
_cell_length_a   7.69242161
_cell_length_b   9.65639434
_cell_length_c   9.68502645
_cell_angle_alpha   106.88406082
_cell_angle_beta   96.78746870
_cell_angle_gamma   104.27782544
_symmetry_Int_Tables_number   1
_chemical_formula_structural   Dy3Ho3NiI10
_chemical_formula_sum   'Dy3 Ho3 Ni1 I10'
_cell_volume   653.01408967
_cell_formula_units_Z   1
loop_
 _symmetry_equiv_pos_site_id
 _symmetry_equiv_pos_as_xyz
  1  'x, y, z'
loop_
 _atom_site_type_symbol
 _atom_site_label
 _atom_site_symmetry_multiplicity
 _atom_site_fract_x
 _atom_site_fract_y
 _atom_site_fract_z
 _atom_site_occupancy
  Dy  Dy0  1  0.033977  0.722065  0.917732  1
  Dy  Dy1  1  0.886451  0.958848  0.235354  1
  Dy  Dy2  1  0.113199  0.041663  0.765022  1
  Ho  Ho3  1  0.336493  0.118912  0.160314  1
  Ho  Ho4  1  0.662995  0.881098  0.839753  1
  Ho  Ho5  1  0.966542  0.277823  0.082419  1
  Ni  Ni6  1  0.999682  0.000369  0.000195  1
  I  I7  1  0.345858  0.447897  0.272051  1
  I  I8  1  0.654580  0.551905  0.727383  1
  I  I9  1  0.768854  0.253716  0.342531  1
  I  I10  1  0.230857  0.746238  0.657295  1
  I  I11  1  0.544919  0.186163  0.906501  1
  I  I12  1  0.455016  0.813520  0.093216  1
  I  I13  1  0.744510  0.913662  0.538302  1
  I  I14  1  0.255372  0.086127  0.461739  1
  I  I15  1  0.914245  0.626556  0.180604  1
  I  I16  1  0.086451  0.373436  0.819590  1
