# generated using pymatgen
data_Tb7HoHf12Si15Ge
_symmetry_space_group_name_H-M   'P 1'
_cell_length_a   7.29139819
_cell_length_b   7.29743773
_cell_length_c   13.41225536
_cell_angle_alpha   89.95073259
_cell_angle_beta   89.99579764
_cell_angle_gamma   89.95264717
_symmetry_Int_Tables_number   1
_chemical_formula_structural   Tb7HoHf12Si15Ge
_chemical_formula_sum   'Tb7 Ho1 Hf12 Si15 Ge1'
_cell_volume   713.64580566
_cell_formula_units_Z   1
loop_
 _symmetry_equiv_pos_site_id
 _symmetry_equiv_pos_as_xyz
  1  'x, y, z'
loop_
 _atom_site_type_symbol
 _atom_site_label
 _atom_site_symmetry_multiplicity
 _atom_site_fract_x
 _atom_site_fract_y
 _atom_site_fract_z
 _atom_site_occupancy
  Tb  Tb0  1  0.004418  0.656029  0.715247  1
  Tb  Tb1  1  0.154538  0.497378  0.465927  1
  Tb  Tb2  1  0.504829  0.843500  0.034532  1
  Tb  Tb3  1  0.844167  0.504304  0.965044  1
  Tb  Tb4  1  0.496244  0.155394  0.535745  1
  Tb  Tb5  1  0.343792  0.995715  0.784933  1
  Tb  Tb6  1  0.657105  0.003328  0.284542  1
  Ho  Ho7  1  0.994926  0.344423  0.214451  1
  Hf  Hf8  1  0.174388  0.174861  0.999989  1
  Hf  Hf9  1  0.825529  0.825631  0.500149  1
  Hf  Hf10  1  0.325377  0.676784  0.249465  1
  Hf  Hf11  1  0.674539  0.325508  0.749982  1
  Hf  Hf12  1  0.148116  0.994269  0.373932  1
  Hf  Hf13  1  0.850749  0.004176  0.874289  1
  Hf  Hf14  1  0.504113  0.649553  0.624298  1
  Hf  Hf15  1  0.350371  0.495656  0.875806  1
  Hf  Hf16  1  0.495694  0.350317  0.123343  1
  Hf  Hf17  1  0.652059  0.506154  0.376395  1
  Hf  Hf18  1  0.995616  0.149547  0.625875  1
  Hf  Hf19  1  0.003560  0.850366  0.125422  1
  Si  Si20  1  0.637091  0.705154  0.816801  1
  Si  Si21  1  0.204764  0.863234  0.566896  1
  Si  Si22  1  0.136960  0.795107  0.932958  1
  Si  Si23  1  0.795405  0.137520  0.067017  1
  Si  Si24  1  0.862981  0.204732  0.433052  1
  Si  Si25  1  0.295112  0.362936  0.683192  1
  Si  Si26  1  0.704867  0.636368  0.183106  1
  Si  Si27  1  0.294569  0.046109  0.183748  1
  Si  Si28  1  0.705216  0.950858  0.685696  1
  Si  Si29  1  0.451169  0.795073  0.435555  1
  Si  Si30  1  0.204690  0.548277  0.064729  1
  Si  Si31  1  0.548860  0.205009  0.935279  1
  Si  Si32  1  0.794698  0.451111  0.564714  1
  Si  Si33  1  0.048855  0.294949  0.814410  1
  Si  Si34  1  0.951564  0.704044  0.314126  1
  Ge  Ge35  1  0.363072  0.296628  0.319355  1
