# generated using pymatgen
data_DyTm2TiAl11Ru4
_symmetry_space_group_name_H-M   'P 1'
_cell_length_a   8.82678783
_cell_length_b   8.82678643
_cell_length_c   9.51846748
_cell_angle_alpha   90.03147829
_cell_angle_beta   89.96852139
_cell_angle_gamma   119.88940367
_symmetry_Int_Tables_number   1
_chemical_formula_structural   DyTm2TiAl11Ru4
_chemical_formula_sum   'Dy2 Tm4 Ti2 Al22 Ru8'
_cell_volume   642.96272913
_cell_formula_units_Z   2
loop_
 _symmetry_equiv_pos_site_id
 _symmetry_equiv_pos_as_xyz
  1  'x, y, z'
loop_
 _atom_site_type_symbol
 _atom_site_label
 _atom_site_symmetry_multiplicity
 _atom_site_fract_x
 _atom_site_fract_y
 _atom_site_fract_z
 _atom_site_occupancy
  Dy  Dy0  1  0.806765  0.193235  0.749699  1
  Dy  Dy1  1  0.193235  0.806765  0.250301  1
  Tm  Tm2  1  0.390233  0.194941  0.749598  1
  Tm  Tm3  1  0.609767  0.805059  0.250402  1
  Tm  Tm4  1  0.805059  0.609767  0.749598  1
  Tm  Tm5  1  0.194941  0.390233  0.250402  1
  Ti  Ti6  1  0.666593  0.333407  0.002785  1
  Ti  Ti7  1  0.333407  0.666593  0.997215  1
  Al  Al8  1  0.333242  0.666758  0.480665  1
  Al  Al9  1  0.666758  0.333242  0.519335  1
  Al  Al10  1  0.838484  0.161516  0.422168  1
  Al  Al11  1  0.161516  0.838484  0.577832  1
  Al  Al12  1  0.323089  0.162086  0.422910  1
  Al  Al13  1  0.159187  0.840813  0.921270  1
  Al  Al14  1  0.676911  0.837914  0.577090  1
  Al  Al15  1  0.840813  0.159187  0.078730  1
  Al  Al16  1  0.837914  0.676911  0.422910  1
  Al  Al17  1  0.681540  0.840264  0.922115  1
  Al  Al18  1  0.162086  0.323089  0.577090  1
  Al  Al19  1  0.318460  0.159736  0.077885  1
  Al  Al20  1  0.159736  0.318460  0.922115  1
  Al  Al21  1  0.840264  0.681540  0.077885  1
  Al  Al22  1  0.439568  0.560432  0.747714  1
  Al  Al23  1  0.560432  0.439568  0.252286  1
  Al  Al24  1  0.121710  0.560886  0.747608  1
  Al  Al25  1  0.878290  0.439114  0.252392  1
  Al  Al26  1  0.439114  0.878290  0.747608  1
  Al  Al27  1  0.560886  0.121710  0.252392  1
  Al  Al28  1  0.001472  0.998528  0.749494  1
  Al  Al29  1  0.998528  0.001472  0.250506  1
  Ru  Ru30  1  0.500000  0.500000  0.000000  1
  Ru  Ru31  1  0.000000  0.500000  0.000000  1
  Ru  Ru32  1  0.500000  0.500000  0.500000  1
  Ru  Ru33  1  0.500000  0.000000  0.000000  1
  Ru  Ru34  1  0.000000  0.500000  0.500000  1
  Ru  Ru35  1  0.500000  0.000000  0.500000  1
  Ru  Ru36  1  0.000000  0.000000  0.000000  1
  Ru  Ru37  1  0.000000  0.000000  0.500000  1
