# generated using pymatgen
data_Ca7Yb5(Si2Ni3)4
_symmetry_space_group_name_H-M   'P 1'
_cell_length_a   8.95616417
_cell_length_b   3.97203100
_cell_length_c   18.18756168
_cell_angle_alpha   90.00000000
_cell_angle_beta   90.02663215
_cell_angle_gamma   90.00000000
_symmetry_Int_Tables_number   1
_chemical_formula_structural   Ca7Yb5(Si2Ni3)4
_chemical_formula_sum   'Ca7 Yb5 Si8 Ni12'
_cell_volume   647.00719020
_cell_formula_units_Z   1
loop_
 _symmetry_equiv_pos_site_id
 _symmetry_equiv_pos_as_xyz
  1  'x, y, z'
loop_
 _atom_site_type_symbol
 _atom_site_label
 _atom_site_symmetry_multiplicity
 _atom_site_fract_x
 _atom_site_fract_y
 _atom_site_fract_z
 _atom_site_occupancy
  Ca  Ca0  1  0.365036  0.749999  0.431114  1
  Ca  Ca1  1  0.635338  0.249998  0.569130  1
  Ca  Ca2  1  0.865752  0.749999  0.068426  1
  Ca  Ca3  1  0.113866  0.249998  0.569234  1
  Ca  Ca4  1  0.385034  0.749999  0.068657  1
  Ca  Ca5  1  0.614943  0.249998  0.931390  1
  Ca  Ca6  1  0.886118  0.749999  0.431177  1
  Yb  Yb7  1  0.125806  0.249998  0.190489  1
  Yb  Yb8  1  0.373320  0.749999  0.690995  1
  Yb  Yb9  1  0.625897  0.249998  0.309289  1
  Yb  Yb10  1  0.873018  0.749999  0.809543  1
  Yb  Yb11  1  0.137129  0.249998  0.925854  1
  Si  Si12  1  0.627054  0.249998  0.104995  1
  Si  Si13  1  0.873166  0.749999  0.605892  1
  Si  Si14  1  0.127240  0.249998  0.394873  1
  Si  Si15  1  0.374988  0.749999  0.895400  1
  Si  Si16  1  0.122869  0.249998  0.749746  1
  Si  Si17  1  0.376845  0.749999  0.249482  1
  Si  Si18  1  0.623524  0.249998  0.750436  1
  Si  Si19  1  0.876895  0.749999  0.250268  1
  Ni  Ni20  1  0.311028  0.249998  0.308864  1
  Ni  Ni21  1  0.188227  0.749999  0.810842  1
  Ni  Ni22  1  0.811023  0.249998  0.190758  1
  Ni  Ni23  1  0.688088  0.749999  0.690961  1
  Ni  Ni24  1  0.872519  0.249998  0.685987  1
  Ni  Ni25  1  0.627143  0.749999  0.185087  1
  Ni  Ni26  1  0.371219  0.249998  0.815953  1
  Ni  Ni27  1  0.127195  0.749999  0.314501  1
  Ni  Ni28  1  0.442009  0.249998  0.190160  1
  Ni  Ni29  1  0.057913  0.749999  0.691137  1
  Ni  Ni30  1  0.942280  0.249998  0.309755  1
  Ni  Ni31  1  0.557516  0.749999  0.809604  1
