# generated using pymatgen
data_Er6Al24FeIr5Ru2
_symmetry_space_group_name_H-M   'P 1'
_cell_length_a   8.74940300
_cell_length_b   8.78782978
_cell_length_c   9.48162604
_cell_angle_alpha   90.11166098
_cell_angle_beta   90.00000000
_cell_angle_gamma   119.85545272
_symmetry_Int_Tables_number   1
_chemical_formula_structural   Er6Al24FeIr5Ru2
_chemical_formula_sum   'Er6 Al24 Fe1 Ir5 Ru2'
_cell_volume   632.27083148
_cell_formula_units_Z   1
loop_
 _symmetry_equiv_pos_site_id
 _symmetry_equiv_pos_as_xyz
  1  'x, y, z'
loop_
 _atom_site_type_symbol
 _atom_site_label
 _atom_site_symmetry_multiplicity
 _atom_site_fract_x
 _atom_site_fract_y
 _atom_site_fract_z
 _atom_site_occupancy
  Er  Er0  1  0.193703  0.387405  0.250029  1
  Er  Er1  1  0.806297  0.612595  0.749971  1
  Er  Er2  1  0.612489  0.807314  0.250294  1
  Er  Er3  1  0.387511  0.192686  0.749706  1
  Er  Er4  1  0.194826  0.807314  0.250294  1
  Er  Er5  1  0.805174  0.192686  0.749706  1
  Al  Al6  1  0.333692  0.667386  0.027493  1
  Al  Al7  1  0.666308  0.332614  0.972507  1
  Al  Al8  1  0.665294  0.330587  0.527778  1
  Al  Al9  1  0.334706  0.669413  0.472222  1
  Al  Al10  1  0.162699  0.325397  0.576545  1
  Al  Al11  1  0.837301  0.674603  0.423455  1
  Al  Al12  1  0.673987  0.838002  0.577293  1
  Al  Al13  1  0.840066  0.680131  0.076004  1
  Al  Al14  1  0.326013  0.161998  0.422707  1
  Al  Al15  1  0.159934  0.319869  0.923996  1
  Al  Al16  1  0.164015  0.838002  0.577293  1
  Al  Al17  1  0.320600  0.160821  0.075846  1
  Al  Al18  1  0.835985  0.161998  0.422707  1
  Al  Al19  1  0.679400  0.839179  0.924154  1
  Al  Al20  1  0.840221  0.160821  0.075846  1
  Al  Al21  1  0.159779  0.839179  0.924154  1
  Al  Al22  1  0.562017  0.124034  0.250824  1
  Al  Al23  1  0.437983  0.875966  0.749176  1
  Al  Al24  1  0.874864  0.437970  0.249235  1
  Al  Al25  1  0.125136  0.562030  0.750765  1
  Al  Al26  1  0.563106  0.437970  0.249235  1
  Al  Al27  1  0.436894  0.562030  0.750765  1
  Al  Al28  1  0.000740  0.001482  0.243916  1
  Al  Al29  1  0.999260  0.998518  0.756084  1
  Fe  Fe30  1  0.000000  0.000000  0.000000  1
  Ir  Ir31  1  0.500000  0.000000  0.000000  1
  Ir  Ir32  1  0.000000  0.500000  0.000000  1
  Ir  Ir33  1  0.500000  0.500000  0.000000  1
  Ir  Ir34  1  0.000000  0.500000  0.500000  1
  Ir  Ir35  1  0.500000  0.500000  0.500000  1
  Ru  Ru36  1  0.500000  0.000000  0.500000  1
  Ru  Ru37  1  0.000000  0.000000  0.500000  1
