# generated using pymatgen
data_Ho4Lu4Tc3OsC8
_symmetry_space_group_name_H-M   'P 1'
_cell_length_a   5.02601200
_cell_length_b   6.50182232
_cell_length_c   9.70868701
_cell_angle_alpha   89.84546604
_cell_angle_beta   90.00000000
_cell_angle_gamma   90.00000000
_symmetry_Int_Tables_number   1
_chemical_formula_structural   Ho4Lu4Tc3OsC8
_chemical_formula_sum   'Ho4 Lu4 Tc3 Os1 C8'
_cell_volume   317.26162112
_cell_formula_units_Z   1
loop_
 _symmetry_equiv_pos_site_id
 _symmetry_equiv_pos_as_xyz
  1  'x, y, z'
loop_
 _atom_site_type_symbol
 _atom_site_label
 _atom_site_symmetry_multiplicity
 _atom_site_fract_x
 _atom_site_fract_y
 _atom_site_fract_z
 _atom_site_occupancy
  Ho  Ho0  1  0.250000  0.531956  0.214516  1
  Ho  Ho1  1  0.750000  0.465845  0.785127  1
  Ho  Ho2  1  0.750000  0.968160  0.712837  1
  Ho  Ho3  1  0.250000  0.031686  0.285290  1
  Lu  Lu4  1  0.250000  0.673696  0.558250  1
  Lu  Lu5  1  0.750000  0.325657  0.441460  1
  Lu  Lu6  1  0.750000  0.826370  0.058590  1
  Lu  Lu7  1  0.250000  0.173153  0.941731  1
  Tc  Tc8  1  0.250000  0.718961  0.867533  1
  Tc  Tc9  1  0.750000  0.281430  0.131703  1
  Tc  Tc10  1  0.750000  0.780670  0.368170  1
  Os  Os11  1  0.250000  0.219157  0.632526  1
  C  C12  1  0.250000  0.451089  0.759403  1
  C  C13  1  0.750000  0.549783  0.240435  1
  C  C14  1  0.750000  0.049612  0.260384  1
  C  C15  1  0.250000  0.952026  0.740656  1
  C  C16  1  0.250000  0.827703  0.052130  1
  C  C17  1  0.750000  0.172288  0.947324  1
  C  C18  1  0.750000  0.672361  0.553451  1
  C  C19  1  0.250000  0.328397  0.448484  1
