# generated using pymatgen
data_Na3Li2TiP3
_symmetry_space_group_name_H-M   'P 1'
_cell_length_a   9.48217338
_cell_length_b   9.48217373
_cell_length_c   13.35322800
_cell_angle_alpha   90.00000000
_cell_angle_beta   90.00000000
_cell_angle_gamma   143.37615209
_symmetry_Int_Tables_number   1
_chemical_formula_structural   Na3Li2TiP3
_chemical_formula_sum   'Na12 Li8 Ti4 P12'
_cell_volume   716.23485012
_cell_formula_units_Z   4
loop_
 _symmetry_equiv_pos_site_id
 _symmetry_equiv_pos_as_xyz
  1  'x, y, z'
loop_
 _atom_site_type_symbol
 _atom_site_label
 _atom_site_symmetry_multiplicity
 _atom_site_fract_x
 _atom_site_fract_y
 _atom_site_fract_z
 _atom_site_occupancy
  Na  Na0  1  0.100555  0.443086  0.676701  1
  Na  Na1  1  0.728110  0.728110  0.678442  1
  Na  Na2  1  0.228110  0.228110  0.821558  1
  Na  Na3  1  0.771890  0.771890  0.178442  1
  Na  Na4  1  0.943086  0.600555  0.823299  1
  Na  Na5  1  0.556914  0.899445  0.323299  1
  Na  Na6  1  0.399445  0.056914  0.176701  1
  Na  Na7  1  0.056914  0.399445  0.176701  1
  Na  Na8  1  0.899445  0.556914  0.323299  1
  Na  Na9  1  0.443086  0.100555  0.676701  1
  Na  Na10  1  0.600555  0.943087  0.823299  1
  Na  Na11  1  0.271890  0.271890  0.321558  1
  Li  Li12  1  0.917358  0.082642  0.000000  1
  Li  Li13  1  0.582642  0.417358  0.500000  1
  Li  Li14  1  0.082642  0.917358  0.000000  1
  Li  Li15  1  0.417358  0.582642  0.500000  1
  Li  Li16  1  0.753660  0.246340  0.000000  1
  Li  Li17  1  0.746340  0.253660  0.500000  1
  Li  Li18  1  0.246340  0.753660  0.000000  1
  Li  Li19  1  0.253660  0.746340  0.500000  1
  Ti  Ti20  1  0.087936  0.912064  0.500000  1
  Ti  Ti21  1  0.412064  0.587936  0.000000  1
  Ti  Ti22  1  0.912064  0.087936  0.500000  1
  Ti  Ti23  1  0.587936  0.412064  0.000000  1
  P  P24  1  0.890867  0.567233  0.103719  1
  P  P25  1  0.432767  0.109133  0.896281  1
  P  P26  1  0.609133  0.932767  0.603719  1
  P  P27  1  0.932767  0.609133  0.603719  1
  P  P28  1  0.109133  0.432767  0.896281  1
  P  P29  1  0.567233  0.890867  0.103719  1
  P  P30  1  0.390867  0.067233  0.396281  1
  P  P31  1  0.223851  0.223851  0.596701  1
  P  P32  1  0.723851  0.723851  0.903299  1
  P  P33  1  0.276149  0.276149  0.096701  1
  P  P34  1  0.067233  0.390867  0.396281  1
  P  P35  1  0.776149  0.776149  0.403299  1
