# generated using pymatgen
data_Ce2RhN2
_symmetry_space_group_name_H-M   'P 1'
_cell_length_a   3.55387400
_cell_length_b   3.55379200
_cell_length_c   12.58216100
_cell_angle_alpha   90.00000000
_cell_angle_beta   90.00000000
_cell_angle_gamma   90.00000000
_symmetry_Int_Tables_number   1
_chemical_formula_structural   Ce2RhN2
_chemical_formula_sum   'Ce4 Rh2 N4'
_cell_volume   158.90928354
_cell_formula_units_Z   2
loop_
 _symmetry_equiv_pos_site_id
 _symmetry_equiv_pos_as_xyz
  1  'x, y, z'
loop_
 _atom_site_type_symbol
 _atom_site_label
 _atom_site_symmetry_multiplicity
 _atom_site_fract_x
 _atom_site_fract_y
 _atom_site_fract_z
 _atom_site_occupancy
  Ce  Ce0  1  0.750000  0.749636  0.101438  1
  Ce  Ce1  1  0.750000  0.749636  0.398562  1
  Ce  Ce2  1  0.250000  0.250364  0.898562  1
  Ce  Ce3  1  0.250000  0.250364  0.601438  1
  Rh  Rh4  1  0.750000  0.750450  0.750000  1
  Rh  Rh5  1  0.250000  0.249550  0.250000  1
  N  N6  1  0.750000  0.750789  0.583002  1
  N  N7  1  0.750000  0.750789  0.916998  1
  N  N8  1  0.250000  0.249211  0.416998  1
  N  N9  1  0.250000  0.249211  0.083002  1
