# generated using pymatgen
data_Tb10Y6CdAg(HgPt2)2
_symmetry_space_group_name_H-M   'P 1'
_cell_length_a   9.70801344
_cell_length_b   9.70801306
_cell_length_c   9.70433800
_cell_angle_alpha   60.01252185
_cell_angle_beta   60.01252315
_cell_angle_gamma   60.07184278
_symmetry_Int_Tables_number   1
_chemical_formula_structural   Tb10Y6CdAg(HgPt2)2
_chemical_formula_sum   'Tb10 Y6 Cd1 Ag1 Hg2 Pt4'
_cell_volume   647.18605257
_cell_formula_units_Z   1
loop_
 _symmetry_equiv_pos_site_id
 _symmetry_equiv_pos_as_xyz
  1  'x, y, z'
loop_
 _atom_site_type_symbol
 _atom_site_label
 _atom_site_symmetry_multiplicity
 _atom_site_fract_x
 _atom_site_fract_y
 _atom_site_fract_z
 _atom_site_occupancy
  Tb  Tb0  1  0.352807  0.352816  0.350903  1
  Tb  Tb1  1  0.352807  0.352816  0.943472  1
  Tb  Tb2  1  0.356400  0.936517  0.353542  1
  Tb  Tb3  1  0.934176  0.356447  0.354688  1
  Tb  Tb4  1  0.810553  0.190360  0.190494  1
  Tb  Tb5  1  0.190243  0.810236  0.808756  1
  Tb  Tb6  1  0.190243  0.810236  0.190765  1
  Tb  Tb7  1  0.810553  0.190360  0.808594  1
  Tb  Tb8  1  0.190744  0.190744  0.809256  1
  Tb  Tb9  1  0.809123  0.809244  0.190817  1
  Y  Y10  1  0.935566  0.564161  0.564403  1
  Y  Y11  1  0.563248  0.938720  0.933686  1
  Y  Y12  1  0.563248  0.938720  0.564346  1
  Y  Y13  1  0.935566  0.564161  0.935870  1
  Y  Y14  1  0.563898  0.564913  0.935594  1
  Y  Y15  1  0.934195  0.938907  0.563449  1
  Cd  Cd16  1  0.256709  0.577961  0.582666  1
  Ag  Ag17  1  0.581857  0.247287  0.585428  1
  Hg  Hg18  1  0.585048  0.583752  0.589111  1
  Hg  Hg19  1  0.585048  0.583752  0.242090  1
  Pt  Pt20  1  0.143108  0.143185  0.146478  1
  Pt  Pt21  1  0.143108  0.143185  0.567228  1
  Pt  Pt22  1  0.141650  0.569766  0.144293  1
  Pt  Pt23  1  0.570103  0.141756  0.144072  1
