# generated using pymatgen
data_Li2TbNdSi2Ge
_symmetry_space_group_name_H-M   'P 1'
_cell_length_a   9.42917028
_cell_length_b   9.42917144
_cell_length_c   6.84634600
_cell_angle_alpha   90.00000000
_cell_angle_beta   90.00000000
_cell_angle_gamma   153.45289634
_symmetry_Int_Tables_number   1
_chemical_formula_structural   Li2TbNdSi2Ge
_chemical_formula_sum   'Li4 Tb2 Nd2 Si4 Ge2'
_cell_volume   272.04995992
_cell_formula_units_Z   2
loop_
 _symmetry_equiv_pos_site_id
 _symmetry_equiv_pos_as_xyz
  1  'x, y, z'
loop_
 _atom_site_type_symbol
 _atom_site_label
 _atom_site_symmetry_multiplicity
 _atom_site_fract_x
 _atom_site_fract_y
 _atom_site_fract_z
 _atom_site_occupancy
  Li  Li0  1  0.189322  0.810678  0.059027  1
  Li  Li1  1  0.189322  0.810678  0.440973  1
  Li  Li2  1  0.810678  0.189322  0.940973  1
  Li  Li3  1  0.810678  0.189322  0.559027  1
  Tb  Tb4  1  0.345327  0.654673  0.250000  1
  Tb  Tb5  1  0.654673  0.345327  0.750000  1
  Nd  Nd6  1  0.553038  0.446962  0.250000  1
  Nd  Nd7  1  0.446962  0.553038  0.750000  1
  Si  Si8  1  0.058736  0.941264  0.924297  1
  Si  Si9  1  0.941264  0.058736  0.075703  1
  Si  Si10  1  0.941264  0.058736  0.424297  1
  Si  Si11  1  0.058736  0.941264  0.575703  1
  Ge  Ge12  1  0.722001  0.277999  0.250000  1
  Ge  Ge13  1  0.277999  0.722001  0.750000  1
