# generated using pymatgen
data_CaTbYb5DySb6
_symmetry_space_group_name_H-M   'P 1'
_cell_length_a   8.19479930
_cell_length_b   8.04920343
_cell_length_c   8.18744544
_cell_angle_alpha   70.88251079
_cell_angle_beta   70.17297721
_cell_angle_gamma   109.14026580
_symmetry_Int_Tables_number   1
_chemical_formula_structural   CaTbYb5DySb6
_chemical_formula_sum   'Ca1 Tb1 Yb5 Dy1 Sb6'
_cell_volume   417.39945034
_cell_formula_units_Z   1
loop_
 _symmetry_equiv_pos_site_id
 _symmetry_equiv_pos_as_xyz
  1  'x, y, z'
loop_
 _atom_site_type_symbol
 _atom_site_label
 _atom_site_symmetry_multiplicity
 _atom_site_fract_x
 _atom_site_fract_y
 _atom_site_fract_z
 _atom_site_occupancy
  Ca  Ca0  1  0.852151  0.998510  0.001577  1
  Tb  Tb1  1  0.000557  0.359509  0.498923  1
  Yb  Yb2  1  0.501252  0.498890  0.146121  1
  Yb  Yb3  1  0.645420  0.146056  0.353461  1
  Yb  Yb4  1  0.357960  0.001171  0.995756  1
  Yb  Yb5  1  0.495651  0.496643  0.646979  1
  Yb  Yb6  1  0.146825  0.643786  0.857554  1
  Dy  Dy7  1  0.000141  0.857397  0.499816  1
  Sb  Sb8  1  0.633499  0.878004  0.742671  1
  Sb  Sb9  1  0.876690  0.624255  0.256747  1
  Sb  Sb10  1  0.242940  0.121700  0.623139  1
  Sb  Sb11  1  0.757084  0.381657  0.866003  1
  Sb  Sb12  1  0.366330  0.747618  0.377304  1
  Sb  Sb13  1  0.123501  0.244806  0.133950  1
