# generated using pymatgen
data_Eu5InIr2
_symmetry_space_group_name_H-M   'P 1'
_cell_length_a   9.23230944
_cell_length_b   9.23230999
_cell_length_c   9.23230923
_cell_angle_alpha   128.38630432
_cell_angle_beta   128.38630851
_cell_angle_gamma   76.00005465
_symmetry_Int_Tables_number   1
_chemical_formula_structural   Eu5InIr2
_chemical_formula_sum   'Eu10 In2 Ir4'
_cell_volume   470.08626937
_cell_formula_units_Z   2
loop_
 _symmetry_equiv_pos_site_id
 _symmetry_equiv_pos_as_xyz
  1  'x, y, z'
loop_
 _atom_site_type_symbol
 _atom_site_label
 _atom_site_symmetry_multiplicity
 _atom_site_fract_x
 _atom_site_fract_y
 _atom_site_fract_z
 _atom_site_occupancy
  Eu  Eu0  1  0.500000  0.500000  0.000000  1
  Eu  Eu1  1  0.000000  0.000000  0.000000  1
  Eu  Eu2  1  0.535237  0.035237  0.828923  1
  Eu  Eu3  1  0.206315  0.706315  0.171077  1
  Eu  Eu4  1  0.035237  0.206315  0.500000  1
  Eu  Eu5  1  0.706315  0.535237  0.500000  1
  Eu  Eu6  1  0.464763  0.964763  0.171077  1
  Eu  Eu7  1  0.793685  0.293685  0.828923  1
  Eu  Eu8  1  0.964763  0.793685  0.500000  1
  Eu  Eu9  1  0.293685  0.464763  0.500000  1
  In  In10  1  0.250000  0.250000  0.000000  1
  In  In11  1  0.750000  0.750000  0.000000  1
  Ir  Ir12  1  0.133162  0.633162  0.766323  1
  Ir  Ir13  1  0.866838  0.366838  0.233677  1
  Ir  Ir14  1  0.633162  0.866838  0.500000  1
  Ir  Ir15  1  0.366838  0.133162  0.500000  1
