# generated using pymatgen
data_Ac5NdAl2SiSe14
_symmetry_space_group_name_H-M   'P 1'
_cell_length_a   11.01345529
_cell_length_b   10.89864674
_cell_length_c   6.33099858
_cell_angle_alpha   90.38837539
_cell_angle_beta   89.97367520
_cell_angle_gamma   120.22143889
_symmetry_Int_Tables_number   1
_chemical_formula_structural   Ac5NdAl2SiSe14
_chemical_formula_sum   'Ac5 Nd1 Al2 Si1 Se14'
_cell_volume   656.61848290
_cell_formula_units_Z   1
loop_
 _symmetry_equiv_pos_site_id
 _symmetry_equiv_pos_as_xyz
  1  'x, y, z'
loop_
 _atom_site_type_symbol
 _atom_site_label
 _atom_site_symmetry_multiplicity
 _atom_site_fract_x
 _atom_site_fract_y
 _atom_site_fract_z
 _atom_site_occupancy
  Ac  Ac0  1  0.895626  0.199022  0.525904  1
  Ac  Ac1  1  0.303002  0.105749  0.526474  1
  Ac  Ac2  1  0.525096  0.965112  0.039778  1
  Ac  Ac3  1  0.444882  0.479237  0.039053  1
  Ac  Ac4  1  0.033726  0.559897  0.040386  1
  Nd  Nd5  1  0.800641  0.696871  0.518455  1
  Al  Al6  1  0.668246  0.336886  0.315522  1
  Al  Al7  1  0.336222  0.667318  0.449718  1
  Si  Si8  1  0.996207  0.994972  0.943278  1
  Se  Se9  1  0.994953  0.991472  0.304391  1
  Se  Se10  1  0.331845  0.665402  0.823232  1
  Se  Se11  1  0.071961  0.850867  0.797905  1
  Se  Se12  1  0.775142  0.910569  0.801069  1
  Se  Se13  1  0.139418  0.220920  0.814365  1
  Se  Se14  1  0.246149  0.812573  0.312606  1
  Se  Se15  1  0.572656  0.759765  0.316968  1
  Se  Se16  1  0.189060  0.430650  0.310789  1
  Se  Se17  1  0.901358  0.488385  0.539276  1
  Se  Se18  1  0.580300  0.099928  0.536512  1
  Se  Se19  1  0.524295  0.428159  0.542962  1
  Se  Se20  1  0.435896  0.193147  0.077672  1
  Se  Se21  1  0.758658  0.567289  0.089632  1
  Se  Se22  1  0.807994  0.242474  0.076066  1
