# generated using pymatgen
data_UCoF34
_symmetry_space_group_name_H-M   'P 1'
_cell_length_a   8.86091607
_cell_length_b   8.36789513
_cell_length_c   10.22686437
_cell_angle_alpha   82.30618503
_cell_angle_beta   87.44345719
_cell_angle_gamma   66.30794025
_symmetry_Int_Tables_number   1
_chemical_formula_structural   UCoF34
_chemical_formula_sum   'U1 Co1 F34'
_cell_volume   688.09688550
_cell_formula_units_Z   1
loop_
 _symmetry_equiv_pos_site_id
 _symmetry_equiv_pos_as_xyz
  1  'x, y, z'
loop_
 _atom_site_type_symbol
 _atom_site_label
 _atom_site_symmetry_multiplicity
 _atom_site_fract_x
 _atom_site_fract_y
 _atom_site_fract_z
 _atom_site_occupancy
  U  U0  1  0.867936  0.249390  0.765286  1
  Co  Co1  1  0.134996  0.748412  0.245689  1
  F  F2  1  0.602799  0.213325  0.475538  1
  F  F3  1  0.391200  0.785351  0.516931  1
  F  F4  1  0.831055  0.734382  0.725639  1
  F  F5  1  0.170989  0.310326  0.290318  1
  F  F6  1  0.107291  0.734514  0.876085  1
  F  F7  1  0.923148  0.224809  0.146401  1
  F  F8  1  0.565487  0.143949  0.366733  1
  F  F9  1  0.437123  0.854323  0.622003  1
  F  F10  1  0.634560  0.336872  0.694319  1
  F  F11  1  0.337266  0.677212  0.304416  1
  F  F12  1  0.944343  0.053414  0.650362  1
  F  F13  1  0.070207  0.923825  0.340032  1
  F  F14  1  0.917799  0.401494  0.613980  1
  F  F15  1  0.091430  0.619775  0.379169  1
  F  F16  1  0.860091  0.776552  0.589900  1
  F  F17  1  0.158449  0.172927  0.382399  1
  F  F18  1  0.798841  0.448783  0.877366  1
  F  F19  1  0.197846  0.569940  0.153058  1
  F  F20  1  0.213155  0.693138  0.765586  1
  F  F21  1  0.779625  0.315865  0.218111  1
  F  F22  1  0.935034  0.818941  0.183529  1
  F  F23  1  0.098421  0.163642  0.840047  1
  F  F24  1  0.813178  0.093947  0.911741  1
  F  F25  1  0.179714  0.878549  0.113117  1
  F  F26  1  0.472493  0.593818  0.993746  1
  F  F27  1  0.505430  0.411180  0.006796  1
  F  F28  1  0.446140  0.102732  0.868193  1
  F  F29  1  0.531289  0.916769  0.128140  1
  F  F30  1  0.289870  0.249873  0.603406  1
  F  F31  1  0.702658  0.757631  0.375670  1
  F  F32  1  0.258811  0.402714  0.665598  1
  F  F33  1  0.745597  0.597708  0.320276  1
  F  F34  1  0.542420  0.931076  0.834581  1
  F  F35  1  0.443313  0.092842  0.155842  1
