# generated using pymatgen
data_AcPr3(Re2Si)8
_symmetry_space_group_name_H-M   'P 1'
_cell_length_a   4.18651000
_cell_length_b   7.39713089
_cell_length_c   15.63170814
_cell_angle_alpha   90.19805084
_cell_angle_beta   90.00000000
_cell_angle_gamma   90.00000000
_symmetry_Int_Tables_number   1
_chemical_formula_structural   AcPr3(Re2Si)8
_chemical_formula_sum   'Ac1 Pr3 Re16 Si8'
_cell_volume   484.08238494
_cell_formula_units_Z   1
loop_
 _symmetry_equiv_pos_site_id
 _symmetry_equiv_pos_as_xyz
  1  'x, y, z'
loop_
 _atom_site_type_symbol
 _atom_site_label
 _atom_site_symmetry_multiplicity
 _atom_site_fract_x
 _atom_site_fract_y
 _atom_site_fract_z
 _atom_site_occupancy
  Ac  Ac0  1  0.500000  0.922502  0.618033  1
  Pr  Pr1  1  0.000000  0.578783  0.118122  1
  Pr  Pr2  1  0.000000  0.421476  0.883186  1
  Pr  Pr3  1  0.500000  0.078956  0.380804  1
  Re  Re4  1  0.000000  0.136472  0.052539  1
  Re  Re5  1  0.000000  0.862937  0.948139  1
  Re  Re6  1  0.500000  0.636541  0.445684  1
  Re  Re7  1  0.500000  0.367921  0.551470  1
  Re  Re8  1  0.000000  0.730681  0.319161  1
  Re  Re9  1  0.000000  0.269736  0.680442  1
  Re  Re10  1  0.500000  0.231527  0.178985  1
  Re  Re11  1  0.500000  0.766247  0.822181  1
  Re  Re12  1  0.000000  0.434271  0.417228  1
  Re  Re13  1  0.000000  0.566167  0.580628  1
  Re  Re14  1  0.500000  0.933285  0.081773  1
  Re  Re15  1  0.500000  0.066425  0.918904  1
  Re  Re16  1  0.000000  0.990272  0.206018  1
  Re  Re17  1  0.000000  0.010302  0.795039  1
  Re  Re18  1  0.500000  0.490370  0.292751  1
  Re  Re19  1  0.500000  0.505553  0.707759  1
  Si  Si20  1  0.000000  0.821868  0.472268  1
  Si  Si21  1  0.000000  0.182040  0.523680  1
  Si  Si22  1  0.500000  0.324436  0.025165  1
  Si  Si23  1  0.500000  0.675312  0.975884  1
  Si  Si24  1  0.000000  0.292237  0.272726  1
  Si  Si25  1  0.000000  0.702028  0.729194  1
  Si  Si26  1  0.500000  0.792468  0.226186  1
  Si  Si27  1  0.500000  0.209185  0.776051  1
