# generated using pymatgen
data_Ta2Cr2FeIr
_symmetry_space_group_name_H-M   'P 1'
_cell_length_a   4.82973071
_cell_length_b   4.90784350
_cell_length_c   8.26537100
_cell_angle_alpha   90.00000000
_cell_angle_beta   90.00000000
_cell_angle_gamma   120.53647436
_symmetry_Int_Tables_number   1
_chemical_formula_structural   Ta2Cr2FeIr
_chemical_formula_sum   'Ta4 Cr4 Fe2 Ir2'
_cell_volume   168.74596229
_cell_formula_units_Z   2
loop_
 _symmetry_equiv_pos_site_id
 _symmetry_equiv_pos_as_xyz
  1  'x, y, z'
loop_
 _atom_site_type_symbol
 _atom_site_label
 _atom_site_symmetry_multiplicity
 _atom_site_fract_x
 _atom_site_fract_y
 _atom_site_fract_z
 _atom_site_occupancy
  Ta  Ta0  1  0.329033  0.664517  0.433893  1
  Ta  Ta1  1  0.667227  0.333613  0.930878  1
  Ta  Ta2  1  0.667227  0.333613  0.569122  1
  Ta  Ta3  1  0.329033  0.664517  0.066107  1
  Cr  Cr4  1  0.353646  0.176824  0.250000  1
  Cr  Cr5  1  0.821152  0.649142  0.250000  1
  Cr  Cr6  1  0.640967  0.820483  0.750000  1
  Cr  Cr7  1  0.821152  0.172011  0.250000  1
  Fe  Fe8  1  0.184814  0.354998  0.750000  1
  Fe  Fe9  1  0.184814  0.829816  0.750000  1
  Ir  Ir10  1  0.000467  0.000233  0.994417  1
  Ir  Ir11  1  0.000467  0.000233  0.505583  1
