# generated using pymatgen
data_CeDy15Cd3Co4Hg
_symmetry_space_group_name_H-M   'P 1'
_cell_length_a   9.47077907
_cell_length_b   9.50675882
_cell_length_c   9.47077900
_cell_angle_alpha   60.12511321
_cell_angle_beta   59.99999675
_cell_angle_gamma   60.12511629
_symmetry_Int_Tables_number   1
_chemical_formula_structural   CeDy15Cd3Co4Hg
_chemical_formula_sum   'Ce1 Dy15 Cd3 Co4 Hg1'
_cell_volume   604.09826848
_cell_formula_units_Z   1
loop_
 _symmetry_equiv_pos_site_id
 _symmetry_equiv_pos_as_xyz
  1  'x, y, z'
loop_
 _atom_site_type_symbol
 _atom_site_label
 _atom_site_symmetry_multiplicity
 _atom_site_fract_x
 _atom_site_fract_y
 _atom_site_fract_z
 _atom_site_occupancy
  Ce  Ce0  1  0.160109  0.519674  0.160109  1
  Dy  Dy1  1  0.687516  0.313761  0.687516  1
  Dy  Dy2  1  0.687516  0.313761  0.311209  1
  Dy  Dy3  1  0.937988  0.561288  0.562736  1
  Dy  Dy4  1  0.543516  0.150720  0.152882  1
  Dy  Dy5  1  0.152882  0.150720  0.543516  1
  Dy  Dy6  1  0.936681  0.936577  0.563371  1
  Dy  Dy7  1  0.312113  0.689310  0.312113  1
  Dy  Dy8  1  0.563371  0.936577  0.936681  1
  Dy  Dy9  1  0.563371  0.936577  0.563371  1
  Dy  Dy10  1  0.686463  0.689310  0.312113  1
  Dy  Dy11  1  0.562736  0.561288  0.937988  1
  Dy  Dy12  1  0.937988  0.561288  0.937988  1
  Dy  Dy13  1  0.312113  0.689310  0.686463  1
  Dy  Dy14  1  0.152882  0.150720  0.152882  1
  Dy  Dy15  1  0.311209  0.313761  0.687516  1
  Cd  Cd16  1  0.920769  0.917335  0.920769  1
  Cd  Cd17  1  0.920769  0.917335  0.241127  1
  Cd  Cd18  1  0.241127  0.917335  0.920769  1
  Co  Co19  1  0.352173  0.366635  0.929019  1
  Co  Co20  1  0.358542  0.924375  0.358542  1
  Co  Co21  1  0.929019  0.366635  0.352173  1
  Co  Co22  1  0.352173  0.366635  0.352173  1
  Hg  Hg23  1  0.916977  0.249068  0.916977  1
