# generated using pymatgen
data_Ho4SiTc7
_symmetry_space_group_name_H-M   'P 1'
_cell_length_a   5.31774400
_cell_length_b   5.31774316
_cell_length_c   8.88779900
_cell_angle_alpha   90.00000000
_cell_angle_beta   90.00000000
_cell_angle_gamma   119.99999280
_symmetry_Int_Tables_number   1
_chemical_formula_structural   Ho4SiTc7
_chemical_formula_sum   'Ho4 Si1 Tc7'
_cell_volume   217.66052448
_cell_formula_units_Z   1
loop_
 _symmetry_equiv_pos_site_id
 _symmetry_equiv_pos_as_xyz
  1  'x, y, z'
loop_
 _atom_site_type_symbol
 _atom_site_label
 _atom_site_symmetry_multiplicity
 _atom_site_fract_x
 _atom_site_fract_y
 _atom_site_fract_z
 _atom_site_occupancy
  Ho  Ho0  1  0.333333  0.666667  0.434974  1
  Ho  Ho1  1  0.666667  0.333333  0.565026  1
  Ho  Ho2  1  0.666667  0.333333  0.934641  1
  Ho  Ho3  1  0.333333  0.666667  0.065359  1
  Si  Si4  1  0.000000  0.000000  0.500000  1
  Tc  Tc5  1  0.000000  0.000000  0.000000  1
  Tc  Tc6  1  0.829940  0.170060  0.254389  1
  Tc  Tc7  1  0.829940  0.659880  0.254389  1
  Tc  Tc8  1  0.340120  0.170060  0.254389  1
  Tc  Tc9  1  0.170060  0.829940  0.745611  1
  Tc  Tc10  1  0.170060  0.340120  0.745611  1
  Tc  Tc11  1  0.659880  0.829940  0.745611  1
