# generated using pymatgen
data_Tb15Er(InPt)4
_symmetry_space_group_name_H-M   'P 1'
_cell_length_a   9.76588664
_cell_length_b   9.76588598
_cell_length_c   9.76499700
_cell_angle_alpha   60.00301456
_cell_angle_beta   60.00301679
_cell_angle_gamma   60.00584287
_symmetry_Int_Tables_number   1
_chemical_formula_structural   Tb15Er(InPt)4
_chemical_formula_sum   'Tb15 Er1 In4 Pt4'
_cell_volume   658.59649390
_cell_formula_units_Z   1
loop_
 _symmetry_equiv_pos_site_id
 _symmetry_equiv_pos_as_xyz
  1  'x, y, z'
loop_
 _atom_site_type_symbol
 _atom_site_label
 _atom_site_symmetry_multiplicity
 _atom_site_fract_x
 _atom_site_fract_y
 _atom_site_fract_z
 _atom_site_occupancy
  Tb  Tb0  1  0.808949  0.189880  0.810171  1
  Tb  Tb1  1  0.190759  0.190759  0.809241  1
  Tb  Tb2  1  0.649893  0.052143  0.648981  1
  Tb  Tb3  1  0.062561  0.062561  0.437439  1
  Tb  Tb4  1  0.437049  0.437049  0.062951  1
  Tb  Tb5  1  0.649819  0.649819  0.648571  1
  Tb  Tb6  1  0.808949  0.189880  0.191000  1
  Tb  Tb7  1  0.189880  0.808949  0.810171  1
  Tb  Tb8  1  0.052143  0.649893  0.648981  1
  Tb  Tb9  1  0.437792  0.062795  0.062565  1
  Tb  Tb10  1  0.437792  0.062795  0.436849  1
  Tb  Tb11  1  0.062795  0.437792  0.062565  1
  Tb  Tb12  1  0.649819  0.649819  0.051790  1
  Tb  Tb13  1  0.189880  0.808949  0.191000  1
  Tb  Tb14  1  0.062795  0.437792  0.436849  1
  Er  Er15  1  0.809491  0.809491  0.190509  1
  In  In16  1  0.417061  0.417061  0.416848  1
  In  In17  1  0.417061  0.417061  0.749028  1
  In  In18  1  0.417470  0.747908  0.417311  1
  In  In19  1  0.747908  0.417470  0.417311  1
  Pt  Pt20  1  0.857627  0.428427  0.856973  1
  Pt  Pt21  1  0.857038  0.857038  0.858384  1
  Pt  Pt22  1  0.857038  0.857038  0.427540  1
  Pt  Pt23  1  0.428427  0.857627  0.856973  1
