# generated using pymatgen
data_Ho17Mg(ZrIr6)2
_symmetry_space_group_name_H-M   'P 1'
_cell_length_a   10.79289000
_cell_length_b   10.79289000
_cell_length_c   6.25344200
_cell_angle_alpha   90.00000000
_cell_angle_beta   90.00000000
_cell_angle_gamma   90.00000000
_symmetry_Int_Tables_number   1
_chemical_formula_structural   Ho17Mg(ZrIr6)2
_chemical_formula_sum   'Ho17 Mg1 Zr2 Ir12'
_cell_volume   728.44141240
_cell_formula_units_Z   1
loop_
 _symmetry_equiv_pos_site_id
 _symmetry_equiv_pos_as_xyz
  1  'x, y, z'
loop_
 _atom_site_type_symbol
 _atom_site_label
 _atom_site_symmetry_multiplicity
 _atom_site_fract_x
 _atom_site_fract_y
 _atom_site_fract_z
 _atom_site_occupancy
  Ho  Ho0  1  0.284963  0.083767  0.377478  1
  Ho  Ho1  1  0.291945  0.911961  0.877797  1
  Ho  Ho2  1  0.708055  0.088039  0.877797  1
  Ho  Ho3  1  0.715037  0.916233  0.377478  1
  Ho  Ho4  1  0.587732  0.789431  0.876772  1
  Ho  Ho5  1  0.585512  0.210360  0.375212  1
  Ho  Ho6  1  0.414488  0.789640  0.375212  1
  Ho  Ho7  1  0.412268  0.210569  0.876772  1
  Ho  Ho8  1  0.210360  0.414488  0.624788  1
  Ho  Ho9  1  0.210569  0.587732  0.123228  1
  Ho  Ho10  1  0.789431  0.412268  0.123228  1
  Ho  Ho11  1  0.789640  0.585512  0.624788  1
  Ho  Ho12  1  0.911961  0.708055  0.122203  1
  Ho  Ho13  1  0.916233  0.284963  0.622522  1
  Ho  Ho14  1  0.083767  0.715037  0.622522  1
  Ho  Ho15  1  0.088039  0.291945  0.122203  1
  Ho  Ho16  1  0.000000  0.000000  0.000000  1
  Mg  Mg17  1  0.000000  0.000000  0.500000  1
  Zr  Zr18  1  0.500000  0.500000  0.000000  1
  Zr  Zr19  1  0.500000  0.500000  0.500000  1
  Ir  Ir20  1  0.845149  0.155743  0.247104  1
  Ir  Ir21  1  0.844257  0.845149  0.752896  1
  Ir  Ir22  1  0.155743  0.154851  0.752896  1
  Ir  Ir23  1  0.154851  0.844257  0.247104  1
  Ir  Ir24  1  0.644480  0.355379  0.748636  1
  Ir  Ir25  1  0.644621  0.644480  0.251364  1
  Ir  Ir26  1  0.355379  0.355520  0.251364  1
  Ir  Ir27  1  0.355520  0.644621  0.748636  1
  Ir  Ir28  1  0.500000  0.000000  0.125210  1
  Ir  Ir29  1  0.500000  0.000000  0.621768  1
  Ir  Ir30  1  0.000000  0.500000  0.874790  1
  Ir  Ir31  1  0.000000  0.500000  0.378232  1
