# generated using pymatgen
data_TbCe(Tc2P)4
_symmetry_space_group_name_H-M   'P 1'
_cell_length_a   7.45687825
_cell_length_b   7.45687825
_cell_length_c   3.94151500
_cell_angle_alpha   90.00000000
_cell_angle_beta   90.00000000
_cell_angle_gamma   90.61745827
_symmetry_Int_Tables_number   1
_chemical_formula_structural   TbCe(Tc2P)4
_chemical_formula_sum   'Tb1 Ce1 Tc8 P4'
_cell_volume   219.15534607
_cell_formula_units_Z   1
loop_
 _symmetry_equiv_pos_site_id
 _symmetry_equiv_pos_as_xyz
  1  'x, y, z'
loop_
 _atom_site_type_symbol
 _atom_site_label
 _atom_site_symmetry_multiplicity
 _atom_site_fract_x
 _atom_site_fract_y
 _atom_site_fract_z
 _atom_site_occupancy
  Tb  Tb0  1  0.500000  0.500000  0.000000  1
  Ce  Ce1  1  0.000000  0.000000  0.500000  1
  Tc  Tc2  1  0.083132  0.340233  0.000000  1
  Tc  Tc3  1  0.839528  0.419353  0.500000  1
  Tc  Tc4  1  0.160472  0.580647  0.500000  1
  Tc  Tc5  1  0.916868  0.659767  0.000000  1
  Tc  Tc6  1  0.419353  0.839528  0.500000  1
  Tc  Tc7  1  0.580647  0.160472  0.500000  1
  Tc  Tc8  1  0.340233  0.083132  0.000000  1
  Tc  Tc9  1  0.659767  0.916868  0.000000  1
  P  P10  1  0.784395  0.215605  0.000000  1
  P  P11  1  0.710539  0.710539  0.500000  1
  P  P12  1  0.289461  0.289461  0.500000  1
  P  P13  1  0.215605  0.784395  0.000000  1
