# generated using pymatgen
data_Zr6Nb4Al12Ir6Ru
_symmetry_space_group_name_H-M   'P 1'
_cell_length_a   8.85989153
_cell_length_b   8.85989224
_cell_length_c   8.85989200
_cell_angle_alpha   60.00000089
_cell_angle_beta   59.99999823
_cell_angle_gamma   60.00000364
_symmetry_Int_Tables_number   1
_chemical_formula_structural   Zr6Nb4Al12Ir6Ru
_chemical_formula_sum   'Zr6 Nb4 Al12 Ir6 Ru1'
_cell_volume   491.77934437
_cell_formula_units_Z   1
loop_
 _symmetry_equiv_pos_site_id
 _symmetry_equiv_pos_as_xyz
  1  'x, y, z'
loop_
 _atom_site_type_symbol
 _atom_site_label
 _atom_site_symmetry_multiplicity
 _atom_site_fract_x
 _atom_site_fract_y
 _atom_site_fract_z
 _atom_site_occupancy
  Zr  Zr0  1  0.690279  0.690279  0.309721  1
  Zr  Zr1  1  0.309721  0.690279  0.309721  1
  Zr  Zr2  1  0.690279  0.309721  0.309721  1
  Zr  Zr3  1  0.309721  0.309721  0.690279  1
  Zr  Zr4  1  0.690279  0.309721  0.690279  1
  Zr  Zr5  1  0.309721  0.690279  0.690279  1
  Nb  Nb6  1  0.879943  0.879943  0.360170  1
  Nb  Nb7  1  0.879943  0.360170  0.879943  1
  Nb  Nb8  1  0.360170  0.879943  0.879943  1
  Nb  Nb9  1  0.879943  0.879943  0.879943  1
  Al  Al10  1  0.121590  0.121590  0.635230  1
  Al  Al11  1  0.121590  0.635230  0.121590  1
  Al  Al12  1  0.635230  0.121590  0.121590  1
  Al  Al13  1  0.121590  0.121590  0.121590  1
  Al  Al14  1  0.659601  0.659601  0.021196  1
  Al  Al15  1  0.659601  0.021196  0.659601  1
  Al  Al16  1  0.021196  0.659601  0.659601  1
  Al  Al17  1  0.659601  0.659601  0.659601  1
  Al  Al18  1  0.338308  0.338308  0.985079  1
  Al  Al19  1  0.338308  0.985079  0.338308  1
  Al  Al20  1  0.985079  0.338308  0.338308  1
  Al  Al21  1  0.338308  0.338308  0.338308  1
  Ir  Ir22  1  0.997347  0.997347  0.502653  1
  Ir  Ir23  1  0.502653  0.997347  0.502653  1
  Ir  Ir24  1  0.997347  0.502653  0.502653  1
  Ir  Ir25  1  0.502653  0.502653  0.997347  1
  Ir  Ir26  1  0.997347  0.502653  0.997347  1
  Ir  Ir27  1  0.502653  0.997347  0.997347  1
  Ru  Ru28  1  0.000000  0.000000  0.000000  1
