# generated using pymatgen
data_ErNp3(B4Ir)4
_symmetry_space_group_name_H-M   'P 1'
_cell_length_a   3.51323100
_cell_length_b   6.01030714
_cell_length_c   11.66021401
_cell_angle_alpha   90.07959367
_cell_angle_beta   90.00000000
_cell_angle_gamma   90.00000000
_symmetry_Int_Tables_number   1
_chemical_formula_structural   ErNp3(B4Ir)4
_chemical_formula_sum   'Er1 Np3 B16 Ir4'
_cell_volume   246.21214644
_cell_formula_units_Z   1
loop_
 _symmetry_equiv_pos_site_id
 _symmetry_equiv_pos_as_xyz
  1  'x, y, z'
loop_
 _atom_site_type_symbol
 _atom_site_label
 _atom_site_symmetry_multiplicity
 _atom_site_fract_x
 _atom_site_fract_y
 _atom_site_fract_z
 _atom_site_occupancy
  Er  Er0  1  0.500000  0.870579  0.648921  1
  Np  Np1  1  0.500000  0.629157  0.149406  1
  Np  Np2  1  0.500000  0.370580  0.850498  1
  Np  Np3  1  0.500000  0.129117  0.350375  1
  B  B4  1  0.000000  0.972742  0.192191  1
  B  B5  1  0.000000  0.028006  0.807362  1
  B  B6  1  0.000000  0.474273  0.307899  1
  B  B7  1  0.000000  0.528739  0.691454  1
  B  B8  1  0.000000  0.788765  0.311318  1
  B  B9  1  0.000000  0.209124  0.688531  1
  B  B10  1  0.000000  0.290273  0.188395  1
  B  B11  1  0.000000  0.707700  0.812146  1
  B  B12  1  0.000000  0.866631  0.469555  1
  B  B13  1  0.000000  0.134805  0.531501  1
  B  B14  1  0.000000  0.366446  0.032259  1
  B  B15  1  0.000000  0.632691  0.967583  1
  B  B16  1  0.000000  0.883990  0.046782  1
  B  B17  1  0.000000  0.114495  0.952769  1
  B  B18  1  0.000000  0.385566  0.453338  1
  B  B19  1  0.000000  0.615064  0.547165  1
  Ir  Ir20  1  0.500000  0.644262  0.406978  1
  Ir  Ir21  1  0.500000  0.358043  0.595706  1
  Ir  Ir22  1  0.500000  0.140221  0.093931  1
  Ir  Ir23  1  0.500000  0.858729  0.903934  1
