# generated using pymatgen
data_Pr3Nd7(In2Ru3)2
_symmetry_space_group_name_H-M   'P 1'
_cell_length_a   8.75838190
_cell_length_b   8.75838163
_cell_length_c   8.75837905
_cell_angle_alpha   109.52274332
_cell_angle_beta   109.52273664
_cell_angle_gamma   109.52272949
_symmetry_Int_Tables_number   1
_chemical_formula_structural   Pr3Nd7(In2Ru3)2
_chemical_formula_sum   'Pr3 Nd7 In4 Ru6'
_cell_volume   516.20056523
_cell_formula_units_Z   1
loop_
 _symmetry_equiv_pos_site_id
 _symmetry_equiv_pos_as_xyz
  1  'x, y, z'
loop_
 _atom_site_type_symbol
 _atom_site_label
 _atom_site_symmetry_multiplicity
 _atom_site_fract_x
 _atom_site_fract_y
 _atom_site_fract_z
 _atom_site_occupancy
  Pr  Pr0  1  0.476470  0.156166  0.224183  1
  Pr  Pr1  1  0.156166  0.224183  0.476470  1
  Pr  Pr2  1  0.224183  0.476470  0.156166  1
  Nd  Nd3  1  0.408414  0.698577  0.905835  1
  Nd  Nd4  1  0.698577  0.905835  0.408414  1
  Nd  Nd5  1  0.905835  0.408414  0.698577  1
  Nd  Nd6  1  0.656614  0.089930  0.839397  1
  Nd  Nd7  1  0.089930  0.839397  0.656614  1
  Nd  Nd8  1  0.839397  0.656614  0.089930  1
  Nd  Nd9  1  0.614789  0.614789  0.614789  1
  In  In10  1  0.406678  0.314536  0.909377  1
  In  In11  1  0.314536  0.909377  0.406678  1
  In  In12  1  0.909377  0.406678  0.314536  1
  In  In13  1  0.999349  0.999349  0.999349  1
  Ru  Ru14  1  0.022761  0.158637  0.775276  1
  Ru  Ru15  1  0.158637  0.775276  0.022761  1
  Ru  Ru16  1  0.775276  0.022761  0.158637  1
  Ru  Ru17  1  0.660316  0.540020  0.292675  1
  Ru  Ru18  1  0.540020  0.292675  0.660316  1
  Ru  Ru19  1  0.292675  0.660316  0.540020  1
