# generated using pymatgen
data_Sc20Cd3Ni2Hg3
_symmetry_space_group_name_H-M   'P 1'
_cell_length_a   9.04468300
_cell_length_b   9.04468290
_cell_length_c   8.89677200
_cell_angle_alpha   90.00000000
_cell_angle_beta   90.00000000
_cell_angle_gamma   119.99998939
_symmetry_Int_Tables_number   1
_chemical_formula_structural   Sc20Cd3Ni2Hg3
_chemical_formula_sum   'Sc20 Cd3 Ni2 Hg3'
_cell_volume   630.30366847
_cell_formula_units_Z   1
loop_
 _symmetry_equiv_pos_site_id
 _symmetry_equiv_pos_as_xyz
  1  'x, y, z'
loop_
 _atom_site_type_symbol
 _atom_site_label
 _atom_site_symmetry_multiplicity
 _atom_site_fract_x
 _atom_site_fract_y
 _atom_site_fract_z
 _atom_site_occupancy
  Sc  Sc0  1  0.000000  0.000000  0.491200  1
  Sc  Sc1  1  0.000000  0.000000  0.008800  1
  Sc  Sc2  1  0.541681  0.458319  0.250000  1
  Sc  Sc3  1  0.541681  0.083361  0.250000  1
  Sc  Sc4  1  0.916639  0.458319  0.250000  1
  Sc  Sc5  1  0.457758  0.542242  0.750000  1
  Sc  Sc6  1  0.457758  0.915517  0.750000  1
  Sc  Sc7  1  0.084483  0.542242  0.750000  1
  Sc  Sc8  1  0.210149  0.789851  0.436701  1
  Sc  Sc9  1  0.210149  0.420299  0.436701  1
  Sc  Sc10  1  0.579701  0.789851  0.436701  1
  Sc  Sc11  1  0.789849  0.210151  0.563069  1
  Sc  Sc12  1  0.789849  0.579698  0.563069  1
  Sc  Sc13  1  0.420302  0.210151  0.563069  1
  Sc  Sc14  1  0.789849  0.210151  0.936931  1
  Sc  Sc15  1  0.789849  0.579698  0.936931  1
  Sc  Sc16  1  0.420302  0.210151  0.936931  1
  Sc  Sc17  1  0.210149  0.789851  0.063299  1
  Sc  Sc18  1  0.210149  0.420299  0.063299  1
  Sc  Sc19  1  0.579701  0.789851  0.063299  1
  Cd  Cd20  1  0.116066  0.883934  0.750000  1
  Cd  Cd21  1  0.116066  0.232132  0.750000  1
  Cd  Cd22  1  0.767868  0.883934  0.750000  1
  Ni  Ni23  1  0.333333  0.666667  0.250000  1
  Ni  Ni24  1  0.666667  0.333333  0.750000  1
  Hg  Hg25  1  0.877771  0.122229  0.250000  1
  Hg  Hg26  1  0.877771  0.755543  0.250000  1
  Hg  Hg27  1  0.244457  0.122229  0.250000  1
