# generated using pymatgen
data_Zr6AlZn22Cd
_symmetry_space_group_name_H-M   'P 1'
_cell_length_a   8.89225305
_cell_length_b   8.89223536
_cell_length_c   8.89223500
_cell_angle_alpha   60.00010179
_cell_angle_beta   60.00011550
_cell_angle_gamma   60.00012316
_symmetry_Int_Tables_number   1
_chemical_formula_structural   Zr6AlZn22Cd
_chemical_formula_sum   'Zr6 Al1 Zn22 Cd1'
_cell_volume   497.18705577
_cell_formula_units_Z   1
loop_
 _symmetry_equiv_pos_site_id
 _symmetry_equiv_pos_as_xyz
  1  'x, y, z'
loop_
 _atom_site_type_symbol
 _atom_site_label
 _atom_site_symmetry_multiplicity
 _atom_site_fract_x
 _atom_site_fract_y
 _atom_site_fract_z
 _atom_site_occupancy
  Zr  Zr0  1  0.726358  0.273629  0.273499  1
  Zr  Zr1  1  0.273642  0.726371  0.726501  1
  Zr  Zr2  1  0.273718  0.726466  0.273408  1
  Zr  Zr3  1  0.726282  0.273534  0.726592  1
  Zr  Zr4  1  0.273750  0.273401  0.726560  1
  Zr  Zr5  1  0.726250  0.726599  0.273440  1
  Al  Al6  1  0.500000  0.500000  0.500000  1
  Zn  Zn7  1  0.133640  0.133390  0.133235  1
  Zn  Zn8  1  0.866360  0.866610  0.866765  1
  Zn  Zn9  1  0.133588  0.133329  0.599628  1
  Zn  Zn10  1  0.133646  0.599688  0.133216  1
  Zn  Zn11  1  0.866412  0.866671  0.400372  1
  Zn  Zn12  1  0.866354  0.400312  0.866784  1
  Zn  Zn13  1  0.599813  0.133383  0.133298  1
  Zn  Zn14  1  0.400187  0.866617  0.866702  1
  Zn  Zn15  1  0.500000  0.000000  0.000000  1
  Zn  Zn16  1  0.000000  0.500000  0.500000  1
  Zn  Zn17  1  0.000000  0.500000  0.000000  1
  Zn  Zn18  1  0.500000  0.000000  0.500000  1
  Zn  Zn19  1  0.000000  0.000000  0.500000  1
  Zn  Zn20  1  0.500000  0.500000  0.000000  1
  Zn  Zn21  1  0.348633  0.348870  0.348972  1
  Zn  Zn22  1  0.651367  0.651130  0.651028  1
  Zn  Zn23  1  0.348725  0.348978  0.953401  1
  Zn  Zn24  1  0.348699  0.953464  0.349028  1
  Zn  Zn25  1  0.651275  0.651022  0.046599  1
  Zn  Zn26  1  0.651301  0.046536  0.650972  1
  Zn  Zn27  1  0.953615  0.348772  0.348903  1
  Zn  Zn28  1  0.046385  0.651228  0.651097  1
  Cd  Cd29  1  0.000000  0.000000  0.000000  1
