# generated using pymatgen
data_Pr(SbS2)3
_symmetry_space_group_name_H-M   'P 1'
_cell_length_a   3.91839600
_cell_length_b   11.90685461
_cell_length_c   11.70266202
_cell_angle_alpha   75.88926633
_cell_angle_beta   90.00000000
_cell_angle_gamma   90.00000000
_symmetry_Int_Tables_number   1
_chemical_formula_structural   Pr(SbS2)3
_chemical_formula_sum   'Pr2 Sb6 S12'
_cell_volume   529.52201618
_cell_formula_units_Z   2
loop_
 _symmetry_equiv_pos_site_id
 _symmetry_equiv_pos_as_xyz
  1  'x, y, z'
loop_
 _atom_site_type_symbol
 _atom_site_label
 _atom_site_symmetry_multiplicity
 _atom_site_fract_x
 _atom_site_fract_y
 _atom_site_fract_z
 _atom_site_occupancy
  Pr  Pr0  1  0.750000  0.533659  0.811551  1
  Pr  Pr1  1  0.250000  0.466341  0.188449  1
  Sb  Sb2  1  0.750000  0.208397  0.032768  1
  Sb  Sb3  1  0.250000  0.791603  0.967232  1
  Sb  Sb4  1  0.750000  0.928636  0.665326  1
  Sb  Sb5  1  0.250000  0.071364  0.334674  1
  Sb  Sb6  1  0.750000  0.652412  0.402688  1
  Sb  Sb7  1  0.250000  0.347588  0.597312  1
  S  S8  1  0.750000  0.945100  0.878885  1
  S  S9  1  0.250000  0.054900  0.121115  1
  S  S10  1  0.750000  0.302180  0.744552  1
  S  S11  1  0.250000  0.697820  0.255448  1
  S  S12  1  0.750000  0.928029  0.390946  1
  S  S13  1  0.250000  0.071971  0.609054  1
  S  S14  1  0.750000  0.447572  0.384483  1
  S  S15  1  0.250000  0.552428  0.615517  1
  S  S16  1  0.750000  0.274338  0.218836  1
  S  S17  1  0.250000  0.725662  0.781164  1
  S  S18  1  0.750000  0.610599  0.034793  1
  S  S19  1  0.250000  0.389401  0.965207  1
