# generated using pymatgen
data_La8TbYIr4
_symmetry_space_group_name_H-M   'P 1'
_cell_length_a   6.72963200
_cell_length_b   7.34438103
_cell_length_c   9.13859133
_cell_angle_alpha   95.81796720
_cell_angle_beta   111.60455468
_cell_angle_gamma   89.99999686
_symmetry_Int_Tables_number   1
_chemical_formula_structural   La8TbYIr4
_chemical_formula_sum   'La8 Tb1 Y1 Ir4'
_cell_volume   417.43989813
_cell_formula_units_Z   1
loop_
 _symmetry_equiv_pos_site_id
 _symmetry_equiv_pos_as_xyz
  1  'x, y, z'
loop_
 _atom_site_type_symbol
 _atom_site_label
 _atom_site_symmetry_multiplicity
 _atom_site_fract_x
 _atom_site_fract_y
 _atom_site_fract_z
 _atom_site_occupancy
  La  La0  1  0.983098  0.913569  0.181773  1
  La  La1  1  0.801324  0.586431  0.818227  1
  La  La2  1  0.017414  0.085640  0.818157  1
  La  La3  1  0.199258  0.414360  0.181843  1
  La  La4  1  0.640156  0.816255  0.424222  1
  La  La5  1  0.215934  0.683745  0.575778  1
  La  La6  1  0.358644  0.183478  0.575160  1
  La  La7  1  0.783485  0.316522  0.424840  1
  Tb  Tb8  1  0.566236  0.250000  0.000000  1
  Y  Y9  1  0.433435  0.750000  0.000000  1
  Ir  Ir10  1  0.811001  0.574647  0.213517  1
  Ir  Ir11  1  0.597484  0.925353  0.786483  1
  Ir  Ir12  1  0.189693  0.424511  0.786853  1
  Ir  Ir13  1  0.402840  0.075489  0.213147  1
