# generated using pymatgen
data_CaTh7Rh12
_symmetry_space_group_name_H-M   'P 1'
_cell_length_a   5.91363900
_cell_length_b   7.82711508
_cell_length_c   9.04752600
_cell_angle_alpha   90.85087610
_cell_angle_beta   90.00000000
_cell_angle_gamma   90.00000000
_symmetry_Int_Tables_number   1
_chemical_formula_structural   CaTh7Rh12
_chemical_formula_sum   'Ca1 Th7 Rh12'
_cell_volume   418.73424216
_cell_formula_units_Z   1
loop_
 _symmetry_equiv_pos_site_id
 _symmetry_equiv_pos_as_xyz
  1  'x, y, z'
loop_
 _atom_site_type_symbol
 _atom_site_label
 _atom_site_symmetry_multiplicity
 _atom_site_fract_x
 _atom_site_fract_y
 _atom_site_fract_z
 _atom_site_occupancy
  Ca  Ca0  1  0.250000  0.564503  0.901578  1
  Th  Th1  1  0.750000  0.900275  0.862365  1
  Th  Th2  1  0.750000  0.405319  0.645453  1
  Th  Th3  1  0.250000  0.098546  0.142396  1
  Th  Th4  1  0.250000  0.589219  0.352825  1
  Th  Th5  1  0.750000  0.928801  0.397566  1
  Th  Th6  1  0.750000  0.444420  0.082669  1
  Th  Th7  1  0.250000  0.069192  0.609902  1
  Rh  Rh8  1  0.750000  0.574550  0.363194  1
  Rh  Rh9  1  0.750000  0.097972  0.135490  1
  Rh  Rh10  1  0.250000  0.412528  0.624651  1
  Rh  Rh11  1  0.250000  0.911389  0.872184  1
  Rh  Rh12  1  0.997157  0.253989  0.381977  1
  Rh  Rh13  1  0.503733  0.766356  0.130367  1
  Rh  Rh14  1  0.496475  0.745363  0.616473  1
  Rh  Rh15  1  0.000693  0.235934  0.876047  1
  Rh  Rh16  1  0.003525  0.745363  0.616473  1
  Rh  Rh17  1  0.499307  0.235934  0.876047  1
  Rh  Rh18  1  0.502843  0.253989  0.381977  1
  Rh  Rh19  1  0.996267  0.766356  0.130367  1
