# generated using pymatgen
data_Tb4Ga18Ni2RuRh3
_symmetry_space_group_name_H-M   'P 1'
_cell_length_a   7.55355681
_cell_length_b   7.55355649
_cell_length_c   9.49798972
_cell_angle_alpha   90.05081125
_cell_angle_beta   90.05080943
_cell_angle_gamma   120.13702695
_symmetry_Int_Tables_number   1
_chemical_formula_structural   Tb4Ga18Ni2RuRh3
_chemical_formula_sum   'Tb4 Ga18 Ni2 Ru1 Rh3'
_cell_volume   468.66584272
_cell_formula_units_Z   1
loop_
 _symmetry_equiv_pos_site_id
 _symmetry_equiv_pos_as_xyz
  1  'x, y, z'
loop_
 _atom_site_type_symbol
 _atom_site_label
 _atom_site_symmetry_multiplicity
 _atom_site_fract_x
 _atom_site_fract_y
 _atom_site_fract_z
 _atom_site_occupancy
  Tb  Tb0  1  0.995682  0.663168  0.249434  1
  Tb  Tb1  1  0.003307  0.336108  0.750416  1
  Tb  Tb2  1  0.663892  0.996693  0.249584  1
  Tb  Tb3  1  0.336832  0.004318  0.750566  1
  Ga  Ga4  1  0.115444  0.115974  0.250015  1
  Ga  Ga5  1  0.884026  0.884556  0.749985  1
  Ga  Ga6  1  0.999314  0.329281  0.077068  1
  Ga  Ga7  1  0.999182  0.669752  0.922977  1
  Ga  Ga8  1  0.000226  0.671389  0.577937  1
  Ga  Ga9  1  0.328611  0.999774  0.422063  1
  Ga  Ga10  1  0.999966  0.328967  0.422375  1
  Ga  Ga11  1  0.671033  0.000034  0.577625  1
  Ga  Ga12  1  0.670719  0.000686  0.922932  1
  Ga  Ga13  1  0.330248  0.000818  0.077023  1
  Ga  Ga14  1  0.328785  0.329047  0.562775  1
  Ga  Ga15  1  0.670953  0.671215  0.437225  1
  Ga  Ga16  1  0.670682  0.669204  0.061440  1
  Ga  Ga17  1  0.330796  0.329318  0.938560  1
  Ga  Ga18  1  0.336428  0.543334  0.249783  1
  Ga  Ga19  1  0.663111  0.456024  0.751038  1
  Ga  Ga20  1  0.543976  0.336889  0.248962  1
  Ga  Ga21  1  0.456666  0.663572  0.750217  1
  Ni  Ni22  1  0.999682  0.000318  0.000000  1
  Ni  Ni23  1  0.000041  0.999959  0.500000  1
  Ru  Ru24  1  0.672148  0.327852  0.000000  1
  Rh  Rh25  1  0.328391  0.671609  0.000000  1
  Rh  Rh26  1  0.328684  0.671316  0.500000  1
  Rh  Rh27  1  0.671173  0.328827  0.500000  1
