# generated using pymatgen
data_Er5CoSeO12
_symmetry_space_group_name_H-M   'P 1'
_cell_length_a   6.74091483
_cell_length_b   6.74091603
_cell_length_c   7.12812166
_cell_angle_alpha   74.54015135
_cell_angle_beta   74.54014920
_cell_angle_gamma   50.22320328
_symmetry_Int_Tables_number   1
_chemical_formula_structural   Er5CoSeO12
_chemical_formula_sum   'Er5 Co1 Se1 O12'
_cell_volume   237.90091532
_cell_formula_units_Z   1
loop_
 _symmetry_equiv_pos_site_id
 _symmetry_equiv_pos_as_xyz
  1  'x, y, z'
loop_
 _atom_site_type_symbol
 _atom_site_label
 _atom_site_symmetry_multiplicity
 _atom_site_fract_x
 _atom_site_fract_y
 _atom_site_fract_z
 _atom_site_occupancy
  Er  Er0  1  0.289866  0.313886  0.358196  1
  Er  Er1  1  0.686114  0.710134  0.641804  1
  Er  Er2  1  0.304407  0.305929  0.835361  1
  Er  Er3  1  0.694071  0.695593  0.164639  1
  Er  Er4  1  0.991043  0.008957  0.500000  1
  Co  Co5  1  0.255142  0.744858  0.000000  1
  Se  Se6  1  0.765319  0.234681  0.000000  1
  O  O7  1  0.898902  0.410513  0.921009  1
  O  O8  1  0.428772  0.902097  0.920036  1
  O  O9  1  0.097903  0.571228  0.079964  1
  O  O10  1  0.589487  0.101098  0.078991  1
  O  O11  1  0.090593  0.602582  0.578603  1
  O  O12  1  0.594550  0.104715  0.570891  1
  O  O13  1  0.895285  0.405450  0.429109  1
  O  O14  1  0.397418  0.909407  0.421397  1
  O  O15  1  0.993728  0.006551  0.825201  1
  O  O16  1  0.993449  0.006272  0.174799  1
  O  O17  1  0.516929  0.482976  0.823699  1
  O  O18  1  0.517024  0.483071  0.176301  1
