# generated using pymatgen
data_Y16In4IrPt3
_symmetry_space_group_name_H-M   'P 1'
_cell_length_a   9.75393211
_cell_length_b   9.75393237
_cell_length_c   9.75393300
_cell_angle_alpha   59.99929096
_cell_angle_beta   59.99928933
_cell_angle_gamma   59.99929092
_symmetry_Int_Tables_number   1
_chemical_formula_structural   Y16In4IrPt3
_chemical_formula_sum   'Y16 In4 Ir1 Pt3'
_cell_volume   656.17133081
_cell_formula_units_Z   1
loop_
 _symmetry_equiv_pos_site_id
 _symmetry_equiv_pos_as_xyz
  1  'x, y, z'
loop_
 _atom_site_type_symbol
 _atom_site_label
 _atom_site_symmetry_multiplicity
 _atom_site_fract_x
 _atom_site_fract_y
 _atom_site_fract_z
 _atom_site_occupancy
  Y  Y0  1  0.808321  0.192277  0.808321  1
  Y  Y1  1  0.935923  0.562591  0.562591  1
  Y  Y2  1  0.562591  0.935923  0.562591  1
  Y  Y3  1  0.812451  0.190593  0.190593  1
  Y  Y4  1  0.190593  0.812451  0.190593  1
  Y  Y5  1  0.349528  0.948039  0.349528  1
  Y  Y6  1  0.938837  0.938837  0.559567  1
  Y  Y7  1  0.559567  0.938837  0.938837  1
  Y  Y8  1  0.192277  0.808321  0.808321  1
  Y  Y9  1  0.349528  0.349528  0.948039  1
  Y  Y10  1  0.562591  0.562591  0.935923  1
  Y  Y11  1  0.350818  0.350818  0.350818  1
  Y  Y12  1  0.190593  0.190593  0.812451  1
  Y  Y13  1  0.808321  0.808321  0.192277  1
  Y  Y14  1  0.938837  0.559567  0.938837  1
  Y  Y15  1  0.948039  0.349528  0.349528  1
  In  In16  1  0.584039  0.584039  0.584039  1
  In  In17  1  0.583208  0.250831  0.583208  1
  In  In18  1  0.583208  0.583208  0.250831  1
  In  In19  1  0.250831  0.583208  0.583208  1
  Ir  Ir20  1  0.142146  0.142146  0.142146  1
  Pt  Pt21  1  0.142088  0.142088  0.573583  1
  Pt  Pt22  1  0.573583  0.142088  0.142088  1
  Pt  Pt23  1  0.142088  0.573583  0.142088  1
