# generated using pymatgen
data_Eu3Si3P3Pd20
_symmetry_space_group_name_H-M   'P 1'
_cell_length_a   8.73033093
_cell_length_b   8.76860940
_cell_length_c   8.78630800
_cell_angle_alpha   59.64500038
_cell_angle_beta   60.07672505
_cell_angle_gamma   60.27825987
_symmetry_Int_Tables_number   1
_chemical_formula_structural   Eu3Si3P3Pd20
_chemical_formula_sum   'Eu3 Si3 P3 Pd20'
_cell_volume   475.58174135
_cell_formula_units_Z   1
loop_
 _symmetry_equiv_pos_site_id
 _symmetry_equiv_pos_as_xyz
  1  'x, y, z'
loop_
 _atom_site_type_symbol
 _atom_site_label
 _atom_site_symmetry_multiplicity
 _atom_site_fract_x
 _atom_site_fract_y
 _atom_site_fract_z
 _atom_site_occupancy
  Eu  Eu0  1  0.249267  0.250733  0.249267  1
  Eu  Eu1  1  0.749267  0.750733  0.749267  1
  Eu  Eu2  1  0.000830  0.999170  0.000830  1
  Si  Si3  1  0.733748  0.266252  0.264408  1
  Si  Si4  1  0.264408  0.735592  0.733748  1
  Si  Si5  1  0.266058  0.733942  0.266058  1
  P  P6  1  0.736065  0.263935  0.736065  1
  P  P7  1  0.263243  0.265435  0.734565  1
  P  P8  1  0.734565  0.736757  0.263243  1
  Pd  Pd9  1  0.384559  0.385562  0.387931  1
  Pd  Pd10  1  0.614985  0.612750  0.612171  1
  Pd  Pd11  1  0.387250  0.385015  0.839908  1
  Pd  Pd12  1  0.387931  0.841947  0.384559  1
  Pd  Pd13  1  0.614438  0.615441  0.158053  1
  Pd  Pd14  1  0.612171  0.160092  0.614985  1
  Pd  Pd15  1  0.839908  0.387829  0.387250  1
  Pd  Pd16  1  0.158053  0.612069  0.614438  1
  Pd  Pd17  1  0.346690  0.001592  0.998408  1
  Pd  Pd18  1  0.654178  0.000150  0.999850  1
  Pd  Pd19  1  0.999850  0.345822  0.654178  1
  Pd  Pd20  1  0.998408  0.653310  0.346690  1
  Pd  Pd21  1  0.003360  0.345800  0.999330  1
  Pd  Pd22  1  0.654200  0.996640  0.348492  1
  Pd  Pd23  1  0.999330  0.651508  0.003360  1
  Pd  Pd24  1  0.348492  0.000670  0.654200  1
  Pd  Pd25  1  0.000714  0.999286  0.347831  1
  Pd  Pd26  1  0.997820  0.002180  0.652382  1
  Pd  Pd27  1  0.652382  0.347618  0.997820  1
  Pd  Pd28  1  0.347831  0.652169  0.000714  1
