# generated using pymatgen
data_U2BeCoB8
_symmetry_space_group_name_H-M   'P 1'
_cell_length_a   6.69334442
_cell_length_b   6.69334225
_cell_length_c   6.69334688
_cell_angle_alpha   114.35828404
_cell_angle_beta   112.55945181
_cell_angle_gamma   101.76607881
_symmetry_Int_Tables_number   1
_chemical_formula_structural   U2BeCoB8
_chemical_formula_sum   'U4 Be2 Co2 B16'
_cell_volume   227.70158635
_cell_formula_units_Z   2
loop_
 _symmetry_equiv_pos_site_id
 _symmetry_equiv_pos_as_xyz
  1  'x, y, z'
loop_
 _atom_site_type_symbol
 _atom_site_label
 _atom_site_symmetry_multiplicity
 _atom_site_fract_x
 _atom_site_fract_y
 _atom_site_fract_z
 _atom_site_occupancy
  U  U0  1  0.195354  0.195358  0.000004  1
  U  U1  1  0.804651  0.804657  0.000006  1
  U  U2  1  0.750217  0.250210  0.499993  1
  U  U3  1  0.249754  0.749747  0.499993  1
  Be  Be4  1  0.729552  0.499983  0.229609  1
  Be  Be5  1  0.270373  0.499983  0.770432  1
  Co  Co6  1  0.499989  0.301526  0.801537  1
  Co  Co7  1  0.499989  0.698428  0.198439  1
  B  B8  1  0.111767  0.280875  0.392588  1
  B  B9  1  0.888274  0.719197  0.607417  1
  B  B10  1  0.888287  0.280875  0.169108  1
  B  B11  1  0.111779  0.719197  0.830923  1
  B  B12  1  0.715871  0.885987  0.601859  1
  B  B13  1  0.284102  0.114003  0.398104  1
  B  B14  1  0.715899  0.114003  0.829901  1
  B  B15  1  0.284128  0.885987  0.170116  1
  B  B16  1  0.423011  0.427284  0.540920  1
  B  B17  1  0.886318  0.882073  0.459035  1
  B  B18  1  0.576942  0.117977  0.004285  1
  B  B19  1  0.113738  0.572659  0.995744  1
  B  B20  1  0.576915  0.572659  0.458921  1
  B  B21  1  0.113691  0.117977  0.541035  1
  B  B22  1  0.886364  0.427284  0.004273  1
  B  B23  1  0.423037  0.882073  0.995755  1
