# generated using pymatgen
data_Er12Fe4SnPd
_symmetry_space_group_name_H-M   'P 1'
_cell_length_a   8.26016275
_cell_length_b   8.26016387
_cell_length_c   8.26016236
_cell_angle_alpha   110.76645374
_cell_angle_beta   110.82846639
_cell_angle_gamma   106.85010690
_symmetry_Int_Tables_number   1
_chemical_formula_structural   Er12Fe4SnPd
_chemical_formula_sum   'Er12 Fe4 Sn1 Pd1'
_cell_volume   433.17722514
_cell_formula_units_Z   1
loop_
 _symmetry_equiv_pos_site_id
 _symmetry_equiv_pos_as_xyz
  1  'x, y, z'
loop_
 _atom_site_type_symbol
 _atom_site_label
 _atom_site_symmetry_multiplicity
 _atom_site_fract_x
 _atom_site_fract_y
 _atom_site_fract_z
 _atom_site_occupancy
  Er  Er0  1  0.311400  0.612478  0.301025  1
  Er  Er1  1  0.688548  0.387523  0.698921  1
  Er  Er2  1  0.311400  0.010375  0.698921  1
  Er  Er3  1  0.688548  0.989625  0.301025  1
  Er  Er4  1  0.417781  0.216205  0.201575  1
  Er  Er5  1  0.584066  0.785804  0.798264  1
  Er  Er6  1  0.012460  0.214196  0.798264  1
  Er  Er7  1  0.985370  0.783795  0.201575  1
  Er  Er8  1  0.188283  0.291249  0.479532  1
  Er  Er9  1  0.812006  0.708383  0.520389  1
  Er  Er10  1  0.188283  0.708751  0.897035  1
  Er  Er11  1  0.812006  0.291617  0.103622  1
  Fe  Fe12  1  0.108626  0.608262  0.500363  1
  Fe  Fe13  1  0.892101  0.391739  0.500363  1
  Fe  Fe14  1  0.383771  0.000000  0.383771  1
  Fe  Fe15  1  0.613538  0.000000  0.613538  1
  Sn  Sn16  1  0.499507  0.500000  0.999507  1
  Pd  Pd17  1  0.002307  0.000000  0.002307  1
