# generated using pymatgen
data_La3TbSb10
_symmetry_space_group_name_H-M   'P 1'
_cell_length_a   4.32371900
_cell_length_b   13.65600414
_cell_length_c   15.27841963
_cell_angle_alpha   78.08542764
_cell_angle_beta   90.00000000
_cell_angle_gamma   90.00000000
_symmetry_Int_Tables_number   1
_chemical_formula_structural   La3TbSb10
_chemical_formula_sum   'La6 Tb2 Sb20'
_cell_volume   882.67547786
_cell_formula_units_Z   2
loop_
 _symmetry_equiv_pos_site_id
 _symmetry_equiv_pos_as_xyz
  1  'x, y, z'
loop_
 _atom_site_type_symbol
 _atom_site_label
 _atom_site_symmetry_multiplicity
 _atom_site_fract_x
 _atom_site_fract_y
 _atom_site_fract_z
 _atom_site_occupancy
  La  La0  1  0.750000  0.334554  0.142656  1
  La  La1  1  0.250000  0.947721  0.363770  1
  La  La2  1  0.250000  0.665446  0.857344  1
  La  La3  1  0.250000  0.666851  0.577486  1
  La  La4  1  0.750000  0.052279  0.636230  1
  La  La5  1  0.750000  0.333149  0.422514  1
  Tb  Tb6  1  0.250000  0.396187  0.772455  1
  Tb  Tb7  1  0.750000  0.603813  0.227545  1
  Sb  Sb8  1  0.750000  0.855447  0.817523  1
  Sb  Sb9  1  0.250000  0.862840  0.675812  1
  Sb  Sb10  1  0.250000  0.145038  0.474932  1
  Sb  Sb11  1  0.750000  0.287415  0.933476  1
  Sb  Sb12  1  0.250000  0.148374  0.782101  1
  Sb  Sb13  1  0.750000  0.575949  0.439491  1
  Sb  Sb14  1  0.750000  0.137160  0.324188  1
  Sb  Sb15  1  0.250000  0.703673  0.351774  1
  Sb  Sb16  1  0.750000  0.296327  0.648226  1
  Sb  Sb17  1  0.750000  0.851626  0.217899  1
  Sb  Sb18  1  0.250000  0.419718  0.971348  1
  Sb  Sb19  1  0.250000  0.424051  0.560509  1
  Sb  Sb20  1  0.750000  0.570139  0.738003  1
  Sb  Sb21  1  0.250000  0.429861  0.261997  1
  Sb  Sb22  1  0.750000  0.854962  0.525068  1
  Sb  Sb23  1  0.750000  0.035091  0.887470  1
  Sb  Sb24  1  0.250000  0.712585  0.066524  1
  Sb  Sb25  1  0.250000  0.964909  0.112530  1
  Sb  Sb26  1  0.250000  0.144553  0.182477  1
  Sb  Sb27  1  0.750000  0.580282  0.028652  1
