# generated using pymatgen
data_LaTm2RhO7
_symmetry_space_group_name_H-M   'P 1'
_cell_length_a   6.40742780
_cell_length_b   6.40742962
_cell_length_c   7.49924900
_cell_angle_alpha   90.00000000
_cell_angle_beta   90.00000000
_cell_angle_gamma   109.21015735
_symmetry_Int_Tables_number   1
_chemical_formula_structural   LaTm2RhO7
_chemical_formula_sum   'La2 Tm4 Rh2 O14'
_cell_volume   290.73922757
_cell_formula_units_Z   2
loop_
 _symmetry_equiv_pos_site_id
 _symmetry_equiv_pos_as_xyz
  1  'x, y, z'
loop_
 _atom_site_type_symbol
 _atom_site_label
 _atom_site_symmetry_multiplicity
 _atom_site_fract_x
 _atom_site_fract_y
 _atom_site_fract_z
 _atom_site_occupancy
  La  La0  1  0.000000  0.000000  0.000000  1
  La  La1  1  0.000000  0.000000  0.500000  1
  Tm  Tm2  1  0.512302  0.062699  0.250000  1
  Tm  Tm3  1  0.937301  0.487698  0.750000  1
  Tm  Tm4  1  0.487698  0.937301  0.750000  1
  Tm  Tm5  1  0.062699  0.512302  0.250000  1
  Rh  Rh6  1  0.500000  0.500000  0.000000  1
  Rh  Rh7  1  0.500000  0.500000  0.500000  1
  O  O8  1  0.873429  0.162396  0.250000  1
  O  O9  1  0.837604  0.126571  0.750000  1
  O  O10  1  0.822270  0.557367  0.033414  1
  O  O11  1  0.822270  0.557367  0.466586  1
  O  O12  1  0.442633  0.177730  0.966586  1
  O  O13  1  0.442633  0.177730  0.533414  1
  O  O14  1  0.595491  0.595491  0.750000  1
  O  O15  1  0.404509  0.404509  0.250000  1
  O  O16  1  0.557367  0.822270  0.033414  1
  O  O17  1  0.177730  0.442633  0.533414  1
  O  O18  1  0.177730  0.442633  0.966586  1
  O  O19  1  0.557367  0.822270  0.466586  1
  O  O20  1  0.126571  0.837604  0.750000  1
  O  O21  1  0.162396  0.873429  0.250000  1
