# generated using pymatgen
data_Nd16InHg3Ir4
_symmetry_space_group_name_H-M   'P 1'
_cell_length_a   9.95999186
_cell_length_b   9.95999151
_cell_length_c   9.94737770
_cell_angle_alpha   59.95804343
_cell_angle_beta   59.95805293
_cell_angle_gamma   59.99999750
_symmetry_Int_Tables_number   1
_chemical_formula_structural   Nd16InHg3Ir4
_chemical_formula_sum   'Nd16 In1 Hg3 Ir4'
_cell_volume   697.32602796
_cell_formula_units_Z   1
loop_
 _symmetry_equiv_pos_site_id
 _symmetry_equiv_pos_as_xyz
  1  'x, y, z'
loop_
 _atom_site_type_symbol
 _atom_site_label
 _atom_site_symmetry_multiplicity
 _atom_site_fract_x
 _atom_site_fract_y
 _atom_site_fract_z
 _atom_site_occupancy
  Nd  Nd0  1  0.098765  0.704350  0.098120  1
  Nd  Nd1  1  0.939697  0.939697  0.560225  1
  Nd  Nd2  1  0.941281  0.559366  0.939985  1
  Nd  Nd3  1  0.311074  0.689529  0.309866  1
  Nd  Nd4  1  0.939697  0.560380  0.560225  1
  Nd  Nd5  1  0.311305  0.311305  0.686324  1
  Nd  Nd6  1  0.098765  0.098765  0.098120  1
  Nd  Nd7  1  0.559366  0.559366  0.939985  1
  Nd  Nd8  1  0.098909  0.098909  0.703273  1
  Nd  Nd9  1  0.691066  0.311305  0.686324  1
  Nd  Nd10  1  0.689529  0.689529  0.309866  1
  Nd  Nd11  1  0.689529  0.311074  0.309866  1
  Nd  Nd12  1  0.311305  0.691066  0.686324  1
  Nd  Nd13  1  0.560380  0.939697  0.560225  1
  Nd  Nd14  1  0.704350  0.098765  0.098120  1
  Nd  Nd15  1  0.559366  0.941281  0.939985  1
  In  In16  1  0.328199  0.328199  0.015402  1
  Hg  Hg17  1  0.333331  0.333331  0.332610  1
  Hg  Hg18  1  0.000728  0.333331  0.332610  1
  Hg  Hg19  1  0.333331  0.000728  0.332610  1
  Ir  Ir20  1  0.891574  0.891574  0.891658  1
  Ir  Ir21  1  0.891680  0.891680  0.324961  1
  Ir  Ir22  1  0.325194  0.891574  0.891658  1
  Ir  Ir23  1  0.891574  0.325194  0.891658  1
