# generated using pymatgen
data_TbPr7(AsBr6)2
_symmetry_space_group_name_H-M   'P 1'
_cell_length_a   4.27075200
_cell_length_b   13.63677653
_cell_length_c   14.55592926
_cell_angle_alpha   90.46681526
_cell_angle_beta   90.00000000
_cell_angle_gamma   90.00000000
_symmetry_Int_Tables_number   1
_chemical_formula_structural   TbPr7(AsBr6)2
_chemical_formula_sum   'Tb1 Pr7 As2 Br12'
_cell_volume   847.69885882
_cell_formula_units_Z   1
loop_
 _symmetry_equiv_pos_site_id
 _symmetry_equiv_pos_as_xyz
  1  'x, y, z'
loop_
 _atom_site_type_symbol
 _atom_site_label
 _atom_site_symmetry_multiplicity
 _atom_site_fract_x
 _atom_site_fract_y
 _atom_site_fract_z
 _atom_site_occupancy
  Tb  Tb0  1  0.500000  0.379864  0.839003  1
  Pr  Pr1  1  0.500000  0.119767  0.340325  1
  Pr  Pr2  1  0.500000  0.880903  0.659975  1
  Pr  Pr3  1  0.500000  0.617932  0.157514  1
  Pr  Pr4  1  0.000000  0.119319  0.579499  1
  Pr  Pr5  1  0.000000  0.881714  0.421420  1
  Pr  Pr6  1  0.000000  0.619407  0.923151  1
  Pr  Pr7  1  0.000000  0.382772  0.079859  1
  As  As8  1  0.500000  0.000933  0.500496  1
  As  As9  1  0.500000  0.495963  0.994621  1
  Br  Br10  1  0.500000  0.242951  0.159794  1
  Br  Br11  1  0.500000  0.755322  0.837897  1
  Br  Br12  1  0.500000  0.742344  0.337796  1
  Br  Br13  1  0.500000  0.259447  0.668123  1
  Br  Br14  1  0.000000  0.256560  0.412190  1
  Br  Br15  1  0.000000  0.743764  0.588386  1
  Br  Br16  1  0.000000  0.756811  0.089470  1
  Br  Br17  1  0.000000  0.252137  0.904445  1
  Br  Br18  1  0.000000  0.001353  0.243288  1
  Br  Br19  1  0.000000  0.998988  0.757414  1
  Br  Br20  1  0.000000  0.502530  0.257446  1
  Br  Br21  1  0.000000  0.489221  0.747888  1
