# generated using pymatgen
data_Ho10LuScPb10
_symmetry_space_group_name_H-M   'P 1'
_cell_length_a   11.68720370
_cell_length_b   11.68720372
_cell_length_c   11.69540333
_cell_angle_alpha   147.46780836
_cell_angle_beta   132.61311133
_cell_angle_gamma   58.58719027
_symmetry_Int_Tables_number   1
_chemical_formula_structural   Ho10LuScPb10
_chemical_formula_sum   'Ho10 Lu1 Sc1 Pb10'
_cell_volume   627.24984096
_cell_formula_units_Z   1
loop_
 _symmetry_equiv_pos_site_id
 _symmetry_equiv_pos_as_xyz
  1  'x, y, z'
loop_
 _atom_site_type_symbol
 _atom_site_label
 _atom_site_symmetry_multiplicity
 _atom_site_fract_x
 _atom_site_fract_y
 _atom_site_fract_z
 _atom_site_occupancy
  Ho  Ho0  1  0.252030  0.639996  0.611077  1
  Ho  Ho1  1  0.674775  0.940941  0.733262  1
  Ho  Ho2  1  0.028918  0.140950  0.888923  1
  Ho  Ho3  1  0.970178  0.858013  0.110867  1
  Ho  Ho4  1  0.792420  0.559979  0.233248  1
  Ho  Ho5  1  0.207679  0.441513  0.766738  1
  Ho  Ho6  1  0.303733  0.053733  0.750000  1
  Ho  Ho7  1  0.326729  0.059171  0.266752  1
  Ho  Ho8  1  0.304143  0.554143  0.250000  1
  Ho  Ho9  1  0.747145  0.359311  0.389133  1
  Lu  Lu10  1  0.696096  0.946096  0.250000  1
  Sc  Sc11  1  0.694691  0.444691  0.750000  1
  Pb  Pb12  1  0.479703  0.570913  0.896426  1
  Pb  Pb13  1  0.599133  0.787717  0.800960  1
  Pb  Pb14  1  0.674488  0.083278  0.603574  1
  Pb  Pb15  1  0.000229  0.750229  0.750000  1
  Pb  Pb16  1  0.986756  0.298173  0.699040  1
  Pb  Pb17  1  0.523953  0.424488  0.099009  1
  Pb  Pb18  1  0.006398  0.702858  0.297590  1
  Pb  Pb19  1  0.405268  0.208809  0.202410  1
  Pb  Pb20  1  0.325479  0.924944  0.400991  1
  Pb  Pb21  1  0.000055  0.250055  0.250000  1
