# generated using pymatgen
data_Ho6Er(TmSi2)3
_symmetry_space_group_name_H-M   'P 1'
_cell_length_a   8.38483900
_cell_length_b   8.38483875
_cell_length_c   6.27928600
_cell_angle_alpha   90.00000000
_cell_angle_beta   90.00000000
_cell_angle_gamma   120.00000494
_symmetry_Int_Tables_number   1
_chemical_formula_structural   Ho6Er(TmSi2)3
_chemical_formula_sum   'Ho6 Er1 Tm3 Si6'
_cell_volume   382.32290471
_cell_formula_units_Z   1
loop_
 _symmetry_equiv_pos_site_id
 _symmetry_equiv_pos_as_xyz
  1  'x, y, z'
loop_
 _atom_site_type_symbol
 _atom_site_label
 _atom_site_symmetry_multiplicity
 _atom_site_fract_x
 _atom_site_fract_y
 _atom_site_fract_z
 _atom_site_occupancy
  Ho  Ho0  1  0.756568  0.756622  0.249947  1
  Ho  Ho1  1  0.243378  0.999946  0.249947  1
  Ho  Ho2  1  0.000054  0.243432  0.249947  1
  Ho  Ho3  1  0.243378  0.243432  0.750053  1
  Ho  Ho4  1  0.756568  0.999946  0.750053  1
  Ho  Ho5  1  0.000054  0.756622  0.750053  1
  Er  Er6  1  0.666667  0.333333  0.500000  1
  Tm  Tm7  1  0.333333  0.666667  0.500000  1
  Tm  Tm8  1  0.333333  0.666667  0.000000  1
  Tm  Tm9  1  0.666667  0.333333  0.000000  1
  Si  Si10  1  0.394276  0.394432  0.249868  1
  Si  Si11  1  0.605568  0.999844  0.249868  1
  Si  Si12  1  0.000156  0.605724  0.249868  1
  Si  Si13  1  0.605568  0.605724  0.750132  1
  Si  Si14  1  0.394276  0.999844  0.750132  1
  Si  Si15  1  0.000156  0.394432  0.750132  1
