# generated using pymatgen
data_CaTmTh2(Al3Ir)6
_symmetry_space_group_name_H-M   'P 1'
_cell_length_a   7.60837923
_cell_length_b   7.61192116
_cell_length_c   9.51779200
_cell_angle_alpha   90.00000000
_cell_angle_beta   90.00000000
_cell_angle_gamma   119.46487574
_symmetry_Int_Tables_number   1
_chemical_formula_structural   CaTmTh2(Al3Ir)6
_chemical_formula_sum   'Ca1 Tm1 Th2 Al18 Ir6'
_cell_volume   479.92120647
_cell_formula_units_Z   1
loop_
 _symmetry_equiv_pos_site_id
 _symmetry_equiv_pos_as_xyz
  1  'x, y, z'
loop_
 _atom_site_type_symbol
 _atom_site_label
 _atom_site_symmetry_multiplicity
 _atom_site_fract_x
 _atom_site_fract_y
 _atom_site_fract_z
 _atom_site_occupancy
  Ca  Ca0  1  0.004333  0.327557  0.750000  1
  Tm  Tm1  1  0.327015  0.004138  0.750000  1
  Th  Th2  1  0.995051  0.670625  0.250000  1
  Th  Th3  1  0.672103  0.995666  0.250000  1
  Al  Al4  1  0.134859  0.134692  0.250000  1
  Al  Al5  1  0.874232  0.872685  0.750000  1
  Al  Al6  1  0.005688  0.335543  0.068602  1
  Al  Al7  1  0.000415  0.664359  0.918438  1
  Al  Al8  1  0.000415  0.664359  0.581562  1
  Al  Al9  1  0.335625  0.005449  0.430798  1
  Al  Al10  1  0.005688  0.335543  0.431398  1
  Al  Al11  1  0.664107  0.000439  0.581533  1
  Al  Al12  1  0.664107  0.000439  0.918467  1
  Al  Al13  1  0.335625  0.005449  0.069202  1
  Al  Al14  1  0.332300  0.332225  0.555645  1
  Al  Al15  1  0.663145  0.663194  0.457688  1
  Al  Al16  1  0.663145  0.663194  0.042312  1
  Al  Al17  1  0.332300  0.332225  0.944355  1
  Al  Al18  1  0.340262  0.542933  0.250000  1
  Al  Al19  1  0.656410  0.447625  0.750000  1
  Al  Al20  1  0.543134  0.339343  0.250000  1
  Al  Al21  1  0.449222  0.662051  0.750000  1
  Ir  Ir22  1  0.671631  0.328315  0.001850  1
  Ir  Ir23  1  0.329564  0.674197  0.001768  1
  Ir  Ir24  1  0.329564  0.674197  0.498232  1
  Ir  Ir25  1  0.671631  0.328315  0.498150  1
  Ir  Ir26  1  0.999216  0.997622  0.001954  1
  Ir  Ir27  1  0.999216  0.997622  0.498046  1
