# generated using pymatgen
data_Ho2MnFe(Co4P3)2
_symmetry_space_group_name_H-M   'P 1'
_cell_length_a   3.65417000
_cell_length_b   10.28308100
_cell_length_c   11.78886300
_cell_angle_alpha   90.00000000
_cell_angle_beta   90.00000000
_cell_angle_gamma   90.00000000
_symmetry_Int_Tables_number   1
_chemical_formula_structural   Ho2MnFe(Co4P3)2
_chemical_formula_sum   'Ho4 Mn2 Fe2 Co16 P12'
_cell_volume   442.97980264
_cell_formula_units_Z   2
loop_
 _symmetry_equiv_pos_site_id
 _symmetry_equiv_pos_as_xyz
  1  'x, y, z'
loop_
 _atom_site_type_symbol
 _atom_site_label
 _atom_site_symmetry_multiplicity
 _atom_site_fract_x
 _atom_site_fract_y
 _atom_site_fract_z
 _atom_site_occupancy
  Ho  Ho0  1  0.250000  0.582152  0.704039  1
  Ho  Ho1  1  0.250000  0.917848  0.204039  1
  Ho  Ho2  1  0.750000  0.419539  0.296749  1
  Ho  Ho3  1  0.750000  0.080461  0.796749  1
  Mn  Mn4  1  0.750000  0.290139  0.011271  1
  Mn  Mn5  1  0.750000  0.209861  0.511271  1
  Fe  Fe6  1  0.250000  0.710375  0.988176  1
  Fe  Fe7  1  0.250000  0.789625  0.488176  1
  Co  Co8  1  0.250000  0.406664  0.487258  1
  Co  Co9  1  0.250000  0.093336  0.987258  1
  Co  Co10  1  0.750000  0.593861  0.512642  1
  Co  Co11  1  0.750000  0.906139  0.012642  1
  Co  Co12  1  0.250000  0.221460  0.176347  1
  Co  Co13  1  0.250000  0.278540  0.676347  1
  Co  Co14  1  0.750000  0.778357  0.823363  1
  Co  Co15  1  0.750000  0.721643  0.323363  1
  Co  Co16  1  0.250000  0.881997  0.698519  1
  Co  Co17  1  0.250000  0.618003  0.198519  1
  Co  Co18  1  0.750000  0.116952  0.301125  1
  Co  Co19  1  0.750000  0.383048  0.801125  1
  Co  Co20  1  0.250000  0.466388  0.932753  1
  Co  Co21  1  0.250000  0.033612  0.432753  1
  Co  Co22  1  0.750000  0.534717  0.067185  1
  Co  Co23  1  0.750000  0.965283  0.567185  1
  P  P24  1  0.250000  0.419877  0.113506  1
  P  P25  1  0.250000  0.080123  0.613506  1
  P  P26  1  0.750000  0.581176  0.887219  1
  P  P27  1  0.750000  0.918824  0.387219  1
  P  P28  1  0.250000  0.269353  0.867602  1
  P  P29  1  0.250000  0.230647  0.367602  1
  P  P30  1  0.750000  0.731255  0.131615  1
  P  P31  1  0.750000  0.768745  0.631615  1
  P  P32  1  0.250000  0.603138  0.392168  1
  P  P33  1  0.250000  0.896862  0.892168  1
  P  P34  1  0.750000  0.400558  0.608461  1
  P  P35  1  0.750000  0.099442  0.108461  1
