# generated using pymatgen
data_Ti2Mn3Nb2AlCr4
_symmetry_space_group_name_H-M   'P 1'
_cell_length_a   4.80816226
_cell_length_b   4.80511616
_cell_length_c   8.13279058
_cell_angle_alpha   89.71387513
_cell_angle_beta   89.70473278
_cell_angle_gamma   59.99997747
_symmetry_Int_Tables_number   1
_chemical_formula_structural   Ti2Mn3Nb2AlCr4
_chemical_formula_sum   'Ti2 Mn3 Nb2 Al1 Cr4'
_cell_volume   162.72177397
_cell_formula_units_Z   1
loop_
 _symmetry_equiv_pos_site_id
 _symmetry_equiv_pos_as_xyz
  1  'x, y, z'
loop_
 _atom_site_type_symbol
 _atom_site_label
 _atom_site_symmetry_multiplicity
 _atom_site_fract_x
 _atom_site_fract_y
 _atom_site_fract_z
 _atom_site_occupancy
  Ti  Ti0  1  0.333272  0.333298  0.561902  1
  Ti  Ti1  1  0.665915  0.665670  0.442184  1
  Mn  Mn2  1  0.000336  0.000486  0.503389  1
  Mn  Mn3  1  0.828818  0.344507  0.741363  1
  Mn  Mn4  1  0.344612  0.828727  0.741313  1
  Nb  Nb5  1  0.666596  0.666664  0.068548  1
  Nb  Nb6  1  0.334016  0.334000  0.929331  1
  Al  Al7  1  0.001132  0.001526  0.997529  1
  Cr  Cr8  1  0.829209  0.829115  0.740344  1
  Cr  Cr9  1  0.169833  0.657055  0.258027  1
  Cr  Cr10  1  0.657059  0.169804  0.258029  1
  Cr  Cr11  1  0.169200  0.169145  0.258039  1
