# generated using pymatgen
data_Ho4LuFe3(P3Ru4)4
_symmetry_space_group_name_H-M   'P 1'
_cell_length_a   12.47021401
_cell_length_b   12.47124749
_cell_length_c   3.88491100
_cell_angle_alpha   90.00000000
_cell_angle_beta   90.00000000
_cell_angle_gamma   120.00273973
_symmetry_Int_Tables_number   1
_chemical_formula_structural   Ho4LuFe3(P3Ru4)4
_chemical_formula_sum   'Ho4 Lu1 Fe3 P12 Ru16'
_cell_volume   523.21901648
_cell_formula_units_Z   1
loop_
 _symmetry_equiv_pos_site_id
 _symmetry_equiv_pos_as_xyz
  1  'x, y, z'
loop_
 _atom_site_type_symbol
 _atom_site_label
 _atom_site_symmetry_multiplicity
 _atom_site_fract_x
 _atom_site_fract_y
 _atom_site_fract_z
 _atom_site_occupancy
  Ho  Ho0  1  0.818349  0.818358  0.500000  1
  Ho  Ho1  1  0.181651  0.000008  0.500000  1
  Ho  Ho2  1  0.666670  0.333271  0.000000  1
  Ho  Ho3  1  0.333330  0.666602  0.000000  1
  Lu  Lu4  1  0.000000  0.181377  0.500000  1
  Fe  Fe5  1  0.000000  0.716749  0.500000  1
  Fe  Fe6  1  0.282869  0.283153  0.500000  1
  Fe  Fe7  1  0.717131  0.000284  0.500000  1
  P  P8  1  0.000000  0.813869  0.000000  1
  P  P9  1  0.185820  0.186237  0.000000  1
  P  P10  1  0.814180  0.000417  0.000000  1
  P  P11  1  0.689883  0.163049  0.500000  1
  P  P12  1  0.837007  0.526844  0.500000  1
  P  P13  1  0.473042  0.310075  0.500000  1
  P  P14  1  0.162993  0.689837  0.500000  1
  P  P15  1  0.526958  0.837033  0.500000  1
  P  P16  1  0.310117  0.473166  0.500000  1
  P  P17  1  0.000000  0.372719  0.000000  1
  P  P18  1  0.626996  0.626996  0.000000  1
  P  P19  1  0.373004  0.000001  0.000000  1
  Ru  Ru20  1  0.000000  0.557926  0.000000  1
  Ru  Ru21  1  0.441982  0.442042  0.000000  1
  Ru  Ru22  1  0.558018  0.000060  0.000000  1
  Ru  Ru23  1  0.808077  0.181874  0.000000  1
  Ru  Ru24  1  0.818247  0.625223  0.000000  1
  Ru  Ru25  1  0.374668  0.192994  0.000000  1
  Ru  Ru26  1  0.181753  0.806975  0.000000  1
  Ru  Ru27  1  0.625332  0.818325  0.000000  1
  Ru  Ru28  1  0.191923  0.373796  0.000000  1
  Ru  Ru29  1  0.873578  0.363037  0.500000  1
  Ru  Ru30  1  0.636758  0.510268  0.500000  1
  Ru  Ru31  1  0.489666  0.126461  0.500000  1
  Ru  Ru32  1  0.363242  0.873510  0.500000  1
  Ru  Ru33  1  0.510334  0.636795  0.500000  1
  Ru  Ru34  1  0.126422  0.489460  0.500000  1
  Ru  Ru35  1  0.000000  0.001207  0.000000  1
