# generated using pymatgen
data_Dy5Ho11Cd4(IrPt)2
_symmetry_space_group_name_H-M   'P 1'
_cell_length_a   9.62054441
_cell_length_b   9.61837019
_cell_length_c   9.59345753
_cell_angle_alpha   60.04319916
_cell_angle_beta   60.03314368
_cell_angle_gamma   60.18373936
_symmetry_Int_Tables_number   1
_chemical_formula_structural   Dy5Ho11Cd4(IrPt)2
_chemical_formula_sum   'Dy5 Ho11 Cd4 Ir2 Pt2'
_cell_volume   628.94367762
_cell_formula_units_Z   1
loop_
 _symmetry_equiv_pos_site_id
 _symmetry_equiv_pos_as_xyz
  1  'x, y, z'
loop_
 _atom_site_type_symbol
 _atom_site_label
 _atom_site_symmetry_multiplicity
 _atom_site_fract_x
 _atom_site_fract_y
 _atom_site_fract_z
 _atom_site_occupancy
  Dy  Dy0  1  0.813673  0.187738  0.187182  1
  Dy  Dy1  1  0.815612  0.187457  0.811740  1
  Dy  Dy2  1  0.187732  0.813683  0.186873  1
  Dy  Dy3  1  0.813899  0.813581  0.186927  1
  Dy  Dy4  1  0.187402  0.187067  0.811777  1
  Ho  Ho5  1  0.599799  0.599861  0.596071  1
  Ho  Ho6  1  0.601385  0.601541  0.200986  1
  Ho  Ho7  1  0.605872  0.194482  0.600958  1
  Ho  Ho8  1  0.194340  0.605991  0.600978  1
  Ho  Ho9  1  0.056572  0.440741  0.439986  1
  Ho  Ho10  1  0.438817  0.057428  0.063071  1
  Ho  Ho11  1  0.440577  0.056584  0.440119  1
  Ho  Ho12  1  0.057510  0.438962  0.062950  1
  Ho  Ho13  1  0.440830  0.441115  0.058702  1
  Ho  Ho14  1  0.061559  0.061404  0.437294  1
  Ho  Ho15  1  0.187843  0.815157  0.811628  1
  Cd  Cd16  1  0.831144  0.830981  0.831154  1
  Cd  Cd17  1  0.831195  0.831257  0.505170  1
  Cd  Cd18  1  0.830649  0.505889  0.831433  1
  Cd  Cd19  1  0.505586  0.830718  0.831471  1
  Ir  Ir20  1  0.390634  0.823544  0.393399  1
  Ir  Ir21  1  0.823621  0.390777  0.393015  1
  Pt  Pt22  1  0.392167  0.392180  0.395124  1
  Pt  Pt23  1  0.391580  0.391864  0.821991  1
