# generated using pymatgen
data_Tm2ZnRuPt
_symmetry_space_group_name_H-M   'P 1'
_cell_length_a   5.49791776
_cell_length_b   5.49791845
_cell_length_c   5.49791800
_cell_angle_alpha   135.92558602
_cell_angle_beta   116.35983635
_cell_angle_gamma   80.65119247
_symmetry_Int_Tables_number   1
_chemical_formula_structural   Tm2ZnRuPt
_chemical_formula_sum   'Tm2 Zn1 Ru1 Pt1'
_cell_volume   100.25782377
_cell_formula_units_Z   1
loop_
 _symmetry_equiv_pos_site_id
 _symmetry_equiv_pos_as_xyz
  1  'x, y, z'
loop_
 _atom_site_type_symbol
 _atom_site_label
 _atom_site_symmetry_multiplicity
 _atom_site_fract_x
 _atom_site_fract_y
 _atom_site_fract_z
 _atom_site_occupancy
  Tm  Tm0  1  0.697040  0.202555  0.494486  1
  Tm  Tm1  1  0.291931  0.797445  0.494486  1
  Zn  Zn2  1  0.010985  0.000000  0.010985  1
  Ru  Ru3  1  0.268521  0.500000  0.768521  1
  Pt  Pt4  1  0.731524  0.500000  0.231524  1
