# generated using pymatgen
data_Tb4OsCl4
_symmetry_space_group_name_H-M   'P 1'
_cell_length_a   8.64316744
_cell_length_b   8.64316877
_cell_length_c   6.52719174
_cell_angle_alpha   89.93287164
_cell_angle_beta   89.93286669
_cell_angle_gamma   89.51007054
_symmetry_Int_Tables_number   1
_chemical_formula_structural   Tb4OsCl4
_chemical_formula_sum   'Tb8 Os2 Cl8'
_cell_volume   487.59115835
_cell_formula_units_Z   2
loop_
 _symmetry_equiv_pos_site_id
 _symmetry_equiv_pos_as_xyz
  1  'x, y, z'
loop_
 _atom_site_type_symbol
 _atom_site_label
 _atom_site_symmetry_multiplicity
 _atom_site_fract_x
 _atom_site_fract_y
 _atom_site_fract_z
 _atom_site_occupancy
  Tb  Tb0  1  0.105015  0.741336  0.987285  1
  Tb  Tb1  1  0.258664  0.894985  0.512715  1
  Tb  Tb2  1  0.894985  0.258664  0.012715  1
  Tb  Tb3  1  0.741336  0.105015  0.487285  1
  Tb  Tb4  1  0.742284  0.895631  0.005761  1
  Tb  Tb5  1  0.104369  0.257716  0.494239  1
  Tb  Tb6  1  0.257716  0.104369  0.994239  1
  Tb  Tb7  1  0.895631  0.742284  0.505761  1
  Os  Os8  1  0.005934  0.994066  0.250000  1
  Os  Os9  1  0.994066  0.005934  0.750000  1
  Cl  Cl10  1  0.418500  0.821050  0.904358  1
  Cl  Cl11  1  0.178950  0.581500  0.595642  1
  Cl  Cl12  1  0.581500  0.178950  0.095642  1
  Cl  Cl13  1  0.821050  0.418500  0.404358  1
  Cl  Cl14  1  0.814102  0.583823  0.904464  1
  Cl  Cl15  1  0.416177  0.185898  0.595536  1
  Cl  Cl16  1  0.185898  0.416177  0.095536  1
  Cl  Cl17  1  0.583823  0.814102  0.404464  1
