# generated using pymatgen
data_Nd8MoOs2WC8
_symmetry_space_group_name_H-M   'P 1'
_cell_length_a   5.35555100
_cell_length_b   6.74446304
_cell_length_c   10.25069761
_cell_angle_alpha   90.02100502
_cell_angle_beta   90.00000000
_cell_angle_gamma   90.00000000
_symmetry_Int_Tables_number   1
_chemical_formula_structural   Nd8MoOs2WC8
_chemical_formula_sum   'Nd8 Mo1 Os2 W1 C8'
_cell_volume   370.25840950
_cell_formula_units_Z   1
loop_
 _symmetry_equiv_pos_site_id
 _symmetry_equiv_pos_as_xyz
  1  'x, y, z'
loop_
 _atom_site_type_symbol
 _atom_site_label
 _atom_site_symmetry_multiplicity
 _atom_site_fract_x
 _atom_site_fract_y
 _atom_site_fract_z
 _atom_site_occupancy
  Nd  Nd0  1  0.250000  0.469307  0.782281  1
  Nd  Nd1  1  0.750000  0.029614  0.281972  1
  Nd  Nd2  1  0.250000  0.973011  0.712184  1
  Nd  Nd3  1  0.750000  0.526779  0.211535  1
  Nd  Nd4  1  0.250000  0.814858  0.051833  1
  Nd  Nd5  1  0.750000  0.684525  0.551774  1
  Nd  Nd6  1  0.250000  0.312291  0.446821  1
  Nd  Nd7  1  0.750000  0.188293  0.946712  1
  Mo  Mo8  1  0.250000  0.771197  0.358676  1
  Os  Os9  1  0.250000  0.271233  0.141933  1
  Os  Os10  1  0.750000  0.229189  0.642272  1
  W  W11  1  0.750000  0.728725  0.859055  1
  C  C12  1  0.250000  0.684641  0.540638  1
  C  C13  1  0.750000  0.815607  0.042409  1
  C  C14  1  0.250000  0.187133  0.964644  1
  C  C15  1  0.750000  0.312609  0.465117  1
  C  C16  1  0.250000  0.039379  0.257607  1
  C  C17  1  0.750000  0.461891  0.758592  1
  C  C18  1  0.250000  0.531288  0.241584  1
  C  C19  1  0.750000  0.968432  0.742365  1
