# generated using pymatgen
data_CaCd5(PO4)4
_symmetry_space_group_name_H-M   'P 1'
_cell_length_a   5.38997244
_cell_length_b   6.90812228
_cell_length_c   9.84261481
_cell_angle_alpha   89.29308962
_cell_angle_beta   89.64729458
_cell_angle_gamma   90.05054738
_symmetry_Int_Tables_number   1
_chemical_formula_structural   CaCd5(PO4)4
_chemical_formula_sum   'Ca1 Cd5 P4 O16'
_cell_volume   366.45070917
_cell_formula_units_Z   1
loop_
 _symmetry_equiv_pos_site_id
 _symmetry_equiv_pos_as_xyz
  1  'x, y, z'
loop_
 _atom_site_type_symbol
 _atom_site_label
 _atom_site_symmetry_multiplicity
 _atom_site_fract_x
 _atom_site_fract_y
 _atom_site_fract_z
 _atom_site_occupancy
  Ca  Ca0  1  0.000001  0.000000  0.000000  1
  Cd  Cd1  1  0.485940  0.671221  0.135461  1
  Cd  Cd2  1  0.985642  0.177273  0.365438  1
  Cd  Cd3  1  0.499999  0.500000  0.500000  1
  Cd  Cd4  1  0.014361  0.822726  0.634563  1
  Cd  Cd5  1  0.514059  0.328778  0.864538  1
  P  P6  1  0.497010  0.176811  0.187254  1
  P  P7  1  0.998048  0.678939  0.315155  1
  P  P8  1  0.001953  0.321060  0.684845  1
  P  P9  1  0.502989  0.823188  0.812746  1
  O  O10  1  0.574711  0.349700  0.091507  1
  O  O11  1  0.635873  0.993927  0.135153  1
  O  O12  1  0.071215  0.725499  0.165017  1
  O  O13  1  0.211501  0.148049  0.176617  1
  O  O14  1  0.712902  0.639071  0.324362  1
  O  O15  1  0.572686  0.219040  0.336367  1
  O  O16  1  0.144841  0.497826  0.367175  1
  O  O17  1  0.064625  0.851715  0.408202  1
  O  O18  1  0.935374  0.148285  0.591798  1
  O  O19  1  0.855158  0.502173  0.632825  1
  O  O20  1  0.427316  0.780960  0.663633  1
  O  O21  1  0.287097  0.360929  0.675637  1
  O  O22  1  0.788501  0.851949  0.823383  1
  O  O23  1  0.928784  0.274500  0.834983  1
  O  O24  1  0.364128  0.006072  0.864847  1
  O  O25  1  0.425289  0.650299  0.908493  1
