# generated using pymatgen
data_RbNpSbO6
_symmetry_space_group_name_H-M   'P 1'
_cell_length_a   7.64513046
_cell_length_b   7.64513005
_cell_length_c   7.64512977
_cell_angle_alpha   122.30365843
_cell_angle_beta   117.83748935
_cell_angle_gamma   89.92140935
_symmetry_Int_Tables_number   1
_chemical_formula_structural   RbNpSbO6
_chemical_formula_sum   'Rb2 Np2 Sb2 O12'
_cell_volume   315.02756256
_cell_formula_units_Z   2
loop_
 _symmetry_equiv_pos_site_id
 _symmetry_equiv_pos_as_xyz
  1  'x, y, z'
loop_
 _atom_site_type_symbol
 _atom_site_label
 _atom_site_symmetry_multiplicity
 _atom_site_fract_x
 _atom_site_fract_y
 _atom_site_fract_z
 _atom_site_occupancy
  Rb  Rb0  1  0.678292  0.392936  0.785355  1
  Rb  Rb1  1  0.392419  0.607064  0.285355  1
  Np  Np2  1  0.500959  0.999629  0.001331  1
  Np  Np3  1  0.001701  0.000371  0.501331  1
  Sb  Sb4  1  0.001045  0.500000  0.501045  1
  Sb  Sb5  1  0.001045  0.000000  0.001045  1
  O  O6  1  0.067903  0.319899  0.248004  1
  O  O7  1  0.684341  0.932558  0.251782  1
  O  O8  1  0.057713  0.928673  0.236974  1
  O  O9  1  0.692725  0.320891  0.262635  1
  O  O10  1  0.692725  0.930090  0.871835  1
  O  O11  1  0.057713  0.320739  0.629040  1
  O  O12  1  0.928105  0.680101  0.748004  1
  O  O13  1  0.319224  0.067442  0.751782  1
  O  O14  1  0.941744  0.069910  0.762635  1
  O  O15  1  0.308301  0.679261  0.736974  1
  O  O16  1  0.308301  0.071327  0.129040  1
  O  O17  1  0.941744  0.679109  0.371835  1
