# generated using pymatgen
data_CeY5Tm10(CdIr)4
_symmetry_space_group_name_H-M   'P 1'
_cell_length_a   9.60012885
_cell_length_b   9.59017258
_cell_length_c   9.59017295
_cell_angle_alpha   59.80020831
_cell_angle_beta   59.74189794
_cell_angle_gamma   59.74188757
_symmetry_Int_Tables_number   1
_chemical_formula_structural   CeY5Tm10(CdIr)4
_chemical_formula_sum   'Ce1 Y5 Tm10 Cd4 Ir4'
_cell_volume   620.94717925
_cell_formula_units_Z   1
loop_
 _symmetry_equiv_pos_site_id
 _symmetry_equiv_pos_as_xyz
  1  'x, y, z'
loop_
 _atom_site_type_symbol
 _atom_site_label
 _atom_site_symmetry_multiplicity
 _atom_site_fract_x
 _atom_site_fract_y
 _atom_site_fract_z
 _atom_site_occupancy
  Ce  Ce0  1  0.344665  0.344643  0.344643  1
  Y  Y1  1  0.559662  0.940785  0.940785  1
  Y  Y2  1  0.563350  0.938816  0.561960  1
  Y  Y3  1  0.940535  0.560000  0.939311  1
  Y  Y4  1  0.563350  0.561960  0.938816  1
  Y  Y5  1  0.940535  0.939310  0.560000  1
  Tm  Tm6  1  0.350210  0.350744  0.950728  1
  Tm  Tm7  1  0.350210  0.950728  0.350745  1
  Tm  Tm8  1  0.950409  0.350753  0.350754  1
  Tm  Tm9  1  0.812793  0.187797  0.187797  1
  Tm  Tm10  1  0.187247  0.812035  0.812035  1
  Tm  Tm11  1  0.187177  0.812734  0.188664  1
  Tm  Tm12  1  0.812264  0.187791  0.811722  1
  Tm  Tm13  1  0.187178  0.188665  0.812733  1
  Tm  Tm14  1  0.812265  0.811721  0.187791  1
  Tm  Tm15  1  0.940447  0.561567  0.561567  1
  Cd  Cd16  1  0.579761  0.579046  0.579046  1
  Cd  Cd17  1  0.580031  0.580075  0.257536  1
  Cd  Cd18  1  0.580031  0.257536  0.580074  1
  Cd  Cd19  1  0.256347  0.580057  0.580056  1
  Ir  Ir20  1  0.142879  0.142696  0.142696  1
  Ir  Ir21  1  0.141926  0.143542  0.574581  1
  Ir  Ir22  1  0.141926  0.574581  0.143542  1
  Ir  Ir23  1  0.574802  0.142416  0.142416  1
