# generated using pymatgen
data_Ho16MgIn(AgIr2)2
_symmetry_space_group_name_H-M   'P 1'
_cell_length_a   9.55873262
_cell_length_b   9.59670501
_cell_length_c   9.59995300
_cell_angle_alpha   59.98880702
_cell_angle_beta   59.85725002
_cell_angle_gamma   59.97371282
_symmetry_Int_Tables_number   1
_chemical_formula_structural   Ho16MgIn(AgIr2)2
_chemical_formula_sum   'Ho16 Mg1 In1 Ag2 Ir4'
_cell_volume   621.84625097
_cell_formula_units_Z   1
loop_
 _symmetry_equiv_pos_site_id
 _symmetry_equiv_pos_as_xyz
  1  'x, y, z'
loop_
 _atom_site_type_symbol
 _atom_site_label
 _atom_site_symmetry_multiplicity
 _atom_site_fract_x
 _atom_site_fract_y
 _atom_site_fract_z
 _atom_site_occupancy
  Ho  Ho0  1  0.441485  0.438622  0.059946  1
  Ho  Ho1  1  0.651387  0.650592  0.046047  1
  Ho  Ho2  1  0.187422  0.814369  0.187850  1
  Ho  Ho3  1  0.068379  0.438067  0.058595  1
  Ho  Ho4  1  0.187422  0.814369  0.810361  1
  Ho  Ho5  1  0.068379  0.438067  0.434959  1
  Ho  Ho6  1  0.810157  0.192269  0.191256  1
  Ho  Ho7  1  0.651387  0.650592  0.651974  1
  Ho  Ho8  1  0.810157  0.192269  0.806320  1
  Ho  Ho9  1  0.189620  0.191972  0.809204  1
  Ho  Ho10  1  0.042272  0.650782  0.653474  1
  Ho  Ho11  1  0.440873  0.064101  0.059174  1
  Ho  Ho12  1  0.064244  0.064087  0.435834  1
  Ho  Ho13  1  0.648422  0.052271  0.649654  1
  Ho  Ho14  1  0.811419  0.808752  0.189915  1
  Ho  Ho15  1  0.440873  0.064101  0.435852  1
  Mg  Mg16  1  0.421845  0.720842  0.428657  1
  In  In17  1  0.745449  0.416232  0.419160  1
  Ag  Ag18  1  0.414731  0.417334  0.417439  1
  Ag  Ag19  1  0.414731  0.417334  0.750497  1
  Ir  Ir20  1  0.424513  0.859045  0.858220  1
  Ir  Ir21  1  0.855082  0.860003  0.860013  1
  Ir  Ir22  1  0.854671  0.423923  0.860702  1
  Ir  Ir23  1  0.855082  0.860003  0.424901  1
