# generated using pymatgen
data_Li4Ho4Pt3Rh
_symmetry_space_group_name_H-M   'P 1'
_cell_length_a   3.98349100
_cell_length_b   7.03086152
_cell_length_c   8.33234369
_cell_angle_alpha   90.00812247
_cell_angle_beta   90.00000000
_cell_angle_gamma   90.00000000
_symmetry_Int_Tables_number   1
_chemical_formula_structural   Li4Ho4Pt3Rh
_chemical_formula_sum   'Li4 Ho4 Pt3 Rh1'
_cell_volume   233.36706036
_cell_formula_units_Z   1
loop_
 _symmetry_equiv_pos_site_id
 _symmetry_equiv_pos_as_xyz
  1  'x, y, z'
loop_
 _atom_site_type_symbol
 _atom_site_label
 _atom_site_symmetry_multiplicity
 _atom_site_fract_x
 _atom_site_fract_y
 _atom_site_fract_z
 _atom_site_occupancy
  Li  Li0  1  0.250000  0.130134  0.940894  1
  Li  Li1  1  0.750000  0.869014  0.057672  1
  Li  Li2  1  0.250000  0.630664  0.559751  1
  Li  Li3  1  0.750000  0.370797  0.440035  1
  Ho  Ho4  1  0.250000  0.545130  0.177536  1
  Ho  Ho5  1  0.750000  0.463445  0.820291  1
  Ho  Ho6  1  0.250000  0.042800  0.319080  1
  Ho  Ho7  1  0.750000  0.954496  0.684528  1
  Pt  Pt8  1  0.750000  0.752072  0.376336  1
  Pt  Pt9  1  0.250000  0.246840  0.623842  1
  Pt  Pt10  1  0.750000  0.251470  0.124104  1
  Rh  Rh11  1  0.250000  0.743139  0.875930  1
