# generated using pymatgen
data_TmZr4Bi3F28
_symmetry_space_group_name_H-M   'P 1'
_cell_length_a   5.82479190
_cell_length_b   9.28133421
_cell_length_c   12.42601019
_cell_angle_alpha   62.11768982
_cell_angle_beta   90.03115718
_cell_angle_gamma   89.97037597
_symmetry_Int_Tables_number   1
_chemical_formula_structural   TmZr4Bi3F28
_chemical_formula_sum   'Tm1 Zr4 Bi3 F28'
_cell_volume   593.78657926
_cell_formula_units_Z   1
loop_
 _symmetry_equiv_pos_site_id
 _symmetry_equiv_pos_as_xyz
  1  'x, y, z'
loop_
 _atom_site_type_symbol
 _atom_site_label
 _atom_site_symmetry_multiplicity
 _atom_site_fract_x
 _atom_site_fract_y
 _atom_site_fract_z
 _atom_site_occupancy
  Tm  Tm0  1  0.756380  0.812349  0.765264  1
  Zr  Zr1  1  0.744906  0.270036  0.458053  1
  Zr  Zr2  1  0.243866  0.725333  0.039836  1
  Zr  Zr3  1  0.255745  0.725438  0.549642  1
  Zr  Zr4  1  0.756009  0.279645  0.952881  1
  Bi  Bi5  1  0.742349  0.814449  0.264466  1
  Bi  Bi6  1  0.242825  0.182671  0.236049  1
  Bi  Bi7  1  0.257533  0.176370  0.736061  1
  F  F8  1  0.469859  0.715029  0.917807  1
  F  F9  1  0.962321  0.288987  0.578537  1
  F  F10  1  0.540399  0.291474  0.076806  1
  F  F11  1  0.041062  0.711821  0.425757  1
  F  F12  1  0.454088  0.281000  0.546624  1
  F  F13  1  0.955020  0.722586  0.943893  1
  F  F14  1  0.541860  0.719489  0.455142  1
  F  F15  1  0.044790  0.284713  0.045127  1
  F  F16  1  0.765357  0.529091  0.856874  1
  F  F17  1  0.267219  0.480730  0.642895  1
  F  F18  1  0.231016  0.480989  0.138900  1
  F  F19  1  0.732160  0.516864  0.360638  1
  F  F20  1  0.760168  0.030225  0.056123  1
  F  F21  1  0.260377  0.974393  0.444238  1
  F  F22  1  0.239655  0.974977  0.942407  1
  F  F23  1  0.740346  0.021931  0.563329  1
  F  F24  1  0.986370  0.737666  0.652162  1
  F  F25  1  0.486599  0.267084  0.853402  1
  F  F26  1  0.014329  0.265923  0.354883  1
  F  F27  1  0.511824  0.733922  0.142594  1
  F  F28  1  0.040084  0.746554  0.166855  1
  F  F29  1  0.541254  0.252406  0.329704  1
  F  F30  1  0.960948  0.255358  0.828252  1
  F  F31  1  0.472348  0.749918  0.673080  1
  F  F32  1  0.418440  0.968393  0.232250  1
  F  F33  1  0.916648  0.029400  0.267960  1
  F  F34  1  0.580310  0.017338  0.766433  1
  F  F35  1  0.065533  0.965446  0.735073  1
