# generated using pymatgen
data_Er3Be2Co3(Ni3B2)2
_symmetry_space_group_name_H-M   'P 1'
_cell_length_a   4.97223400
_cell_length_b   4.97223490
_cell_length_c   9.56167100
_cell_angle_alpha   90.00000000
_cell_angle_beta   90.00000000
_cell_angle_gamma   119.99999399
_symmetry_Int_Tables_number   1
_chemical_formula_structural   Er3Be2Co3(Ni3B2)2
_chemical_formula_sum   'Er3 Be2 Co3 Ni6 B4'
_cell_volume   204.72347797
_cell_formula_units_Z   1
loop_
 _symmetry_equiv_pos_site_id
 _symmetry_equiv_pos_as_xyz
  1  'x, y, z'
loop_
 _atom_site_type_symbol
 _atom_site_label
 _atom_site_symmetry_multiplicity
 _atom_site_fract_x
 _atom_site_fract_y
 _atom_site_fract_z
 _atom_site_occupancy
  Er  Er0  1  0.000000  0.000000  0.000000  1
  Er  Er1  1  0.000000  0.000000  0.659847  1
  Er  Er2  1  0.000000  0.000000  0.340153  1
  Be  Be3  1  0.666667  0.333333  0.000000  1
  Be  Be4  1  0.333333  0.666667  0.000000  1
  Co  Co5  1  0.500000  0.500000  0.500000  1
  Co  Co6  1  0.500000  0.000000  0.500000  1
  Co  Co7  1  0.000000  0.500000  0.500000  1
  Ni  Ni8  1  0.500000  0.500000  0.811543  1
  Ni  Ni9  1  0.500000  0.000000  0.811543  1
  Ni  Ni10  1  0.000000  0.500000  0.811543  1
  Ni  Ni11  1  0.500000  0.500000  0.188457  1
  Ni  Ni12  1  0.500000  0.000000  0.188457  1
  Ni  Ni13  1  0.000000  0.500000  0.188457  1
  B  B14  1  0.666667  0.333333  0.654738  1
  B  B15  1  0.333333  0.666667  0.654738  1
  B  B16  1  0.333333  0.666667  0.345262  1
  B  B17  1  0.666667  0.333333  0.345262  1
