# generated using pymatgen
data_ThRe3C
_symmetry_space_group_name_H-M   'P 1'
_cell_length_a   4.01555374
_cell_length_b   6.10324089
_cell_length_c   7.57349500
_cell_angle_alpha   90.00000000
_cell_angle_beta   90.00000000
_cell_angle_gamma   70.90107545
_symmetry_Int_Tables_number   1
_chemical_formula_structural   ThRe3C
_chemical_formula_sum   'Th2 Re6 C2'
_cell_volume   175.39348161
_cell_formula_units_Z   2
loop_
 _symmetry_equiv_pos_site_id
 _symmetry_equiv_pos_as_xyz
  1  'x, y, z'
loop_
 _atom_site_type_symbol
 _atom_site_label
 _atom_site_symmetry_multiplicity
 _atom_site_fract_x
 _atom_site_fract_y
 _atom_site_fract_z
 _atom_site_occupancy
  Th  Th0  1  0.961852  0.081172  0.250001  1
  Th  Th1  1  0.038149  0.918829  0.750000  1
  Re  Re2  1  0.227706  0.542597  0.250001  1
  Re  Re3  1  0.772295  0.457402  0.750000  1
  Re  Re4  1  0.666558  0.666092  0.054703  1
  Re  Re5  1  0.666558  0.666092  0.445297  1
  Re  Re6  1  0.333443  0.333908  0.554703  1
  Re  Re7  1  0.333443  0.333908  0.945298  1
  C  C8  1  0.500001  0.000000  0.000000  1
  C  C9  1  0.500001  0.000000  0.500000  1
