# generated using pymatgen
data_V8CN3
_symmetry_space_group_name_H-M   'P 1'
_cell_length_a   4.51315621
_cell_length_b   4.93861823
_cell_length_c   5.72641900
_cell_angle_alpha   90.00000000
_cell_angle_beta   90.00000000
_cell_angle_gamma   90.03497920
_symmetry_Int_Tables_number   1
_chemical_formula_structural   V8CN3
_chemical_formula_sum   'V8 C1 N3'
_cell_volume   127.63472940
_cell_formula_units_Z   1
loop_
 _symmetry_equiv_pos_site_id
 _symmetry_equiv_pos_as_xyz
  1  'x, y, z'
loop_
 _atom_site_type_symbol
 _atom_site_label
 _atom_site_symmetry_multiplicity
 _atom_site_fract_x
 _atom_site_fract_y
 _atom_site_fract_z
 _atom_site_occupancy
  V  V0  1  0.243181  0.079136  0.880653  1
  V  V1  1  0.743183  0.922634  0.619863  1
  V  V2  1  0.256817  0.577366  0.619863  1
  V  V3  1  0.756819  0.420864  0.880653  1
  V  V4  1  0.245268  0.578348  0.116966  1
  V  V5  1  0.742698  0.418389  0.383064  1
  V  V6  1  0.257302  0.081611  0.383064  1
  V  V7  1  0.754732  0.921652  0.116966  1
  C  C8  1  0.000000  0.750000  0.373004  1
  N  N9  1  0.500000  0.750000  0.873349  1
  N  N10  1  0.000000  0.250000  0.627079  1
  N  N11  1  0.500000  0.250000  0.125475  1
