# generated using pymatgen
data_Tb2Er8Cd7InPd4
_symmetry_space_group_name_H-M   'P 1'
_cell_length_a   3.62253900
_cell_length_b   7.97625510
_cell_length_c   18.39145224
_cell_angle_alpha   89.77018601
_cell_angle_beta   90.00000000
_cell_angle_gamma   90.00000000
_symmetry_Int_Tables_number   1
_chemical_formula_structural   Tb2Er8Cd7InPd4
_chemical_formula_sum   'Tb2 Er8 Cd7 In1 Pd4'
_cell_volume   531.40377527
_cell_formula_units_Z   1
loop_
 _symmetry_equiv_pos_site_id
 _symmetry_equiv_pos_as_xyz
  1  'x, y, z'
loop_
 _atom_site_type_symbol
 _atom_site_label
 _atom_site_symmetry_multiplicity
 _atom_site_fract_x
 _atom_site_fract_y
 _atom_site_fract_z
 _atom_site_occupancy
  Tb  Tb0  1  0.000000  0.498046  0.500311  1
  Tb  Tb1  1  0.000000  0.001542  0.999704  1
  Er  Er2  1  0.000000  0.739382  0.280869  1
  Er  Er3  1  0.000000  0.260590  0.718783  1
  Er  Er4  1  0.000000  0.758219  0.780677  1
  Er  Er5  1  0.000000  0.241227  0.219447  1
  Er  Er6  1  0.000000  0.613358  0.083901  1
  Er  Er7  1  0.000000  0.387687  0.916217  1
  Er  Er8  1  0.000000  0.886849  0.583565  1
  Er  Er9  1  0.000000  0.113111  0.416025  1
  Cd  Cd10  1  0.500000  0.713680  0.931903  1
  Cd  Cd11  1  0.500000  0.287243  0.068614  1
  Cd  Cd12  1  0.500000  0.785149  0.431695  1
  Cd  Cd13  1  0.500000  0.212798  0.568856  1
  Cd  Cd14  1  0.500000  0.577794  0.648251  1
  Cd  Cd15  1  0.500000  0.423462  0.351510  1
  Cd  Cd16  1  0.500000  0.923558  0.148450  1
  In  In17  1  0.500000  0.076300  0.850668  1
  Pd  Pd18  1  0.500000  0.525893  0.195657  1
  Pd  Pd19  1  0.500000  0.474120  0.804376  1
  Pd  Pd20  1  0.500000  0.974153  0.695997  1
  Pd  Pd21  1  0.500000  0.025841  0.304525  1
