# generated using pymatgen
data_Zr6FeSi6Tc5
_symmetry_space_group_name_H-M   'P 1'
_cell_length_a   7.77044384
_cell_length_b   7.73550987
_cell_length_c   7.77089969
_cell_angle_alpha   126.66429044
_cell_angle_beta   127.20334766
_cell_angle_gamma   78.46903563
_symmetry_Int_Tables_number   1
_chemical_formula_structural   Zr6FeSi6Tc5
_chemical_formula_sum   'Zr6 Fe1 Si6 Tc5'
_cell_volume   288.78151652
_cell_formula_units_Z   1
loop_
 _symmetry_equiv_pos_site_id
 _symmetry_equiv_pos_as_xyz
  1  'x, y, z'
loop_
 _atom_site_type_symbol
 _atom_site_label
 _atom_site_symmetry_multiplicity
 _atom_site_fract_x
 _atom_site_fract_y
 _atom_site_fract_z
 _atom_site_occupancy
  Zr  Zr0  1  0.547756  0.505291  0.457413  1
  Zr  Zr1  1  0.048467  0.505114  0.957131  1
  Zr  Zr2  1  0.250310  0.099490  0.347438  1
  Zr  Zr3  1  0.751842  0.098913  0.849108  1
  Zr  Zr4  1  0.952699  0.908340  0.456161  1
  Zr  Zr5  1  0.452866  0.909703  0.956341  1
  Fe  Fe6  1  0.373911  0.253318  0.877395  1
  Si  Si7  1  0.333731  0.841297  0.506918  1
  Si  Si8  1  0.743482  0.496383  0.247019  1
  Si  Si9  1  0.833714  0.837239  0.004457  1
  Si  Si10  1  0.250075  0.497854  0.753198  1
  Si  Si11  1  0.168686  0.171529  0.002358  1
  Si  Si12  1  0.667299  0.169857  0.503333  1
  Tc  Tc13  1  0.625286  0.501960  0.877260  1
  Tc  Tc14  1  0.000579  0.755718  0.754945  1
  Tc  Tc15  1  0.874061  0.250140  0.377335  1
  Tc  Tc16  1  0.125831  0.504416  0.377986  1
  Tc  Tc17  1  0.499402  0.753436  0.254206  1
