# generated using pymatgen
data_Tb5Dy7Ru4
_symmetry_space_group_name_H-M   'P 1'
_cell_length_a   6.32292803
_cell_length_b   7.31607801
_cell_length_c   9.22438703
_cell_angle_alpha   89.99901571
_cell_angle_beta   90.00944794
_cell_angle_gamma   90.00509158
_symmetry_Int_Tables_number   1
_chemical_formula_structural   Tb5Dy7Ru4
_chemical_formula_sum   'Tb5 Dy7 Ru4'
_cell_volume   426.71123211
_cell_formula_units_Z   1
loop_
 _symmetry_equiv_pos_site_id
 _symmetry_equiv_pos_as_xyz
  1  'x, y, z'
loop_
 _atom_site_type_symbol
 _atom_site_label
 _atom_site_symmetry_multiplicity
 _atom_site_fract_x
 _atom_site_fract_y
 _atom_site_fract_z
 _atom_site_occupancy
  Tb  Tb0  1  0.329987  0.677066  0.064812  1
  Tb  Tb1  1  0.864694  0.540272  0.250037  1
  Tb  Tb2  1  0.635312  0.040330  0.250022  1
  Tb  Tb3  1  0.135244  0.459666  0.749970  1
  Tb  Tb4  1  0.364734  0.959710  0.749979  1
  Dy  Dy5  1  0.169983  0.177039  0.435165  1
  Dy  Dy6  1  0.670012  0.322970  0.564855  1
  Dy  Dy7  1  0.830012  0.822988  0.935119  1
  Dy  Dy8  1  0.670036  0.322931  0.935118  1
  Dy  Dy9  1  0.830008  0.822977  0.564850  1
  Dy  Dy10  1  0.329998  0.677025  0.435203  1
  Dy  Dy11  1  0.169959  0.177025  0.064847  1
  Ru  Ru12  1  0.040072  0.885558  0.250036  1
  Ru  Ru13  1  0.459904  0.385463  0.250034  1
  Ru  Ru14  1  0.959890  0.114501  0.750005  1
  Ru  Ru15  1  0.540155  0.614479  0.749949  1
