# generated using pymatgen
data_PrEu(Cd2Pt)2
_symmetry_space_group_name_H-M   'P 1'
_cell_length_a   5.59565838
_cell_length_b   5.59565807
_cell_length_c   8.52494100
_cell_angle_alpha   90.00000000
_cell_angle_beta   90.00000000
_cell_angle_gamma   134.35725395
_symmetry_Int_Tables_number   1
_chemical_formula_structural   PrEu(Cd2Pt)2
_chemical_formula_sum   'Pr1 Eu1 Cd4 Pt2'
_cell_volume   190.85187317
_cell_formula_units_Z   1
loop_
 _symmetry_equiv_pos_site_id
 _symmetry_equiv_pos_as_xyz
  1  'x, y, z'
loop_
 _atom_site_type_symbol
 _atom_site_label
 _atom_site_symmetry_multiplicity
 _atom_site_fract_x
 _atom_site_fract_y
 _atom_site_fract_z
 _atom_site_occupancy
  Pr  Pr0  1  0.567690  0.432312  0.750000  1
  Eu  Eu1  1  0.433719  0.566283  0.250000  1
  Cd  Cd2  1  0.143920  0.856082  0.051633  1
  Cd  Cd3  1  0.143920  0.856082  0.448367  1
  Cd  Cd4  1  0.856734  0.143268  0.549257  1
  Cd  Cd5  1  0.856734  0.143268  0.950743  1
  Pt  Pt6  1  0.723353  0.276649  0.250000  1
  Pt  Pt7  1  0.273939  0.726063  0.750000  1
