# generated using pymatgen
data_Pr4Ho12Cd4Ir3Pt
_symmetry_space_group_name_H-M   'P 1'
_cell_length_a   9.70180194
_cell_length_b   9.69283038
_cell_length_c   9.69283050
_cell_angle_alpha   60.15041001
_cell_angle_beta   60.03497423
_cell_angle_gamma   60.03495770
_symmetry_Int_Tables_number   1
_chemical_formula_structural   Pr4Ho12Cd4Ir3Pt
_chemical_formula_sum   'Pr4 Ho12 Cd4 Ir3 Pt1'
_cell_volume   645.59436235
_cell_formula_units_Z   1
loop_
 _symmetry_equiv_pos_site_id
 _symmetry_equiv_pos_as_xyz
  1  'x, y, z'
loop_
 _atom_site_type_symbol
 _atom_site_label
 _atom_site_symmetry_multiplicity
 _atom_site_fract_x
 _atom_site_fract_y
 _atom_site_fract_z
 _atom_site_occupancy
  Pr  Pr0  1  0.563034  0.937599  0.562923  1
  Pr  Pr1  1  0.937836  0.563461  0.936627  1
  Pr  Pr2  1  0.563034  0.562923  0.937599  1
  Pr  Pr3  1  0.937836  0.936627  0.563461  1
  Ho  Ho4  1  0.349402  0.346184  0.346184  1
  Ho  Ho5  1  0.349562  0.353073  0.953892  1
  Ho  Ho6  1  0.349562  0.953892  0.353073  1
  Ho  Ho7  1  0.951262  0.350080  0.350080  1
  Ho  Ho8  1  0.808076  0.187451  0.187451  1
  Ho  Ho9  1  0.184848  0.813727  0.813727  1
  Ho  Ho10  1  0.190041  0.806875  0.189511  1
  Ho  Ho11  1  0.811653  0.186088  0.811239  1
  Ho  Ho12  1  0.190041  0.189511  0.806875  1
  Ho  Ho13  1  0.811653  0.811239  0.186088  1
  Ho  Ho14  1  0.946835  0.553732  0.553732  1
  Ho  Ho15  1  0.555823  0.945658  0.945658  1
  Cd  Cd16  1  0.583227  0.577886  0.577886  1
  Cd  Cd17  1  0.578198  0.583347  0.260069  1
  Cd  Cd18  1  0.578198  0.260069  0.583347  1
  Cd  Cd19  1  0.260405  0.578522  0.578522  1
  Ir  Ir20  1  0.139178  0.146998  0.575048  1
  Ir  Ir21  1  0.139178  0.575048  0.146998  1
  Ir  Ir22  1  0.574994  0.139792  0.139792  1
  Pt  Pt23  1  0.146124  0.140215  0.140215  1
