# generated using pymatgen
data_NaSr3MnO6
_symmetry_space_group_name_H-M   'P 1'
_cell_length_a   6.77243284
_cell_length_b   6.77243323
_cell_length_c   6.77243281
_cell_angle_alpha   90.13656547
_cell_angle_beta   90.13656219
_cell_angle_gamma   90.13656789
_symmetry_Int_Tables_number   1
_chemical_formula_structural   NaSr3MnO6
_chemical_formula_sum   'Na2 Sr6 Mn2 O12'
_cell_volume   310.62073046
_cell_formula_units_Z   2
loop_
 _symmetry_equiv_pos_site_id
 _symmetry_equiv_pos_as_xyz
  1  'x, y, z'
loop_
 _atom_site_type_symbol
 _atom_site_label
 _atom_site_symmetry_multiplicity
 _atom_site_fract_x
 _atom_site_fract_y
 _atom_site_fract_z
 _atom_site_occupancy
  Na  Na0  1  0.250000  0.250000  0.250000  1
  Na  Na1  1  0.750000  0.750000  0.750000  1
  Sr  Sr2  1  0.750000  0.390109  0.109891  1
  Sr  Sr3  1  0.109891  0.750000  0.390109  1
  Sr  Sr4  1  0.390109  0.109891  0.750000  1
  Sr  Sr5  1  0.250000  0.609891  0.890109  1
  Sr  Sr6  1  0.890109  0.250000  0.609891  1
  Sr  Sr7  1  0.609891  0.890109  0.250000  1
  Mn  Mn8  1  0.000000  0.000000  0.000000  1
  Mn  Mn9  1  0.500000  0.500000  0.500000  1
  O  O10  1  0.442991  0.773532  0.576668  1
  O  O11  1  0.576668  0.442991  0.773532  1
  O  O12  1  0.773532  0.576668  0.442991  1
  O  O13  1  0.057009  0.923332  0.726468  1
  O  O14  1  0.726468  0.057009  0.923332  1
  O  O15  1  0.923332  0.726468  0.057009  1
  O  O16  1  0.557009  0.226468  0.423332  1
  O  O17  1  0.423332  0.557009  0.226468  1
  O  O18  1  0.226468  0.423332  0.557009  1
  O  O19  1  0.942991  0.076668  0.273532  1
  O  O20  1  0.076668  0.273532  0.942991  1
  O  O21  1  0.273532  0.942991  0.076668  1
