# generated using pymatgen
data_TbPr2Dy(GeO5)2
_symmetry_space_group_name_H-M   'P 1'
_cell_length_a   8.37166902
_cell_length_b   8.37173719
_cell_length_c   10.89732408
_cell_angle_alpha   61.24801184
_cell_angle_beta   61.24884738
_cell_angle_gamma   49.78021806
_symmetry_Int_Tables_number   1
_chemical_formula_structural   TbPr2Dy(GeO5)2
_chemical_formula_sum   'Tb2 Pr4 Dy2 Ge4 O20'
_cell_volume   494.43331196
_cell_formula_units_Z   2
loop_
 _symmetry_equiv_pos_site_id
 _symmetry_equiv_pos_as_xyz
  1  'x, y, z'
loop_
 _atom_site_type_symbol
 _atom_site_label
 _atom_site_symmetry_multiplicity
 _atom_site_fract_x
 _atom_site_fract_y
 _atom_site_fract_z
 _atom_site_occupancy
  Tb  Tb0  1  0.986672  0.735100  0.837833  1
  Tb  Tb1  1  0.264899  0.013330  0.662168  1
  Pr  Pr2  1  0.721914  0.207403  0.964129  1
  Pr  Pr3  1  0.792596  0.278079  0.535872  1
  Pr  Pr4  1  0.277997  0.792655  0.036060  1
  Pr  Pr5  1  0.207346  0.722006  0.463941  1
  Dy  Dy6  1  0.013615  0.264280  0.162263  1
  Dy  Dy7  1  0.735721  0.986382  0.337736  1
  Ge  Ge8  1  0.777772  0.595593  0.690887  1
  Ge  Ge9  1  0.404407  0.222229  0.809111  1
  Ge  Ge10  1  0.222123  0.404525  0.308949  1
  Ge  Ge11  1  0.595473  0.777878  0.191051  1
  O  O12  1  0.784498  0.629037  0.058103  1
  O  O13  1  0.370966  0.215498  0.441898  1
  O  O14  1  0.215466  0.369925  0.942668  1
  O  O15  1  0.630070  0.784539  0.557330  1
  O  O16  1  0.585245  0.587798  0.360016  1
  O  O17  1  0.412209  0.414753  0.139984  1
  O  O18  1  0.414644  0.412248  0.640058  1
  O  O19  1  0.587747  0.585359  0.859940  1
  O  O20  1  0.948341  0.656249  0.682582  1
  O  O21  1  0.343749  0.051660  0.817420  1
  O  O22  1  0.051695  0.343573  0.317022  1
  O  O23  1  0.656429  0.948306  0.182975  1
  O  O24  1  0.886610  0.080566  0.390882  1
  O  O25  1  0.919428  0.113396  0.109116  1
  O  O26  1  0.113066  0.919566  0.608627  1
  O  O27  1  0.080440  0.886930  0.891377  1
  O  O28  1  0.077943  0.674637  0.325063  1
  O  O29  1  0.325361  0.922062  0.174936  1
  O  O30  1  0.921420  0.325863  0.674937  1
  O  O31  1  0.674139  0.078574  0.825065  1
