# generated using pymatgen
data_HfZr2Bi2Sb
_symmetry_space_group_name_H-M   'P 1'
_cell_length_a   5.72231633
_cell_length_b   5.72231645
_cell_length_c   14.50132900
_cell_angle_alpha   90.00000000
_cell_angle_beta   90.00000000
_cell_angle_gamma   141.23354082
_symmetry_Int_Tables_number   1
_chemical_formula_structural   HfZr2Bi2Sb
_chemical_formula_sum   'Hf2 Zr4 Bi4 Sb2'
_cell_volume   297.32277464
_cell_formula_units_Z   2
loop_
 _symmetry_equiv_pos_site_id
 _symmetry_equiv_pos_as_xyz
  1  'x, y, z'
loop_
 _atom_site_type_symbol
 _atom_site_label
 _atom_site_symmetry_multiplicity
 _atom_site_fract_x
 _atom_site_fract_y
 _atom_site_fract_z
 _atom_site_occupancy
  Hf  Hf0  1  0.610341  0.389659  0.750000  1
  Hf  Hf1  1  0.389659  0.610341  0.250000  1
  Zr  Zr2  1  0.927231  0.072769  0.886920  1
  Zr  Zr3  1  0.072769  0.927231  0.113080  1
  Zr  Zr4  1  0.072769  0.927231  0.386920  1
  Zr  Zr5  1  0.927231  0.072769  0.613080  1
  Bi  Bi6  1  0.357512  0.642488  0.449520  1
  Bi  Bi7  1  0.642488  0.357512  0.550480  1
  Bi  Bi8  1  0.642488  0.357512  0.949520  1
  Bi  Bi9  1  0.357512  0.642488  0.050480  1
  Sb  Sb10  1  0.323113  0.676887  0.750000  1
  Sb  Sb11  1  0.676887  0.323113  0.250000  1
