# generated using pymatgen
data_La6Sm2BPd24
_symmetry_space_group_name_H-M   'P 1'
_cell_length_a   8.50845905
_cell_length_b   8.50845909
_cell_length_c   8.50845900
_cell_angle_alpha   90.00592590
_cell_angle_beta   89.99407410
_cell_angle_gamma   89.99407471
_symmetry_Int_Tables_number   1
_chemical_formula_structural   La6Sm2BPd24
_chemical_formula_sum   'La6 Sm2 B1 Pd24'
_cell_volume   615.96031350
_cell_formula_units_Z   1
loop_
 _symmetry_equiv_pos_site_id
 _symmetry_equiv_pos_as_xyz
  1  'x, y, z'
loop_
 _atom_site_type_symbol
 _atom_site_label
 _atom_site_symmetry_multiplicity
 _atom_site_fract_x
 _atom_site_fract_y
 _atom_site_fract_z
 _atom_site_occupancy
  La  La0  1  0.252481  0.252691  0.252688  1
  La  La1  1  0.747507  0.747315  0.747311  1
  La  La2  1  0.747303  0.747514  0.252698  1
  La  La3  1  0.747318  0.252683  0.747509  1
  La  La4  1  0.252692  0.252499  0.747313  1
  La  La5  1  0.252685  0.747313  0.252486  1
  Sm  Sm6  1  0.251607  0.748399  0.748398  1
  Sm  Sm7  1  0.748397  0.251601  0.251601  1
  B  B8  1  0.000001  0.999999  0.999999  1
  Pd  Pd9  1  0.251258  0.501535  0.998506  1
  Pd  Pd10  1  0.748744  0.498464  0.001499  1
  Pd  Pd11  1  0.998502  0.251257  0.498465  1
  Pd  Pd12  1  0.501538  0.251257  0.001499  1
  Pd  Pd13  1  0.001499  0.748740  0.501535  1
  Pd  Pd14  1  0.498466  0.748744  0.998505  1
  Pd  Pd15  1  0.501537  0.001497  0.251258  1
  Pd  Pd16  1  0.251257  0.998502  0.501534  1
  Pd  Pd17  1  0.498466  0.998503  0.748743  1
  Pd  Pd18  1  0.748742  0.001499  0.498465  1
  Pd  Pd19  1  0.998503  0.498464  0.251257  1
  Pd  Pd20  1  0.001496  0.501535  0.748741  1
  Pd  Pd21  1  0.250361  0.501816  0.501811  1
  Pd  Pd22  1  0.749642  0.498182  0.498184  1
  Pd  Pd23  1  0.501816  0.250360  0.498185  1
  Pd  Pd24  1  0.498184  0.749638  0.501812  1
  Pd  Pd25  1  0.501814  0.498185  0.250361  1
  Pd  Pd26  1  0.498186  0.501812  0.749638  1
  Pd  Pd27  1  0.256429  0.998103  0.998104  1
  Pd  Pd28  1  0.743570  0.001896  0.001896  1
  Pd  Pd29  1  0.998102  0.256432  0.001898  1
  Pd  Pd30  1  0.001897  0.743567  0.998103  1
  Pd  Pd31  1  0.998104  0.001896  0.256430  1
  Pd  Pd32  1  0.001897  0.998102  0.743568  1
