# generated using pymatgen
data_DyY2RhI3
_symmetry_space_group_name_H-M   'P 1'
_cell_length_a   4.25307900
_cell_length_b   8.87642271
_cell_length_c   12.36944149
_cell_angle_alpha   86.58598794
_cell_angle_beta   90.00000000
_cell_angle_gamma   90.00000000
_symmetry_Int_Tables_number   1
_chemical_formula_structural   DyY2RhI3
_chemical_formula_sum   'Dy2 Y4 Rh2 I6'
_cell_volume   466.14398714
_cell_formula_units_Z   2
loop_
 _symmetry_equiv_pos_site_id
 _symmetry_equiv_pos_as_xyz
  1  'x, y, z'
loop_
 _atom_site_type_symbol
 _atom_site_label
 _atom_site_symmetry_multiplicity
 _atom_site_fract_x
 _atom_site_fract_y
 _atom_site_fract_z
 _atom_site_occupancy
  Dy  Dy0  1  0.750000  0.134010  0.126129  1
  Dy  Dy1  1  0.250000  0.865990  0.873871  1
  Y  Y2  1  0.750000  0.098223  0.683542  1
  Y  Y3  1  0.250000  0.901777  0.316458  1
  Y  Y4  1  0.250000  0.261381  0.897079  1
  Y  Y5  1  0.750000  0.738619  0.102921  1
  Rh  Rh6  1  0.750000  0.055539  0.907983  1
  Rh  Rh7  1  0.250000  0.944461  0.092017  1
  I  I8  1  0.250000  0.352724  0.637136  1
  I  I9  1  0.750000  0.647276  0.362864  1
  I  I10  1  0.750000  0.141513  0.392330  1
  I  I11  1  0.250000  0.858487  0.607670  1
  I  I12  1  0.250000  0.425757  0.133018  1
  I  I13  1  0.750000  0.574243  0.866982  1
