# generated using pymatgen
data_Hf4Nb4Si3P
_symmetry_space_group_name_H-M   'P 1'
_cell_length_a   3.60353000
_cell_length_b   6.97626970
_cell_length_c   8.41596895
_cell_angle_alpha   89.68657874
_cell_angle_beta   90.00000000
_cell_angle_gamma   90.00000000
_symmetry_Int_Tables_number   1
_chemical_formula_structural   Hf4Nb4Si3P
_chemical_formula_sum   'Hf4 Nb4 Si3 P1'
_cell_volume   211.56753742
_cell_formula_units_Z   1
loop_
 _symmetry_equiv_pos_site_id
 _symmetry_equiv_pos_as_xyz
  1  'x, y, z'
loop_
 _atom_site_type_symbol
 _atom_site_label
 _atom_site_symmetry_multiplicity
 _atom_site_fract_x
 _atom_site_fract_y
 _atom_site_fract_z
 _atom_site_occupancy
  Hf  Hf0  1  0.250000  0.042590  0.667819  1
  Hf  Hf1  1  0.250000  0.538364  0.834872  1
  Hf  Hf2  1  0.750000  0.459973  0.166838  1
  Hf  Hf3  1  0.750000  0.956826  0.335433  1
  Nb  Nb4  1  0.750000  0.867304  0.939763  1
  Nb  Nb5  1  0.250000  0.632020  0.440729  1
  Nb  Nb6  1  0.750000  0.364395  0.561398  1
  Nb  Nb7  1  0.250000  0.138102  0.055413  1
  Si  Si8  1  0.250000  0.253927  0.357761  1
  Si  Si9  1  0.250000  0.758599  0.141625  1
  Si  Si10  1  0.750000  0.744443  0.641715  1
  P  P11  1  0.750000  0.243457  0.856634  1
