# generated using pymatgen
data_MgNi20(SnB3)2
_symmetry_space_group_name_H-M   'P 1'
_cell_length_a   7.50492054
_cell_length_b   7.50492045
_cell_length_c   7.50492100
_cell_angle_alpha   60.00000199
_cell_angle_beta   60.00000239
_cell_angle_gamma   60.00000120
_symmetry_Int_Tables_number   1
_chemical_formula_structural   MgNi20(SnB3)2
_chemical_formula_sum   'Mg1 Ni20 Sn2 B6'
_cell_volume   298.89822598
_cell_formula_units_Z   1
loop_
 _symmetry_equiv_pos_site_id
 _symmetry_equiv_pos_as_xyz
  1  'x, y, z'
loop_
 _atom_site_type_symbol
 _atom_site_label
 _atom_site_symmetry_multiplicity
 _atom_site_fract_x
 _atom_site_fract_y
 _atom_site_fract_z
 _atom_site_occupancy
  Mg  Mg0  1  0.000000  0.000000  0.000000  1
  Ni  Ni1  1  0.385707  0.385707  0.385707  1
  Ni  Ni2  1  0.614293  0.614293  0.614293  1
  Ni  Ni3  1  0.385707  0.385707  0.842878  1
  Ni  Ni4  1  0.385707  0.842878  0.385707  1
  Ni  Ni5  1  0.614293  0.614293  0.157122  1
  Ni  Ni6  1  0.614293  0.157122  0.614293  1
  Ni  Ni7  1  0.842878  0.385707  0.385707  1
  Ni  Ni8  1  0.157122  0.614293  0.614293  1
  Ni  Ni9  1  0.339528  0.000000  0.000000  1
  Ni  Ni10  1  0.660472  0.000000  0.000000  1
  Ni  Ni11  1  0.000000  0.339528  0.660472  1
  Ni  Ni12  1  0.000000  0.660472  0.339528  1
  Ni  Ni13  1  0.000000  0.339528  0.000000  1
  Ni  Ni14  1  0.660472  0.000000  0.339528  1
  Ni  Ni15  1  0.000000  0.660472  0.000000  1
  Ni  Ni16  1  0.339528  0.000000  0.660472  1
  Ni  Ni17  1  0.000000  0.000000  0.339528  1
  Ni  Ni18  1  0.000000  0.000000  0.660472  1
  Ni  Ni19  1  0.660472  0.339528  0.000000  1
  Ni  Ni20  1  0.339528  0.660472  0.000000  1
  Sn  Sn21  1  0.250000  0.250000  0.250000  1
  Sn  Sn22  1  0.750000  0.750000  0.750000  1
  B  B23  1  0.729670  0.270330  0.270330  1
  B  B24  1  0.270330  0.729670  0.729670  1
  B  B25  1  0.270330  0.729670  0.270330  1
  B  B26  1  0.729670  0.270330  0.729670  1
  B  B27  1  0.270330  0.270330  0.729670  1
  B  B28  1  0.729670  0.729670  0.270330  1
