# generated using pymatgen
data_GdGeBiO5
_symmetry_space_group_name_H-M   'P 1'
_cell_length_a   5.41100600
_cell_length_b   11.20022100
_cell_length_c   15.43082200
_cell_angle_alpha   90.00000000
_cell_angle_beta   90.00000000
_cell_angle_gamma   90.00000000
_symmetry_Int_Tables_number   1
_chemical_formula_structural   GdGeBiO5
_chemical_formula_sum   'Gd8 Ge8 Bi8 O40'
_cell_volume   935.17668146
_cell_formula_units_Z   8
loop_
 _symmetry_equiv_pos_site_id
 _symmetry_equiv_pos_as_xyz
  1  'x, y, z'
loop_
 _atom_site_type_symbol
 _atom_site_label
 _atom_site_symmetry_multiplicity
 _atom_site_fract_x
 _atom_site_fract_y
 _atom_site_fract_z
 _atom_site_occupancy
  Gd  Gd0  1  0.009848  0.640947  0.946312  1
  Gd  Gd1  1  0.990152  0.359053  0.053688  1
  Gd  Gd2  1  0.490152  0.140947  0.053688  1
  Gd  Gd3  1  0.990152  0.859053  0.446312  1
  Gd  Gd4  1  0.509848  0.859053  0.946312  1
  Gd  Gd5  1  0.009848  0.140947  0.553688  1
  Gd  Gd6  1  0.509848  0.359053  0.553688  1
  Gd  Gd7  1  0.490152  0.640947  0.446312  1
  Ge  Ge8  1  0.009062  0.596107  0.597402  1
  Ge  Ge9  1  0.990938  0.403893  0.402598  1
  Ge  Ge10  1  0.490938  0.096107  0.402598  1
  Ge  Ge11  1  0.990938  0.903893  0.097402  1
  Ge  Ge12  1  0.509062  0.903893  0.597402  1
  Ge  Ge13  1  0.009062  0.096107  0.902598  1
  Ge  Ge14  1  0.509062  0.403893  0.902598  1
  Ge  Ge15  1  0.490938  0.596107  0.097402  1
  Bi  Bi16  1  0.455854  0.647822  0.761330  1
  Bi  Bi17  1  0.544146  0.352178  0.238670  1
  Bi  Bi18  1  0.044146  0.147822  0.238670  1
  Bi  Bi19  1  0.544146  0.852178  0.261330  1
  Bi  Bi20  1  0.955854  0.852178  0.761330  1
  Bi  Bi21  1  0.455854  0.147822  0.738670  1
  Bi  Bi22  1  0.955854  0.352178  0.738670  1
  Bi  Bi23  1  0.044146  0.647822  0.261330  1
  O  O24  1  0.246755  0.764662  0.847410  1
  O  O25  1  0.753245  0.235338  0.152590  1
  O  O26  1  0.253245  0.264662  0.152590  1
  O  O27  1  0.753245  0.735338  0.347410  1
  O  O28  1  0.746755  0.735338  0.847410  1
  O  O29  1  0.246755  0.264662  0.652590  1
  O  O30  1  0.746755  0.235338  0.652590  1
  O  O31  1  0.253245  0.764662  0.347410  1
  O  O32  1  0.362188  0.811315  0.521315  1
  O  O33  1  0.637812  0.188685  0.478685  1
  O  O34  1  0.137812  0.311315  0.478685  1
  O  O35  1  0.637812  0.688685  0.021315  1
  O  O36  1  0.862188  0.688685  0.521315  1
  O  O37  1  0.362188  0.311315  0.978685  1
  O  O38  1  0.862188  0.188685  0.978685  1
  O  O39  1  0.137812  0.811315  0.021315  1
  O  O40  1  0.303954  0.542738  0.564526  1
  O  O41  1  0.696046  0.457262  0.435474  1
  O  O42  1  0.196046  0.042738  0.435474  1
  O  O43  1  0.696046  0.957262  0.064526  1
  O  O44  1  0.803954  0.957262  0.564526  1
  O  O45  1  0.303954  0.042738  0.935474  1
  O  O46  1  0.803954  0.457262  0.935474  1
  O  O47  1  0.196046  0.542738  0.064526  1
  O  O48  1  0.314120  0.525808  0.873019  1
  O  O49  1  0.685880  0.474192  0.126981  1
  O  O50  1  0.185880  0.025808  0.126981  1
  O  O51  1  0.685880  0.974192  0.373019  1
  O  O52  1  0.814120  0.974192  0.873019  1
  O  O53  1  0.314120  0.025808  0.626981  1
  O  O54  1  0.814120  0.474192  0.626981  1
  O  O55  1  0.185880  0.525808  0.373019  1
  O  O56  1  0.064097  0.669994  0.698833  1
  O  O57  1  0.935903  0.330006  0.301167  1
  O  O58  1  0.435903  0.169994  0.301167  1
  O  O59  1  0.935903  0.830006  0.198833  1
  O  O60  1  0.564097  0.830006  0.698833  1
  O  O61  1  0.064097  0.169994  0.801167  1
  O  O62  1  0.564097  0.330006  0.801167  1
  O  O63  1  0.435903  0.669994  0.198833  1
