# generated using pymatgen
data_Cs2NaTmSb2
_symmetry_space_group_name_H-M   'P 1'
_cell_length_a   10.34022700
_cell_length_b   10.34022686
_cell_length_c   10.34022649
_cell_angle_alpha   136.74277888
_cell_angle_beta   62.53494398
_cell_angle_gamma   137.13199955
_symmetry_Int_Tables_number   1
_chemical_formula_structural   Cs2NaTmSb2
_chemical_formula_sum   'Cs4 Na2 Tm2 Sb4'
_cell_volume   509.13919990
_cell_formula_units_Z   2
loop_
 _symmetry_equiv_pos_site_id
 _symmetry_equiv_pos_as_xyz
  1  'x, y, z'
loop_
 _atom_site_type_symbol
 _atom_site_label
 _atom_site_symmetry_multiplicity
 _atom_site_fract_x
 _atom_site_fract_y
 _atom_site_fract_z
 _atom_site_occupancy
  Cs  Cs0  1  0.323778  0.774054  0.097832  1
  Cs  Cs1  1  0.176222  0.274054  0.450277  1
  Cs  Cs2  1  0.823778  0.725946  0.549724  1
  Cs  Cs3  1  0.676223  0.225946  0.902168  1
  Na  Na4  1  0.750000  0.250000  0.500000  1
  Na  Na5  1  0.250000  0.750000  0.500000  1
  Tm  Tm6  1  0.250000  0.250000  0.000000  1
  Tm  Tm7  1  0.750000  0.750000  0.000000  1
  Sb  Sb8  1  0.907822  0.223730  0.131552  1
  Sb  Sb9  1  0.592178  0.723730  0.315909  1
  Sb  Sb10  1  0.407822  0.276270  0.684092  1
  Sb  Sb11  1  0.092178  0.776270  0.868448  1
