# generated using pymatgen
data_Er6VP12Rh17
_symmetry_space_group_name_H-M   'P 1'
_cell_length_a   3.91036000
_cell_length_b   11.19700000
_cell_length_c   12.74194400
_cell_angle_alpha   90.00000000
_cell_angle_beta   90.00000000
_cell_angle_gamma   90.00000000
_symmetry_Int_Tables_number   1
_chemical_formula_structural   Er6VP12Rh17
_chemical_formula_sum   'Er6 V1 P12 Rh17'
_cell_volume   557.89711040
_cell_formula_units_Z   1
loop_
 _symmetry_equiv_pos_site_id
 _symmetry_equiv_pos_as_xyz
  1  'x, y, z'
loop_
 _atom_site_type_symbol
 _atom_site_label
 _atom_site_symmetry_multiplicity
 _atom_site_fract_x
 _atom_site_fract_y
 _atom_site_fract_z
 _atom_site_occupancy
  Er  Er0  1  0.750000  0.250000  0.480758  1
  Er  Er1  1  0.250000  0.750000  0.521265  1
  Er  Er2  1  0.250000  0.936097  0.794428  1
  Er  Er3  1  0.250000  0.563903  0.794428  1
  Er  Er4  1  0.750000  0.066873  0.202357  1
  Er  Er5  1  0.750000  0.433127  0.202357  1
  V  V6  1  0.250000  0.250000  0.842647  1
  P  P7  1  0.250000  0.250000  0.123918  1
  P  P8  1  0.750000  0.750000  0.876034  1
  P  P9  1  0.250000  0.250000  0.656560  1
  P  P10  1  0.750000  0.750000  0.350945  1
  P  P11  1  0.250000  0.433838  0.381206  1
  P  P12  1  0.250000  0.066162  0.381206  1
  P  P13  1  0.750000  0.564284  0.618186  1
  P  P14  1  0.750000  0.935716  0.618186  1
  P  P15  1  0.250000  0.901706  0.108970  1
  P  P16  1  0.250000  0.598294  0.108970  1
  P  P17  1  0.750000  0.097003  0.890753  1
  P  P18  1  0.750000  0.402997  0.890753  1
  Rh  Rh19  1  0.750000  0.750000  0.167561  1
  Rh  Rh20  1  0.250000  0.250000  0.301667  1
  Rh  Rh21  1  0.750000  0.750000  0.698810  1
  Rh  Rh22  1  0.750000  0.250000  0.014967  1
  Rh  Rh23  1  0.250000  0.750000  0.976456  1
  Rh  Rh24  1  0.250000  0.417250  0.010268  1
  Rh  Rh25  1  0.250000  0.082750  0.010268  1
  Rh  Rh26  1  0.750000  0.583489  0.989557  1
  Rh  Rh27  1  0.750000  0.916511  0.989557  1
  Rh  Rh28  1  0.250000  0.457831  0.567819  1
  Rh  Rh29  1  0.250000  0.042169  0.567819  1
  Rh  Rh30  1  0.750000  0.545369  0.430138  1
  Rh  Rh31  1  0.750000  0.954631  0.430138  1
  Rh  Rh32  1  0.250000  0.877267  0.290035  1
  Rh  Rh33  1  0.250000  0.622733  0.290035  1
  Rh  Rh34  1  0.750000  0.124266  0.710488  1
  Rh  Rh35  1  0.750000  0.375734  0.710488  1
