# generated using pymatgen
data_Rb2Pu(SO5)2
_symmetry_space_group_name_H-M   'P 1'
_cell_length_a   14.49369100
_cell_length_b   5.60892214
_cell_length_c   7.19905100
_cell_angle_alpha   66.53310623
_cell_angle_beta   90.00000000
_cell_angle_gamma   90.00000000
_symmetry_Int_Tables_number   1
_chemical_formula_structural   Rb2Pu(SO5)2
_chemical_formula_sum   'Rb4 Pu2 S4 O20'
_cell_volume   536.83456584
_cell_formula_units_Z   2
loop_
 _symmetry_equiv_pos_site_id
 _symmetry_equiv_pos_as_xyz
  1  'x, y, z'
loop_
 _atom_site_type_symbol
 _atom_site_label
 _atom_site_symmetry_multiplicity
 _atom_site_fract_x
 _atom_site_fract_y
 _atom_site_fract_z
 _atom_site_occupancy
  Rb  Rb0  1  0.650292  0.664608  0.120535  1
  Rb  Rb1  1  0.150292  0.335392  0.379465  1
  Rb  Rb2  1  0.349708  0.335392  0.879465  1
  Rb  Rb3  1  0.849708  0.664608  0.620535  1
  Pu  Pu4  1  0.500000  0.000000  0.500000  1
  Pu  Pu5  1  0.000000  0.000000  0.000000  1
  S  S6  1  0.605157  0.385733  0.738467  1
  S  S7  1  0.105157  0.614267  0.761533  1
  S  S8  1  0.394843  0.614267  0.261533  1
  S  S9  1  0.894843  0.385733  0.238467  1
  O  O10  1  0.654562  0.258450  0.929179  1
  O  O11  1  0.154562  0.741550  0.570821  1
  O  O12  1  0.345438  0.741550  0.070821  1
  O  O13  1  0.845438  0.258450  0.429179  1
  O  O14  1  0.535103  0.193836  0.716812  1
  O  O15  1  0.035103  0.806164  0.783188  1
  O  O16  1  0.464897  0.806164  0.283188  1
  O  O17  1  0.964897  0.193836  0.216812  1
  O  O18  1  0.544471  0.602032  0.752400  1
  O  O19  1  0.044471  0.397968  0.747600  1
  O  O20  1  0.455529  0.397968  0.247600  1
  O  O21  1  0.955529  0.602032  0.252400  1
  O  O22  1  0.663905  0.492187  0.559221  1
  O  O23  1  0.163905  0.507813  0.940779  1
  O  O24  1  0.336095  0.507813  0.440779  1
  O  O25  1  0.836095  0.492187  0.059221  1
  O  O26  1  0.613798  0.061259  0.400668  1
  O  O27  1  0.113798  0.938741  0.099332  1
  O  O28  1  0.386202  0.938741  0.599332  1
  O  O29  1  0.886202  0.061259  0.900668  1
