# generated using pymatgen
data_Ac17Yb3Si15Pt
_symmetry_space_group_name_H-M   'P 1'
_cell_length_a   8.35636356
_cell_length_b   8.30544010
_cell_length_c   15.92922000
_cell_angle_alpha   90.05319499
_cell_angle_beta   89.69868090
_cell_angle_gamma   90.18362121
_symmetry_Int_Tables_number   1
_chemical_formula_structural   Ac17Yb3Si15Pt
_chemical_formula_sum   'Ac17 Yb3 Si15 Pt1'
_cell_volume   1105.51864328
_cell_formula_units_Z   1
loop_
 _symmetry_equiv_pos_site_id
 _symmetry_equiv_pos_as_xyz
  1  'x, y, z'
loop_
 _atom_site_type_symbol
 _atom_site_label
 _atom_site_symmetry_multiplicity
 _atom_site_fract_x
 _atom_site_fract_y
 _atom_site_fract_z
 _atom_site_occupancy
  Ac  Ac0  1  0.696793  0.687565  0.500077  1
  Ac  Ac1  1  0.377528  0.008044  0.445951  1
  Ac  Ac2  1  0.490854  0.879636  0.701823  1
  Ac  Ac3  1  0.509483  0.120360  0.195980  1
  Ac  Ac4  1  0.878567  0.488204  0.297585  1
  Ac  Ac5  1  0.120570  0.506621  0.801138  1
  Ac  Ac6  1  0.624201  0.991228  0.947491  1
  Ac  Ac7  1  0.002518  0.374113  0.555685  1
  Ac  Ac8  1  0.992591  0.622850  0.050571  1
  Ac  Ac9  1  0.129120  0.989707  0.874524  1
  Ac  Ac10  1  0.516389  0.625744  0.126390  1
  Ac  Ac11  1  0.471320  0.366956  0.631621  1
  Ac  Ac12  1  0.625790  0.514606  0.873630  1
  Ac  Ac13  1  0.374674  0.479047  0.371947  1
  Ac  Ac14  1  0.877453  0.022395  0.376826  1
  Ac  Ac15  1  0.983914  0.121333  0.122055  1
  Ac  Ac16  1  0.025308  0.884997  0.624694  1
  Yb  Yb17  1  0.311846  0.309043  0.999244  1
  Yb  Yb18  1  0.188871  0.809618  0.250269  1
  Yb  Yb19  1  0.813495  0.191132  0.749024  1
  Si  Si20  1  0.332622  0.700506  0.952708  1
  Si  Si21  1  0.663604  0.298293  0.457006  1
  Si  Si22  1  0.704686  0.333686  0.047683  1
  Si  Si23  1  0.301239  0.669904  0.544119  1
  Si  Si24  1  0.800012  0.831295  0.204843  1
  Si  Si25  1  0.168977  0.200076  0.291791  1
  Si  Si26  1  0.833129  0.798679  0.796047  1
  Si  Si27  1  0.288051  0.915271  0.058385  1
  Si  Si28  1  0.582456  0.790313  0.308857  1
  Si  Si29  1  0.427362  0.205921  0.815325  1
  Si  Si30  1  0.787806  0.585189  0.690892  1
  Si  Si31  1  0.211203  0.417532  0.187281  1
  Si  Si32  1  0.702747  0.078772  0.560980  1
  Si  Si33  1  0.916084  0.288764  0.941492  1
  Si  Si34  1  0.084285  0.712101  0.439524  1
  Pt  Pt35  1  0.184454  0.180497  0.706542  1
