# generated using pymatgen
data_Dy5Y8Tm7Bi12
_symmetry_space_group_name_H-M   'P 1'
_cell_length_a   8.22552690
_cell_length_b   9.47987710
_cell_length_c   12.03890320
_cell_angle_alpha   89.99752604
_cell_angle_beta   89.94890725
_cell_angle_gamma   89.98379681
_symmetry_Int_Tables_number   1
_chemical_formula_structural   Dy5Y8Tm7Bi12
_chemical_formula_sum   'Dy5 Y8 Tm7 Bi12'
_cell_volume   938.75695133
_cell_formula_units_Z   1
loop_
 _symmetry_equiv_pos_site_id
 _symmetry_equiv_pos_as_xyz
  1  'x, y, z'
loop_
 _atom_site_type_symbol
 _atom_site_label
 _atom_site_symmetry_multiplicity
 _atom_site_fract_x
 _atom_site_fract_y
 _atom_site_fract_z
 _atom_site_occupancy
  Dy  Dy0  1  0.307063  0.435295  0.940510  1
  Dy  Dy1  1  0.806861  0.064645  0.559541  1
  Dy  Dy2  1  0.692960  0.935793  0.059601  1
  Dy  Dy3  1  0.193119  0.564601  0.440468  1
  Dy  Dy4  1  0.692721  0.564270  0.059431  1
  Y  Y5  1  0.186320  0.750168  0.718564  1
  Y  Y6  1  0.686349  0.750052  0.781249  1
  Y  Y7  1  0.813607  0.250138  0.281381  1
  Y  Y8  1  0.313763  0.249812  0.218642  1
  Y  Y9  1  0.353666  0.750248  0.216016  1
  Y  Y10  1  0.854377  0.750423  0.284415  1
  Y  Y11  1  0.646205  0.250078  0.784255  1
  Y  Y12  1  0.146107  0.250056  0.715790  1
  Tm  Tm13  1  0.025748  0.750163  0.988836  1
  Tm  Tm14  1  0.525191  0.750066  0.511024  1
  Tm  Tm15  1  0.975039  0.249832  0.011042  1
  Tm  Tm16  1  0.474809  0.250207  0.488991  1
  Tm  Tm17  1  0.193000  0.934621  0.440547  1
  Tm  Tm18  1  0.306984  0.065369  0.940507  1
  Tm  Tm19  1  0.807093  0.434537  0.559482  1
  Bi  Bi20  1  0.433772  0.003981  0.672421  1
  Bi  Bi21  1  0.933781  0.496187  0.827368  1
  Bi  Bi22  1  0.566047  0.503969  0.327706  1
  Bi  Bi23  1  0.066182  0.996199  0.172525  1
  Bi  Bi24  1  0.565825  0.996290  0.327558  1
  Bi  Bi25  1  0.066122  0.503824  0.172634  1
  Bi  Bi26  1  0.433999  0.496233  0.672374  1
  Bi  Bi27  1  0.934194  0.003879  0.827486  1
  Bi  Bi28  1  0.406172  0.751421  0.957547  1
  Bi  Bi29  1  0.906660  0.749064  0.542282  1
  Bi  Bi30  1  0.592923  0.249510  0.042042  1
  Bi  Bi31  1  0.093340  0.249067  0.457765  1
