# generated using pymatgen
data_Tm5Lu11(NiAg)4
_symmetry_space_group_name_H-M   'P 1'
_cell_length_a   9.24220001
_cell_length_b   9.24817729
_cell_length_c   9.24817765
_cell_angle_alpha   60.01672411
_cell_angle_beta   60.02137404
_cell_angle_gamma   60.02137861
_symmetry_Int_Tables_number   1
_chemical_formula_structural   Tm5Lu11(NiAg)4
_chemical_formula_sum   'Tm5 Lu11 Ni4 Ag4'
_cell_volume   559.20084395
_cell_formula_units_Z   1
loop_
 _symmetry_equiv_pos_site_id
 _symmetry_equiv_pos_as_xyz
  1  'x, y, z'
loop_
 _atom_site_type_symbol
 _atom_site_label
 _atom_site_symmetry_multiplicity
 _atom_site_fract_x
 _atom_site_fract_y
 _atom_site_fract_z
 _atom_site_occupancy
  Tm  Tm0  1  0.349865  0.351080  0.351080  1
  Tm  Tm1  1  0.351064  0.351263  0.946606  1
  Tm  Tm2  1  0.351064  0.946606  0.351263  1
  Tm  Tm3  1  0.947973  0.351080  0.351080  1
  Tm  Tm4  1  0.811641  0.188359  0.188359  1
  Lu  Lu5  1  0.188088  0.811912  0.811912  1
  Lu  Lu6  1  0.188544  0.811515  0.188203  1
  Lu  Lu7  1  0.811738  0.188203  0.811515  1
  Lu  Lu8  1  0.188544  0.188203  0.811515  1
  Lu  Lu9  1  0.811738  0.811515  0.188203  1
  Lu  Lu10  1  0.934964  0.565036  0.565036  1
  Lu  Lu11  1  0.564580  0.935420  0.935420  1
  Lu  Lu12  1  0.564219  0.935258  0.564956  1
  Lu  Lu13  1  0.935566  0.564956  0.935258  1
  Lu  Lu14  1  0.564219  0.564956  0.935258  1
  Lu  Lu15  1  0.935566  0.935258  0.564956  1
  Ni  Ni16  1  0.143372  0.142419  0.142419  1
  Ni  Ni17  1  0.142562  0.141542  0.573333  1
  Ni  Ni18  1  0.142562  0.573333  0.141542  1
  Ni  Ni19  1  0.571790  0.142419  0.142419  1
  Ag  Ag20  1  0.583081  0.582784  0.582784  1
  Ag  Ag21  1  0.582952  0.582856  0.251239  1
  Ag  Ag22  1  0.582952  0.251239  0.582856  1
  Ag  Ag23  1  0.251352  0.582784  0.582784  1
