# generated using pymatgen
data_Sc2Al4CuPt
_symmetry_space_group_name_H-M   'P 1'
_cell_length_a   4.15210100
_cell_length_b   5.31549581
_cell_length_c   6.70202000
_cell_angle_alpha   90.00000000
_cell_angle_beta   90.00000000
_cell_angle_gamma   67.01030052
_symmetry_Int_Tables_number   1
_chemical_formula_structural   Sc2Al4CuPt
_chemical_formula_sum   'Sc2 Al4 Cu1 Pt1'
_cell_volume   136.16849107
_cell_formula_units_Z   1
loop_
 _symmetry_equiv_pos_site_id
 _symmetry_equiv_pos_as_xyz
  1  'x, y, z'
loop_
 _atom_site_type_symbol
 _atom_site_label
 _atom_site_symmetry_multiplicity
 _atom_site_fract_x
 _atom_site_fract_y
 _atom_site_fract_z
 _atom_site_occupancy
  Sc  Sc0  1  0.573730  0.852541  0.249999  1
  Sc  Sc1  1  0.428587  0.142824  0.750000  1
  Al  Al2  1  0.863048  0.273904  0.046286  1
  Al  Al3  1  0.863048  0.273904  0.453715  1
  Al  Al4  1  0.136377  0.727244  0.553829  1
  Al  Al5  1  0.136377  0.727244  0.946172  1
  Cu  Cu6  1  0.708632  0.582736  0.750000  1
  Pt  Pt7  1  0.290196  0.419605  0.249999  1
