# generated using pymatgen
data_BeRe4Si
_symmetry_space_group_name_H-M   'P 1'
_cell_length_a   4.73665116
_cell_length_b   4.73665087
_cell_length_c   4.73665037
_cell_angle_alpha   103.81921222
_cell_angle_beta   103.81920662
_cell_angle_gamma   121.48543615
_symmetry_Int_Tables_number   1
_chemical_formula_structural   BeRe4Si
_chemical_formula_sum   'Be1 Re4 Si1'
_cell_volume   79.06423739
_cell_formula_units_Z   1
loop_
 _symmetry_equiv_pos_site_id
 _symmetry_equiv_pos_as_xyz
  1  'x, y, z'
loop_
 _atom_site_type_symbol
 _atom_site_label
 _atom_site_symmetry_multiplicity
 _atom_site_fract_x
 _atom_site_fract_y
 _atom_site_fract_z
 _atom_site_occupancy
  Be  Be0  1  0.750000  0.750000  0.000000  1
  Re  Re1  1  0.153673  0.653673  0.807345  1
  Re  Re2  1  0.346327  0.153673  0.500000  1
  Re  Re3  1  0.653673  0.846327  0.500000  1
  Re  Re4  1  0.846327  0.346327  0.192655  1
  Si  Si5  1  0.250000  0.250000  0.000000  1
