# generated using pymatgen
data_Dy3Tm3MnSb2
_symmetry_space_group_name_H-M   'P 1'
_cell_length_a   8.10939800
_cell_length_b   8.10939828
_cell_length_c   4.24254000
_cell_angle_alpha   90.00000000
_cell_angle_beta   90.00000000
_cell_angle_gamma   119.99999886
_symmetry_Int_Tables_number   1
_chemical_formula_structural   Dy3Tm3MnSb2
_chemical_formula_sum   'Dy3 Tm3 Mn1 Sb2'
_cell_volume   241.62052774
_cell_formula_units_Z   1
loop_
 _symmetry_equiv_pos_site_id
 _symmetry_equiv_pos_as_xyz
  1  'x, y, z'
loop_
 _atom_site_type_symbol
 _atom_site_label
 _atom_site_symmetry_multiplicity
 _atom_site_fract_x
 _atom_site_fract_y
 _atom_site_fract_z
 _atom_site_occupancy
  Dy  Dy0  1  0.602788  0.000000  0.000000  1
  Dy  Dy1  1  0.000000  0.602788  0.000000  1
  Dy  Dy2  1  0.397212  0.397212  0.000000  1
  Tm  Tm3  1  0.234447  0.000000  0.500000  1
  Tm  Tm4  1  0.000000  0.234447  0.500000  1
  Tm  Tm5  1  0.765553  0.765553  0.500000  1
  Mn  Mn6  1  0.000000  0.000000  0.000000  1
  Sb  Sb7  1  0.333333  0.666667  0.500000  1
  Sb  Sb8  1  0.666667  0.333333  0.500000  1
