# generated using pymatgen
data_Ce2Y2Zn8IrRu
_symmetry_space_group_name_H-M   'P 1'
_cell_length_a   7.13330200
_cell_length_b   7.13330200
_cell_length_c   5.20809700
_cell_angle_alpha   90.00000000
_cell_angle_beta   90.00000000
_cell_angle_gamma   90.00000000
_symmetry_Int_Tables_number   1
_chemical_formula_structural   Ce2Y2Zn8IrRu
_chemical_formula_sum   'Ce2 Y2 Zn8 Ir1 Ru1'
_cell_volume   265.00879433
_cell_formula_units_Z   1
loop_
 _symmetry_equiv_pos_site_id
 _symmetry_equiv_pos_as_xyz
  1  'x, y, z'
loop_
 _atom_site_type_symbol
 _atom_site_label
 _atom_site_symmetry_multiplicity
 _atom_site_fract_x
 _atom_site_fract_y
 _atom_site_fract_z
 _atom_site_occupancy
  Ce  Ce0  1  0.000000  0.000000  0.000000  1
  Ce  Ce1  1  0.500000  0.500000  0.000000  1
  Y  Y2  1  0.000000  0.500000  0.782559  1
  Y  Y3  1  0.500000  0.000000  0.217441  1
  Zn  Zn4  1  0.183343  0.684702  0.290116  1
  Zn  Zn5  1  0.816657  0.684702  0.290116  1
  Zn  Zn6  1  0.816657  0.315298  0.290116  1
  Zn  Zn7  1  0.315298  0.183343  0.709884  1
  Zn  Zn8  1  0.183343  0.315298  0.290116  1
  Zn  Zn9  1  0.684702  0.183343  0.709884  1
  Zn  Zn10  1  0.684702  0.816657  0.709884  1
  Zn  Zn11  1  0.315298  0.816657  0.709884  1
  Ir  Ir12  1  0.500000  0.500000  0.500000  1
  Ru  Ru13  1  0.000000  0.000000  0.500000  1
