# generated using pymatgen
data_Ta7Nb5Al8(AuC)4
_symmetry_space_group_name_H-M   'P 1'
_cell_length_a   8.43724903
_cell_length_b   8.43764425
_cell_length_c   8.44463410
_cell_angle_alpha   59.96017624
_cell_angle_beta   59.97827855
_cell_angle_gamma   59.95568938
_symmetry_Int_Tables_number   1
_chemical_formula_structural   Ta7Nb5Al8(AuC)4
_chemical_formula_sum   'Ta7 Nb5 Al8 Au4 C4'
_cell_volume   424.75668749
_cell_formula_units_Z   1
loop_
 _symmetry_equiv_pos_site_id
 _symmetry_equiv_pos_as_xyz
  1  'x, y, z'
loop_
 _atom_site_type_symbol
 _atom_site_label
 _atom_site_symmetry_multiplicity
 _atom_site_fract_x
 _atom_site_fract_y
 _atom_site_fract_z
 _atom_site_occupancy
  Ta  Ta0  1  0.321278  0.321220  0.679190  1
  Ta  Ta1  1  0.571443  0.570496  0.929081  1
  Ta  Ta2  1  0.929154  0.570176  0.571542  1
  Ta  Ta3  1  0.571197  0.928960  0.929261  1
  Ta  Ta4  1  0.928902  0.928777  0.571685  1
  Ta  Ta5  1  0.678725  0.321053  0.679205  1
  Ta  Ta6  1  0.928877  0.570892  0.928963  1
  Nb  Nb7  1  0.569499  0.930217  0.569895  1
  Nb  Nb8  1  0.319619  0.679628  0.681208  1
  Nb  Nb9  1  0.680510  0.319575  0.319709  1
  Nb  Nb10  1  0.319598  0.680040  0.319601  1
  Nb  Nb11  1  0.680895  0.679882  0.319649  1
  Al  Al12  1  0.914415  0.913592  0.914193  1
  Al  Al13  1  0.991282  0.336315  0.335650  1
  Al  Al14  1  0.336521  0.990466  0.336988  1
  Al  Al15  1  0.335573  0.336649  0.991923  1
  Al  Al16  1  0.914125  0.257592  0.914565  1
  Al  Al17  1  0.913262  0.914188  0.258641  1
  Al  Al18  1  0.258447  0.913877  0.913361  1
  Al  Al19  1  0.336829  0.335913  0.336095  1
  Au  Au20  1  0.125636  0.125620  0.123894  1
  Au  Au21  1  0.624889  0.126181  0.122777  1
  Au  Au22  1  0.125073  0.624797  0.125101  1
  Au  Au23  1  0.123305  0.126713  0.624984  1
  C  C24  1  0.626417  0.623012  0.626732  1
  C  C25  1  0.123283  0.624278  0.626506  1
  C  C26  1  0.625159  0.124415  0.626971  1
  C  C27  1  0.626089  0.625478  0.122627  1
