# generated using pymatgen
data_K7Pa(SO4)6
_symmetry_space_group_name_H-M   'P 1'
_cell_length_a   9.59226152
_cell_length_b   9.59226232
_cell_length_c   9.59226282
_cell_angle_alpha   109.22249807
_cell_angle_beta   109.22249271
_cell_angle_gamma   109.22250548
_symmetry_Int_Tables_number   1
_chemical_formula_structural   K7Pa(SO4)6
_chemical_formula_sum   'K7 Pa1 S6 O24'
_cell_volume   685.60977863
_cell_formula_units_Z   1
loop_
 _symmetry_equiv_pos_site_id
 _symmetry_equiv_pos_as_xyz
  1  'x, y, z'
loop_
 _atom_site_type_symbol
 _atom_site_label
 _atom_site_symmetry_multiplicity
 _atom_site_fract_x
 _atom_site_fract_y
 _atom_site_fract_z
 _atom_site_occupancy
  K  K0  1  0.500000  0.500000  0.500000  1
  K  K1  1  0.838642  0.335852  0.679321  1
  K  K2  1  0.335852  0.679321  0.838642  1
  K  K3  1  0.679321  0.838642  0.335852  1
  K  K4  1  0.161358  0.664148  0.320679  1
  K  K5  1  0.664148  0.320679  0.161358  1
  K  K6  1  0.320679  0.161358  0.664148  1
  Pa  Pa7  1  0.000000  0.000000  0.000000  1
  S  S8  1  0.965943  0.737183  0.605697  1
  S  S9  1  0.737183  0.605697  0.965943  1
  S  S10  1  0.605697  0.965943  0.737183  1
  S  S11  1  0.034057  0.262817  0.394303  1
  S  S12  1  0.262817  0.394303  0.034057  1
  S  S13  1  0.394303  0.034057  0.262817  1
  O  O14  1  0.441229  0.914313  0.177536  1
  O  O15  1  0.914313  0.177536  0.441229  1
  O  O16  1  0.177536  0.441229  0.914313  1
  O  O17  1  0.558771  0.085687  0.822464  1
  O  O18  1  0.085687  0.822464  0.558771  1
  O  O19  1  0.822464  0.558771  0.085687  1
  O  O20  1  0.320203  0.985343  0.362285  1
  O  O21  1  0.985343  0.362285  0.320203  1
  O  O22  1  0.362285  0.320203  0.985343  1
  O  O23  1  0.679797  0.014657  0.637715  1
  O  O24  1  0.014657  0.637715  0.679797  1
  O  O25  1  0.637715  0.679797  0.014657  1
  O  O26  1  0.749575  0.973282  0.884903  1
  O  O27  1  0.973282  0.884903  0.749575  1
  O  O28  1  0.639899  0.467391  0.788239  1
  O  O29  1  0.788239  0.639899  0.467391  1
  O  O30  1  0.467391  0.788239  0.639899  1
  O  O31  1  0.360101  0.532609  0.211761  1
  O  O32  1  0.211761  0.360101  0.532609  1
  O  O33  1  0.532609  0.211761  0.360101  1
  O  O34  1  0.115097  0.250425  0.026718  1
  O  O35  1  0.026718  0.115097  0.250425  1
  O  O36  1  0.250425  0.026718  0.115097  1
  O  O37  1  0.884903  0.749575  0.973282  1
