# generated using pymatgen
data_PaNbCrB6
_symmetry_space_group_name_H-M   'P 1'
_cell_length_a   3.49771100
_cell_length_b   8.91411500
_cell_length_c   11.26257100
_cell_angle_alpha   90.00000000
_cell_angle_beta   90.00000000
_cell_angle_gamma   90.00000000
_symmetry_Int_Tables_number   1
_chemical_formula_structural   PaNbCrB6
_chemical_formula_sum   'Pa4 Nb4 Cr4 B24'
_cell_volume   351.15567971
_cell_formula_units_Z   4
loop_
 _symmetry_equiv_pos_site_id
 _symmetry_equiv_pos_as_xyz
  1  'x, y, z'
loop_
 _atom_site_type_symbol
 _atom_site_label
 _atom_site_symmetry_multiplicity
 _atom_site_fract_x
 _atom_site_fract_y
 _atom_site_fract_z
 _atom_site_occupancy
  Pa  Pa0  1  0.000000  0.822577  0.086109  1
  Pa  Pa1  1  0.000000  0.177423  0.913891  1
  Pa  Pa2  1  0.000000  0.322577  0.413891  1
  Pa  Pa3  1  0.000000  0.677423  0.586109  1
  Nb  Nb4  1  0.000000  0.444256  0.128206  1
  Nb  Nb5  1  0.000000  0.555744  0.871794  1
  Nb  Nb6  1  0.000000  0.944256  0.371794  1
  Nb  Nb7  1  0.000000  0.055744  0.628206  1
  Cr  Cr8  1  0.000000  0.142766  0.182922  1
  Cr  Cr9  1  0.000000  0.857234  0.817078  1
  Cr  Cr10  1  0.000000  0.642766  0.317078  1
  Cr  Cr11  1  0.000000  0.357234  0.682922  1
  B  B12  1  0.500000  0.054613  0.067927  1
  B  B13  1  0.500000  0.945387  0.932073  1
  B  B14  1  0.500000  0.554613  0.432073  1
  B  B15  1  0.500000  0.445387  0.567927  1
  B  B16  1  0.500000  0.253242  0.082174  1
  B  B17  1  0.500000  0.746758  0.917826  1
  B  B18  1  0.500000  0.753242  0.417826  1
  B  B19  1  0.500000  0.246758  0.582174  1
  B  B20  1  0.500000  0.295405  0.235426  1
  B  B21  1  0.500000  0.704595  0.764574  1
  B  B22  1  0.500000  0.795405  0.264574  1
  B  B23  1  0.500000  0.204595  0.735426  1
  B  B24  1  0.500000  0.129497  0.317007  1
  B  B25  1  0.500000  0.870503  0.682993  1
  B  B26  1  0.500000  0.629497  0.182993  1
  B  B27  1  0.500000  0.370503  0.817007  1
  B  B28  1  0.500000  0.482015  0.286031  1
  B  B29  1  0.500000  0.517985  0.713969  1
  B  B30  1  0.500000  0.982015  0.213969  1
  B  B31  1  0.500000  0.017985  0.786031  1
  B  B32  1  0.500000  0.100191  0.473219  1
  B  B33  1  0.500000  0.899809  0.526781  1
  B  B34  1  0.500000  0.600191  0.026781  1
  B  B35  1  0.500000  0.399809  0.973219  1
