# generated using pymatgen
data_Dy12Si3BI12
_symmetry_space_group_name_H-M   'P 1'
_cell_length_a   10.54165211
_cell_length_b   10.38892721
_cell_length_c   10.38892645
_cell_angle_alpha   109.17151306
_cell_angle_beta   109.76929182
_cell_angle_gamma   109.76928987
_symmetry_Int_Tables_number   1
_chemical_formula_structural   Dy12Si3BI12
_chemical_formula_sum   'Dy12 Si3 B1 I12'
_cell_volume   872.60426858
_cell_formula_units_Z   1
loop_
 _symmetry_equiv_pos_site_id
 _symmetry_equiv_pos_as_xyz
  1  'x, y, z'
loop_
 _atom_site_type_symbol
 _atom_site_label
 _atom_site_symmetry_multiplicity
 _atom_site_fract_x
 _atom_site_fract_y
 _atom_site_fract_z
 _atom_site_occupancy
  Dy  Dy0  1  0.450662  0.486683  0.215864  1
  Dy  Dy1  1  0.750000  0.229862  0.270138  1
  Dy  Dy2  1  0.750000  0.018138  0.481862  1
  Dy  Dy3  1  0.231862  0.463723  0.481862  1
  Dy  Dy4  1  0.265204  0.729182  0.215864  1
  Dy  Dy5  1  0.049338  0.284136  0.013317  1
  Dy  Dy6  1  0.020138  0.040275  0.270138  1
  Dy  Dy7  1  0.463977  0.729182  0.013317  1
  Dy  Dy8  1  0.479862  0.229862  0.459725  1
  Dy  Dy9  1  0.036023  0.486683  0.770818  1
  Dy  Dy10  1  0.268138  0.018138  0.036277  1
  Dy  Dy11  1  0.234796  0.284136  0.770818  1
  Si  Si12  1  0.250000  0.251899  0.248101  1
  Si  Si13  1  0.498101  0.996202  0.248101  1
  Si  Si14  1  0.001899  0.251899  0.503798  1
  B  B15  1  0.250000  0.500000  0.000000  1
  I  I16  1  0.250000  0.757451  0.742549  1
  I  I17  1  0.514740  0.506997  0.758496  1
  I  I18  1  0.985260  0.741504  0.993003  1
  I  I19  1  0.743757  0.251499  0.758496  1
  I  I20  1  0.992549  0.985099  0.742549  1
  I  I21  1  0.250000  0.993585  0.506415  1
  I  I22  1  0.756415  0.512832  0.506415  1
  I  I23  1  0.507742  0.251499  0.993003  1
  I  I24  1  0.756243  0.741504  0.248501  1
  I  I25  1  0.743585  0.993585  0.987168  1
  I  I26  1  0.992258  0.506997  0.248501  1
  I  I27  1  0.507451  0.757451  0.514901  1
