# generated using pymatgen
data_Th3Sn2GeRu3
_symmetry_space_group_name_H-M   'P 1'
_cell_length_a   7.54732000
_cell_length_b   7.55096144
_cell_length_c   4.00941300
_cell_angle_alpha   90.00000000
_cell_angle_beta   90.00000000
_cell_angle_gamma   120.01596760
_symmetry_Int_Tables_number   1
_chemical_formula_structural   Th3Sn2GeRu3
_chemical_formula_sum   'Th3 Sn2 Ge1 Ru3'
_cell_volume   197.85022208
_cell_formula_units_Z   1
loop_
 _symmetry_equiv_pos_site_id
 _symmetry_equiv_pos_as_xyz
  1  'x, y, z'
loop_
 _atom_site_type_symbol
 _atom_site_label
 _atom_site_symmetry_multiplicity
 _atom_site_fract_x
 _atom_site_fract_y
 _atom_site_fract_z
 _atom_site_occupancy
  Th  Th0  1  0.407800  0.411147  0.500000  1
  Th  Th1  1  0.592200  0.003348  0.500000  1
  Th  Th2  1  0.000000  0.568578  0.500000  1
  Sn  Sn3  1  0.758549  0.753047  0.000000  1
  Sn  Sn4  1  0.241451  0.994499  0.000000  1
  Ge  Ge5  1  0.000000  0.250256  0.000000  1
  Ru  Ru6  1  0.667246  0.328100  0.000000  1
  Ru  Ru7  1  0.332754  0.660854  0.000000  1
  Ru  Ru8  1  0.000000  0.030173  0.500000  1
