# generated using pymatgen
data_Ho3Be2SiIr6
_symmetry_space_group_name_H-M   'P 1'
_cell_length_a   5.49479100
_cell_length_b   5.49479024
_cell_length_c   14.64364700
_cell_angle_alpha   90.00000000
_cell_angle_beta   90.00000000
_cell_angle_gamma   119.99999858
_symmetry_Int_Tables_number   1
_chemical_formula_structural   Ho3Be2SiIr6
_chemical_formula_sum   'Ho6 Be4 Si2 Ir12'
_cell_volume   382.89719527
_cell_formula_units_Z   2
loop_
 _symmetry_equiv_pos_site_id
 _symmetry_equiv_pos_as_xyz
  1  'x, y, z'
loop_
 _atom_site_type_symbol
 _atom_site_label
 _atom_site_symmetry_multiplicity
 _atom_site_fract_x
 _atom_site_fract_y
 _atom_site_fract_z
 _atom_site_occupancy
  Ho  Ho0  1  0.333333  0.666667  0.537522  1
  Ho  Ho1  1  0.666667  0.333333  0.462478  1
  Ho  Ho2  1  0.666667  0.333333  0.037522  1
  Ho  Ho3  1  0.333333  0.666667  0.962478  1
  Ho  Ho4  1  0.333333  0.666667  0.750000  1
  Ho  Ho5  1  0.666667  0.333333  0.250000  1
  Be  Be6  1  0.000000  0.000000  0.250000  1
  Be  Be7  1  0.000000  0.000000  0.750000  1
  Be  Be8  1  0.333333  0.666667  0.250000  1
  Be  Be9  1  0.666667  0.333333  0.750000  1
  Si  Si10  1  0.000000  0.000000  0.000000  1
  Si  Si11  1  0.000000  0.000000  0.500000  1
  Ir  Ir12  1  0.167433  0.334867  0.132772  1
  Ir  Ir13  1  0.832567  0.665133  0.867228  1
  Ir  Ir14  1  0.665133  0.832567  0.132772  1
  Ir  Ir15  1  0.832567  0.665133  0.632772  1
  Ir  Ir16  1  0.334867  0.167433  0.867228  1
  Ir  Ir17  1  0.167433  0.334867  0.367228  1
  Ir  Ir18  1  0.167433  0.832567  0.132772  1
  Ir  Ir19  1  0.334867  0.167433  0.632772  1
  Ir  Ir20  1  0.832567  0.167433  0.867228  1
  Ir  Ir21  1  0.665133  0.832567  0.367228  1
  Ir  Ir22  1  0.832567  0.167433  0.632772  1
  Ir  Ir23  1  0.167433  0.832567  0.367228  1
