# generated using pymatgen
data_FePb2(BrO)2
_symmetry_space_group_name_H-M   'P 1'
_cell_length_a   6.33448210
_cell_length_b   6.33448100
_cell_length_c   7.94496034
_cell_angle_alpha   119.32691322
_cell_angle_beta   119.32690650
_cell_angle_gamma   36.09323627
_symmetry_Int_Tables_number   1
_chemical_formula_structural   FePb2(BrO)2
_chemical_formula_sum   'Fe1 Pb2 Br2 O2'
_cell_volume   160.96815797
_cell_formula_units_Z   1
loop_
 _symmetry_equiv_pos_site_id
 _symmetry_equiv_pos_as_xyz
  1  'x, y, z'
loop_
 _atom_site_type_symbol
 _atom_site_label
 _atom_site_symmetry_multiplicity
 _atom_site_fract_x
 _atom_site_fract_y
 _atom_site_fract_z
 _atom_site_occupancy
  Fe  Fe0  1  0.000000  0.000000  0.000000  1
  Pb  Pb1  1  0.806892  0.806892  0.226894  1
  Pb  Pb2  1  0.193108  0.193108  0.773107  1
  Br  Br3  1  0.561336  0.561336  0.291783  1
  Br  Br4  1  0.438664  0.438664  0.708218  1
  O  O5  1  0.182404  0.182404  0.060916  1
  O  O6  1  0.817596  0.817596  0.939084  1
