# generated using pymatgen
data_CdSn3Pd2
_symmetry_space_group_name_H-M   'P 1'
_cell_length_a   6.51773146
_cell_length_b   6.51774586
_cell_length_c   13.28445585
_cell_angle_alpha   104.70672581
_cell_angle_beta   104.70660768
_cell_angle_gamma   88.38688756
_symmetry_Int_Tables_number   1
_chemical_formula_structural   CdSn3Pd2
_chemical_formula_sum   'Cd4 Sn12 Pd8'
_cell_volume   527.56672513
_cell_formula_units_Z   4
loop_
 _symmetry_equiv_pos_site_id
 _symmetry_equiv_pos_as_xyz
  1  'x, y, z'
loop_
 _atom_site_type_symbol
 _atom_site_label
 _atom_site_symmetry_multiplicity
 _atom_site_fract_x
 _atom_site_fract_y
 _atom_site_fract_z
 _atom_site_occupancy
  Cd  Cd0  1  0.336581  0.163417  0.000002  1
  Cd  Cd1  1  0.663899  0.836100  0.000001  1
  Cd  Cd2  1  0.913379  0.586617  0.499999  1
  Cd  Cd3  1  0.586101  0.913888  0.499999  1
  Sn  Sn4  1  0.831320  0.331451  0.000451  1
  Sn  Sn5  1  0.168548  0.668680  0.999548  1
  Sn  Sn6  1  0.876274  0.376901  0.253763  1
  Sn  Sn7  1  0.373748  0.373217  0.246239  1
  Sn  Sn8  1  0.871960  0.873301  0.246388  1
  Sn  Sn9  1  0.378304  0.876857  0.253600  1
  Sn  Sn10  1  0.081445  0.081323  0.500440  1
  Sn  Sn11  1  0.418671  0.418546  0.499565  1
  Sn  Sn12  1  0.126782  0.126232  0.753760  1
  Sn  Sn13  1  0.623139  0.121703  0.746400  1
  Sn  Sn14  1  0.123135  0.623694  0.746232  1
  Sn  Sn15  1  0.626729  0.628063  0.753610  1
  Pd  Pd16  1  0.059490  0.060059  0.119163  1
  Pd  Pd17  1  0.560264  0.559532  0.120606  1
  Pd  Pd18  1  0.689784  0.190558  0.379401  1
  Pd  Pd19  1  0.190608  0.690018  0.380843  1
  Pd  Pd20  1  0.809976  0.309391  0.619159  1
  Pd  Pd21  1  0.309442  0.810210  0.620601  1
  Pd  Pd22  1  0.439948  0.440506  0.880837  1
  Pd  Pd23  1  0.940473  0.939733  0.879395  1
