# generated using pymatgen
data_Tb5Dy(AlC3)2
_symmetry_space_group_name_H-M   'P 1'
_cell_length_a   3.59055400
_cell_length_b   7.08938147
_cell_length_c   10.02827767
_cell_angle_alpha   89.95819852
_cell_angle_beta   90.00000000
_cell_angle_gamma   90.00000000
_symmetry_Int_Tables_number   1
_chemical_formula_structural   Tb5Dy(AlC3)2
_chemical_formula_sum   'Tb5 Dy1 Al2 C6'
_cell_volume   255.26780463
_cell_formula_units_Z   1
loop_
 _symmetry_equiv_pos_site_id
 _symmetry_equiv_pos_as_xyz
  1  'x, y, z'
loop_
 _atom_site_type_symbol
 _atom_site_label
 _atom_site_symmetry_multiplicity
 _atom_site_fract_x
 _atom_site_fract_y
 _atom_site_fract_z
 _atom_site_occupancy
  Tb  Tb0  1  0.500000  0.509540  0.199514  1
  Tb  Tb1  1  0.500000  0.490220  0.800461  1
  Tb  Tb2  1  0.500000  0.990482  0.199564  1
  Tb  Tb3  1  0.000000  0.750025  0.458538  1
  Tb  Tb4  1  0.000000  0.249863  0.541604  1
  Dy  Dy5  1  0.500000  0.010722  0.799947  1
  Al  Al6  1  0.000000  0.750375  0.006252  1
  Al  Al7  1  0.000000  0.249629  0.993361  1
  C  C8  1  0.500000  0.509127  0.565783  1
  C  C9  1  0.500000  0.490829  0.434228  1
  C  C10  1  0.500000  0.990911  0.566250  1
  C  C11  1  0.500000  0.009063  0.434631  1
  C  C12  1  0.000000  0.750063  0.208209  1
  C  C13  1  0.000000  0.249152  0.791658  1
