# generated using pymatgen
data_Tb11Ho9Si15Os
_symmetry_space_group_name_H-M   'P 1'
_cell_length_a   7.38092339
_cell_length_b   7.74985618
_cell_length_c   14.56935209
_cell_angle_alpha   90.03166578
_cell_angle_beta   90.06742685
_cell_angle_gamma   90.08612356
_symmetry_Int_Tables_number   1
_chemical_formula_structural   Tb11Ho9Si15Os
_chemical_formula_sum   'Tb11 Ho9 Si15 Os1'
_cell_volume   833.38124166
_cell_formula_units_Z   1
loop_
 _symmetry_equiv_pos_site_id
 _symmetry_equiv_pos_as_xyz
  1  'x, y, z'
loop_
 _atom_site_type_symbol
 _atom_site_label
 _atom_site_symmetry_multiplicity
 _atom_site_fract_x
 _atom_site_fract_y
 _atom_site_fract_z
 _atom_site_occupancy
  Tb  Tb0  1  0.817269  0.678802  0.123208  1
  Tb  Tb1  1  0.671649  0.185455  0.874615  1
  Tb  Tb2  1  0.191170  0.323918  0.626377  1
  Tb  Tb3  1  0.522971  0.673724  0.596885  1
  Tb  Tb4  1  0.026683  0.816734  0.903330  1
  Tb  Tb5  1  0.472998  0.315813  0.097491  1
  Tb  Tb6  1  0.973831  0.183070  0.402727  1
  Tb  Tb7  1  0.473793  0.315734  0.402748  1
  Tb  Tb8  1  0.973691  0.183298  0.097263  1
  Tb  Tb9  1  0.522014  0.673540  0.902852  1
  Tb  Tb10  1  0.026550  0.816405  0.596558  1
  Ho  Ho11  1  0.672246  0.185068  0.625269  1
  Ho  Ho12  1  0.191313  0.324382  0.873476  1
  Ho  Ho13  1  0.318712  0.819342  0.123865  1
  Ho  Ho14  1  0.817646  0.678667  0.376751  1
  Ho  Ho15  1  0.318741  0.819625  0.376287  1
  Ho  Ho16  1  0.840616  0.512196  0.749913  1
  Ho  Ho17  1  0.354746  0.987083  0.750011  1
  Ho  Ho18  1  0.150577  0.484744  0.250062  1
  Ho  Ho19  1  0.650079  0.014122  0.250068  1
  Si  Si20  1  0.646041  0.970935  0.460197  1
  Si  Si21  1  0.150057  0.528593  0.039424  1
  Si  Si22  1  0.347947  0.025300  0.961370  1
  Si  Si23  1  0.855068  0.471490  0.538719  1
  Si  Si24  1  0.350175  0.024628  0.538904  1
  Si  Si25  1  0.858202  0.470902  0.960262  1
  Si  Si26  1  0.644151  0.971234  0.040152  1
  Si  Si27  1  0.148451  0.529595  0.459869  1
  Si  Si28  1  0.980001  0.100674  0.749694  1
  Si  Si29  1  0.522679  0.604796  0.250540  1
  Si  Si30  1  0.021187  0.894205  0.250557  1
  Si  Si31  1  0.740777  0.876092  0.749569  1
  Si  Si32  1  0.230918  0.633464  0.750609  1
  Si  Si33  1  0.267411  0.127021  0.250112  1
  Si  Si34  1  0.769064  0.372749  0.250431  1
  Os  Os35  1  0.480574  0.406597  0.749834  1
