# generated using pymatgen
data_Dy4TmLu3C14
_symmetry_space_group_name_H-M   'P 1'
_cell_length_a   13.69414271
_cell_length_b   3.65798582
_cell_length_c   6.41620650
_cell_angle_alpha   74.15850645
_cell_angle_beta   89.91416704
_cell_angle_gamma   89.89393100
_symmetry_Int_Tables_number   1
_chemical_formula_structural   Dy4TmLu3C14
_chemical_formula_sum   'Dy4 Tm1 Lu3 C14'
_cell_volume   309.19935303
_cell_formula_units_Z   1
loop_
 _symmetry_equiv_pos_site_id
 _symmetry_equiv_pos_as_xyz
  1  'x, y, z'
loop_
 _atom_site_type_symbol
 _atom_site_label
 _atom_site_symmetry_multiplicity
 _atom_site_fract_x
 _atom_site_fract_y
 _atom_site_fract_z
 _atom_site_occupancy
  Dy  Dy0  1  0.943585  0.366557  0.261489  1
  Dy  Dy1  1  0.443176  0.633512  0.238554  1
  Dy  Dy2  1  0.057241  0.634437  0.738340  1
  Dy  Dy3  1  0.556468  0.364014  0.761347  1
  Tm  Tm4  1  0.660107  0.060322  0.336013  1
  Lu  Lu5  1  0.159085  0.937699  0.162934  1
  Lu  Lu6  1  0.341076  0.937585  0.663047  1
  Lu  Lu7  1  0.841861  0.063471  0.837347  1
  C  C8  1  0.499232  0.000308  0.499866  1
  C  C9  1  0.000112  0.000024  0.999976  1
  C  C10  1  0.783790  0.467769  0.061950  1
  C  C11  1  0.283291  0.537351  0.438041  1
  C  C12  1  0.216088  0.538054  0.937424  1
  C  C13  1  0.716767  0.458839  0.566293  1
  C  C14  1  0.196338  0.374496  0.458636  1
  C  C15  1  0.696307  0.628159  0.039504  1
  C  C16  1  0.395322  0.266255  0.942139  1
  C  C17  1  0.895628  0.733883  0.557734  1
  C  C18  1  0.603643  0.731240  0.056359  1
  C  C19  1  0.104137  0.267565  0.441317  1
  C  C20  1  0.303204  0.375129  0.958420  1
  C  C21  1  0.803540  0.623330  0.543271  1
