# generated using pymatgen
data_DyHo2Nb(Co4P3)2
_symmetry_space_group_name_H-M   'P 1'
_cell_length_a   3.70101900
_cell_length_b   10.61782600
_cell_length_c   12.31482800
_cell_angle_alpha   90.00000000
_cell_angle_beta   90.00000000
_cell_angle_gamma   90.00000000
_symmetry_Int_Tables_number   1
_chemical_formula_structural   DyHo2Nb(Co4P3)2
_chemical_formula_sum   'Dy2 Ho4 Nb2 Co16 P12'
_cell_volume   483.93303450
_cell_formula_units_Z   2
loop_
 _symmetry_equiv_pos_site_id
 _symmetry_equiv_pos_as_xyz
  1  'x, y, z'
loop_
 _atom_site_type_symbol
 _atom_site_label
 _atom_site_symmetry_multiplicity
 _atom_site_fract_x
 _atom_site_fract_y
 _atom_site_fract_z
 _atom_site_occupancy
  Dy  Dy0  1  0.000000  0.500000  0.526202  1
  Dy  Dy1  1  0.500000  0.000000  0.473798  1
  Ho  Ho2  1  0.500000  0.820192  0.205340  1
  Ho  Ho3  1  0.500000  0.179808  0.205340  1
  Ho  Ho4  1  0.000000  0.679808  0.794660  1
  Ho  Ho5  1  0.000000  0.320192  0.794660  1
  Nb  Nb6  1  0.500000  0.500000  0.156647  1
  Nb  Nb7  1  0.000000  0.000000  0.843353  1
  Co  Co8  1  0.500000  0.500000  0.702055  1
  Co  Co9  1  0.000000  0.000000  0.297945  1
  Co  Co10  1  0.000000  0.500000  0.985347  1
  Co  Co11  1  0.500000  0.000000  0.014653  1
  Co  Co12  1  0.500000  0.332448  0.991356  1
  Co  Co13  1  0.500000  0.667552  0.991356  1
  Co  Co14  1  0.000000  0.167552  0.008644  1
  Co  Co15  1  0.000000  0.832448  0.008644  1
  Co  Co16  1  0.500000  0.295264  0.432283  1
  Co  Co17  1  0.500000  0.704736  0.432283  1
  Co  Co18  1  0.000000  0.204736  0.567717  1
  Co  Co19  1  0.000000  0.795264  0.567717  1
  Co  Co20  1  0.500000  0.877187  0.704765  1
  Co  Co21  1  0.500000  0.122813  0.704765  1
  Co  Co22  1  0.000000  0.622813  0.295235  1
  Co  Co23  1  0.000000  0.377187  0.295235  1
  P  P24  1  0.500000  0.500000  0.881426  1
  P  P25  1  0.000000  0.000000  0.118574  1
  P  P26  1  0.500000  0.500000  0.355389  1
  P  P27  1  0.000000  0.000000  0.644611  1
  P  P28  1  0.500000  0.310951  0.615689  1
  P  P29  1  0.500000  0.689049  0.615689  1
  P  P30  1  0.000000  0.189049  0.384311  1
  P  P31  1  0.000000  0.810951  0.384311  1
  P  P32  1  0.500000  0.841116  0.893313  1
  P  P33  1  0.500000  0.158884  0.893313  1
  P  P34  1  0.000000  0.658884  0.106687  1
  P  P35  1  0.000000  0.341116  0.106687  1
