# generated using pymatgen
data_Ho5Er11In4(PdRh)2
_symmetry_space_group_name_H-M   'P 1'
_cell_length_a   9.63765558
_cell_length_b   9.63793019
_cell_length_c   9.63684098
_cell_angle_alpha   59.84943274
_cell_angle_beta   59.90034654
_cell_angle_gamma   59.90839167
_symmetry_Int_Tables_number   1
_chemical_formula_structural   Ho5Er11In4(PdRh)2
_chemical_formula_sum   'Ho5 Er11 In4 Pd2 Rh2'
_cell_volume   631.32124161
_cell_formula_units_Z   1
loop_
 _symmetry_equiv_pos_site_id
 _symmetry_equiv_pos_as_xyz
  1  'x, y, z'
loop_
 _atom_site_type_symbol
 _atom_site_label
 _atom_site_symmetry_multiplicity
 _atom_site_fract_x
 _atom_site_fract_y
 _atom_site_fract_z
 _atom_site_occupancy
  Ho  Ho0  1  0.193093  0.185207  0.810545  1
  Ho  Ho1  1  0.437989  0.062024  0.062389  1
  Ho  Ho2  1  0.435354  0.064863  0.437720  1
  Ho  Ho3  1  0.062056  0.439045  0.063336  1
  Ho  Ho4  1  0.646988  0.052437  0.652290  1
  Er  Er5  1  0.188670  0.811176  0.811362  1
  Er  Er6  1  0.062057  0.062919  0.439062  1
  Er  Er7  1  0.809933  0.189848  0.189952  1
  Er  Er8  1  0.811062  0.810659  0.185211  1
  Er  Er9  1  0.646816  0.652441  0.052321  1
  Er  Er10  1  0.644959  0.650801  0.650765  1
  Er  Er11  1  0.064268  0.436721  0.436511  1
  Er  Er12  1  0.055804  0.649707  0.649441  1
  Er  Er13  1  0.810992  0.185108  0.810777  1
  Er  Er14  1  0.435664  0.438247  0.064563  1
  Er  Er15  1  0.193351  0.810201  0.185438  1
  In  In16  1  0.416784  0.749619  0.416829  1
  In  In17  1  0.416876  0.416949  0.749663  1
  In  In18  1  0.750099  0.416697  0.416702  1
  In  In19  1  0.416180  0.416374  0.415798  1
  Pd  Pd20  1  0.856745  0.430246  0.856158  1
  Pd  Pd21  1  0.857314  0.855925  0.429992  1
  Rh  Rh22  1  0.429833  0.856357  0.856558  1
  Rh  Rh23  1  0.857113  0.856429  0.856620  1
