# generated using pymatgen
data_TaMn2Nb(PO4)6
_symmetry_space_group_name_H-M   'P 1'
_cell_length_a   8.49679300
_cell_length_b   8.49502636
_cell_length_c   8.89505417
_cell_angle_alpha   90.01814360
_cell_angle_beta   118.41765619
_cell_angle_gamma   119.99593444
_symmetry_Int_Tables_number   1
_chemical_formula_structural   TaMn2Nb(PO4)6
_chemical_formula_sum   'Ta1 Mn2 Nb1 P6 O24'
_cell_volume   464.51472352
_cell_formula_units_Z   1
loop_
 _symmetry_equiv_pos_site_id
 _symmetry_equiv_pos_as_xyz
  1  'x, y, z'
loop_
 _atom_site_type_symbol
 _atom_site_label
 _atom_site_symmetry_multiplicity
 _atom_site_fract_x
 _atom_site_fract_y
 _atom_site_fract_z
 _atom_site_occupancy
  Ta  Ta0  1  0.217964  0.859645  0.077575  1
  Mn  Mn1  1  0.796330  0.647445  0.444186  1
  Mn  Mn2  1  0.203742  0.352706  0.555835  1
  Nb  Nb3  1  0.781161  0.139877  0.921185  1
  P  P4  1  0.997311  0.966879  0.260029  1
  P  P5  1  0.292854  0.530636  0.261221  1
  P  P6  1  0.268943  0.735968  0.738653  1
  P  P7  1  0.729560  0.262088  0.261683  1
  P  P8  1  0.707005  0.471093  0.739082  1
  P  P9  1  0.005077  0.033702  0.740399  1
  O  O10  1  0.315134  0.718025  0.226442  1
  O  O11  1  0.861629  0.992101  0.080953  1
  O  O12  1  0.828267  0.840036  0.588644  1
  O  O13  1  0.834607  0.807801  0.291949  1
  O  O14  1  0.130989  0.910772  0.229755  1
  O  O15  1  0.484608  0.528431  0.293891  1
  O  O16  1  0.100181  0.756944  0.581931  1
  O  O17  1  0.912177  0.635215  0.915545  1
  O  O18  1  0.281456  0.780822  0.914649  1
  O  O19  1  0.488768  0.900521  0.769279  1
  O  O20  1  0.746487  0.483304  0.585615  1
  O  O21  1  0.759114  0.454674  0.288118  1
  O  O22  1  0.238571  0.542941  0.712613  1
  O  O23  1  0.252520  0.517408  0.414403  1
  O  O24  1  0.509347  0.096542  0.229665  1
  O  O25  1  0.717302  0.218540  0.085589  1
  O  O26  1  0.088695  0.366213  0.084672  1
  O  O27  1  0.898972  0.241267  0.418134  1
  O  O28  1  0.516092  0.474677  0.706850  1
  O  O29  1  0.870963  0.090364  0.769269  1
  O  O30  1  0.168593  0.192361  0.708821  1
  O  O31  1  0.173585  0.160980  0.411533  1
  O  O32  1  0.139295  0.007311  0.919312  1
  O  O33  1  0.682703  0.282711  0.772520  1
