# generated using pymatgen
data_Dy10Y2Co2Ni3Bi
_symmetry_space_group_name_H-M   'P 1'
_cell_length_a   8.38433005
_cell_length_b   8.38433057
_cell_length_c   8.34669558
_cell_angle_alpha   111.15038197
_cell_angle_beta   109.19625780
_cell_angle_gamma   108.26868086
_symmetry_Int_Tables_number   1
_chemical_formula_structural   Dy10Y2Co2Ni3Bi
_chemical_formula_sum   'Dy10 Y2 Co2 Ni3 Bi1'
_cell_volume   450.32746352
_cell_formula_units_Z   1
loop_
 _symmetry_equiv_pos_site_id
 _symmetry_equiv_pos_as_xyz
  1  'x, y, z'
loop_
 _atom_site_type_symbol
 _atom_site_label
 _atom_site_symmetry_multiplicity
 _atom_site_fract_x
 _atom_site_fract_y
 _atom_site_fract_z
 _atom_site_occupancy
  Dy  Dy0  1  0.180733  0.707548  0.888280  1
  Dy  Dy1  1  0.819267  0.292452  0.111720  1
  Dy  Dy2  1  0.685550  0.374485  0.689787  1
  Dy  Dy3  1  0.314450  0.625515  0.310213  1
  Dy  Dy4  1  0.684698  0.995763  0.310213  1
  Dy  Dy5  1  0.315302  0.004237  0.689787  1
  Dy  Dy6  1  0.599239  0.793346  0.806848  1
  Dy  Dy7  1  0.400761  0.206654  0.193152  1
  Dy  Dy8  1  0.986498  0.792390  0.193152  1
  Dy  Dy9  1  0.013502  0.207610  0.806848  1
  Y  Y10  1  0.817509  0.708321  0.525829  1
  Y  Y11  1  0.182491  0.291679  0.474171  1
  Co  Co12  1  0.113538  0.613538  0.500000  1
  Co  Co13  1  0.886462  0.386462  0.500000  1
  Ni  Ni14  1  0.632011  0.999243  0.631254  1
  Ni  Ni15  1  0.367989  0.000757  0.368746  1
  Ni  Ni16  1  0.000000  0.000000  0.000000  1
  Bi  Bi17  1  0.500000  0.500000  0.000000  1
