# generated using pymatgen
data_La3CeZn2Ir3
_symmetry_space_group_name_H-M   'P 1'
_cell_length_a   7.48437500
_cell_length_b   7.61845731
_cell_length_c   4.13382300
_cell_angle_alpha   90.00000000
_cell_angle_beta   90.00000000
_cell_angle_gamma   119.41949994
_symmetry_Int_Tables_number   1
_chemical_formula_structural   La3CeZn2Ir3
_chemical_formula_sum   'La3 Ce1 Zn2 Ir3'
_cell_volume   205.31273499
_cell_formula_units_Z   1
loop_
 _symmetry_equiv_pos_site_id
 _symmetry_equiv_pos_as_xyz
  1  'x, y, z'
loop_
 _atom_site_type_symbol
 _atom_site_label
 _atom_site_symmetry_multiplicity
 _atom_site_fract_x
 _atom_site_fract_y
 _atom_site_fract_z
 _atom_site_occupancy
  La  La0  1  0.379550  0.000000  0.000000  1
  La  La1  1  0.028567  0.451397  0.000000  1
  La  La2  1  0.577170  0.548603  0.000000  1
  Ce  Ce3  1  0.757060  0.000000  0.499999  1
  Zn  Zn4  1  0.239313  0.246784  0.499999  1
  Zn  Zn5  1  0.992529  0.753216  0.499999  1
  Ir  Ir6  1  0.003531  0.000000  0.000000  1
  Ir  Ir7  1  0.675021  0.327763  0.499999  1
  Ir  Ir8  1  0.347258  0.672237  0.499999  1
