# generated using pymatgen
data_Pr8Tc3OsC8
_symmetry_space_group_name_H-M   'P 1'
_cell_length_a   5.40841700
_cell_length_b   6.71894617
_cell_length_c   10.27615892
_cell_angle_alpha   89.86504141
_cell_angle_beta   90.00000000
_cell_angle_gamma   90.00000000
_symmetry_Int_Tables_number   1
_chemical_formula_structural   Pr8Tc3OsC8
_chemical_formula_sum   'Pr8 Tc3 Os1 C8'
_cell_volume   373.42289197
_cell_formula_units_Z   1
loop_
 _symmetry_equiv_pos_site_id
 _symmetry_equiv_pos_as_xyz
  1  'x, y, z'
loop_
 _atom_site_type_symbol
 _atom_site_label
 _atom_site_symmetry_multiplicity
 _atom_site_fract_x
 _atom_site_fract_y
 _atom_site_fract_z
 _atom_site_occupancy
  Pr  Pr0  1  0.750000  0.524629  0.786994  1
  Pr  Pr1  1  0.250000  0.973559  0.287755  1
  Pr  Pr2  1  0.750000  0.687907  0.449475  1
  Pr  Pr3  1  0.250000  0.811102  0.949363  1
  Pr  Pr4  1  0.750000  0.188120  0.050651  1
  Pr  Pr5  1  0.250000  0.311456  0.550919  1
  Pr  Pr6  1  0.250000  0.475175  0.211848  1
  Pr  Pr7  1  0.750000  0.024616  0.713564  1
  Tc  Tc8  1  0.250000  0.269772  0.857248  1
  Tc  Tc9  1  0.250000  0.770188  0.643086  1
  Tc  Tc10  1  0.750000  0.230648  0.355651  1
  Os  Os11  1  0.750000  0.730604  0.143923  1
  C  C12  1  0.250000  0.688431  0.464537  1
  C  C13  1  0.250000  0.534018  0.757461  1
  C  C14  1  0.750000  0.469020  0.242287  1
  C  C15  1  0.750000  0.811671  0.965733  1
  C  C16  1  0.250000  0.033849  0.743161  1
  C  C17  1  0.250000  0.188270  0.036263  1
  C  C18  1  0.750000  0.311235  0.533776  1
  C  C19  1  0.750000  0.965733  0.256304  1
