# generated using pymatgen
data_CaLaNi2(As2Rh)2
_symmetry_space_group_name_H-M   'P 1'
_cell_length_a   4.22372900
_cell_length_b   4.22372900
_cell_length_c   9.89904100
_cell_angle_alpha   90.00000000
_cell_angle_beta   90.00000000
_cell_angle_gamma   90.00000000
_symmetry_Int_Tables_number   1
_chemical_formula_structural   CaLaNi2(As2Rh)2
_chemical_formula_sum   'Ca1 La1 Ni2 As4 Rh2'
_cell_volume   176.59776954
_cell_formula_units_Z   1
loop_
 _symmetry_equiv_pos_site_id
 _symmetry_equiv_pos_as_xyz
  1  'x, y, z'
loop_
 _atom_site_type_symbol
 _atom_site_label
 _atom_site_symmetry_multiplicity
 _atom_site_fract_x
 _atom_site_fract_y
 _atom_site_fract_z
 _atom_site_occupancy
  Ca  Ca0  1  0.000000  0.500000  0.254420  1
  La  La1  1  0.500000  0.000000  0.740099  1
  Ni  Ni2  1  0.000000  0.500000  0.618270  1
  Ni  Ni3  1  0.500000  0.000000  0.384219  1
  As  As4  1  0.000000  0.000000  0.496425  1
  As  As5  1  0.500000  0.500000  0.496425  1
  As  As6  1  0.000000  0.500000  0.859507  1
  As  As7  1  0.500000  0.000000  0.146844  1
  Rh  Rh8  1  0.000000  0.000000  0.001895  1
  Rh  Rh9  1  0.500000  0.500000  0.001895  1
