# generated using pymatgen
data_Y3U5(ReB6)4
_symmetry_space_group_name_H-M   'P 1'
_cell_length_a   3.63919500
_cell_length_b   9.30446217
_cell_length_c   11.41628221
_cell_angle_alpha   89.97813431
_cell_angle_beta   90.00000000
_cell_angle_gamma   90.00000000
_symmetry_Int_Tables_number   1
_chemical_formula_structural   Y3U5(ReB6)4
_chemical_formula_sum   'Y3 U5 Re4 B24'
_cell_volume   386.56387479
_cell_formula_units_Z   1
loop_
 _symmetry_equiv_pos_site_id
 _symmetry_equiv_pos_as_xyz
  1  'x, y, z'
loop_
 _atom_site_type_symbol
 _atom_site_label
 _atom_site_symmetry_multiplicity
 _atom_site_fract_x
 _atom_site_fract_y
 _atom_site_fract_z
 _atom_site_occupancy
  Y  Y0  1  0.000000  0.336771  0.407659  1
  Y  Y1  1  0.000000  0.663417  0.591994  1
  Y  Y2  1  0.000000  0.835337  0.093038  1
  U  U3  1  0.000000  0.163534  0.907223  1
  U  U4  1  0.000000  0.956119  0.396949  1
  U  U5  1  0.000000  0.043027  0.603416  1
  U  U6  1  0.000000  0.457485  0.103824  1
  U  U7  1  0.000000  0.543622  0.897022  1
  Re  Re8  1  0.000000  0.645505  0.318775  1
  Re  Re9  1  0.000000  0.352398  0.684011  1
  Re  Re10  1  0.000000  0.145915  0.178061  1
  Re  Re11  1  0.000000  0.857577  0.819444  1
  B  B12  1  0.500000  0.551587  0.431141  1
  B  B13  1  0.500000  0.447681  0.569848  1
  B  B14  1  0.500000  0.052595  0.067541  1
  B  B15  1  0.500000  0.950417  0.930202  1
  B  B16  1  0.500000  0.743034  0.423053  1
  B  B17  1  0.500000  0.257003  0.576978  1
  B  B18  1  0.500000  0.242710  0.075821  1
  B  B19  1  0.500000  0.756580  0.922595  1
  B  B20  1  0.500000  0.801813  0.275197  1
  B  B21  1  0.500000  0.196969  0.726430  1
  B  B22  1  0.500000  0.301850  0.224697  1
  B  B23  1  0.500000  0.698456  0.774991  1
  B  B24  1  0.500000  0.643245  0.188763  1
  B  B25  1  0.500000  0.355197  0.812167  1
  B  B26  1  0.500000  0.143803  0.310917  1
  B  B27  1  0.500000  0.855903  0.688415  1
  B  B28  1  0.500000  0.989022  0.219503  1
  B  B29  1  0.500000  0.013535  0.781025  1
  B  B30  1  0.500000  0.488452  0.280658  1
  B  B31  1  0.500000  0.511379  0.719844  1
  B  B32  1  0.500000  0.640343  0.038651  1
  B  B33  1  0.500000  0.357430  0.960497  1
  B  B34  1  0.500000  0.139930  0.460898  1
  B  B35  1  0.500000  0.860360  0.538750  1
