# generated using pymatgen
data_Li2ScTi9O20
_symmetry_space_group_name_H-M   'P 1'
_cell_length_a   10.09705600
_cell_length_b   5.25576546
_cell_length_c   7.50254402
_cell_angle_alpha   70.02527371
_cell_angle_beta   90.00000000
_cell_angle_gamma   90.00000000
_symmetry_Int_Tables_number   1
_chemical_formula_structural   Li2ScTi9O20
_chemical_formula_sum   'Li2 Sc1 Ti9 O20'
_cell_volume   374.19224968
_cell_formula_units_Z   1
loop_
 _symmetry_equiv_pos_site_id
 _symmetry_equiv_pos_as_xyz
  1  'x, y, z'
loop_
 _atom_site_type_symbol
 _atom_site_label
 _atom_site_symmetry_multiplicity
 _atom_site_fract_x
 _atom_site_fract_y
 _atom_site_fract_z
 _atom_site_occupancy
  Li  Li0  1  0.500000  0.220481  0.402071  1
  Li  Li1  1  0.000000  0.279249  0.095088  1
  Sc  Sc2  1  0.500000  0.692935  0.902118  1
  Ti  Ti3  1  0.181799  0.800375  0.938083  1
  Ti  Ti4  1  0.187863  0.303983  0.428017  1
  Ti  Ti5  1  0.311706  0.198486  0.071573  1
  Ti  Ti6  1  0.317250  0.706812  0.564150  1
  Ti  Ti7  1  0.818201  0.800375  0.938083  1
  Ti  Ti8  1  0.812137  0.303983  0.428017  1
  Ti  Ti9  1  0.688294  0.198486  0.071573  1
  Ti  Ti10  1  0.682750  0.706812  0.564150  1
  Ti  Ti11  1  0.000000  0.799554  0.598103  1
  O  O12  1  0.500000  0.315944  0.106492  1
  O  O13  1  0.500000  0.817828  0.606400  1
  O  O14  1  0.000000  0.681262  0.871935  1
  O  O15  1  0.000000  0.150869  0.405595  1
  O  O16  1  0.312924  0.532020  0.844860  1
  O  O17  1  0.303224  0.029363  0.342717  1
  O  O18  1  0.184549  0.476958  0.159572  1
  O  O19  1  0.182031  0.965166  0.654855  1
  O  O20  1  0.687076  0.532020  0.844860  1
  O  O21  1  0.696776  0.029363  0.342717  1
  O  O22  1  0.815451  0.476958  0.159572  1
  O  O23  1  0.817969  0.965166  0.654855  1
  O  O24  1  0.363357  0.931372  0.977112  1
  O  O25  1  0.357610  0.433241  0.477827  1
  O  O26  1  0.136380  0.068600  0.021377  1
  O  O27  1  0.127888  0.574563  0.525953  1
  O  O28  1  0.636643  0.931372  0.977112  1
  O  O29  1  0.642390  0.433241  0.477827  1
  O  O30  1  0.863620  0.068600  0.021377  1
  O  O31  1  0.872112  0.574563  0.525953  1
