# generated using pymatgen
data_NdLu2RuO7
_symmetry_space_group_name_H-M   'P 1'
_cell_length_a   6.35057180
_cell_length_b   6.35057140
_cell_length_c   7.43310400
_cell_angle_alpha   90.00000000
_cell_angle_beta   90.00000000
_cell_angle_gamma   109.79394031
_symmetry_Int_Tables_number   1
_chemical_formula_structural   NdLu2RuO7
_chemical_formula_sum   'Nd2 Lu4 Ru2 O14'
_cell_volume   282.06355089
_cell_formula_units_Z   2
loop_
 _symmetry_equiv_pos_site_id
 _symmetry_equiv_pos_as_xyz
  1  'x, y, z'
loop_
 _atom_site_type_symbol
 _atom_site_label
 _atom_site_symmetry_multiplicity
 _atom_site_fract_x
 _atom_site_fract_y
 _atom_site_fract_z
 _atom_site_occupancy
  Nd  Nd0  1  0.000000  0.000000  0.500000  1
  Nd  Nd1  1  0.000000  0.000000  0.000000  1
  Lu  Lu2  1  0.485010  0.937616  0.750000  1
  Lu  Lu3  1  0.514990  0.062384  0.250000  1
  Lu  Lu4  1  0.937616  0.485010  0.750000  1
  Lu  Lu5  1  0.062384  0.514990  0.250000  1
  Ru  Ru6  1  0.500000  0.500000  0.500000  1
  Ru  Ru7  1  0.500000  0.500000  0.000000  1
  O  O8  1  0.594552  0.594552  0.750000  1
  O  O9  1  0.405448  0.405448  0.250000  1
  O  O10  1  0.834831  0.122839  0.750000  1
  O  O11  1  0.165169  0.877161  0.250000  1
  O  O12  1  0.122839  0.834831  0.750000  1
  O  O13  1  0.877161  0.165169  0.250000  1
  O  O14  1  0.439852  0.177560  0.963194  1
  O  O15  1  0.560148  0.822440  0.463194  1
  O  O16  1  0.177560  0.439852  0.963194  1
  O  O17  1  0.822440  0.560148  0.463194  1
  O  O18  1  0.439852  0.177560  0.536806  1
  O  O19  1  0.560148  0.822440  0.036806  1
  O  O20  1  0.822440  0.560148  0.036806  1
  O  O21  1  0.177560  0.439852  0.536806  1
