# generated using pymatgen
data_Tb2DyCo8MoP6
_symmetry_space_group_name_H-M   'P 1'
_cell_length_a   3.72848800
_cell_length_b   10.58055600
_cell_length_c   12.27743200
_cell_angle_alpha   90.00000000
_cell_angle_beta   90.00000000
_cell_angle_gamma   90.00000000
_symmetry_Int_Tables_number   1
_chemical_formula_structural   Tb2DyCo8MoP6
_chemical_formula_sum   'Tb4 Dy2 Co16 Mo2 P12'
_cell_volume   484.33826000
_cell_formula_units_Z   2
loop_
 _symmetry_equiv_pos_site_id
 _symmetry_equiv_pos_as_xyz
  1  'x, y, z'
loop_
 _atom_site_type_symbol
 _atom_site_label
 _atom_site_symmetry_multiplicity
 _atom_site_fract_x
 _atom_site_fract_y
 _atom_site_fract_z
 _atom_site_occupancy
  Tb  Tb0  1  0.000000  0.500000  0.524350  1
  Tb  Tb1  1  0.500000  0.000000  0.475928  1
  Tb  Tb2  1  0.500000  0.818907  0.205048  1
  Tb  Tb3  1  0.500000  0.181093  0.205048  1
  Dy  Dy4  1  0.000000  0.681019  0.794949  1
  Dy  Dy5  1  0.000000  0.318981  0.794949  1
  Co  Co6  1  0.500000  0.500000  0.702094  1
  Co  Co7  1  0.000000  0.000000  0.298196  1
  Co  Co8  1  0.000000  0.500000  0.986421  1
  Co  Co9  1  0.500000  0.000000  0.013022  1
  Co  Co10  1  0.500000  0.332574  0.990082  1
  Co  Co11  1  0.500000  0.667426  0.990082  1
  Co  Co12  1  0.000000  0.167681  0.009289  1
  Co  Co13  1  0.000000  0.832319  0.009289  1
  Co  Co14  1  0.500000  0.295841  0.431576  1
  Co  Co15  1  0.500000  0.704159  0.431576  1
  Co  Co16  1  0.000000  0.204222  0.568963  1
  Co  Co17  1  0.000000  0.795778  0.568963  1
  Co  Co18  1  0.500000  0.878307  0.707064  1
  Co  Co19  1  0.500000  0.121693  0.707064  1
  Co  Co20  1  0.000000  0.621478  0.293162  1
  Co  Co21  1  0.000000  0.378522  0.293162  1
  Mo  Mo22  1  0.500000  0.500000  0.156061  1
  Mo  Mo23  1  0.000000  0.000000  0.843749  1
  P  P24  1  0.500000  0.500000  0.881258  1
  P  P25  1  0.000000  0.000000  0.118136  1
  P  P26  1  0.500000  0.500000  0.348716  1
  P  P27  1  0.000000  0.000000  0.651343  1
  P  P28  1  0.500000  0.310801  0.616049  1
  P  P29  1  0.500000  0.689199  0.616049  1
  P  P30  1  0.000000  0.189411  0.384557  1
  P  P31  1  0.000000  0.810589  0.384557  1
  P  P32  1  0.500000  0.844715  0.893003  1
  P  P33  1  0.500000  0.155285  0.893003  1
  P  P34  1  0.000000  0.654894  0.106621  1
  P  P35  1  0.000000  0.345106  0.106621  1
