# generated using pymatgen
data_Ta6Co16Si6Ge
_symmetry_space_group_name_H-M   'P 1'
_cell_length_a   7.92752954
_cell_length_b   7.94051814
_cell_length_c   7.92752931
_cell_angle_alpha   59.94578638
_cell_angle_beta   60.01117784
_cell_angle_gamma   59.94578595
_symmetry_Int_Tables_number   1
_chemical_formula_structural   Ta6Co16Si6Ge
_chemical_formula_sum   'Ta6 Co16 Si6 Ge1'
_cell_volume   352.60609763
_cell_formula_units_Z   1
loop_
 _symmetry_equiv_pos_site_id
 _symmetry_equiv_pos_as_xyz
  1  'x, y, z'
loop_
 _atom_site_type_symbol
 _atom_site_label
 _atom_site_symmetry_multiplicity
 _atom_site_fract_x
 _atom_site_fract_y
 _atom_site_fract_z
 _atom_site_occupancy
  Ta  Ta0  1  0.700262  0.296475  0.299738  1
  Ta  Ta1  1  0.701942  0.298058  0.701942  1
  Ta  Ta2  1  0.299738  0.703525  0.700262  1
  Ta  Ta3  1  0.298058  0.701942  0.298058  1
  Ta  Ta4  1  0.299738  0.296475  0.700262  1
  Ta  Ta5  1  0.700262  0.703525  0.299738  1
  Co  Co6  1  0.879575  0.886244  0.879575  1
  Co  Co7  1  0.998195  0.331534  0.338738  1
  Co  Co8  1  0.119414  0.118147  0.644293  1
  Co  Co9  1  0.661262  0.668466  0.001805  1
  Co  Co10  1  0.338738  0.331534  0.998195  1
  Co  Co11  1  0.665637  0.666543  0.665637  1
  Co  Co12  1  0.334363  0.333457  0.334363  1
  Co  Co13  1  0.880586  0.881853  0.355707  1
  Co  Co14  1  0.334363  0.997817  0.334363  1
  Co  Co15  1  0.120425  0.113756  0.120425  1
  Co  Co16  1  0.879575  0.354605  0.879575  1
  Co  Co17  1  0.644293  0.118147  0.119414  1
  Co  Co18  1  0.120425  0.645395  0.120425  1
  Co  Co19  1  0.665637  0.002183  0.665637  1
  Co  Co20  1  0.355707  0.881853  0.880586  1
  Co  Co21  1  0.001805  0.668466  0.661262  1
  Si  Si22  1  0.500000  0.500000  0.000000  1
  Si  Si23  1  0.000000  0.000000  0.000000  1
  Si  Si24  1  0.500000  0.000000  0.500000  1
  Si  Si25  1  0.000000  0.000000  0.500000  1
  Si  Si26  1  0.000000  0.500000  0.500000  1
  Si  Si27  1  0.500000  0.000000  0.000000  1
  Ge  Ge28  1  0.000000  0.500000  0.000000  1
