# generated using pymatgen
data_Ti2Nb3ZnSn3
_symmetry_space_group_name_H-M   'P 1'
_cell_length_a   8.28445900
_cell_length_b   8.28180976
_cell_length_c   5.63976900
_cell_angle_alpha   90.00000000
_cell_angle_beta   90.00000000
_cell_angle_gamma   120.01057832
_symmetry_Int_Tables_number   1
_chemical_formula_structural   Ti2Nb3ZnSn3
_chemical_formula_sum   'Ti4 Nb6 Zn2 Sn6'
_cell_volume   335.06961590
_cell_formula_units_Z   2
loop_
 _symmetry_equiv_pos_site_id
 _symmetry_equiv_pos_as_xyz
  1  'x, y, z'
loop_
 _atom_site_type_symbol
 _atom_site_label
 _atom_site_symmetry_multiplicity
 _atom_site_fract_x
 _atom_site_fract_y
 _atom_site_fract_z
 _atom_site_occupancy
  Ti  Ti0  1  0.001983  0.274195  0.750000  1
  Ti  Ti1  1  0.998017  0.725805  0.250000  1
  Ti  Ti2  1  0.727788  0.725805  0.750000  1
  Ti  Ti3  1  0.272212  0.274195  0.250000  1
  Nb  Nb4  1  0.272987  0.000000  0.750000  1
  Nb  Nb5  1  0.727013  0.000000  0.250000  1
  Nb  Nb6  1  0.334382  0.668765  0.500000  1
  Nb  Nb7  1  0.665618  0.331235  0.500000  1
  Nb  Nb8  1  0.665618  0.331235  0.000000  1
  Nb  Nb9  1  0.334382  0.668765  0.000000  1
  Zn  Zn10  1  0.000000  0.000000  0.500000  1
  Zn  Zn11  1  0.000000  0.000000  0.000000  1
  Sn  Sn12  1  0.621478  0.000000  0.750000  1
  Sn  Sn13  1  0.378522  0.000000  0.250000  1
  Sn  Sn14  1  0.997692  0.614872  0.750000  1
  Sn  Sn15  1  0.002308  0.385128  0.250000  1
  Sn  Sn16  1  0.382820  0.385128  0.750000  1
  Sn  Sn17  1  0.617180  0.614872  0.250000  1
