# generated using pymatgen
data_Tm4FeSi8Tc5
_symmetry_space_group_name_H-M   'P 1'
_cell_length_a   6.71562678
_cell_length_b   6.71804761
_cell_length_c   6.71895963
_cell_angle_alpha   69.72211113
_cell_angle_beta   90.33134394
_cell_angle_gamma   91.61875840
_symmetry_Int_Tables_number   1
_chemical_formula_structural   Tm4FeSi8Tc5
_chemical_formula_sum   'Tm4 Fe1 Si8 Tc5'
_cell_volume   284.22855999
_cell_formula_units_Z   1
loop_
 _symmetry_equiv_pos_site_id
 _symmetry_equiv_pos_as_xyz
  1  'x, y, z'
loop_
 _atom_site_type_symbol
 _atom_site_label
 _atom_site_symmetry_multiplicity
 _atom_site_fract_x
 _atom_site_fract_y
 _atom_site_fract_z
 _atom_site_occupancy
  Tm  Tm0  1  0.330469  0.560749  0.806705  1
  Tm  Tm1  1  0.832514  0.940329  0.195261  1
  Tm  Tm2  1  0.668391  0.444288  0.186784  1
  Tm  Tm3  1  0.170302  0.051880  0.811784  1
  Fe  Fe4  1  0.632997  0.277366  0.773110  1
  Si  Si5  1  0.567227  0.895602  0.886827  1
  Si  Si6  1  0.051766  0.622660  0.098115  1
  Si  Si7  1  0.452441  0.126787  0.096565  1
  Si  Si8  1  0.941736  0.364619  0.896292  1
  Si  Si9  1  0.141501  0.870105  0.484606  1
  Si  Si10  1  0.642010  0.620986  0.513544  1
  Si  Si11  1  0.849332  0.131949  0.530378  1
  Si  Si12  1  0.361622  0.365465  0.493856  1
  Tc  Tc13  1  0.498812  0.008798  0.499889  1
  Tc  Tc14  1  0.000488  0.486270  0.502650  1
  Tc  Tc15  1  0.849369  0.745348  0.754447  1
  Tc  Tc16  1  0.356087  0.739212  0.239296  1
  Tc  Tc17  1  0.152938  0.247586  0.229892  1
