# generated using pymatgen
data_Ho12GaCo4Ir
_symmetry_space_group_name_H-M   'P 1'
_cell_length_a   8.17978849
_cell_length_b   8.18011077
_cell_length_c   8.17978820
_cell_angle_alpha   111.16642790
_cell_angle_beta   110.40212019
_cell_angle_gamma   106.87527192
_symmetry_Int_Tables_number   1
_chemical_formula_structural   Ho12GaCo4Ir
_chemical_formula_sum   'Ho12 Ga1 Co4 Ir1'
_cell_volume   420.67286246
_cell_formula_units_Z   1
loop_
 _symmetry_equiv_pos_site_id
 _symmetry_equiv_pos_as_xyz
  1  'x, y, z'
loop_
 _atom_site_type_symbol
 _atom_site_label
 _atom_site_symmetry_multiplicity
 _atom_site_fract_x
 _atom_site_fract_y
 _atom_site_fract_z
 _atom_site_occupancy
  Ho  Ho0  1  0.958104  0.268096  0.690014  1
  Ho  Ho1  1  0.041896  0.731904  0.309986  1
  Ho  Ho2  1  0.674012  0.863593  0.189582  1
  Ho  Ho3  1  0.325993  0.515545  0.189550  1
  Ho  Ho4  1  0.325988  0.136407  0.810418  1
  Ho  Ho5  1  0.674007  0.484455  0.810450  1
  Ho  Ho6  1  0.578081  0.268096  0.309992  1
  Ho  Ho7  1  0.421919  0.731904  0.690008  1
  Ho  Ho8  1  0.178334  0.776335  0.954665  1
  Ho  Ho9  1  0.821669  0.776335  0.598001  1
  Ho  Ho10  1  0.178331  0.223665  0.401999  1
  Ho  Ho11  1  0.821666  0.223665  0.045335  1
  Ga  Ga12  1  0.500000  0.000000  0.500000  1
  Co  Co13  1  0.114671  0.114672  0.000001  1
  Co  Co14  1  0.885329  0.885328  0.999999  1
  Co  Co15  1  0.657007  0.500000  0.157007  1
  Co  Co16  1  0.342993  0.500000  0.842993  1
  Ir  Ir17  1  0.000000  0.500000  0.500000  1
