# generated using pymatgen
data_TbSm3Tm2CoBr10
_symmetry_space_group_name_H-M   'P 1'
_cell_length_a   7.40465883
_cell_length_b   9.17193151
_cell_length_c   9.20484306
_cell_angle_alpha   107.48853607
_cell_angle_beta   96.70665041
_cell_angle_gamma   106.11250525
_symmetry_Int_Tables_number   1
_chemical_formula_structural   TbSm3Tm2CoBr10
_chemical_formula_sum   'Tb1 Sm3 Tm2 Co1 Br10'
_cell_volume   558.99203206
_cell_formula_units_Z   1
loop_
 _symmetry_equiv_pos_site_id
 _symmetry_equiv_pos_as_xyz
  1  'x, y, z'
loop_
 _atom_site_type_symbol
 _atom_site_label
 _atom_site_symmetry_multiplicity
 _atom_site_fract_x
 _atom_site_fract_y
 _atom_site_fract_z
 _atom_site_occupancy
  Tb  Tb0  1  0.642612  0.864887  0.322847  1
  Sm  Sm1  1  0.877280  0.952784  0.736388  1
  Sm  Sm2  1  0.120273  0.045974  0.262713  1
  Sm  Sm3  1  0.361318  0.136845  0.679421  1
  Tm  Tm4  1  0.025690  0.705898  0.407603  1
  Tm  Tm5  1  0.972750  0.293711  0.591338  1
  Co  Co6  1  0.999415  0.999672  0.499925  1
  Br  Br7  1  0.448443  0.816225  0.581882  1
  Br  Br8  1  0.552928  0.179995  0.413229  1
  Br  Br9  1  0.916885  0.622867  0.667535  1
  Br  Br10  1  0.082627  0.376910  0.331903  1
  Br  Br11  1  0.253706  0.084408  0.960115  1
  Br  Br12  1  0.742509  0.913676  0.042257  1
  Br  Br13  1  0.345096  0.459765  0.771862  1
  Br  Br14  1  0.651635  0.544369  0.228050  1
  Br  Br15  1  0.797515  0.264656  0.846573  1
  Br  Br16  1  0.209316  0.737356  0.156356  1
