# generated using pymatgen
data_CsHoBi2S5
_symmetry_space_group_name_H-M   'P 1'
_cell_length_a   4.03748500
_cell_length_b   11.98079600
_cell_length_c   22.22773600
_cell_angle_alpha   90.00000000
_cell_angle_beta   90.00000000
_cell_angle_gamma   90.00000000
_symmetry_Int_Tables_number   1
_chemical_formula_structural   CsHoBi2S5
_chemical_formula_sum   'Cs4 Ho4 Bi8 S20'
_cell_volume   1075.20636154
_cell_formula_units_Z   4
loop_
 _symmetry_equiv_pos_site_id
 _symmetry_equiv_pos_as_xyz
  1  'x, y, z'
loop_
 _atom_site_type_symbol
 _atom_site_label
 _atom_site_symmetry_multiplicity
 _atom_site_fract_x
 _atom_site_fract_y
 _atom_site_fract_z
 _atom_site_occupancy
  Cs  Cs0  1  0.250000  0.487896  0.211224  1
  Cs  Cs1  1  0.750000  0.512104  0.788776  1
  Cs  Cs2  1  0.750000  0.987896  0.288776  1
  Cs  Cs3  1  0.250000  0.012104  0.711224  1
  Ho  Ho4  1  0.250000  0.364471  0.023447  1
  Ho  Ho5  1  0.750000  0.635529  0.976553  1
  Ho  Ho6  1  0.750000  0.864471  0.476553  1
  Ho  Ho7  1  0.250000  0.135529  0.523447  1
  Bi  Bi8  1  0.250000  0.800879  0.121379  1
  Bi  Bi9  1  0.750000  0.199121  0.878621  1
  Bi  Bi10  1  0.750000  0.300879  0.378621  1
  Bi  Bi11  1  0.250000  0.699121  0.621379  1
  Bi  Bi12  1  0.250000  0.594780  0.425990  1
  Bi  Bi13  1  0.750000  0.405220  0.574010  1
  Bi  Bi14  1  0.750000  0.094780  0.074010  1
  Bi  Bi15  1  0.250000  0.905220  0.925990  1
  S  S16  1  0.250000  0.809152  0.396453  1
  S  S17  1  0.750000  0.190848  0.603547  1
  S  S18  1  0.750000  0.309152  0.103547  1
  S  S19  1  0.250000  0.690848  0.896453  1
  S  S20  1  0.250000  0.248148  0.304471  1
  S  S21  1  0.750000  0.751852  0.695529  1
  S  S22  1  0.750000  0.748148  0.195529  1
  S  S23  1  0.250000  0.251852  0.804471  1
  S  S24  1  0.250000  0.352500  0.482460  1
  S  S25  1  0.750000  0.647500  0.517540  1
  S  S26  1  0.750000  0.852500  0.017540  1
  S  S27  1  0.250000  0.147500  0.982460  1
  S  S28  1  0.250000  0.024798  0.152183  1
  S  S29  1  0.750000  0.975202  0.847817  1
  S  S30  1  0.750000  0.524798  0.347817  1
  S  S31  1  0.250000  0.475202  0.652183  1
  S  S32  1  0.250000  0.582805  0.055330  1
  S  S33  1  0.750000  0.417195  0.944670  1
  S  S34  1  0.750000  0.082805  0.444670  1
  S  S35  1  0.250000  0.917195  0.555330  1
