# generated using pymatgen
data_Tb7Tm3(RuRh)2
_symmetry_space_group_name_H-M   'P 1'
_cell_length_a   6.36729602
_cell_length_b   7.23472846
_cell_length_c   8.52714309
_cell_angle_alpha   96.62405803
_cell_angle_beta   111.66356963
_cell_angle_gamma   90.03743599
_symmetry_Int_Tables_number   1
_chemical_formula_structural   Tb7Tm3(RuRh)2
_chemical_formula_sum   'Tb7 Tm3 Ru2 Rh2'
_cell_volume   362.22844725
_cell_formula_units_Z   1
loop_
 _symmetry_equiv_pos_site_id
 _symmetry_equiv_pos_as_xyz
  1  'x, y, z'
loop_
 _atom_site_type_symbol
 _atom_site_label
 _atom_site_symmetry_multiplicity
 _atom_site_fract_x
 _atom_site_fract_y
 _atom_site_fract_z
 _atom_site_occupancy
  Tb  Tb0  1  0.791801  0.080763  0.812698  1
  Tb  Tb1  1  0.980368  0.419349  0.188243  1
  Tb  Tb2  1  0.209529  0.915344  0.185151  1
  Tb  Tb3  1  0.026360  0.584262  0.814755  1
  Tb  Tb4  1  0.208379  0.184577  0.566264  1
  Tb  Tb5  1  0.641776  0.316583  0.434116  1
  Tb  Tb6  1  0.791835  0.811144  0.435924  1
  Tm  Tm7  1  0.356089  0.687448  0.565030  1
  Tm  Tm8  1  0.423380  0.249849  0.000035  1
  Tm  Tm9  1  0.574338  0.749891  0.999108  1
  Ru  Ru10  1  0.397638  0.573308  0.219757  1
  Ru  Ru11  1  0.181531  0.926199  0.780909  1
  Rh  Rh12  1  0.599048  0.426860  0.780651  1
  Rh  Rh13  1  0.817925  0.074423  0.217358  1
