# generated using pymatgen
data_Tb5HoAl24Ru7Rh
_symmetry_space_group_name_H-M   'P 1'
_cell_length_a   8.81874382
_cell_length_b   8.84123924
_cell_length_c   9.57895204
_cell_angle_alpha   90.00000055
_cell_angle_beta   89.87544183
_cell_angle_gamma   120.08442408
_symmetry_Int_Tables_number   1
_chemical_formula_structural   Tb5HoAl24Ru7Rh
_chemical_formula_sum   'Tb5 Ho1 Al24 Ru7 Rh1'
_cell_volume   646.24476813
_cell_formula_units_Z   1
loop_
 _symmetry_equiv_pos_site_id
 _symmetry_equiv_pos_as_xyz
  1  'x, y, z'
loop_
 _atom_site_type_symbol
 _atom_site_label
 _atom_site_symmetry_multiplicity
 _atom_site_fract_x
 _atom_site_fract_y
 _atom_site_fract_z
 _atom_site_occupancy
  Tb  Tb0  1  0.805701  0.191959  0.249479  1
  Tb  Tb1  1  0.805701  0.613741  0.249479  1
  Tb  Tb2  1  0.612436  0.806218  0.750147  1
  Tb  Tb3  1  0.194228  0.808050  0.750515  1
  Tb  Tb4  1  0.194228  0.386179  0.750515  1
  Ho  Ho5  1  0.387950  0.193975  0.249697  1
  Al  Al6  1  0.438337  0.877618  0.250525  1
  Al  Al7  1  0.122966  0.561483  0.249519  1
  Al  Al8  1  0.438337  0.560719  0.250525  1
  Al  Al9  1  0.561609  0.122957  0.749494  1
  Al  Al10  1  0.877116  0.438557  0.750516  1
  Al  Al11  1  0.561609  0.438652  0.749494  1
  Al  Al12  1  0.163545  0.839715  0.422261  1
  Al  Al13  1  0.163545  0.323831  0.422261  1
  Al  Al14  1  0.675491  0.837745  0.422149  1
  Al  Al15  1  0.836658  0.160634  0.577523  1
  Al  Al16  1  0.836658  0.676022  0.577523  1
  Al  Al17  1  0.324574  0.162287  0.577420  1
  Al  Al18  1  0.838203  0.162407  0.922347  1
  Al  Al19  1  0.838203  0.675795  0.922347  1
  Al  Al20  1  0.324822  0.162411  0.922594  1
  Al  Al21  1  0.161976  0.837907  0.077879  1
  Al  Al22  1  0.161976  0.324069  0.077879  1
  Al  Al23  1  0.675224  0.837612  0.077848  1
  Al  Al24  1  0.335334  0.667667  0.516417  1
  Al  Al25  1  0.664309  0.332155  0.483270  1
  Al  Al26  1  0.666166  0.333083  0.015982  1
  Al  Al27  1  0.333503  0.666752  0.984337  1
  Al  Al28  1  0.000287  0.000143  0.249979  1
  Al  Al29  1  0.000317  0.000158  0.750050  1
  Ru  Ru30  1  0.999993  0.999997  0.499968  1
  Ru  Ru31  1  0.000008  0.000004  0.000053  1
  Ru  Ru32  1  0.499840  0.000169  0.499776  1
  Ru  Ru33  1  0.499840  0.499670  0.499776  1
  Ru  Ru34  1  0.499838  0.000179  0.000219  1
  Ru  Ru35  1  0.999811  0.499905  0.000086  1
  Ru  Ru36  1  0.499838  0.499659  0.000219  1
  Rh  Rh37  1  0.999826  0.499913  0.499938  1
