# generated using pymatgen
data_Cs12CaHgTe8
_symmetry_space_group_name_H-M   'P 1'
_cell_length_a   12.09408500
_cell_length_b   12.09408538
_cell_length_c   9.27359800
_cell_angle_alpha   90.00000000
_cell_angle_beta   90.00000000
_cell_angle_gamma   120.00000169
_symmetry_Int_Tables_number   1
_chemical_formula_structural   Cs12CaHgTe8
_chemical_formula_sum   'Cs12 Ca1 Hg1 Te8'
_cell_volume   1174.69450470
_cell_formula_units_Z   1
loop_
 _symmetry_equiv_pos_site_id
 _symmetry_equiv_pos_as_xyz
  1  'x, y, z'
loop_
 _atom_site_type_symbol
 _atom_site_label
 _atom_site_symmetry_multiplicity
 _atom_site_fract_x
 _atom_site_fract_y
 _atom_site_fract_z
 _atom_site_occupancy
  Cs  Cs0  1  0.147682  0.295364  0.203348  1
  Cs  Cs1  1  0.147682  0.852318  0.203348  1
  Cs  Cs2  1  0.704636  0.852318  0.203348  1
  Cs  Cs3  1  0.851788  0.703575  0.705533  1
  Cs  Cs4  1  0.851788  0.148212  0.705533  1
  Cs  Cs5  1  0.296425  0.148212  0.705533  1
  Cs  Cs6  1  0.531871  0.063743  0.378011  1
  Cs  Cs7  1  0.531871  0.468129  0.378011  1
  Cs  Cs8  1  0.936257  0.468129  0.378011  1
  Cs  Cs9  1  0.475463  0.950926  0.883802  1
  Cs  Cs10  1  0.475463  0.524537  0.883802  1
  Cs  Cs11  1  0.049074  0.524537  0.883802  1
  Ca  Ca12  1  0.333333  0.666667  0.499662  1
  Hg  Hg13  1  0.666667  0.333333  0.997536  1
  Te  Te14  1  0.333333  0.666667  0.165872  1
  Te  Te15  1  0.666667  0.333333  0.675842  1
  Te  Te16  1  0.802621  0.605240  0.097409  1
  Te  Te17  1  0.802621  0.197379  0.097409  1
  Te  Te18  1  0.394760  0.197379  0.097409  1
  Te  Te19  1  0.192537  0.385076  0.598872  1
  Te  Te20  1  0.192537  0.807463  0.598872  1
  Te  Te21  1  0.614924  0.807463  0.598872  1
