# generated using pymatgen
data_Dy3Tm9Co4BiOs
_symmetry_space_group_name_H-M   'P 1'
_cell_length_a   8.25961450
_cell_length_b   8.25961077
_cell_length_c   8.25424306
_cell_angle_alpha   110.54345134
_cell_angle_beta   111.37275527
_cell_angle_gamma   106.56591627
_symmetry_Int_Tables_number   1
_chemical_formula_structural   Dy3Tm9Co4BiOs
_chemical_formula_sum   'Dy3 Tm9 Co4 Bi1 Os1'
_cell_volume   432.47287158
_cell_formula_units_Z   1
loop_
 _symmetry_equiv_pos_site_id
 _symmetry_equiv_pos_as_xyz
  1  'x, y, z'
loop_
 _atom_site_type_symbol
 _atom_site_label
 _atom_site_symmetry_multiplicity
 _atom_site_fract_x
 _atom_site_fract_y
 _atom_site_fract_z
 _atom_site_occupancy
  Dy  Dy0  1  0.279998  0.181521  0.461521  1
  Dy  Dy1  1  0.720154  0.819106  0.539260  1
  Dy  Dy2  1  0.279970  0.817741  0.097713  1
  Tm  Tm3  1  0.721679  0.181015  0.902691  1
  Tm  Tm4  1  0.622734  0.311686  0.309731  1
  Tm  Tm5  1  0.377847  0.688805  0.689900  1
  Tm  Tm6  1  0.001051  0.312033  0.689875  1
  Tm  Tm7  1  0.998004  0.686981  0.309707  1
  Tm  Tm8  1  0.214561  0.411493  0.196007  1
  Tm  Tm9  1  0.784499  0.587521  0.803543  1
  Tm  Tm10  1  0.216031  0.019051  0.803542  1
  Tm  Tm11  1  0.784520  0.981449  0.195999  1
  Co  Co12  1  0.999400  0.374945  0.374326  1
  Co  Co13  1  0.999762  0.624573  0.624315  1
  Co  Co14  1  0.389384  0.889706  0.501616  1
  Co  Co15  1  0.611908  0.112231  0.501619  1
  Bi  Bi16  1  0.499879  0.500028  0.999907  1
  Os  Os17  1  0.998618  0.000113  0.998727  1
