# generated using pymatgen
data_Er9ZrCo4
_symmetry_space_group_name_H-M   'P 1'
_cell_length_a   6.19715309
_cell_length_b   6.75962361
_cell_length_c   8.47002640
_cell_angle_alpha   96.08603572
_cell_angle_beta   111.45858017
_cell_angle_gamma   90.00000870
_symmetry_Int_Tables_number   1
_chemical_formula_structural   Er9ZrCo4
_chemical_formula_sum   'Er9 Zr1 Co4'
_cell_volume   328.06847204
_cell_formula_units_Z   1
loop_
 _symmetry_equiv_pos_site_id
 _symmetry_equiv_pos_as_xyz
  1  'x, y, z'
loop_
 _atom_site_type_symbol
 _atom_site_label
 _atom_site_symmetry_multiplicity
 _atom_site_fract_x
 _atom_site_fract_y
 _atom_site_fract_z
 _atom_site_occupancy
  Er  Er0  1  0.792176  0.081119  0.813701  1
  Er  Er1  1  0.978476  0.418881  0.186299  1
  Er  Er2  1  0.205541  0.913178  0.187634  1
  Er  Er3  1  0.017905  0.586822  0.812366  1
  Er  Er4  1  0.217160  0.185581  0.567586  1
  Er  Er5  1  0.649574  0.314419  0.432414  1
  Er  Er6  1  0.781587  0.814185  0.429104  1
  Er  Er7  1  0.352484  0.685815  0.570896  1
  Er  Er8  1  0.429266  0.250000  0.000000  1
  Zr  Zr9  1  0.562331  0.750000  0.000000  1
  Co  Co10  1  0.601091  0.440240  0.790328  1
  Co  Co11  1  0.810763  0.059760  0.209672  1
  Co  Co12  1  0.406761  0.573068  0.211881  1
  Co  Co13  1  0.194881  0.926932  0.788119  1
