# generated using pymatgen
data_Dy3Fe4Ni5As6
_symmetry_space_group_name_H-M   'P 1'
_cell_length_a   3.88532600
_cell_length_b   10.86324500
_cell_length_c   12.74835700
_cell_angle_alpha   90.00000000
_cell_angle_beta   90.00000000
_cell_angle_gamma   90.00000000
_symmetry_Int_Tables_number   1
_chemical_formula_structural   Dy3Fe4Ni5As6
_chemical_formula_sum   'Dy6 Fe8 Ni10 As12'
_cell_volume   538.07306859
_cell_formula_units_Z   2
loop_
 _symmetry_equiv_pos_site_id
 _symmetry_equiv_pos_as_xyz
  1  'x, y, z'
loop_
 _atom_site_type_symbol
 _atom_site_label
 _atom_site_symmetry_multiplicity
 _atom_site_fract_x
 _atom_site_fract_y
 _atom_site_fract_z
 _atom_site_occupancy
  Dy  Dy0  1  0.000000  0.500000  0.520853  1
  Dy  Dy1  1  0.500000  0.000000  0.479147  1
  Dy  Dy2  1  0.500000  0.819397  0.208354  1
  Dy  Dy3  1  0.500000  0.180603  0.208354  1
  Dy  Dy4  1  0.000000  0.680603  0.791646  1
  Dy  Dy5  1  0.000000  0.319397  0.791646  1
  Fe  Fe6  1  0.500000  0.500000  0.145765  1
  Fe  Fe7  1  0.000000  0.000000  0.854235  1
  Fe  Fe8  1  0.000000  0.500000  0.987197  1
  Fe  Fe9  1  0.500000  0.000000  0.012803  1
  Fe  Fe10  1  0.500000  0.328384  0.000015  1
  Fe  Fe11  1  0.500000  0.671616  0.000015  1
  Fe  Fe12  1  0.000000  0.171616  0.999985  1
  Fe  Fe13  1  0.000000  0.828384  0.999985  1
  Ni  Ni14  1  0.500000  0.500000  0.701522  1
  Ni  Ni15  1  0.000000  0.000000  0.298478  1
  Ni  Ni16  1  0.500000  0.303568  0.425712  1
  Ni  Ni17  1  0.500000  0.696432  0.425712  1
  Ni  Ni18  1  0.000000  0.196432  0.574288  1
  Ni  Ni19  1  0.000000  0.803568  0.574288  1
  Ni  Ni20  1  0.500000  0.879946  0.707790  1
  Ni  Ni21  1  0.500000  0.120054  0.707790  1
  Ni  Ni22  1  0.000000  0.620054  0.292210  1
  Ni  Ni23  1  0.000000  0.379946  0.292210  1
  As  As24  1  0.500000  0.500000  0.882172  1
  As  As25  1  0.000000  0.000000  0.117828  1
  As  As26  1  0.500000  0.500000  0.342445  1
  As  As27  1  0.000000  0.000000  0.657555  1
  As  As28  1  0.500000  0.314459  0.612895  1
  As  As29  1  0.500000  0.685541  0.612895  1
  As  As30  1  0.000000  0.185541  0.387105  1
  As  As31  1  0.000000  0.814459  0.387105  1
  As  As32  1  0.500000  0.845578  0.889392  1
  As  As33  1  0.500000  0.154422  0.889392  1
  As  As34  1  0.000000  0.654422  0.110608  1
  As  As35  1  0.000000  0.345578  0.110608  1
