# generated using pymatgen
data_MnPt4Pb3O14
_symmetry_space_group_name_H-M   'P 1'
_cell_length_a   7.37546607
_cell_length_b   7.28292648
_cell_length_c   7.37546700
_cell_angle_alpha   59.57877911
_cell_angle_beta   60.00000031
_cell_angle_gamma   59.57877637
_symmetry_Int_Tables_number   1
_chemical_formula_structural   MnPt4Pb3O14
_chemical_formula_sum   'Mn1 Pt4 Pb3 O14'
_cell_volume   278.33980989
_cell_formula_units_Z   1
loop_
 _symmetry_equiv_pos_site_id
 _symmetry_equiv_pos_as_xyz
  1  'x, y, z'
loop_
 _atom_site_type_symbol
 _atom_site_label
 _atom_site_symmetry_multiplicity
 _atom_site_fract_x
 _atom_site_fract_y
 _atom_site_fract_z
 _atom_site_occupancy
  Mn  Mn0  1  0.125000  0.625000  0.125000  1
  Pt  Pt1  1  0.625000  0.625000  0.125000  1
  Pt  Pt2  1  0.625000  0.125000  0.625000  1
  Pt  Pt3  1  0.125000  0.625000  0.625000  1
  Pt  Pt4  1  0.625000  0.625000  0.625000  1
  Pb  Pb5  1  0.125000  0.125000  0.625000  1
  Pb  Pb6  1  0.625000  0.125000  0.125000  1
  Pb  Pb7  1  0.125000  0.125000  0.125000  1
  O  O8  1  0.244627  0.266118  0.244627  1
  O  O9  1  0.005373  0.983882  0.005373  1
  O  O10  1  0.541741  0.958957  0.541741  1
  O  O11  1  0.291608  0.703079  0.291608  1
  O  O12  1  0.536294  0.546921  0.958392  1
  O  O13  1  0.958392  0.546921  0.536294  1
  O  O14  1  0.541741  0.958957  0.957562  1
  O  O15  1  0.957562  0.958957  0.541741  1
  O  O16  1  0.958392  0.546921  0.958392  1
  O  O17  1  0.708259  0.291043  0.292438  1
  O  O18  1  0.291608  0.703079  0.713706  1
  O  O19  1  0.708259  0.291043  0.708259  1
  O  O20  1  0.292438  0.291043  0.708259  1
  O  O21  1  0.713706  0.703079  0.291608  1
