# generated using pymatgen
data_Ho17Er3(Cd3Ru)2
_symmetry_space_group_name_H-M   'P 1'
_cell_length_a   9.53751201
_cell_length_b   9.53819287
_cell_length_c   9.80451401
_cell_angle_alpha   90.00000146
_cell_angle_beta   89.99633282
_cell_angle_gamma   120.00236483
_symmetry_Int_Tables_number   1
_chemical_formula_structural   Ho17Er3(Cd3Ru)2
_chemical_formula_sum   'Ho17 Er3 Cd6 Ru2'
_cell_volume   772.40939928
_cell_formula_units_Z   1
loop_
 _symmetry_equiv_pos_site_id
 _symmetry_equiv_pos_as_xyz
  1  'x, y, z'
loop_
 _atom_site_type_symbol
 _atom_site_label
 _atom_site_symmetry_multiplicity
 _atom_site_fract_x
 _atom_site_fract_y
 _atom_site_fract_z
 _atom_site_occupancy
  Ho  Ho0  1  0.209729  0.790294  0.440583  1
  Ho  Ho1  1  0.209729  0.419436  0.440583  1
  Ho  Ho2  1  0.580526  0.790263  0.440527  1
  Ho  Ho3  1  0.790286  0.209718  0.559427  1
  Ho  Ho4  1  0.790286  0.580567  0.559427  1
  Ho  Ho5  1  0.419440  0.209720  0.559401  1
  Ho  Ho6  1  0.790254  0.209662  0.940594  1
  Ho  Ho7  1  0.790254  0.580591  0.940594  1
  Ho  Ho8  1  0.419435  0.209717  0.940594  1
  Ho  Ho9  1  0.209796  0.790279  0.059433  1
  Ho  Ho10  1  0.209796  0.419519  0.059433  1
  Ho  Ho11  1  0.541146  0.458903  0.249969  1
  Ho  Ho12  1  0.541146  0.082243  0.249969  1
  Ho  Ho13  1  0.917698  0.458849  0.250010  1
  Ho  Ho14  1  0.458885  0.541189  0.750042  1
  Ho  Ho15  1  0.458885  0.917696  0.750042  1
  Ho  Ho16  1  0.082285  0.541143  0.750002  1
  Er  Er17  1  0.999982  0.999991  0.500020  1
  Er  Er18  1  0.999952  0.999976  0.000016  1
  Er  Er19  1  0.580509  0.790255  0.059415  1
  Cd  Cd20  1  0.885419  0.114547  0.249983  1
  Cd  Cd21  1  0.885419  0.770873  0.249983  1
  Cd  Cd22  1  0.229126  0.114564  0.250003  1
  Cd  Cd23  1  0.114551  0.885432  0.750005  1
  Cd  Cd24  1  0.114551  0.229117  0.750005  1
  Cd  Cd25  1  0.770856  0.885428  0.750025  1
  Ru  Ru26  1  0.333399  0.666700  0.249938  1
  Ru  Ru27  1  0.666659  0.333329  0.749978  1
