# generated using pymatgen
data_Tb5P12Ru5Rh14
_symmetry_space_group_name_H-M   'P 1'
_cell_length_a   12.68003105
_cell_length_b   12.64425118
_cell_length_c   3.94982000
_cell_angle_alpha   90.00000000
_cell_angle_beta   90.00000000
_cell_angle_gamma   120.05814327
_symmetry_Int_Tables_number   1
_chemical_formula_structural   Tb5P12Ru5Rh14
_chemical_formula_sum   'Tb5 P12 Ru5 Rh14'
_cell_volume   548.10860534
_cell_formula_units_Z   1
loop_
 _symmetry_equiv_pos_site_id
 _symmetry_equiv_pos_as_xyz
  1  'x, y, z'
loop_
 _atom_site_type_symbol
 _atom_site_label
 _atom_site_symmetry_multiplicity
 _atom_site_fract_x
 _atom_site_fract_y
 _atom_site_fract_z
 _atom_site_occupancy
  Tb  Tb0  1  0.666195  0.330864  0.000000  1
  Tb  Tb1  1  0.334560  0.668244  0.000000  1
  Tb  Tb2  1  0.814075  0.000964  0.500000  1
  Tb  Tb3  1  0.184831  0.186363  0.500000  1
  Tb  Tb4  1  0.999945  0.812876  0.500000  1
  P  P5  1  0.635042  0.999479  0.000000  1
  P  P6  1  0.364815  0.365110  0.000000  1
  P  P7  1  0.000205  0.634707  0.000000  1
  P  P8  1  0.688651  0.519392  0.500000  1
  P  P9  1  0.829452  0.307402  0.500000  1
  P  P10  1  0.316535  0.834778  0.500000  1
  P  P11  1  0.519614  0.690846  0.500000  1
  P  P12  1  0.181080  0.000126  0.000000  1
  P  P13  1  0.818527  0.817843  0.000000  1
  P  P14  1  0.997140  0.181967  0.000000  1
  P  P15  1  0.478287  0.167296  0.500000  1
  P  P16  1  0.168965  0.480834  0.500000  1
  Ru  Ru17  1  0.513223  0.873122  0.500000  1
  Ru  Ru18  1  0.715690  0.715901  0.500000  1
  Ru  Ru19  1  0.000485  0.284853  0.500000  1
  Ru  Ru20  1  0.817747  0.196118  0.000000  1
  Ru  Ru21  1  0.281224  0.999611  0.500000  1
  Rh  Rh22  1  0.624332  0.804663  0.000000  1
  Rh  Rh23  1  0.182730  0.377576  0.000000  1
  Rh  Rh24  1  0.375798  0.181900  0.000000  1
  Rh  Rh25  1  0.194153  0.818470  0.000000  1
  Rh  Rh26  1  0.804163  0.621956  0.000000  1
  Rh  Rh27  1  0.869672  0.507703  0.500000  1
  Rh  Rh28  1  0.491443  0.360435  0.500000  1
  Rh  Rh29  1  0.635595  0.127036  0.500000  1
  Rh  Rh30  1  0.132253  0.641275  0.500000  1
  Rh  Rh31  1  0.361447  0.490824  0.500000  1
  Rh  Rh32  1  0.999610  0.000185  0.000000  1
  Rh  Rh33  1  0.452442  0.998965  0.000000  1
  Rh  Rh34  1  0.548169  0.547516  0.000000  1
  Rh  Rh35  1  0.001911  0.452798  0.000000  1
