# generated using pymatgen
data_Ta2S3O14
_symmetry_space_group_name_H-M   'P 1'
_cell_length_a   8.77546500
_cell_length_b   9.83431200
_cell_length_c   11.73352500
_cell_angle_alpha   90.00000000
_cell_angle_beta   90.00000000
_cell_angle_gamma   90.00000000
_symmetry_Int_Tables_number   1
_chemical_formula_structural   Ta2S3O14
_chemical_formula_sum   'Ta8 S12 O56'
_cell_volume   1012.61096049
_cell_formula_units_Z   4
loop_
 _symmetry_equiv_pos_site_id
 _symmetry_equiv_pos_as_xyz
  1  'x, y, z'
loop_
 _atom_site_type_symbol
 _atom_site_label
 _atom_site_symmetry_multiplicity
 _atom_site_fract_x
 _atom_site_fract_y
 _atom_site_fract_z
 _atom_site_occupancy
  Ta  Ta0  1  0.565856  0.563100  0.626258  1
  Ta  Ta1  1  0.065856  0.436900  0.373742  1
  Ta  Ta2  1  0.065856  0.936900  0.126258  1
  Ta  Ta3  1  0.565856  0.063100  0.873742  1
  Ta  Ta4  1  0.614612  0.120644  0.377240  1
  Ta  Ta5  1  0.114612  0.879356  0.622760  1
  Ta  Ta6  1  0.114612  0.379356  0.877240  1
  Ta  Ta7  1  0.614612  0.620644  0.122760  1
  S  S8  1  0.720355  0.832861  0.496130  1
  S  S9  1  0.220355  0.167139  0.503870  1
  S  S10  1  0.220355  0.667139  0.996130  1
  S  S11  1  0.720355  0.332861  0.003870  1
  S  S12  1  0.680356  0.239993  0.642024  1
  S  S13  1  0.180356  0.760007  0.357976  1
  S  S14  1  0.180356  0.260007  0.142024  1
  S  S15  1  0.680356  0.739993  0.857976  1
  S  S16  1  0.995478  0.553525  0.638681  1
  S  S17  1  0.495478  0.446475  0.361319  1
  S  S18  1  0.495478  0.946475  0.138681  1
  S  S19  1  0.995478  0.053525  0.861319  1
  O  O20  1  0.610503  0.370322  0.684213  1
  O  O21  1  0.110503  0.629678  0.315787  1
  O  O22  1  0.110503  0.129678  0.184213  1
  O  O23  1  0.610503  0.870322  0.815787  1
  O  O24  1  0.842638  0.239772  0.639174  1
  O  O25  1  0.342638  0.760228  0.360826  1
  O  O26  1  0.342638  0.260228  0.139174  1
  O  O27  1  0.842638  0.739772  0.860826  1
  O  O28  1  0.055916  0.685890  0.678712  1
  O  O29  1  0.555916  0.314110  0.321288  1
  O  O30  1  0.555916  0.814110  0.178712  1
  O  O31  1  0.055916  0.185890  0.821288  1
  O  O32  1  0.085169  0.508549  0.537557  1
  O  O33  1  0.585169  0.491451  0.462443  1
  O  O34  1  0.585169  0.991451  0.037557  1
  O  O35  1  0.085169  0.008549  0.962443  1
  O  O36  1  0.615088  0.129488  0.714994  1
  O  O37  1  0.115088  0.870512  0.285006  1
  O  O38  1  0.115088  0.370512  0.214994  1
  O  O39  1  0.615088  0.629488  0.785006  1
  O  O40  1  0.607561  0.746455  0.564985  1
  O  O41  1  0.107561  0.253545  0.435015  1
  O  O42  1  0.107561  0.753545  0.064985  1
  O  O43  1  0.607561  0.246455  0.935015  1
  O  O44  1  0.834965  0.559665  0.612197  1
  O  O45  1  0.334965  0.440335  0.387803  1
  O  O46  1  0.334965  0.940335  0.112197  1
  O  O47  1  0.834965  0.059665  0.887803  1
  O  O48  1  0.609448  0.948108  0.462110  1
  O  O49  1  0.109448  0.051892  0.537890  1
  O  O50  1  0.109448  0.551892  0.962110  1
  O  O51  1  0.609448  0.448108  0.037890  1
  O  O52  1  0.369824  0.567749  0.634194  1
  O  O53  1  0.869824  0.432251  0.365806  1
  O  O54  1  0.869824  0.932251  0.134194  1
  O  O55  1  0.369824  0.067749  0.865806  1
  O  O56  1  0.024426  0.455003  0.732122  1
  O  O57  1  0.524426  0.544997  0.267878  1
  O  O58  1  0.524426  0.044997  0.232122  1
  O  O59  1  0.024426  0.955003  0.767878  1
  O  O60  1  0.834146  0.887824  0.574753  1
  O  O61  1  0.334146  0.112176  0.425247  1
  O  O62  1  0.334146  0.612176  0.074753  1
  O  O63  1  0.834146  0.387824  0.925247  1
  O  O64  1  0.774356  0.762235  0.397550  1
  O  O65  1  0.274356  0.237765  0.602450  1
  O  O66  1  0.274356  0.737765  0.897550  1
  O  O67  1  0.774356  0.262235  0.102450  1
  O  O68  1  0.806772  0.120930  0.347952  1
  O  O69  1  0.306772  0.879070  0.652048  1
  O  O70  1  0.306772  0.379070  0.847952  1
  O  O71  1  0.806772  0.620930  0.152048  1
  O  O72  1  0.608150  0.217377  0.528021  1
  O  O73  1  0.108150  0.782623  0.471979  1
  O  O74  1  0.108150  0.282623  0.028021  1
  O  O75  1  0.608150  0.717377  0.971979  1
