# generated using pymatgen
data_YPa3(ReB4)4
_symmetry_space_group_name_H-M   'P 1'
_cell_length_a   3.65133900
_cell_length_b   5.98732442
_cell_length_c   11.58574082
_cell_angle_alpha   90.04307376
_cell_angle_beta   90.00000000
_cell_angle_gamma   90.00000000
_symmetry_Int_Tables_number   1
_chemical_formula_structural   YPa3(ReB4)4
_chemical_formula_sum   'Y1 Pa3 Re4 B16'
_cell_volume   253.28451133
_cell_formula_units_Z   1
loop_
 _symmetry_equiv_pos_site_id
 _symmetry_equiv_pos_as_xyz
  1  'x, y, z'
loop_
 _atom_site_type_symbol
 _atom_site_label
 _atom_site_symmetry_multiplicity
 _atom_site_fract_x
 _atom_site_fract_y
 _atom_site_fract_z
 _atom_site_occupancy
  Y  Y0  1  0.000000  0.372158  0.649485  1
  Pa  Pa1  1  0.000000  0.128627  0.149896  1
  Pa  Pa2  1  0.000000  0.871773  0.848692  1
  Pa  Pa3  1  0.000000  0.627611  0.351354  1
  Re  Re4  1  0.000000  0.137361  0.405381  1
  Re  Re5  1  0.000000  0.861450  0.591175  1
  Re  Re6  1  0.000000  0.639261  0.094593  1
  Re  Re7  1  0.000000  0.360716  0.907866  1
  B  B8  1  0.500000  0.472612  0.191438  1
  B  B9  1  0.500000  0.527404  0.809054  1
  B  B10  1  0.500000  0.972823  0.308768  1
  B  B11  1  0.500000  0.023729  0.691549  1
  B  B12  1  0.500000  0.289910  0.313400  1
  B  B13  1  0.500000  0.713466  0.686812  1
  B  B14  1  0.500000  0.790124  0.187249  1
  B  B15  1  0.500000  0.210249  0.814314  1
  B  B16  1  0.500000  0.363948  0.467783  1
  B  B17  1  0.500000  0.637458  0.531117  1
  B  B18  1  0.500000  0.864141  0.031489  1
  B  B19  1  0.500000  0.134476  0.968260  1
  B  B20  1  0.500000  0.387197  0.045839  1
  B  B21  1  0.500000  0.612144  0.953211  1
  B  B22  1  0.500000  0.887879  0.454404  1
  B  B23  1  0.500000  0.113485  0.546868  1
