# generated using pymatgen
data_ZnCo3(BrO3)8
_symmetry_space_group_name_H-M   'P 1'
_cell_length_a   5.67680518
_cell_length_b   10.49571462
_cell_length_c   10.54132204
_cell_angle_alpha   119.05986481
_cell_angle_beta   89.99590695
_cell_angle_gamma   89.92575670
_symmetry_Int_Tables_number   1
_chemical_formula_structural   ZnCo3(BrO3)8
_chemical_formula_sum   'Zn1 Co3 Br8 O24'
_cell_volume   549.00715224
_cell_formula_units_Z   1
loop_
 _symmetry_equiv_pos_site_id
 _symmetry_equiv_pos_as_xyz
  1  'x, y, z'
loop_
 _atom_site_type_symbol
 _atom_site_label
 _atom_site_symmetry_multiplicity
 _atom_site_fract_x
 _atom_site_fract_y
 _atom_site_fract_z
 _atom_site_occupancy
  Zn  Zn0  1  0.145639  0.762835  0.505547  1
  Co  Co1  1  0.641066  0.237892  0.493994  1
  Co  Co2  1  0.139245  0.261924  0.006272  1
  Co  Co3  1  0.639295  0.738163  0.993440  1
  Br  Br4  1  0.260389  0.415169  0.349020  1
  Br  Br5  1  0.758758  0.584359  0.650781  1
  Br  Br6  1  0.259090  0.914794  0.848822  1
  Br  Br7  1  0.758515  0.085391  0.150825  1
  Br  Br8  1  0.786070  0.086437  0.689524  1
  Br  Br9  1  0.288327  0.914508  0.311013  1
  Br  Br10  1  0.286861  0.413016  0.810341  1
  Br  Br11  1  0.786296  0.586723  0.188811  1
  O  O12  1  0.427221  0.886702  0.965783  1
  O  O13  1  0.929864  0.112867  0.034594  1
  O  O14  1  0.372047  0.800881  0.681984  1
  O  O15  1  0.865796  0.201182  0.318562  1
  O  O16  1  0.366437  0.299578  0.180779  1
  O  O17  1  0.864653  0.700228  0.818887  1
  O  O18  1  0.932245  0.228240  0.825627  1
  O  O19  1  0.431125  0.772067  0.173381  1
  O  O20  1  0.928131  0.932425  0.660859  1
  O  O21  1  0.430693  0.068316  0.339507  1
  O  O22  1  0.352897  0.080776  0.878247  1
  O  O23  1  0.852550  0.919642  0.122507  1
  O  O24  1  0.432852  0.270569  0.674079  1
  O  O25  1  0.931183  0.728747  0.324884  1
  O  O26  1  0.348803  0.397004  0.959808  1
  O  O27  1  0.848577  0.602503  0.039321  1
  O  O28  1  0.429940  0.566846  0.839108  1
  O  O29  1  0.931602  0.433594  0.160826  1
  O  O30  1  0.359860  0.580424  0.378957  1
  O  O31  1  0.852265  0.418628  0.623103  1
  O  O32  1  0.429461  0.385860  0.464713  1
  O  O33  1  0.934068  0.612464  0.537214  1
  O  O34  1  0.850316  0.102160  0.540138  1
  O  O35  1  0.357466  0.897086  0.458747  1
