# generated using pymatgen
data_LiIn11CoIr3
_symmetry_space_group_name_H-M   'P 1'
_cell_length_a   7.09878820
_cell_length_b   7.01765453
_cell_length_c   7.15694400
_cell_angle_alpha   90.00000000
_cell_angle_beta   90.00000000
_cell_angle_gamma   89.99140000
_symmetry_Int_Tables_number   1
_chemical_formula_structural   LiIn11CoIr3
_chemical_formula_sum   'Li1 In11 Co1 Ir3'
_cell_volume   356.53635286
_cell_formula_units_Z   1
loop_
 _symmetry_equiv_pos_site_id
 _symmetry_equiv_pos_as_xyz
  1  'x, y, z'
loop_
 _atom_site_type_symbol
 _atom_site_label
 _atom_site_symmetry_multiplicity
 _atom_site_fract_x
 _atom_site_fract_y
 _atom_site_fract_z
 _atom_site_occupancy
  Li  Li0  1  0.000336  0.498355  0.500000  1
  In  In1  1  0.320461  0.343463  0.267403  1
  In  In2  1  0.150483  0.842400  0.755089  1
  In  In3  1  0.150483  0.842400  0.244911  1
  In  In4  1  0.006133  0.495707  0.000000  1
  In  In5  1  0.857833  0.165268  0.245188  1
  In  In6  1  0.857833  0.165268  0.754812  1
  In  In7  1  0.494006  0.007512  0.000000  1
  In  In8  1  0.671892  0.648545  0.267453  1
  In  In9  1  0.671892  0.648545  0.732547  1
  In  In10  1  0.320461  0.343463  0.732597  1
  In  In11  1  0.499555  0.999017  0.500000  1
  Co  Co12  1  0.155613  0.151581  0.000000  1
  Ir  Ir13  1  0.644910  0.344670  0.500000  1
  Ir  Ir14  1  0.353210  0.652382  0.500000  1
  Ir  Ir15  1  0.844902  0.851425  0.000000  1
