# generated using pymatgen
data_Tb5BSe4
_symmetry_space_group_name_H-M   'P 1'
_cell_length_a   7.03707013
_cell_length_b   7.03708554
_cell_length_c   7.03708037
_cell_angle_alpha   99.52116856
_cell_angle_beta   99.52096346
_cell_angle_gamma   132.00379948
_symmetry_Int_Tables_number   1
_chemical_formula_structural   Tb5BSe4
_chemical_formula_sum   'Tb5 B1 Se4'
_cell_volume   236.57085105
_cell_formula_units_Z   1
loop_
 _symmetry_equiv_pos_site_id
 _symmetry_equiv_pos_as_xyz
  1  'x, y, z'
loop_
 _atom_site_type_symbol
 _atom_site_label
 _atom_site_symmetry_multiplicity
 _atom_site_fract_x
 _atom_site_fract_y
 _atom_site_fract_z
 _atom_site_occupancy
  Tb  Tb0  1  0.409280  0.770893  0.180172  1
  Tb  Tb1  1  0.000000  0.000000  0.000000  1
  Tb  Tb2  1  0.590720  0.229107  0.819828  1
  Tb  Tb3  1  0.229107  0.409279  0.638388  1
  Tb  Tb4  1  0.770893  0.590721  0.361612  1
  B  B5  1  0.500000  0.500000  0.000000  1
  Se  Se6  1  0.094235  0.696343  0.790578  1
  Se  Se7  1  0.696342  0.905765  0.602108  1
  Se  Se8  1  0.303658  0.094235  0.397892  1
  Se  Se9  1  0.905765  0.303657  0.209422  1
