# generated using pymatgen
data_Sc2Nb4Fe16Si7
_symmetry_space_group_name_H-M   'P 1'
_cell_length_a   7.98224753
_cell_length_b   7.98588735
_cell_length_c   7.98588737
_cell_angle_alpha   59.79303288
_cell_angle_beta   60.01507404
_cell_angle_gamma   60.01507215
_symmetry_Int_Tables_number   1
_chemical_formula_structural   Sc2Nb4Fe16Si7
_chemical_formula_sum   'Sc2 Nb4 Fe16 Si7'
_cell_volume   359.47711106
_cell_formula_units_Z   1
loop_
 _symmetry_equiv_pos_site_id
 _symmetry_equiv_pos_as_xyz
  1  'x, y, z'
loop_
 _atom_site_type_symbol
 _atom_site_label
 _atom_site_symmetry_multiplicity
 _atom_site_fract_x
 _atom_site_fract_y
 _atom_site_fract_z
 _atom_site_occupancy
  Sc  Sc0  1  0.797254  0.203249  0.796751  1
  Sc  Sc1  1  0.797254  0.796751  0.203249  1
  Nb  Nb2  1  0.203553  0.798075  0.201925  1
  Nb  Nb3  1  0.203553  0.201925  0.798075  1
  Nb  Nb4  1  0.208565  0.793356  0.793356  1
  Nb  Nb5  1  0.795277  0.206644  0.206644  1
  Fe  Fe6  1  0.864783  0.375105  0.375105  1
  Fe  Fe7  1  0.614984  0.618067  0.139499  1
  Fe  Fe8  1  0.372549  0.381933  0.860501  1
  Fe  Fe9  1  0.828542  0.523024  0.825907  1
  Fe  Fe10  1  0.826170  0.822945  0.822945  1
  Fe  Fe11  1  0.828542  0.825907  0.523024  1
  Fe  Fe12  1  0.379334  0.382041  0.382041  1
  Fe  Fe13  1  0.143418  0.617959  0.617959  1
  Fe  Fe14  1  0.614995  0.624895  0.624895  1
  Fe  Fe15  1  0.175070  0.172751  0.172751  1
  Fe  Fe16  1  0.177472  0.476976  0.174093  1
  Fe  Fe17  1  0.520573  0.827249  0.827249  1
  Fe  Fe18  1  0.614984  0.139499  0.618067  1
  Fe  Fe19  1  0.177472  0.174093  0.476976  1
  Fe  Fe20  1  0.372549  0.860501  0.381933  1
  Fe  Fe21  1  0.472058  0.177055  0.177055  1
  Si  Si22  1  0.503489  0.000000  0.000000  1
  Si  Si23  1  0.998898  0.501990  0.002243  1
  Si  Si24  1  0.503132  0.498010  0.997757  1
  Si  Si25  1  0.507039  0.500000  0.500000  1
  Si  Si26  1  0.996459  0.500000  0.500000  1
  Si  Si27  1  0.998898  0.002243  0.501990  1
  Si  Si28  1  0.503132  0.997757  0.498010  1
