# generated using pymatgen
data_LuU3Ga6Ru7
_symmetry_space_group_name_H-M   'P 1'
_cell_length_a   7.21474372
_cell_length_b   7.21474272
_cell_length_c   7.21474233
_cell_angle_alpha   109.69265586
_cell_angle_beta   109.69265794
_cell_angle_gamma   109.69266123
_symmetry_Int_Tables_number   1
_chemical_formula_structural   LuU3Ga6Ru7
_chemical_formula_sum   'Lu1 U3 Ga6 Ru7'
_cell_volume   286.70043664
_cell_formula_units_Z   1
loop_
 _symmetry_equiv_pos_site_id
 _symmetry_equiv_pos_as_xyz
  1  'x, y, z'
loop_
 _atom_site_type_symbol
 _atom_site_label
 _atom_site_symmetry_multiplicity
 _atom_site_fract_x
 _atom_site_fract_y
 _atom_site_fract_z
 _atom_site_occupancy
  Lu  Lu0  1  0.500000  0.500000  0.500000  1
  U  U1  1  0.000000  0.000000  0.500000  1
  U  U2  1  0.500000  0.000000  0.000000  1
  U  U3  1  0.000000  0.500000  0.000000  1
  Ga  Ga4  1  0.309523  0.006262  0.309523  1
  Ga  Ga5  1  0.006262  0.309523  0.309523  1
  Ga  Ga6  1  0.993738  0.690477  0.690477  1
  Ga  Ga7  1  0.309523  0.309523  0.006262  1
  Ga  Ga8  1  0.690477  0.690477  0.993738  1
  Ga  Ga9  1  0.690477  0.993738  0.690477  1
  Ru  Ru10  1  0.756547  0.500000  0.243453  1
  Ru  Ru11  1  0.500000  0.756547  0.243453  1
  Ru  Ru12  1  0.500000  0.243453  0.756547  1
  Ru  Ru13  1  0.756547  0.243453  0.500000  1
  Ru  Ru14  1  0.243453  0.756547  0.500000  1
  Ru  Ru15  1  0.243453  0.500000  0.756547  1
  Ru  Ru16  1  0.000000  0.000000  0.000000  1
