# generated using pymatgen
data_Sm2Dy6Zn3Si12Rh
_symmetry_space_group_name_H-M   'P 1'
_cell_length_a   8.11279900
_cell_length_b   8.11279909
_cell_length_c   8.15989800
_cell_angle_alpha   90.00000000
_cell_angle_beta   90.00000000
_cell_angle_gamma   119.99998740
_symmetry_Int_Tables_number   1
_chemical_formula_structural   Sm2Dy6Zn3Si12Rh
_chemical_formula_sum   'Sm2 Dy6 Zn3 Si12 Rh1'
_cell_volume   465.11126050
_cell_formula_units_Z   1
loop_
 _symmetry_equiv_pos_site_id
 _symmetry_equiv_pos_as_xyz
  1  'x, y, z'
loop_
 _atom_site_type_symbol
 _atom_site_label
 _atom_site_symmetry_multiplicity
 _atom_site_fract_x
 _atom_site_fract_y
 _atom_site_fract_z
 _atom_site_occupancy
  Sm  Sm0  1  0.000000  0.000000  0.249457  1
  Sm  Sm1  1  0.000000  0.000000  0.750554  1
  Dy  Dy2  1  0.997533  0.498765  0.250821  1
  Dy  Dy3  1  0.501235  0.498765  0.250821  1
  Dy  Dy4  1  0.501859  0.003716  0.749159  1
  Dy  Dy5  1  0.501235  0.002467  0.250821  1
  Dy  Dy6  1  0.501859  0.498141  0.749159  1
  Dy  Dy7  1  0.996284  0.498141  0.749159  1
  Zn  Zn8  1  0.333333  0.666667  0.998449  1
  Zn  Zn9  1  0.333333  0.666667  0.500804  1
  Zn  Zn10  1  0.666667  0.333333  0.001410  1
  Si  Si11  1  0.166998  0.333994  0.000153  1
  Si  Si12  1  0.666006  0.833002  0.000153  1
  Si  Si13  1  0.164081  0.328160  0.500345  1
  Si  Si14  1  0.334771  0.167386  0.999842  1
  Si  Si15  1  0.166998  0.833002  0.000153  1
  Si  Si16  1  0.671840  0.835919  0.500345  1
  Si  Si17  1  0.832614  0.665229  0.999842  1
  Si  Si18  1  0.340580  0.170290  0.499535  1
  Si  Si19  1  0.164081  0.835919  0.500345  1
  Si  Si20  1  0.829710  0.659420  0.499535  1
  Si  Si21  1  0.832614  0.167386  0.999842  1
  Si  Si22  1  0.829710  0.170290  0.499535  1
  Rh  Rh23  1  0.666667  0.333333  0.499755  1
