# generated using pymatgen
data_Sc2Nb2Sb4IrRh3
_symmetry_space_group_name_H-M   'P 1'
_cell_length_a   6.26568664
_cell_length_b   4.42974000
_cell_length_c   8.86509290
_cell_angle_alpha   90.00000000
_cell_angle_beta   89.94827021
_cell_angle_gamma   90.00000000
_symmetry_Int_Tables_number   1
_chemical_formula_structural   Sc2Nb2Sb4IrRh3
_chemical_formula_sum   'Sc2 Nb2 Sb4 Ir1 Rh3'
_cell_volume   246.05376888
_cell_formula_units_Z   1
loop_
 _symmetry_equiv_pos_site_id
 _symmetry_equiv_pos_as_xyz
  1  'x, y, z'
loop_
 _atom_site_type_symbol
 _atom_site_label
 _atom_site_symmetry_multiplicity
 _atom_site_fract_x
 _atom_site_fract_y
 _atom_site_fract_z
 _atom_site_occupancy
  Sc  Sc0  1  0.005923  0.000000  0.376620  1
  Sc  Sc1  1  0.506328  0.500000  0.623582  1
  Nb  Nb2  1  0.495565  0.500000  0.124683  1
  Nb  Nb3  1  0.994880  0.000000  0.875253  1
  Sb  Sb4  1  0.992710  0.500000  0.129466  1
  Sb  Sb5  1  0.507973  0.000000  0.379320  1
  Sb  Sb6  1  0.009129  0.500000  0.622072  1
  Sb  Sb7  1  0.488469  0.000000  0.869304  1
  Ir  Ir8  1  0.737626  0.000000  0.114580  1
  Rh  Rh9  1  0.262268  0.500000  0.363553  1
  Rh  Rh10  1  0.761618  0.000000  0.636554  1
  Rh  Rh11  1  0.237514  0.500000  0.885007  1
