# generated using pymatgen
data_Ta4NbRu3
_symmetry_space_group_name_H-M   'P 1'
_cell_length_a   6.43838700
_cell_length_b   4.53774800
_cell_length_c   9.10880800
_cell_angle_alpha   90.00000000
_cell_angle_beta   90.00179762
_cell_angle_gamma   90.00000000
_symmetry_Int_Tables_number   1
_chemical_formula_structural   Ta4NbRu3
_chemical_formula_sum   'Ta8 Nb2 Ru6'
_cell_volume   266.12090994
_cell_formula_units_Z   2
loop_
 _symmetry_equiv_pos_site_id
 _symmetry_equiv_pos_as_xyz
  1  'x, y, z'
loop_
 _atom_site_type_symbol
 _atom_site_label
 _atom_site_symmetry_multiplicity
 _atom_site_fract_x
 _atom_site_fract_y
 _atom_site_fract_z
 _atom_site_occupancy
  Ta  Ta0  1  0.499510  0.750000  0.124363  1
  Ta  Ta1  1  0.000491  0.750000  0.124359  1
  Ta  Ta2  1  0.500488  0.250001  0.375632  1
  Ta  Ta3  1  0.999514  0.250001  0.375627  1
  Ta  Ta4  1  0.999981  0.750000  0.624595  1
  Ta  Ta5  1  0.500015  0.750000  0.624599  1
  Ta  Ta6  1  0.000008  0.250001  0.875424  1
  Ta  Ta7  1  0.499993  0.249999  0.875425  1
  Nb  Nb8  1  0.749999  0.250001  0.123229  1
  Nb  Nb9  1  0.250000  0.750000  0.376761  1
  Ru  Ru10  1  0.750003  0.250001  0.627040  1
  Ru  Ru11  1  0.250001  0.750000  0.872962  1
  Ru  Ru12  1  0.250000  0.250001  0.119732  1
  Ru  Ru13  1  0.750000  0.750000  0.380261  1
  Ru  Ru14  1  0.249998  0.250001  0.631897  1
  Ru  Ru15  1  0.750000  0.750000  0.868097  1
