# generated using pymatgen
data_Li30Si6BiAs
_symmetry_space_group_name_H-M   'P 1'
_cell_length_a   9.24425272
_cell_length_b   9.25418886
_cell_length_c   9.27716122
_cell_angle_alpha   109.55239507
_cell_angle_beta   109.48463112
_cell_angle_gamma   109.41148294
_symmetry_Int_Tables_number   1
_chemical_formula_structural   Li30Si6BiAs
_chemical_formula_sum   'Li30 Si6 Bi1 As1'
_cell_volume   610.68320296
_cell_formula_units_Z   1
loop_
 _symmetry_equiv_pos_site_id
 _symmetry_equiv_pos_as_xyz
  1  'x, y, z'
loop_
 _atom_site_type_symbol
 _atom_site_label
 _atom_site_symmetry_multiplicity
 _atom_site_fract_x
 _atom_site_fract_y
 _atom_site_fract_z
 _atom_site_occupancy
  Li  Li0  1  0.332237  0.803508  0.728837  1
  Li  Li1  1  0.119586  0.747339  0.870947  1
  Li  Li2  1  0.734916  0.358537  0.817660  1
  Li  Li3  1  0.626973  0.769260  0.589210  1
  Li  Li4  1  0.027379  0.910851  0.689988  1
  Li  Li5  1  0.085483  0.273259  0.114234  1
  Li  Li6  1  0.921840  0.697068  0.035088  1
  Li  Li7  1  0.272237  0.110529  0.086213  1
  Li  Li8  1  0.184864  0.412496  0.522932  1
  Li  Li9  1  0.778060  0.583854  0.616036  1
  Li  Li10  1  0.695924  0.028360  0.925774  1
  Li  Li11  1  0.532173  0.196538  0.403495  1
  Li  Li12  1  0.629711  0.378471  0.256350  1
  Li  Li13  1  0.468639  0.163812  0.894403  1
  Li  Li14  1  0.887882  0.127777  0.757221  1
  Li  Li15  1  0.973070  0.385452  0.660770  1
  Li  Li16  1  0.408475  0.526964  0.189820  1
  Li  Li17  1  0.114134  0.088007  0.275830  1
  Li  Li18  1  0.303360  0.836658  0.207185  1
  Li  Li19  1  0.755908  0.878355  0.125923  1
  Li  Li20  1  0.887286  0.470413  0.162604  1
  Li  Li21  1  0.589552  0.619235  0.777935  1
  Li  Li22  1  0.381684  0.660657  0.969563  1
  Li  Li23  1  0.806692  0.721928  0.341535  1
  Li  Li24  1  0.666741  0.973645  0.375045  1
  Li  Li25  1  0.142910  0.874475  0.463306  1
  Li  Li26  1  0.220931  0.310115  0.838898  1
  Li  Li27  1  0.368561  0.255276  0.622067  1
  Li  Li28  1  0.840352  0.226283  0.310974  1
  Li  Li29  1  0.240836  0.612663  0.369555  1
  Si  Si30  1  0.500825  0.999724  0.083513  1
  Si  Si31  1  0.001864  0.083153  0.501402  1
  Si  Si32  1  0.996410  0.582274  0.496716  1
  Si  Si33  1  0.084905  0.498809  0.000122  1
  Si  Si34  1  0.417573  0.418177  0.418009  1
  Si  Si35  1  0.916046  0.913423  0.917080  1
  Bi  Bi36  1  0.500692  0.001706  0.583501  1
  As  As37  1  0.583289  0.500945  0.000259  1
