# generated using pymatgen
data_Pr(NbBr3)6
_symmetry_space_group_name_H-M   'P 1'
_cell_length_a   10.85328961
_cell_length_b   10.85328971
_cell_length_c   10.85328862
_cell_angle_alpha   55.94303532
_cell_angle_beta   55.94303017
_cell_angle_gamma   55.94303755
_symmetry_Int_Tables_number   1
_chemical_formula_structural   Pr(NbBr3)6
_chemical_formula_sum   'Pr1 Nb6 Br18'
_cell_volume   819.01439992
_cell_formula_units_Z   1
loop_
 _symmetry_equiv_pos_site_id
 _symmetry_equiv_pos_as_xyz
  1  'x, y, z'
loop_
 _atom_site_type_symbol
 _atom_site_label
 _atom_site_symmetry_multiplicity
 _atom_site_fract_x
 _atom_site_fract_y
 _atom_site_fract_z
 _atom_site_occupancy
  Pr  Pr0  1  0.000000  0.000000  0.000000  1
  Nb  Nb1  1  0.413801  0.308022  0.642851  1
  Nb  Nb2  1  0.357149  0.586199  0.691978  1
  Nb  Nb3  1  0.691978  0.357149  0.586199  1
  Nb  Nb4  1  0.308022  0.642851  0.413801  1
  Nb  Nb5  1  0.642851  0.413801  0.308022  1
  Nb  Nb6  1  0.586199  0.691978  0.357149  1
  Br  Br7  1  0.568882  0.165788  0.440708  1
  Br  Br8  1  0.226564  0.371144  0.903276  1
  Br  Br9  1  0.903276  0.226564  0.371144  1
  Br  Br10  1  0.371144  0.903276  0.226564  1
  Br  Br11  1  0.773436  0.628856  0.096724  1
  Br  Br12  1  0.096724  0.773436  0.628856  1
  Br  Br13  1  0.692544  0.957710  0.165489  1
  Br  Br14  1  0.957710  0.165489  0.692544  1
  Br  Br15  1  0.165489  0.692544  0.957710  1
  Br  Br16  1  0.307456  0.042290  0.834511  1
  Br  Br17  1  0.042290  0.834511  0.307456  1
  Br  Br18  1  0.834511  0.307456  0.042290  1
  Br  Br19  1  0.559292  0.431118  0.834212  1
  Br  Br20  1  0.165788  0.440708  0.568882  1
  Br  Br21  1  0.440708  0.568882  0.165788  1
  Br  Br22  1  0.431118  0.834212  0.559292  1
  Br  Br23  1  0.834212  0.559292  0.431118  1
  Br  Br24  1  0.628856  0.096724  0.773436  1
