# generated using pymatgen
data_Dy5V3Co16Si11P
_symmetry_space_group_name_H-M   'P 1'
_cell_length_a   12.24009721
_cell_length_b   12.26725143
_cell_length_c   3.76815200
_cell_angle_alpha   90.00000000
_cell_angle_beta   90.00000000
_cell_angle_gamma   120.07340284
_symmetry_Int_Tables_number   1
_chemical_formula_structural   Dy5V3Co16Si11P
_chemical_formula_sum   'Dy5 V3 Co16 Si11 P1'
_cell_volume   489.63164041
_cell_formula_units_Z   1
loop_
 _symmetry_equiv_pos_site_id
 _symmetry_equiv_pos_as_xyz
  1  'x, y, z'
loop_
 _atom_site_type_symbol
 _atom_site_label
 _atom_site_symmetry_multiplicity
 _atom_site_fract_x
 _atom_site_fract_y
 _atom_site_fract_z
 _atom_site_occupancy
  Dy  Dy0  1  0.667944  0.333331  0.000000  1
  Dy  Dy1  1  0.332056  0.665389  0.000000  1
  Dy  Dy2  1  0.184925  0.187090  0.500000  1
  Dy  Dy3  1  0.815075  0.002165  0.500000  1
  Dy  Dy4  1  0.000000  0.813942  0.500000  1
  V  V5  1  0.569564  0.570001  0.000000  1
  V  V6  1  0.430436  0.000437  0.000000  1
  V  V7  1  0.000000  0.432210  0.000000  1
  Co  Co8  1  0.823547  0.197207  0.000000  1
  Co  Co9  1  0.801814  0.621717  0.000000  1
  Co  Co10  1  0.378387  0.180690  0.000000  1
  Co  Co11  1  0.198186  0.819904  0.000000  1
  Co  Co12  1  0.621613  0.802302  0.000000  1
  Co  Co13  1  0.176453  0.373661  0.000000  1
  Co  Co14  1  0.643473  0.122973  0.500000  1
  Co  Co15  1  0.877927  0.520010  0.500000  1
  Co  Co16  1  0.479387  0.357545  0.500000  1
  Co  Co17  1  0.122073  0.642084  0.500000  1
  Co  Co18  1  0.520613  0.878158  0.500000  1
  Co  Co19  1  0.356527  0.479500  0.500000  1
  Co  Co20  1  0.716912  0.717240  0.500000  1
  Co  Co21  1  0.283088  0.000329  0.500000  1
  Co  Co22  1  0.000000  0.278408  0.500000  1
  Co  Co23  1  0.000000  0.003180  0.000000  1
  Si  Si24  1  0.368097  0.368614  0.000000  1
  Si  Si25  1  0.631903  0.000518  0.000000  1
  Si  Si26  1  0.000000  0.632026  0.000000  1
  Si  Si27  1  0.835023  0.312788  0.500000  1
  Si  Si28  1  0.687468  0.520843  0.500000  1
  Si  Si29  1  0.479802  0.167259  0.500000  1
  Si  Si30  1  0.312532  0.833374  0.500000  1
  Si  Si31  1  0.520198  0.687458  0.500000  1
  Si  Si32  1  0.164977  0.477766  0.500000  1
  Si  Si33  1  0.815787  0.815980  0.000000  1
  Si  Si34  1  0.184213  0.000193  0.000000  1
  P  P35  1  0.000000  0.183709  0.000000  1
