# generated using pymatgen
data_La3NdIrAu3
_symmetry_space_group_name_H-M   'P 1'
_cell_length_a   4.74570700
_cell_length_b   5.98254071
_cell_length_c   7.53480674
_cell_angle_alpha   88.22743529
_cell_angle_beta   90.00000000
_cell_angle_gamma   90.00000000
_symmetry_Int_Tables_number   1
_chemical_formula_structural   La3NdIrAu3
_chemical_formula_sum   'La3 Nd1 Ir1 Au3'
_cell_volume   213.82123604
_cell_formula_units_Z   1
loop_
 _symmetry_equiv_pos_site_id
 _symmetry_equiv_pos_as_xyz
  1  'x, y, z'
loop_
 _atom_site_type_symbol
 _atom_site_label
 _atom_site_symmetry_multiplicity
 _atom_site_fract_x
 _atom_site_fract_y
 _atom_site_fract_z
 _atom_site_occupancy
  La  La0  1  0.250000  0.365511  0.678222  1
  La  La1  1  0.750000  0.657794  0.327674  1
  La  La2  1  0.750000  0.856599  0.798155  1
  Nd  Nd3  1  0.250000  0.137087  0.191467  1
  Ir  Ir4  1  0.250000  0.829870  0.541704  1
  Au  Au5  1  0.250000  0.650547  0.042839  1
  Au  Au6  1  0.750000  0.157066  0.451923  1
  Au  Au7  1  0.750000  0.345525  0.968015  1
