# generated using pymatgen
data_Tb3YEr2Mn6O18
_symmetry_space_group_name_H-M   'P 1'
_cell_length_a   6.22193600
_cell_length_b   6.22193631
_cell_length_c   11.55579900
_cell_angle_alpha   90.00000000
_cell_angle_beta   90.00000000
_cell_angle_gamma   119.99999833
_symmetry_Int_Tables_number   1
_chemical_formula_structural   Tb3YEr2Mn6O18
_chemical_formula_sum   'Tb3 Y1 Er2 Mn6 O18'
_cell_volume   387.41971676
_cell_formula_units_Z   1
loop_
 _symmetry_equiv_pos_site_id
 _symmetry_equiv_pos_as_xyz
  1  'x, y, z'
loop_
 _atom_site_type_symbol
 _atom_site_label
 _atom_site_symmetry_multiplicity
 _atom_site_fract_x
 _atom_site_fract_y
 _atom_site_fract_z
 _atom_site_occupancy
  Tb  Tb0  1  0.333333  0.666667  0.729224  1
  Tb  Tb1  1  0.666667  0.333333  0.729238  1
  Tb  Tb2  1  0.333333  0.666667  0.229212  1
  Y  Y3  1  0.666667  0.333333  0.229488  1
  Er  Er4  1  0.000000  0.000000  0.772688  1
  Er  Er5  1  0.000000  0.000000  0.272679  1
  Mn  Mn6  1  0.668499  0.000188  0.497767  1
  Mn  Mn7  1  0.668497  0.668245  0.997942  1
  Mn  Mn8  1  0.999748  0.331503  0.997942  1
  Mn  Mn9  1  0.999812  0.668311  0.497767  1
  Mn  Mn10  1  0.331689  0.331501  0.497767  1
  Mn  Mn11  1  0.331755  0.000252  0.997942  1
  O  O12  1  0.666667  0.333333  0.018202  1
  O  O13  1  0.333333  0.666667  0.518235  1
  O  O14  1  0.666667  0.333333  0.518366  1
  O  O15  1  0.333333  0.666667  0.018354  1
  O  O16  1  0.000000  0.000000  0.972443  1
  O  O17  1  0.000000  0.000000  0.472352  1
  O  O18  1  0.355384  0.999994  0.833680  1
  O  O19  1  0.355960  0.355361  0.333552  1
  O  O20  1  0.999401  0.644040  0.333552  1
  O  O21  1  0.000006  0.355389  0.833680  1
  O  O22  1  0.644611  0.644616  0.833680  1
  O  O23  1  0.644639  0.000599  0.333552  1
  O  O24  1  0.303917  0.000745  0.162474  1
  O  O25  1  0.303151  0.303162  0.662427  1
  O  O26  1  0.000012  0.696849  0.662427  1
  O  O27  1  0.999255  0.303172  0.162474  1
  O  O28  1  0.696828  0.696083  0.162474  1
  O  O29  1  0.696838  0.999988  0.662427  1
