# generated using pymatgen
data_Mg4Ge3AsP2Ir7
_symmetry_space_group_name_H-M   'P 1'
_cell_length_a   7.01544950
_cell_length_b   7.01544977
_cell_length_c   7.00419268
_cell_angle_alpha   109.74893860
_cell_angle_beta   110.26821304
_cell_angle_gamma   108.46848757
_symmetry_Int_Tables_number   1
_chemical_formula_structural   Mg4Ge3AsP2Ir7
_chemical_formula_sum   'Mg4 Ge3 As1 P2 Ir7'
_cell_volume   265.07938924
_cell_formula_units_Z   1
loop_
 _symmetry_equiv_pos_site_id
 _symmetry_equiv_pos_as_xyz
  1  'x, y, z'
loop_
 _atom_site_type_symbol
 _atom_site_label
 _atom_site_symmetry_multiplicity
 _atom_site_fract_x
 _atom_site_fract_y
 _atom_site_fract_z
 _atom_site_occupancy
  Mg  Mg0  1  0.998183  0.999169  0.500802  1
  Mg  Mg1  1  0.518249  0.999218  0.998292  1
  Mg  Mg2  1  0.999074  0.480042  0.998292  1
  Mg  Mg3  1  0.501633  0.502619  0.500802  1
  Ge  Ge4  1  0.690827  0.688527  0.999820  1
  Ge  Ge5  1  0.311293  0.308993  0.999820  1
  Ge  Ge6  1  0.001195  0.698628  0.699823  1
  As  As7  1  0.305149  0.999114  0.304264  1
  P  P8  1  0.999035  0.324718  0.323753  1
  P  P9  1  0.678165  0.000672  0.678838  1
  Ir  Ir10  1  0.985060  0.014666  0.999726  1
  Ir  Ir11  1  0.247011  0.495097  0.742108  1
  Ir  Ir12  1  0.752089  0.247545  0.499629  1
  Ir  Ir13  1  0.502622  0.244241  0.746863  1
  Ir  Ir14  1  0.503551  0.752746  0.256297  1
  Ir  Ir15  1  0.754781  0.496462  0.251242  1
  Ir  Ir16  1  0.252084  0.747540  0.499629  1
