# generated using pymatgen
data_Ho4(FeCo)7
_symmetry_space_group_name_H-M   'P 1'
_cell_length_a   5.04411308
_cell_length_b   5.04411254
_cell_length_c   12.21668572
_cell_angle_alpha   78.07793900
_cell_angle_beta   78.07793921
_cell_angle_gamma   60.79775337
_symmetry_Int_Tables_number   1
_chemical_formula_structural   Ho4(FeCo)7
_chemical_formula_sum   'Ho4 Fe7 Co7'
_cell_volume   263.42742241
_cell_formula_units_Z   1
loop_
 _symmetry_equiv_pos_site_id
 _symmetry_equiv_pos_as_xyz
  1  'x, y, z'
loop_
 _atom_site_type_symbol
 _atom_site_label
 _atom_site_symmetry_multiplicity
 _atom_site_fract_x
 _atom_site_fract_y
 _atom_site_fract_z
 _atom_site_occupancy
  Ho  Ho0  1  0.948123  0.948123  0.154567  1
  Ho  Ho1  1  0.051852  0.051852  0.845557  1
  Ho  Ho2  1  0.851228  0.851228  0.447844  1
  Ho  Ho3  1  0.147793  0.147793  0.557143  1
  Fe  Fe4  1  0.501328  0.501328  0.501102  1
  Fe  Fe5  1  0.723044  0.723044  0.833986  1
  Fe  Fe6  1  0.277892  0.277892  0.163367  1
  Fe  Fe7  1  0.612275  0.612275  0.164063  1
  Fe  Fe8  1  0.388891  0.388891  0.832672  1
  Fe  Fe9  1  0.499980  0.499980  0.999426  1
  Fe  Fe10  1  0.387232  0.387232  0.330289  1
  Co  Co11  1  0.000481  0.500558  0.998900  1
  Co  Co12  1  0.500558  0.000481  0.998900  1
  Co  Co13  1  0.890359  0.389003  0.330497  1
  Co  Co14  1  0.389003  0.890359  0.330497  1
  Co  Co15  1  0.610762  0.610762  0.670557  1
  Co  Co16  1  0.108262  0.610937  0.670315  1
  Co  Co17  1  0.610937  0.108262  0.670315  1
