# generated using pymatgen
data_La2Yb6TePd24
_symmetry_space_group_name_H-M   'P 1'
_cell_length_a   8.42937530
_cell_length_b   8.42937524
_cell_length_c   8.42937600
_cell_angle_alpha   90.24218339
_cell_angle_beta   89.75781661
_cell_angle_gamma   89.75781609
_symmetry_Int_Tables_number   1
_chemical_formula_structural   La2Yb6TePd24
_chemical_formula_sum   'La2 Yb6 Te1 Pd24'
_cell_volume   598.92788305
_cell_formula_units_Z   1
loop_
 _symmetry_equiv_pos_site_id
 _symmetry_equiv_pos_as_xyz
  1  'x, y, z'
loop_
 _atom_site_type_symbol
 _atom_site_label
 _atom_site_symmetry_multiplicity
 _atom_site_fract_x
 _atom_site_fract_y
 _atom_site_fract_z
 _atom_site_occupancy
  La  La0  1  0.255139  0.744861  0.744861  1
  La  La1  1  0.744861  0.255139  0.255139  1
  Yb  Yb2  1  0.255935  0.251861  0.251861  1
  Yb  Yb3  1  0.744065  0.748139  0.748139  1
  Yb  Yb4  1  0.748139  0.744065  0.251861  1
  Yb  Yb5  1  0.748139  0.251861  0.744065  1
  Yb  Yb6  1  0.251861  0.255935  0.748139  1
  Yb  Yb7  1  0.251861  0.748139  0.255935  1
  Te  Te8  1  0.000000  0.000000  0.000000  1
  Pd  Pd9  1  0.266859  0.499301  0.006746  1
  Pd  Pd10  1  0.733141  0.500699  0.993254  1
  Pd  Pd11  1  0.006746  0.266859  0.500699  1
  Pd  Pd12  1  0.499301  0.266859  0.993254  1
  Pd  Pd13  1  0.993254  0.733141  0.499301  1
  Pd  Pd14  1  0.500699  0.733141  0.006746  1
  Pd  Pd15  1  0.499301  0.993254  0.266859  1
  Pd  Pd16  1  0.266859  0.006746  0.499301  1
  Pd  Pd17  1  0.500699  0.006746  0.733141  1
  Pd  Pd18  1  0.733141  0.993254  0.500699  1
  Pd  Pd19  1  0.006746  0.500699  0.266859  1
  Pd  Pd20  1  0.993254  0.499301  0.733141  1
  Pd  Pd21  1  0.255981  0.497119  0.497119  1
  Pd  Pd22  1  0.744019  0.502881  0.502881  1
  Pd  Pd23  1  0.497119  0.255981  0.502881  1
  Pd  Pd24  1  0.502881  0.744019  0.497119  1
  Pd  Pd25  1  0.497119  0.502881  0.255981  1
  Pd  Pd26  1  0.502881  0.497119  0.744019  1
  Pd  Pd27  1  0.312139  0.003554  0.003554  1
  Pd  Pd28  1  0.687861  0.996446  0.996446  1
  Pd  Pd29  1  0.003554  0.312139  0.996446  1
  Pd  Pd30  1  0.996446  0.687861  0.003554  1
  Pd  Pd31  1  0.003554  0.996446  0.312139  1
  Pd  Pd32  1  0.996446  0.003554  0.687861  1
