# generated using pymatgen
data_CaCeLuAs3
_symmetry_space_group_name_H-M   'P 1'
_cell_length_a   7.20395721
_cell_length_b   7.20395615
_cell_length_c   7.20395582
_cell_angle_alpha   146.26644269
_cell_angle_beta   131.89653378
_cell_angle_gamma   60.03859502
_symmetry_Int_Tables_number   1
_chemical_formula_structural   CaCeLuAs3
_chemical_formula_sum   'Ca1 Ce1 Lu1 As3'
_cell_volume   153.11966275
_cell_formula_units_Z   1
loop_
 _symmetry_equiv_pos_site_id
 _symmetry_equiv_pos_as_xyz
  1  'x, y, z'
loop_
 _atom_site_type_symbol
 _atom_site_label
 _atom_site_symmetry_multiplicity
 _atom_site_fract_x
 _atom_site_fract_y
 _atom_site_fract_z
 _atom_site_occupancy
  Ca  Ca0  1  0.667220  0.667220  0.000000  1
  Ce  Ce1  1  0.002236  0.002236  0.000000  1
  Lu  Lu2  1  0.332845  0.332845  0.000000  1
  As  As3  1  0.488705  0.988705  0.500000  1
  As  As4  1  0.168166  0.668166  0.500000  1
  As  As5  1  0.840828  0.340828  0.500000  1
