# generated using pymatgen
data_DyHo7In3Os
_symmetry_space_group_name_H-M   'P 1'
_cell_length_a   10.35928213
_cell_length_b   10.35928185
_cell_length_c   7.08479103
_cell_angle_alpha   89.98862349
_cell_angle_beta   90.01138367
_cell_angle_gamma   120.01025654
_symmetry_Int_Tables_number   1
_chemical_formula_structural   DyHo7In3Os
_chemical_formula_sum   'Dy2 Ho14 In6 Os2'
_cell_volume   658.37310557
_cell_formula_units_Z   2
loop_
 _symmetry_equiv_pos_site_id
 _symmetry_equiv_pos_as_xyz
  1  'x, y, z'
loop_
 _atom_site_type_symbol
 _atom_site_label
 _atom_site_symmetry_multiplicity
 _atom_site_fract_x
 _atom_site_fract_y
 _atom_site_fract_z
 _atom_site_occupancy
  Dy  Dy0  1  0.533494  0.067035  0.507106  1
  Dy  Dy1  1  0.932965  0.466506  0.507106  1
  Ho  Ho2  1  0.533557  0.466443  0.507501  1
  Ho  Ho3  1  0.466142  0.932291  0.007433  1
  Ho  Ho4  1  0.067709  0.533858  0.007433  1
  Ho  Ho5  1  0.466261  0.533739  0.007694  1
  Ho  Ho6  1  0.177282  0.354190  0.712157  1
  Ho  Ho7  1  0.645810  0.822718  0.712157  1
  Ho  Ho8  1  0.177001  0.822999  0.712224  1
  Ho  Ho9  1  0.822895  0.646075  0.211665  1
  Ho  Ho10  1  0.353925  0.177105  0.211665  1
  Ho  Ho11  1  0.823057  0.176943  0.211361  1
  Ho  Ho12  1  0.666550  0.333450  0.884862  1
  Ho  Ho13  1  0.333475  0.666525  0.385015  1
  Ho  Ho14  1  0.000050  0.999950  0.492315  1
  Ho  Ho15  1  0.000030  0.999970  0.992325  1
  In  In16  1  0.836944  0.674306  0.753952  1
  In  In17  1  0.325694  0.163056  0.753952  1
  In  In18  1  0.837364  0.162636  0.753976  1
  In  In19  1  0.163120  0.326318  0.253783  1
  In  In20  1  0.673682  0.836880  0.253783  1
  In  In21  1  0.163190  0.836810  0.253642  1
  Os  Os22  1  0.666438  0.333562  0.282131  1
  Os  Os23  1  0.333364  0.666636  0.782800  1
