# generated using pymatgen
data_CeMn3BeAs12
_symmetry_space_group_name_H-M   'P 1'
_cell_length_a   7.28378635
_cell_length_b   7.28378553
_cell_length_c   7.28378590
_cell_angle_alpha   109.32291225
_cell_angle_beta   109.32292193
_cell_angle_gamma   109.32291611
_symmetry_Int_Tables_number   1
_chemical_formula_structural   CeMn3BeAs12
_chemical_formula_sum   'Ce1 Mn3 Be1 As12'
_cell_volume   299.09664472
_cell_formula_units_Z   1
loop_
 _symmetry_equiv_pos_site_id
 _symmetry_equiv_pos_as_xyz
  1  'x, y, z'
loop_
 _atom_site_type_symbol
 _atom_site_label
 _atom_site_symmetry_multiplicity
 _atom_site_fract_x
 _atom_site_fract_y
 _atom_site_fract_z
 _atom_site_occupancy
  Ce  Ce0  1  0.000000  0.000000  0.000000  1
  Mn  Mn1  1  0.500000  0.000000  0.000000  1
  Mn  Mn2  1  0.000000  0.500000  0.000000  1
  Mn  Mn3  1  0.000000  0.000000  0.500000  1
  Be  Be4  1  0.500000  0.500000  0.500000  1
  As  As5  1  0.855418  0.662680  0.503808  1
  As  As6  1  0.144582  0.337320  0.496192  1
  As  As7  1  0.158789  0.661759  0.816933  1
  As  As8  1  0.841211  0.338241  0.183067  1
  As  As9  1  0.662680  0.503808  0.855418  1
  As  As10  1  0.337320  0.496192  0.144582  1
  As  As11  1  0.661759  0.816933  0.158789  1
  As  As12  1  0.338241  0.183067  0.841211  1
  As  As13  1  0.503808  0.855418  0.662680  1
  As  As14  1  0.496192  0.144582  0.337320  1
  As  As15  1  0.816933  0.158789  0.661759  1
  As  As16  1  0.183067  0.841211  0.338241  1
