# generated using pymatgen
data_Hf2Zr4BBr12
_symmetry_space_group_name_H-M   'P 1'
_cell_length_a   8.70357347
_cell_length_b   8.68763431
_cell_length_c   8.67072645
_cell_angle_alpha   106.84878504
_cell_angle_beta   107.11531591
_cell_angle_gamma   106.98330928
_symmetry_Int_Tables_number   1
_chemical_formula_structural   Hf2Zr4BBr12
_chemical_formula_sum   'Hf2 Zr4 B1 Br12'
_cell_volume   546.26826068
_cell_formula_units_Z   1
loop_
 _symmetry_equiv_pos_site_id
 _symmetry_equiv_pos_as_xyz
  1  'x, y, z'
loop_
 _atom_site_type_symbol
 _atom_site_label
 _atom_site_symmetry_multiplicity
 _atom_site_fract_x
 _atom_site_fract_y
 _atom_site_fract_z
 _atom_site_occupancy
  Hf  Hf0  1  0.714449  0.904538  0.970378  1
  Hf  Hf1  1  0.030660  0.286248  0.095028  1
  Zr  Zr2  1  0.972251  0.714800  0.905591  1
  Zr  Zr3  1  0.284460  0.093284  0.028722  1
  Zr  Zr4  1  0.096387  0.028288  0.287919  1
  Zr  Zr5  1  0.905295  0.969677  0.712193  1
  B  B6  1  0.997080  0.001969  0.001018  1
  Br  Br7  1  0.923636  0.311870  0.781725  1
  Br  Br8  1  0.695562  0.220695  0.076742  1
  Br  Br9  1  0.444147  0.143543  0.368730  1
  Br  Br10  1  0.856289  0.631517  0.555626  1
  Br  Br11  1  0.224065  0.078144  0.688309  1
  Br  Br12  1  0.631669  0.562434  0.858851  1
  Br  Br13  1  0.362221  0.442411  0.142975  1
  Br  Br14  1  0.772927  0.921339  0.304387  1
  Br  Br15  1  0.141408  0.368628  0.438266  1
  Br  Br16  1  0.557110  0.856984  0.637217  1
  Br  Br17  1  0.312932  0.777010  0.922597  1
  Br  Br18  1  0.077451  0.686622  0.223726  1
