# generated using pymatgen
data_Tb3DyZr4F28
_symmetry_space_group_name_H-M   'P 1'
_cell_length_a   5.76834481
_cell_length_b   9.13022431
_cell_length_c   12.27640431
_cell_angle_alpha   62.34727924
_cell_angle_beta   90.01581450
_cell_angle_gamma   90.00216623
_symmetry_Int_Tables_number   1
_chemical_formula_structural   Tb3DyZr4F28
_chemical_formula_sum   'Tb3 Dy1 Zr4 F28'
_cell_volume   572.70130871
_cell_formula_units_Z   1
loop_
 _symmetry_equiv_pos_site_id
 _symmetry_equiv_pos_as_xyz
  1  'x, y, z'
loop_
 _atom_site_type_symbol
 _atom_site_label
 _atom_site_symmetry_multiplicity
 _atom_site_fract_x
 _atom_site_fract_y
 _atom_site_fract_z
 _atom_site_occupancy
  Tb  Tb0  1  0.743265  0.815027  0.266317  1
  Tb  Tb1  1  0.243370  0.184699  0.233771  1
  Tb  Tb2  1  0.257067  0.183251  0.733914  1
  Dy  Dy3  1  0.756654  0.814947  0.766187  1
  Zr  Zr4  1  0.744619  0.273847  0.455319  1
  Zr  Zr5  1  0.244106  0.725865  0.044478  1
  Zr  Zr6  1  0.255171  0.725615  0.545734  1
  Zr  Zr7  1  0.755422  0.274798  0.954561  1
  F  F8  1  0.467428  0.712510  0.920931  1
  F  F9  1  0.967006  0.288396  0.578737  1
  F  F10  1  0.533748  0.288655  0.078479  1
  F  F11  1  0.034717  0.711313  0.421605  1
  F  F12  1  0.454244  0.280756  0.549633  1
  F  F13  1  0.953587  0.720127  0.949584  1
  F  F14  1  0.544633  0.718922  0.450835  1
  F  F15  1  0.045510  0.281171  0.049360  1
  F  F16  1  0.767487  0.526114  0.858090  1
  F  F17  1  0.267202  0.474654  0.641702  1
  F  F18  1  0.233015  0.475107  0.141965  1
  F  F19  1  0.732900  0.524799  0.358079  1
  F  F20  1  0.759778  0.024412  0.057798  1
  F  F21  1  0.259878  0.976208  0.441863  1
  F  F22  1  0.240276  0.976547  0.941478  1
  F  F23  1  0.739790  0.023446  0.559112  1
  F  F24  1  0.983882  0.734532  0.649424  1
  F  F25  1  0.484671  0.266184  0.850573  1
  F  F26  1  0.014147  0.266128  0.350549  1
  F  F27  1  0.513557  0.733960  0.149284  1
  F  F28  1  0.034732  0.746409  0.172342  1
  F  F29  1  0.533728  0.253833  0.327699  1
  F  F30  1  0.966567  0.253253  0.827696  1
  F  F31  1  0.467581  0.747050  0.672511  1
  F  F32  1  0.428790  0.972953  0.235001  1
  F  F33  1  0.928113  0.027105  0.265155  1
  F  F34  1  0.573434  0.025776  0.765115  1
  F  F35  1  0.069925  0.971627  0.735118  1
