# generated using pymatgen
data_Sm5Zn7Ni12
_symmetry_space_group_name_H-M   'P 1'
_cell_length_a   5.19995936
_cell_length_b   5.19995989
_cell_length_c   16.21921744
_cell_angle_alpha   80.77554035
_cell_angle_beta   80.77553838
_cell_angle_gamma   60.00000482
_symmetry_Int_Tables_number   1
_chemical_formula_structural   Sm5Zn7Ni12
_chemical_formula_sum   'Sm5 Zn7 Ni12'
_cell_volume   373.24158470
_cell_formula_units_Z   1
loop_
 _symmetry_equiv_pos_site_id
 _symmetry_equiv_pos_as_xyz
  1  'x, y, z'
loop_
 _atom_site_type_symbol
 _atom_site_label
 _atom_site_symmetry_multiplicity
 _atom_site_fract_x
 _atom_site_fract_y
 _atom_site_fract_z
 _atom_site_occupancy
  Sm  Sm0  1  0.000000  0.000000  0.000000  1
  Sm  Sm1  1  0.073980  0.073980  0.778058  1
  Sm  Sm2  1  0.926020  0.926020  0.221942  1
  Sm  Sm3  1  0.149173  0.149173  0.552480  1
  Sm  Sm4  1  0.850827  0.850827  0.447520  1
  Zn  Zn5  1  0.500000  0.500000  0.500000  1
  Zn  Zn6  1  0.250043  0.250043  0.249871  1
  Zn  Zn7  1  0.749957  0.749957  0.750129  1
  Zn  Zn8  1  0.333323  0.333323  0.000028  1
  Zn  Zn9  1  0.666677  0.666677  0.999972  1
  Zn  Zn10  1  0.416681  0.416681  0.749958  1
  Zn  Zn11  1  0.583319  0.583319  0.250042  1
  Ni  Ni12  1  0.120429  0.626512  0.626547  1
  Ni  Ni13  1  0.626512  0.626512  0.626547  1
  Ni  Ni14  1  0.626512  0.120429  0.626547  1
  Ni  Ni15  1  0.879571  0.373488  0.373453  1
  Ni  Ni16  1  0.373488  0.373488  0.373453  1
  Ni  Ni17  1  0.373488  0.879571  0.373453  1
  Ni  Ni18  1  0.041156  0.541310  0.876224  1
  Ni  Ni19  1  0.541310  0.541310  0.876224  1
  Ni  Ni20  1  0.541310  0.041156  0.876224  1
  Ni  Ni21  1  0.958844  0.458690  0.123776  1
  Ni  Ni22  1  0.458690  0.458690  0.123776  1
  Ni  Ni23  1  0.458690  0.958844  0.123776  1
