# generated using pymatgen
data_Cs4P2PtS8
_symmetry_space_group_name_H-M   'P 1'
_cell_length_a   13.46642500
_cell_length_b   7.51056035
_cell_length_c   9.91169003
_cell_angle_alpha   85.41605772
_cell_angle_beta   90.00000000
_cell_angle_gamma   90.00000000
_symmetry_Int_Tables_number   1
_chemical_formula_structural   Cs4P2PtS8
_chemical_formula_sum   'Cs8 P4 Pt2 S16'
_cell_volume   999.26567956
_cell_formula_units_Z   2
loop_
 _symmetry_equiv_pos_site_id
 _symmetry_equiv_pos_as_xyz
  1  'x, y, z'
loop_
 _atom_site_type_symbol
 _atom_site_label
 _atom_site_symmetry_multiplicity
 _atom_site_fract_x
 _atom_site_fract_y
 _atom_site_fract_z
 _atom_site_occupancy
  Cs  Cs0  1  0.131607  0.824024  0.679781  1
  Cs  Cs1  1  0.631607  0.175976  0.820219  1
  Cs  Cs2  1  0.868393  0.175976  0.320219  1
  Cs  Cs3  1  0.368393  0.824024  0.179781  1
  Cs  Cs4  1  0.344345  0.277628  0.535172  1
  Cs  Cs5  1  0.844345  0.722372  0.964828  1
  Cs  Cs6  1  0.655655  0.722372  0.464828  1
  Cs  Cs7  1  0.155655  0.277628  0.035172  1
  P  P8  1  0.419643  0.761191  0.758436  1
  P  P9  1  0.919643  0.238809  0.741564  1
  P  P10  1  0.580357  0.238809  0.241564  1
  P  P11  1  0.080357  0.761191  0.258436  1
  Pt  Pt12  1  0.000000  0.500000  0.500000  1
  Pt  Pt13  1  0.500000  0.500000  0.000000  1
  S  S14  1  0.066083  0.307839  0.677719  1
  S  S15  1  0.566083  0.692161  0.822281  1
  S  S16  1  0.933917  0.692161  0.322281  1
  S  S17  1  0.433917  0.307839  0.177719  1
  S  S18  1  0.396635  0.763271  0.557562  1
  S  S19  1  0.896635  0.236729  0.942438  1
  S  S20  1  0.603365  0.236729  0.442438  1
  S  S21  1  0.103365  0.763271  0.057562  1
  S  S22  1  0.142983  0.533546  0.364500  1
  S  S23  1  0.642983  0.466454  0.135500  1
  S  S24  1  0.857017  0.466454  0.635500  1
  S  S25  1  0.357017  0.533546  0.864500  1
  S  S26  1  0.375735  0.991273  0.832302  1
  S  S27  1  0.875735  0.008727  0.667698  1
  S  S28  1  0.624265  0.008727  0.167698  1
  S  S29  1  0.124265  0.991273  0.332302  1
