# generated using pymatgen
data_Mn7CoPbO16
_symmetry_space_group_name_H-M   'P 1'
_cell_length_a   5.87233384
_cell_length_b   7.06063115
_cell_length_c   7.19536666
_cell_angle_alpha   88.90739430
_cell_angle_beta   78.18520506
_cell_angle_gamma   77.87263303
_symmetry_Int_Tables_number   1
_chemical_formula_structural   Mn7CoPbO16
_chemical_formula_sum   'Mn7 Co1 Pb1 O16'
_cell_volume   285.41031273
_cell_formula_units_Z   1
loop_
 _symmetry_equiv_pos_site_id
 _symmetry_equiv_pos_as_xyz
  1  'x, y, z'
loop_
 _atom_site_type_symbol
 _atom_site_label
 _atom_site_symmetry_multiplicity
 _atom_site_fract_x
 _atom_site_fract_y
 _atom_site_fract_z
 _atom_site_occupancy
  Mn  Mn0  1  0.081954  0.506225  0.181263  1
  Mn  Mn1  1  0.172463  0.815108  0.514385  1
  Mn  Mn2  1  0.668945  0.816217  0.518401  1
  Mn  Mn3  1  0.341131  0.187456  0.467111  1
  Mn  Mn4  1  0.836387  0.186493  0.483586  1
  Mn  Mn5  1  0.430385  0.488258  0.820129  1
  Mn  Mn6  1  0.924781  0.492000  0.819341  1
  Co  Co7  1  0.581263  0.517579  0.178946  1
  Pb  Pb8  1  0.997510  0.980685  0.047001  1
  O  O9  1  0.834488  0.650032  0.057079  1
  O  O10  1  0.319953  0.649649  0.057317  1
  O  O11  1  0.982395  0.693911  0.386628  1
  O  O12  1  0.484714  0.695995  0.387974  1
  O  O13  1  0.856173  0.957561  0.643297  1
  O  O14  1  0.352231  0.961703  0.633027  1
  O  O15  1  0.347707  0.368598  0.272791  1
  O  O16  1  0.842923  0.361137  0.273714  1
  O  O17  1  0.166691  0.637303  0.720782  1
  O  O18  1  0.661958  0.639104  0.723810  1
  O  O19  1  0.141399  0.033060  0.343522  1
  O  O20  1  0.675183  0.033569  0.347178  1
  O  O21  1  0.018961  0.306630  0.613753  1
  O  O22  1  0.530206  0.306185  0.614983  1
  O  O23  1  0.176645  0.354305  0.944885  1
  O  O24  1  0.680656  0.361234  0.949092  1
