# generated using pymatgen
data_Dy4Tm3Lu9(CdPt)4
_symmetry_space_group_name_H-M   'P 1'
_cell_length_a   9.54388774
_cell_length_b   9.53569264
_cell_length_c   9.53569226
_cell_angle_alpha   60.06005109
_cell_angle_beta   59.97179531
_cell_angle_gamma   59.97179393
_symmetry_Int_Tables_number   1
_chemical_formula_structural   Dy4Tm3Lu9(CdPt)4
_chemical_formula_sum   'Dy4 Tm3 Lu9 Cd4 Pt4'
_cell_volume   613.65751377
_cell_formula_units_Z   1
loop_
 _symmetry_equiv_pos_site_id
 _symmetry_equiv_pos_as_xyz
  1  'x, y, z'
loop_
 _atom_site_type_symbol
 _atom_site_label
 _atom_site_symmetry_multiplicity
 _atom_site_fract_x
 _atom_site_fract_y
 _atom_site_fract_z
 _atom_site_occupancy
  Dy  Dy0  1  0.565075  0.934908  0.565111  1
  Dy  Dy1  1  0.934948  0.565019  0.934984  1
  Dy  Dy2  1  0.565075  0.565111  0.934908  1
  Dy  Dy3  1  0.934948  0.934984  0.565019  1
  Tm  Tm4  1  0.353134  0.352445  0.352445  1
  Tm  Tm5  1  0.352433  0.353151  0.941949  1
  Tm  Tm6  1  0.352433  0.941949  0.353151  1
  Lu  Lu7  1  0.942478  0.352285  0.352285  1
  Lu  Lu8  1  0.811499  0.188553  0.188553  1
  Lu  Lu9  1  0.188482  0.811524  0.811524  1
  Lu  Lu10  1  0.188284  0.811728  0.188277  1
  Lu  Lu11  1  0.811694  0.188374  0.811588  1
  Lu  Lu12  1  0.188284  0.188277  0.811728  1
  Lu  Lu13  1  0.811694  0.811588  0.188374  1
  Lu  Lu14  1  0.938606  0.561366  0.561366  1
  Lu  Lu15  1  0.561419  0.938579  0.938579  1
  Cd  Cd16  1  0.583397  0.580965  0.580965  1
  Cd  Cd17  1  0.581215  0.583115  0.254694  1
  Cd  Cd18  1  0.581215  0.254694  0.583115  1
  Cd  Cd19  1  0.254627  0.581075  0.581075  1
  Pt  Pt20  1  0.143919  0.142594  0.142594  1
  Pt  Pt21  1  0.141924  0.144617  0.570879  1
  Pt  Pt22  1  0.141924  0.570879  0.144617  1
  Pt  Pt23  1  0.571295  0.142219  0.142219  1
