# generated using pymatgen
data_Tb3YGa4IrPt3
_symmetry_space_group_name_H-M   'P 1'
_cell_length_a   4.44684000
_cell_length_b   6.91830143
_cell_length_c   7.71434785
_cell_angle_alpha   89.56778786
_cell_angle_beta   90.00000000
_cell_angle_gamma   90.00000000
_symmetry_Int_Tables_number   1
_chemical_formula_structural   Tb3YGa4IrPt3
_chemical_formula_sum   'Tb3 Y1 Ga4 Ir1 Pt3'
_cell_volume   237.32191557
_cell_formula_units_Z   1
loop_
 _symmetry_equiv_pos_site_id
 _symmetry_equiv_pos_as_xyz
  1  'x, y, z'
loop_
 _atom_site_type_symbol
 _atom_site_label
 _atom_site_symmetry_multiplicity
 _atom_site_fract_x
 _atom_site_fract_y
 _atom_site_fract_z
 _atom_site_occupancy
  Tb  Tb0  1  0.250000  0.986176  0.305268  1
  Tb  Tb1  1  0.250000  0.481875  0.197363  1
  Tb  Tb2  1  0.750000  0.021592  0.691928  1
  Y  Y3  1  0.750000  0.517568  0.804965  1
  Ga  Ga4  1  0.250000  0.329529  0.571007  1
  Ga  Ga5  1  0.250000  0.830242  0.927706  1
  Ga  Ga6  1  0.750000  0.662950  0.427787  1
  Ga  Ga7  1  0.750000  0.172003  0.074503  1
  Ir  Ir8  1  0.750000  0.274760  0.397663  1
  Pt  Pt9  1  0.250000  0.222388  0.898504  1
  Pt  Pt10  1  0.250000  0.722739  0.602155  1
  Pt  Pt11  1  0.750000  0.778178  0.101150  1
