# generated using pymatgen
data_Hf4TiMnSb2
_symmetry_space_group_name_H-M   'P 1'
_cell_length_a   5.42947712
_cell_length_b   8.16893199
_cell_length_c   8.16893151
_cell_angle_alpha   83.65933382
_cell_angle_beta   70.59005978
_cell_angle_gamma   70.59006220
_symmetry_Int_Tables_number   1
_chemical_formula_structural   Hf4TiMnSb2
_chemical_formula_sum   'Hf8 Ti2 Mn2 Sb4'
_cell_volume   322.30268066
_cell_formula_units_Z   2
loop_
 _symmetry_equiv_pos_site_id
 _symmetry_equiv_pos_as_xyz
  1  'x, y, z'
loop_
 _atom_site_type_symbol
 _atom_site_label
 _atom_site_symmetry_multiplicity
 _atom_site_fract_x
 _atom_site_fract_y
 _atom_site_fract_z
 _atom_site_occupancy
  Hf  Hf0  1  0.075218  0.126578  0.722986  1
  Hf  Hf1  1  0.924782  0.873422  0.277014  1
  Hf  Hf2  1  0.798204  0.277014  0.126578  1
  Hf  Hf3  1  0.424782  0.277014  0.873422  1
  Hf  Hf4  1  0.201796  0.722986  0.873422  1
  Hf  Hf5  1  0.575218  0.722986  0.126578  1
  Hf  Hf6  1  0.701796  0.873422  0.722986  1
  Hf  Hf7  1  0.298204  0.126578  0.277014  1
  Ti  Ti8  1  0.250000  0.500000  0.500000  1
  Ti  Ti9  1  0.750000  0.500000  0.500000  1
  Mn  Mn10  1  0.250000  0.000000  0.000000  1
  Mn  Mn11  1  0.750000  0.000000  0.000000  1
  Sb  Sb12  1  0.157198  0.500000  0.185605  1
  Sb  Sb13  1  0.842802  0.500000  0.814395  1
  Sb  Sb14  1  0.342802  0.814395  0.500000  1
  Sb  Sb15  1  0.657198  0.185605  0.500000  1
