# generated using pymatgen
data_CaYb5Tm2(Cu2Sn5)2
_symmetry_space_group_name_H-M   'P 1'
_cell_length_a   4.42614200
_cell_length_b   8.82593900
_cell_length_c   14.07011000
_cell_angle_alpha   90.00000000
_cell_angle_beta   90.00000000
_cell_angle_gamma   90.00000000
_symmetry_Int_Tables_number   1
_chemical_formula_structural   CaYb5Tm2(Cu2Sn5)2
_chemical_formula_sum   'Ca1 Yb5 Tm2 Cu4 Sn10'
_cell_volume   549.64686745
_cell_formula_units_Z   1
loop_
 _symmetry_equiv_pos_site_id
 _symmetry_equiv_pos_as_xyz
  1  'x, y, z'
loop_
 _atom_site_type_symbol
 _atom_site_label
 _atom_site_symmetry_multiplicity
 _atom_site_fract_x
 _atom_site_fract_y
 _atom_site_fract_z
 _atom_site_occupancy
  Ca  Ca0  1  0.500000  0.138028  0.000000  1
  Yb  Yb1  1  0.500000  0.791453  0.742125  1
  Yb  Yb2  1  0.000000  0.207204  0.755894  1
  Yb  Yb3  1  0.000000  0.207204  0.244106  1
  Yb  Yb4  1  0.000000  0.864255  0.500000  1
  Yb  Yb5  1  0.500000  0.791453  0.257875  1
  Tm  Tm6  1  0.500000  0.698283  0.000000  1
  Tm  Tm7  1  0.000000  0.299836  0.500000  1
  Cu  Cu8  1  0.500000  0.377609  0.642428  1
  Cu  Cu9  1  0.000000  0.622983  0.855177  1
  Cu  Cu10  1  0.000000  0.622983  0.144823  1
  Cu  Cu11  1  0.500000  0.377609  0.357572  1
  Sn  Sn12  1  0.500000  0.085532  0.396218  1
  Sn  Sn13  1  0.000000  0.554177  0.662704  1
  Sn  Sn14  1  0.000000  0.411304  0.000000  1
  Sn  Sn15  1  0.500000  0.445116  0.164308  1
  Sn  Sn16  1  0.500000  0.593374  0.500000  1
  Sn  Sn17  1  0.500000  0.445116  0.835692  1
  Sn  Sn18  1  0.000000  0.913385  0.895921  1
  Sn  Sn19  1  0.000000  0.554177  0.337296  1
  Sn  Sn20  1  0.500000  0.085532  0.603782  1
  Sn  Sn21  1  0.000000  0.913385  0.104079  1
