# generated using pymatgen
data_Ho4As6Ir2Ru5
_symmetry_space_group_name_H-M   'P 1'
_cell_length_a   7.23832874
_cell_length_b   7.23832958
_cell_length_c   7.23840595
_cell_angle_alpha   109.42935724
_cell_angle_beta   109.42936289
_cell_angle_gamma   109.55455214
_symmetry_Int_Tables_number   1
_chemical_formula_structural   Ho4As6Ir2Ru5
_chemical_formula_sum   'Ho4 As6 Ir2 Ru5'
_cell_volume   291.94381052
_cell_formula_units_Z   1
loop_
 _symmetry_equiv_pos_site_id
 _symmetry_equiv_pos_as_xyz
  1  'x, y, z'
loop_
 _atom_site_type_symbol
 _atom_site_label
 _atom_site_symmetry_multiplicity
 _atom_site_fract_x
 _atom_site_fract_y
 _atom_site_fract_z
 _atom_site_occupancy
  Ho  Ho0  1  0.001256  0.001256  0.500794  1
  Ho  Ho1  1  0.499369  0.999369  0.998738  1
  Ho  Ho2  1  0.999369  0.499369  0.998738  1
  Ho  Ho3  1  0.499538  0.499538  0.500794  1
  As  As4  1  0.318317  0.002964  0.321282  1
  As  As5  1  0.002964  0.318317  0.321282  1
  As  As6  1  0.002524  0.681743  0.684267  1
  As  As7  1  0.314525  0.314525  0.995436  1
  As  As8  1  0.680911  0.680911  0.995436  1
  As  As9  1  0.681743  0.002524  0.684267  1
  Ir  Ir10  1  0.749924  0.499469  0.249392  1
  Ir  Ir11  1  0.499469  0.749924  0.249392  1
  Ru  Ru12  1  0.499970  0.250514  0.750483  1
  Ru  Ru13  1  0.749635  0.249635  0.499270  1
  Ru  Ru14  1  0.249635  0.749635  0.499270  1
  Ru  Ru15  1  0.250514  0.499970  0.750483  1
  Ru  Ru16  1  0.000338  0.000338  0.000675  1
