# generated using pymatgen
data_Dy6Lu6AlCo4Sn
_symmetry_space_group_name_H-M   'P 1'
_cell_length_a   8.24689089
_cell_length_b   8.24689095
_cell_length_c   8.23429339
_cell_angle_alpha   112.14522912
_cell_angle_beta   109.36596614
_cell_angle_gamma   107.00924320
_symmetry_Int_Tables_number   1
_chemical_formula_structural   Dy6Lu6AlCo4Sn
_chemical_formula_sum   'Dy6 Lu6 Al1 Co4 Sn1'
_cell_volume   429.88682280
_cell_formula_units_Z   1
loop_
 _symmetry_equiv_pos_site_id
 _symmetry_equiv_pos_as_xyz
  1  'x, y, z'
loop_
 _atom_site_type_symbol
 _atom_site_label
 _atom_site_symmetry_multiplicity
 _atom_site_fract_x
 _atom_site_fract_y
 _atom_site_fract_z
 _atom_site_occupancy
  Dy  Dy0  1  0.438852  0.233363  0.202829  1
  Dy  Dy1  1  0.561148  0.766637  0.797171  1
  Dy  Dy2  1  0.030533  0.236023  0.797171  1
  Dy  Dy3  1  0.969467  0.763977  0.202829  1
  Dy  Dy4  1  0.181189  0.281788  0.462978  1
  Dy  Dy5  1  0.818811  0.718212  0.537022  1
  Lu  Lu6  1  0.181213  0.719201  0.900414  1
  Lu  Lu7  1  0.818787  0.280799  0.099586  1
  Lu  Lu8  1  0.323307  0.637718  0.311863  1
  Lu  Lu9  1  0.676693  0.362282  0.688137  1
  Lu  Lu10  1  0.325856  0.011444  0.688137  1
  Lu  Lu11  1  0.674144  0.988556  0.311863  1
  Al  Al12  1  0.000000  0.000000  0.000000  1
  Co  Co13  1  0.342347  0.998675  0.341023  1
  Co  Co14  1  0.657653  0.001325  0.658977  1
  Co  Co15  1  0.114978  0.614978  0.500000  1
  Co  Co16  1  0.885022  0.385022  0.500000  1
  Sn  Sn17  1  0.500000  0.500000  0.000000  1
