# generated using pymatgen
data_La3NdGd2Ta2O14
_symmetry_space_group_name_H-M   'P 1'
_cell_length_a   6.65144516
_cell_length_b   6.66571719
_cell_length_c   7.77038600
_cell_angle_alpha   90.00000000
_cell_angle_beta   90.00000000
_cell_angle_gamma   109.46868337
_symmetry_Int_Tables_number   1
_chemical_formula_structural   La3NdGd2Ta2O14
_chemical_formula_sum   'La3 Nd1 Gd2 Ta2 O14'
_cell_volume   324.81496501
_cell_formula_units_Z   1
loop_
 _symmetry_equiv_pos_site_id
 _symmetry_equiv_pos_as_xyz
  1  'x, y, z'
loop_
 _atom_site_type_symbol
 _atom_site_label
 _atom_site_symmetry_multiplicity
 _atom_site_fract_x
 _atom_site_fract_y
 _atom_site_fract_z
 _atom_site_occupancy
  La  La0  1  0.497500  0.497836  0.501106  1
  La  La1  1  0.497500  0.497836  0.998894  1
  La  La2  1  0.998819  0.531008  0.250000  1
  Nd  Nd3  1  0.535788  0.999386  0.750000  1
  Gd  Gd4  1  0.999943  0.466685  0.750000  1
  Gd  Gd5  1  0.467096  0.999283  0.250000  1
  Ta  Ta6  1  0.999952  0.999235  0.500774  1
  Ta  Ta7  1  0.999952  0.999235  0.999226  1
  O  O8  1  0.940432  0.057039  0.750000  1
  O  O9  1  0.056330  0.947405  0.250000  1
  O  O10  1  0.366880  0.642441  0.250000  1
  O  O11  1  0.642669  0.364910  0.750000  1
  O  O12  1  0.362332  0.627498  0.750000  1
  O  O13  1  0.622685  0.359532  0.250000  1
  O  O14  1  0.314534  0.064953  0.973129  1
  O  O15  1  0.686804  0.936002  0.466173  1
  O  O16  1  0.314534  0.064953  0.526871  1
  O  O17  1  0.686804  0.936002  0.033827  1
  O  O18  1  0.070719  0.316066  0.477933  1
  O  O19  1  0.934003  0.688313  0.963881  1
  O  O20  1  0.934003  0.688313  0.536119  1
  O  O21  1  0.070719  0.316066  0.022067  1
