# generated using pymatgen
data_Ho4Fe3CoMo4(PIr)12
_symmetry_space_group_name_H-M   'P 1'
_cell_length_a   3.93312700
_cell_length_b   10.72342600
_cell_length_c   12.38935900
_cell_angle_alpha   90.00000000
_cell_angle_beta   90.00000000
_cell_angle_gamma   90.00000000
_symmetry_Int_Tables_number   1
_chemical_formula_structural   Ho4Fe3CoMo4(PIr)12
_chemical_formula_sum   'Ho4 Fe3 Co1 Mo4 P12 Ir12'
_cell_volume   522.54099337
_cell_formula_units_Z   1
loop_
 _symmetry_equiv_pos_site_id
 _symmetry_equiv_pos_as_xyz
  1  'x, y, z'
loop_
 _atom_site_type_symbol
 _atom_site_label
 _atom_site_symmetry_multiplicity
 _atom_site_fract_x
 _atom_site_fract_y
 _atom_site_fract_z
 _atom_site_occupancy
  Ho  Ho0  1  0.250000  0.582732  0.710068  1
  Ho  Ho1  1  0.250000  0.916614  0.208722  1
  Ho  Ho2  1  0.750000  0.416766  0.290009  1
  Ho  Ho3  1  0.750000  0.083379  0.791687  1
  Fe  Fe4  1  0.250000  0.460793  0.936614  1
  Fe  Fe5  1  0.250000  0.037648  0.437804  1
  Fe  Fe6  1  0.750000  0.539544  0.063427  1
  Co  Co7  1  0.750000  0.960865  0.563872  1
  Mo  Mo8  1  0.250000  0.706312  0.983658  1
  Mo  Mo9  1  0.250000  0.793128  0.483211  1
  Mo  Mo10  1  0.750000  0.293920  0.016156  1
  Mo  Mo11  1  0.750000  0.207066  0.515938  1
  P  P12  1  0.250000  0.426361  0.106576  1
  P  P13  1  0.250000  0.075934  0.607297  1
  P  P14  1  0.750000  0.573700  0.893408  1
  P  P15  1  0.750000  0.925803  0.392177  1
  P  P16  1  0.250000  0.270265  0.871752  1
  P  P17  1  0.250000  0.229818  0.371399  1
  P  P18  1  0.750000  0.729820  0.128533  1
  P  P19  1  0.750000  0.768436  0.628790  1
  P  P20  1  0.250000  0.598050  0.390077  1
  P  P21  1  0.250000  0.901833  0.890342  1
  P  P22  1  0.750000  0.401705  0.609653  1
  P  P23  1  0.750000  0.098576  0.109702  1
  Ir  Ir24  1  0.250000  0.405057  0.482830  1
  Ir  Ir25  1  0.250000  0.095190  0.982634  1
  Ir  Ir26  1  0.750000  0.594942  0.517096  1
  Ir  Ir27  1  0.750000  0.904811  0.017197  1
  Ir  Ir28  1  0.250000  0.233201  0.181172  1
  Ir  Ir29  1  0.250000  0.266972  0.681210  1
  Ir  Ir30  1  0.750000  0.767218  0.818554  1
  Ir  Ir31  1  0.750000  0.733121  0.319116  1
  Ir  Ir32  1  0.250000  0.889626  0.699334  1
  Ir  Ir33  1  0.250000  0.610857  0.200772  1
  Ir  Ir34  1  0.750000  0.110733  0.300133  1
  Ir  Ir35  1  0.750000  0.389203  0.799084  1
