# generated using pymatgen
data_Tb7Er9(AlPd)4
_symmetry_space_group_name_H-M   'P 1'
_cell_length_a   9.56278253
_cell_length_b   9.56298945
_cell_length_c   9.55827400
_cell_angle_alpha   60.01919117
_cell_angle_beta   60.01553157
_cell_angle_gamma   60.04235927
_symmetry_Int_Tables_number   1
_chemical_formula_structural   Tb7Er9(AlPd)4
_chemical_formula_sum   'Tb7 Er9 Al4 Pd4'
_cell_volume   618.43670946
_cell_formula_units_Z   1
loop_
 _symmetry_equiv_pos_site_id
 _symmetry_equiv_pos_as_xyz
  1  'x, y, z'
loop_
 _atom_site_type_symbol
 _atom_site_label
 _atom_site_symmetry_multiplicity
 _atom_site_fract_x
 _atom_site_fract_y
 _atom_site_fract_z
 _atom_site_occupancy
  Tb  Tb0  1  0.806140  0.806442  0.193705  1
  Tb  Tb1  1  0.934306  0.565576  0.566214  1
  Tb  Tb2  1  0.565665  0.934246  0.933750  1
  Tb  Tb3  1  0.565703  0.934235  0.566337  1
  Tb  Tb4  1  0.934300  0.565590  0.933885  1
  Tb  Tb5  1  0.565793  0.565817  0.934191  1
  Tb  Tb6  1  0.933877  0.933939  0.566099  1
  Er  Er7  1  0.355322  0.355178  0.355732  1
  Er  Er8  1  0.355331  0.355172  0.933761  1
  Er  Er9  1  0.355415  0.932386  0.356118  1
  Er  Er10  1  0.933294  0.355009  0.355869  1
  Er  Er11  1  0.806606  0.194174  0.193174  1
  Er  Er12  1  0.194078  0.806699  0.805810  1
  Er  Er13  1  0.194078  0.806670  0.193408  1
  Er  Er14  1  0.806630  0.194152  0.806047  1
  Er  Er15  1  0.193199  0.193541  0.806619  1
  Al  Al16  1  0.576953  0.576959  0.577170  1
  Al  Al17  1  0.576955  0.576950  0.268926  1
  Al  Al18  1  0.576815  0.269633  0.576770  1
  Al  Al19  1  0.269132  0.576983  0.576945  1
  Pd  Pd20  1  0.144530  0.144314  0.144530  1
  Pd  Pd21  1  0.144514  0.144328  0.566637  1
  Pd  Pd22  1  0.145220  0.566730  0.144028  1
  Pd  Pd23  1  0.566143  0.145279  0.144274  1
