# generated using pymatgen
data_Hf2Sc6Ti7Si16Mo5
_symmetry_space_group_name_H-M   'P 1'
_cell_length_a   6.59225746
_cell_length_b   6.76867580
_cell_length_c   12.89323630
_cell_angle_alpha   89.98789055
_cell_angle_beta   89.91822278
_cell_angle_gamma   90.04969940
_symmetry_Int_Tables_number   1
_chemical_formula_structural   Hf2Sc6Ti7Si16Mo5
_chemical_formula_sum   'Hf2 Sc6 Ti7 Si16 Mo5'
_cell_volume   575.30639242
_cell_formula_units_Z   1
loop_
 _symmetry_equiv_pos_site_id
 _symmetry_equiv_pos_as_xyz
  1  'x, y, z'
loop_
 _atom_site_type_symbol
 _atom_site_label
 _atom_site_symmetry_multiplicity
 _atom_site_fract_x
 _atom_site_fract_y
 _atom_site_fract_z
 _atom_site_occupancy
  Hf  Hf0  1  0.497032  0.328169  0.406341  1
  Hf  Hf1  1  0.501600  0.672915  0.594580  1
  Sc  Sc2  1  0.999841  0.175866  0.093885  1
  Sc  Sc3  1  0.000696  0.825808  0.906288  1
  Sc  Sc4  1  0.501356  0.672770  0.905216  1
  Sc  Sc5  1  0.001319  0.826764  0.594524  1
  Sc  Sc6  1  0.497243  0.329087  0.093967  1
  Sc  Sc7  1  0.998519  0.173502  0.405397  1
  Ti  Ti8  1  0.336971  0.171795  0.624800  1
  Ti  Ti9  1  0.664103  0.828518  0.373593  1
  Ti  Ti10  1  0.167356  0.669227  0.373743  1
  Ti  Ti11  1  0.662772  0.828602  0.126702  1
  Ti  Ti12  1  0.833527  0.331121  0.626193  1
  Ti  Ti13  1  0.334233  0.170163  0.874164  1
  Ti  Ti14  1  0.833077  0.330424  0.874172  1
  Si  Si15  1  0.035887  0.115897  0.749987  1
  Si  Si16  1  0.966571  0.882089  0.248450  1
  Si  Si17  1  0.462326  0.615481  0.250260  1
  Si  Si18  1  0.536047  0.384224  0.750331  1
  Si  Si19  1  0.296519  0.861424  0.750531  1
  Si  Si20  1  0.703898  0.139253  0.249406  1
  Si  Si21  1  0.199306  0.361037  0.250290  1
  Si  Si22  1  0.798178  0.639725  0.750145  1
  Si  Si23  1  0.170768  0.461992  0.539526  1
  Si  Si24  1  0.829023  0.538185  0.460496  1
  Si  Si25  1  0.331425  0.962905  0.459796  1
  Si  Si26  1  0.835206  0.537200  0.041777  1
  Si  Si27  1  0.668244  0.036292  0.540200  1
  Si  Si28  1  0.168869  0.460938  0.959494  1
  Si  Si29  1  0.668145  0.036177  0.959750  1
  Si  Si30  1  0.329782  0.961909  0.041210  1
  Mo  Mo31  1  0.163290  0.493955  0.748880  1
  Mo  Mo32  1  0.834780  0.507967  0.250920  1
  Mo  Mo33  1  0.339968  0.994375  0.251686  1
  Mo  Mo34  1  0.661434  0.006812  0.748592  1
  Mo  Mo35  1  0.170685  0.667432  0.124707  1
