# generated using pymatgen
data_Ho10Hg8Ir3Pt
_symmetry_space_group_name_H-M   'P 1'
_cell_length_a   3.69070000
_cell_length_b   7.91462173
_cell_length_c   17.91694740
_cell_angle_alpha   89.94947070
_cell_angle_beta   90.00000000
_cell_angle_gamma   90.00000000
_symmetry_Int_Tables_number   1
_chemical_formula_structural   Ho10Hg8Ir3Pt
_chemical_formula_sum   'Ho10 Hg8 Ir3 Pt1'
_cell_volume   523.36268870
_cell_formula_units_Z   1
loop_
 _symmetry_equiv_pos_site_id
 _symmetry_equiv_pos_as_xyz
  1  'x, y, z'
loop_
 _atom_site_type_symbol
 _atom_site_label
 _atom_site_symmetry_multiplicity
 _atom_site_fract_x
 _atom_site_fract_y
 _atom_site_fract_z
 _atom_site_occupancy
  Ho  Ho0  1  0.000000  0.111352  0.412336  1
  Ho  Ho1  1  0.000000  0.890101  0.589840  1
  Ho  Ho2  1  0.000000  0.390209  0.909891  1
  Ho  Ho3  1  0.000000  0.610418  0.087147  1
  Ho  Ho4  1  0.000000  0.229841  0.217466  1
  Ho  Ho5  1  0.000000  0.759844  0.781959  1
  Ho  Ho6  1  0.000000  0.257604  0.719438  1
  Ho  Ho7  1  0.000000  0.749204  0.282197  1
  Ho  Ho8  1  0.000000  0.999796  0.999801  1
  Ho  Ho9  1  0.000000  0.501659  0.500004  1
  Hg  Hg10  1  0.500000  0.418612  0.355769  1
  Hg  Hg11  1  0.500000  0.579055  0.644530  1
  Hg  Hg12  1  0.500000  0.078663  0.856117  1
  Hg  Hg13  1  0.500000  0.919842  0.143847  1
  Hg  Hg14  1  0.500000  0.289428  0.059239  1
  Hg  Hg15  1  0.500000  0.708798  0.938756  1
  Hg  Hg16  1  0.500000  0.210315  0.562306  1
  Hg  Hg17  1  0.500000  0.789651  0.438641  1
  Ir  Ir18  1  0.500000  0.026278  0.303206  1
  Ir  Ir19  1  0.500000  0.977612  0.698260  1
  Ir  Ir20  1  0.500000  0.478719  0.800868  1
  Pt  Pt21  1  0.500000  0.522998  0.198384  1
