# generated using pymatgen
data_Dy5YCo16(MoP6)2
_symmetry_space_group_name_H-M   'P 1'
_cell_length_a   3.72006400
_cell_length_b   10.55573000
_cell_length_c   12.25128300
_cell_angle_alpha   90.00000000
_cell_angle_beta   90.00000000
_cell_angle_gamma   90.00000000
_symmetry_Int_Tables_number   1
_chemical_formula_structural   Dy5YCo16(MoP6)2
_chemical_formula_sum   'Dy5 Y1 Co16 Mo2 P12'
_cell_volume   481.08327262
_cell_formula_units_Z   1
loop_
 _symmetry_equiv_pos_site_id
 _symmetry_equiv_pos_as_xyz
  1  'x, y, z'
loop_
 _atom_site_type_symbol
 _atom_site_label
 _atom_site_symmetry_multiplicity
 _atom_site_fract_x
 _atom_site_fract_y
 _atom_site_fract_z
 _atom_site_occupancy
  Dy  Dy0  1  0.500000  0.000000  0.475878  1
  Dy  Dy1  1  0.500000  0.818894  0.205032  1
  Dy  Dy2  1  0.500000  0.181106  0.205032  1
  Dy  Dy3  1  0.000000  0.680971  0.794982  1
  Dy  Dy4  1  0.000000  0.319029  0.794982  1
  Y  Y5  1  0.000000  0.500000  0.524155  1
  Co  Co6  1  0.500000  0.500000  0.701999  1
  Co  Co7  1  0.000000  0.000000  0.298344  1
  Co  Co8  1  0.000000  0.500000  0.986508  1
  Co  Co9  1  0.500000  0.000000  0.013458  1
  Co  Co10  1  0.500000  0.332478  0.990314  1
  Co  Co11  1  0.500000  0.667522  0.990314  1
  Co  Co12  1  0.000000  0.167552  0.009658  1
  Co  Co13  1  0.000000  0.832448  0.009658  1
  Co  Co14  1  0.500000  0.295713  0.431300  1
  Co  Co15  1  0.500000  0.704287  0.431300  1
  Co  Co16  1  0.000000  0.203852  0.568702  1
  Co  Co17  1  0.000000  0.796148  0.568702  1
  Co  Co18  1  0.500000  0.878325  0.706852  1
  Co  Co19  1  0.500000  0.121675  0.706852  1
  Co  Co20  1  0.000000  0.621778  0.293045  1
  Co  Co21  1  0.000000  0.378222  0.293045  1
  Mo  Mo22  1  0.500000  0.500000  0.156211  1
  Mo  Mo23  1  0.000000  0.000000  0.843613  1
  P  P24  1  0.500000  0.500000  0.881251  1
  P  P25  1  0.000000  0.000000  0.118797  1
  P  P26  1  0.500000  0.500000  0.348989  1
  P  P27  1  0.000000  0.000000  0.650818  1
  P  P28  1  0.500000  0.311032  0.615984  1
  P  P29  1  0.500000  0.688968  0.615984  1
  P  P30  1  0.000000  0.188835  0.384193  1
  P  P31  1  0.000000  0.811165  0.384193  1
  P  P32  1  0.500000  0.844825  0.892938  1
  P  P33  1  0.500000  0.155175  0.892938  1
  P  P34  1  0.000000  0.655241  0.106991  1
  P  P35  1  0.000000  0.344759  0.106991  1
