# generated using pymatgen
data_La5Pr11(CdPd)4
_symmetry_space_group_name_H-M   'P 1'
_cell_length_a   10.12648726
_cell_length_b   10.14856884
_cell_length_c   10.14856865
_cell_angle_alpha   60.00919030
_cell_angle_beta   60.07194852
_cell_angle_gamma   60.07195225
_symmetry_Int_Tables_number   1
_chemical_formula_structural   La5Pr11(CdPd)4
_chemical_formula_sum   'La5 Pr11 Cd4 Pd4'
_cell_volume   738.33778175
_cell_formula_units_Z   1
loop_
 _symmetry_equiv_pos_site_id
 _symmetry_equiv_pos_as_xyz
  1  'x, y, z'
loop_
 _atom_site_type_symbol
 _atom_site_label
 _atom_site_symmetry_multiplicity
 _atom_site_fract_x
 _atom_site_fract_y
 _atom_site_fract_z
 _atom_site_occupancy
  La  La0  1  0.350232  0.350983  0.350983  1
  La  La1  1  0.351536  0.351306  0.945622  1
  La  La2  1  0.351536  0.945622  0.351306  1
  La  La3  1  0.947803  0.350983  0.350983  1
  La  La4  1  0.808005  0.191995  0.191995  1
  Pr  Pr5  1  0.192436  0.807564  0.807564  1
  Pr  Pr6  1  0.193247  0.807433  0.192110  1
  Pr  Pr7  1  0.807210  0.192110  0.807433  1
  Pr  Pr8  1  0.193247  0.192110  0.807433  1
  Pr  Pr9  1  0.807210  0.807433  0.192110  1
  Pr  Pr10  1  0.934680  0.565320  0.565320  1
  Pr  Pr11  1  0.565399  0.934601  0.934601  1
  Pr  Pr12  1  0.565452  0.935477  0.565094  1
  Pr  Pr13  1  0.933976  0.565094  0.935477  1
  Pr  Pr14  1  0.565452  0.565094  0.935477  1
  Pr  Pr15  1  0.933976  0.935477  0.565094  1
  Cd  Cd16  1  0.580247  0.580216  0.580216  1
  Cd  Cd17  1  0.579898  0.580834  0.259368  1
  Cd  Cd18  1  0.579898  0.259368  0.580834  1
  Cd  Cd19  1  0.259320  0.580216  0.580216  1
  Pd  Pd20  1  0.142457  0.143945  0.143945  1
  Pd  Pd21  1  0.143565  0.143461  0.569410  1
  Pd  Pd22  1  0.143565  0.569410  0.143461  1
  Pd  Pd23  1  0.569653  0.143945  0.143945  1
