# generated using pymatgen
data_CaTlWF7
_symmetry_space_group_name_H-M   'P 1'
_cell_length_a   6.59336400
_cell_length_b   6.59336502
_cell_length_c   8.64083000
_cell_angle_alpha   90.00000000
_cell_angle_beta   90.00000000
_cell_angle_gamma   117.02950565
_symmetry_Int_Tables_number   1
_chemical_formula_structural   CaTlWF7
_chemical_formula_sum   'Ca2 Tl2 W2 F14'
_cell_volume   334.60813099
_cell_formula_units_Z   2
loop_
 _symmetry_equiv_pos_site_id
 _symmetry_equiv_pos_as_xyz
  1  'x, y, z'
loop_
 _atom_site_type_symbol
 _atom_site_label
 _atom_site_symmetry_multiplicity
 _atom_site_fract_x
 _atom_site_fract_y
 _atom_site_fract_z
 _atom_site_occupancy
  Ca  Ca0  1  0.310299  0.689701  0.750000  1
  Ca  Ca1  1  0.689701  0.310299  0.250000  1
  Tl  Tl2  1  0.000000  0.000000  0.000000  1
  Tl  Tl3  1  0.000000  0.000000  0.500000  1
  W  W4  1  0.694123  0.305877  0.750000  1
  W  W5  1  0.305877  0.694123  0.250000  1
  F  F6  1  0.351282  0.066807  0.750000  1
  F  F7  1  0.648718  0.933193  0.250000  1
  F  F8  1  0.933193  0.648718  0.750000  1
  F  F9  1  0.066807  0.351282  0.250000  1
  F  F10  1  0.512826  0.487174  0.750000  1
  F  F11  1  0.487174  0.512826  0.250000  1
  F  F12  1  0.701058  0.298942  0.988995  1
  F  F13  1  0.298942  0.701058  0.011005  1
  F  F14  1  0.298942  0.701058  0.488995  1
  F  F15  1  0.701058  0.298942  0.511005  1
  F  F16  1  0.673454  0.979907  0.750000  1
  F  F17  1  0.326546  0.020093  0.250000  1
  F  F18  1  0.020093  0.326546  0.750000  1
  F  F19  1  0.979907  0.673454  0.250000  1
