# generated using pymatgen
data_Hf9TaCoTc3
_symmetry_space_group_name_H-M   'P 1'
_cell_length_a   8.66426000
_cell_length_b   8.66425790
_cell_length_c   8.42382700
_cell_angle_alpha   90.00000000
_cell_angle_beta   90.00000000
_cell_angle_gamma   119.99999273
_symmetry_Int_Tables_number   1
_chemical_formula_structural   Hf9TaCoTc3
_chemical_formula_sum   'Hf18 Ta2 Co2 Tc6'
_cell_volume   547.64982116
_cell_formula_units_Z   2
loop_
 _symmetry_equiv_pos_site_id
 _symmetry_equiv_pos_as_xyz
  1  'x, y, z'
loop_
 _atom_site_type_symbol
 _atom_site_label
 _atom_site_symmetry_multiplicity
 _atom_site_fract_x
 _atom_site_fract_y
 _atom_site_fract_z
 _atom_site_occupancy
  Hf  Hf0  1  0.201684  0.798316  0.440958  1
  Hf  Hf1  1  0.201684  0.403369  0.440958  1
  Hf  Hf2  1  0.596631  0.798316  0.440958  1
  Hf  Hf3  1  0.798316  0.201684  0.559042  1
  Hf  Hf4  1  0.798316  0.596631  0.559042  1
  Hf  Hf5  1  0.403369  0.201684  0.559042  1
  Hf  Hf6  1  0.798316  0.201684  0.940958  1
  Hf  Hf7  1  0.798316  0.596631  0.940958  1
  Hf  Hf8  1  0.403369  0.201684  0.940958  1
  Hf  Hf9  1  0.201684  0.798316  0.059042  1
  Hf  Hf10  1  0.201684  0.403369  0.059042  1
  Hf  Hf11  1  0.596631  0.798316  0.059042  1
  Hf  Hf12  1  0.542167  0.457833  0.250000  1
  Hf  Hf13  1  0.542167  0.084334  0.250000  1
  Hf  Hf14  1  0.915666  0.457833  0.250000  1
  Hf  Hf15  1  0.457833  0.542167  0.750000  1
  Hf  Hf16  1  0.457833  0.915666  0.750000  1
  Hf  Hf17  1  0.084334  0.542167  0.750000  1
  Ta  Ta18  1  0.000000  0.000000  0.500000  1
  Ta  Ta19  1  0.000000  0.000000  0.000000  1
  Co  Co20  1  0.333333  0.666667  0.250000  1
  Co  Co21  1  0.666667  0.333333  0.750000  1
  Tc  Tc22  1  0.885687  0.114313  0.250000  1
  Tc  Tc23  1  0.885687  0.771376  0.250000  1
  Tc  Tc24  1  0.228624  0.114313  0.250000  1
  Tc  Tc25  1  0.114313  0.885687  0.750000  1
  Tc  Tc26  1  0.114313  0.228624  0.750000  1
  Tc  Tc27  1  0.771376  0.885687  0.750000  1
