# generated using pymatgen
data_Y3Sn3GeRuRh
_symmetry_space_group_name_H-M   'P 1'
_cell_length_a   7.41284000
_cell_length_b   7.41284021
_cell_length_c   4.16703000
_cell_angle_alpha   90.00000000
_cell_angle_beta   90.00000000
_cell_angle_gamma   119.99999905
_symmetry_Int_Tables_number   1
_chemical_formula_structural   Y3Sn3GeRuRh
_chemical_formula_sum   'Y3 Sn3 Ge1 Ru1 Rh1'
_cell_volume   198.30174145
_cell_formula_units_Z   1
loop_
 _symmetry_equiv_pos_site_id
 _symmetry_equiv_pos_as_xyz
  1  'x, y, z'
loop_
 _atom_site_type_symbol
 _atom_site_label
 _atom_site_symmetry_multiplicity
 _atom_site_fract_x
 _atom_site_fract_y
 _atom_site_fract_z
 _atom_site_occupancy
  Y  Y0  1  0.410412  0.004797  0.500000  1
  Y  Y1  1  0.995203  0.405615  0.500000  1
  Y  Y2  1  0.594385  0.589588  0.500000  1
  Sn  Sn3  1  0.759854  0.016363  0.000000  1
  Sn  Sn4  1  0.983637  0.743490  0.000000  1
  Sn  Sn5  1  0.256510  0.240146  0.000000  1
  Ge  Ge6  1  0.333333  0.666667  0.000000  1
  Ru  Ru7  1  0.000000  0.000000  0.500000  1
  Rh  Rh8  1  0.666667  0.333333  0.000000  1
