# generated using pymatgen
data_Dy8HoLu11Sn16
_symmetry_space_group_name_H-M   'P 1'
_cell_length_a   7.94869101
_cell_length_b   8.07500098
_cell_length_c   15.26256501
_cell_angle_alpha   90.02870627
_cell_angle_beta   90.00277998
_cell_angle_gamma   90.07200432
_symmetry_Int_Tables_number   1
_chemical_formula_structural   Dy8HoLu11Sn16
_chemical_formula_sum   'Dy8 Ho1 Lu11 Sn16'
_cell_volume   979.63733393
_cell_formula_units_Z   1
loop_
 _symmetry_equiv_pos_site_id
 _symmetry_equiv_pos_as_xyz
  1  'x, y, z'
loop_
 _atom_site_type_symbol
 _atom_site_label
 _atom_site_symmetry_multiplicity
 _atom_site_fract_x
 _atom_site_fract_y
 _atom_site_fract_z
 _atom_site_occupancy
  Dy  Dy0  1  0.520445  0.321199  0.904173  1
  Dy  Dy1  1  0.020655  0.178690  0.595612  1
  Dy  Dy2  1  0.479204  0.678436  0.403877  1
  Dy  Dy3  1  0.978790  0.822468  0.097447  1
  Dy  Dy4  1  0.480677  0.677891  0.096223  1
  Dy  Dy5  1  0.979446  0.821770  0.403455  1
  Dy  Dy6  1  0.519737  0.321142  0.595410  1
  Dy  Dy7  1  0.020410  0.178364  0.903701  1
  Ho  Ho8  1  0.866202  0.663537  0.877727  1
  Lu  Lu9  1  0.364573  0.837474  0.876201  1
  Lu  Lu10  1  0.865231  0.661961  0.623057  1
  Lu  Lu11  1  0.634940  0.161578  0.376673  1
  Lu  Lu12  1  0.135008  0.337932  0.123639  1
  Lu  Lu13  1  0.633820  0.161959  0.124618  1
  Lu  Lu14  1  0.134686  0.337463  0.376607  1
  Lu  Lu15  1  0.365988  0.838138  0.622739  1
  Lu  Lu16  1  0.196910  0.504791  0.749688  1
  Lu  Lu17  1  0.696201  0.995711  0.749265  1
  Lu  Lu18  1  0.803578  0.494978  0.250389  1
  Lu  Lu19  1  0.303179  0.004735  0.250009  1
  Sn  Sn20  1  0.296490  0.039428  0.041508  1
  Sn  Sn21  1  0.796933  0.460655  0.458153  1
  Sn  Sn22  1  0.704189  0.960255  0.541233  1
  Sn  Sn23  1  0.206717  0.538174  0.958985  1
  Sn  Sn24  1  0.700957  0.963648  0.958657  1
  Sn  Sn25  1  0.202522  0.539596  0.541446  1
  Sn  Sn26  1  0.296531  0.039133  0.458320  1
  Sn  Sn27  1  0.796653  0.458960  0.043078  1
  Sn  Sn28  1  0.561814  0.620077  0.748979  1
  Sn  Sn29  1  0.063081  0.880962  0.748976  1
  Sn  Sn30  1  0.437623  0.379832  0.250721  1
  Sn  Sn31  1  0.937579  0.120299  0.250055  1
  Sn  Sn32  1  0.330606  0.149384  0.749581  1
  Sn  Sn33  1  0.830108  0.350433  0.749367  1
  Sn  Sn34  1  0.669053  0.849911  0.250246  1
  Sn  Sn35  1  0.169462  0.649037  0.250184  1
