# generated using pymatgen
data_LiLa3In2Ge2Rh
_symmetry_space_group_name_H-M   'P 1'
_cell_length_a   7.33648400
_cell_length_b   7.40247024
_cell_length_c   4.64439900
_cell_angle_alpha   90.00000000
_cell_angle_beta   90.00000000
_cell_angle_gamma   119.70555998
_symmetry_Int_Tables_number   1
_chemical_formula_structural   LiLa3In2Ge2Rh
_chemical_formula_sum   'Li1 La3 In2 Ge2 Rh1'
_cell_volume   219.08150128
_cell_formula_units_Z   1
loop_
 _symmetry_equiv_pos_site_id
 _symmetry_equiv_pos_as_xyz
  1  'x, y, z'
loop_
 _atom_site_type_symbol
 _atom_site_label
 _atom_site_symmetry_multiplicity
 _atom_site_fract_x
 _atom_site_fract_y
 _atom_site_fract_z
 _atom_site_occupancy
  Li  Li0  1  0.767641  0.000000  0.500001  1
  La  La1  1  0.399765  0.000000  0.000000  1
  La  La2  1  0.992284  0.400061  0.000000  1
  La  La3  1  0.592224  0.599939  0.000000  1
  In  In4  1  0.228763  0.240636  0.500001  1
  In  In5  1  0.988126  0.759364  0.500001  1
  Ge  Ge6  1  0.663566  0.323862  0.500001  1
  Ge  Ge7  1  0.339704  0.676138  0.500001  1
  Rh  Rh8  1  0.027928  0.000000  0.000000  1
