# generated using pymatgen
data_SrCa2Dy(ReN3)4
_symmetry_space_group_name_H-M   'P 1'
_cell_length_a   7.40496083
_cell_length_b   7.40496114
_cell_length_c   6.23892315
_cell_angle_alpha   75.73441440
_cell_angle_beta   75.73441555
_cell_angle_gamma   85.13567893
_symmetry_Int_Tables_number   1
_chemical_formula_structural   SrCa2Dy(ReN3)4
_chemical_formula_sum   'Sr1 Ca2 Dy1 Re4 N12'
_cell_volume   321.22323514
_cell_formula_units_Z   1
loop_
 _symmetry_equiv_pos_site_id
 _symmetry_equiv_pos_as_xyz
  1  'x, y, z'
loop_
 _atom_site_type_symbol
 _atom_site_label
 _atom_site_symmetry_multiplicity
 _atom_site_fract_x
 _atom_site_fract_y
 _atom_site_fract_z
 _atom_site_occupancy
  Sr  Sr0  1  0.693469  0.306531  0.750000  1
  Ca  Ca1  1  0.301426  0.698574  0.250000  1
  Ca  Ca2  1  0.914326  0.085674  0.250000  1
  Dy  Dy3  1  0.092514  0.907486  0.750000  1
  Re  Re4  1  0.799051  0.624848  0.249848  1
  Re  Re5  1  0.375152  0.200949  0.250152  1
  Re  Re6  1  0.621650  0.798394  0.756442  1
  Re  Re7  1  0.201606  0.378350  0.743558  1
  N  N8  1  0.788228  0.980837  0.660293  1
  N  N9  1  0.113212  0.612410  0.677676  1
  N  N10  1  0.335965  0.351666  0.972025  1
  N  N11  1  0.608045  0.123444  0.181467  1
  N  N12  1  0.876556  0.391955  0.318533  1
  N  N13  1  0.223413  0.003691  0.356151  1
  N  N14  1  0.996309  0.776587  0.143849  1
  N  N15  1  0.355602  0.351607  0.463948  1
  N  N16  1  0.648334  0.664035  0.527975  1
  N  N17  1  0.019163  0.211772  0.839707  1
  N  N18  1  0.387590  0.886788  0.822324  1
  N  N19  1  0.648393  0.644398  0.036052  1
