# generated using pymatgen
data_NiPdBr6
_symmetry_space_group_name_H-M   'P 1'
_cell_length_a   6.46261350
_cell_length_b   6.46261274
_cell_length_c   6.98509060
_cell_angle_alpha   81.32610520
_cell_angle_beta   81.32611649
_cell_angle_gamma   120.20870725
_symmetry_Int_Tables_number   1
_chemical_formula_structural   NiPdBr6
_chemical_formula_sum   'Ni1 Pd1 Br6'
_cell_volume   240.29892063
_cell_formula_units_Z   1
loop_
 _symmetry_equiv_pos_site_id
 _symmetry_equiv_pos_as_xyz
  1  'x, y, z'
loop_
 _atom_site_type_symbol
 _atom_site_label
 _atom_site_symmetry_multiplicity
 _atom_site_fract_x
 _atom_site_fract_y
 _atom_site_fract_z
 _atom_site_occupancy
  Ni  Ni0  1  0.833511  0.166489  0.000000  1
  Pd  Pd1  1  0.166516  0.833484  0.000000  1
  Br  Br2  1  0.929432  0.572939  0.784719  1
  Br  Br3  1  0.427061  0.070568  0.215281  1
  Br  Br4  1  0.788407  0.786377  0.215229  1
  Br  Br5  1  0.213623  0.211593  0.784771  1
  Br  Br6  1  0.569437  0.927985  0.786506  1
  Br  Br7  1  0.072015  0.430563  0.213494  1
