# generated using pymatgen
data_Dy8Ta9Si16W3
_symmetry_space_group_name_H-M   'P 1'
_cell_length_a   6.99905211
_cell_length_b   6.99905289
_cell_length_c   12.95831526
_cell_angle_alpha   89.94660927
_cell_angle_beta   90.05339262
_cell_angle_gamma   90.10790821
_symmetry_Int_Tables_number   1
_chemical_formula_structural   Dy8Ta9Si16W3
_chemical_formula_sum   'Dy8 Ta9 Si16 W3'
_cell_volume   634.78389061
_cell_formula_units_Z   1
loop_
 _symmetry_equiv_pos_site_id
 _symmetry_equiv_pos_as_xyz
  1  'x, y, z'
loop_
 _atom_site_type_symbol
 _atom_site_label
 _atom_site_symmetry_multiplicity
 _atom_site_fract_x
 _atom_site_fract_y
 _atom_site_fract_z
 _atom_site_occupancy
  Dy  Dy0  1  0.997716  0.659536  0.032451  1
  Dy  Dy1  1  0.001723  0.340885  0.531938  1
  Dy  Dy2  1  0.659536  0.997716  0.967549  1
  Dy  Dy3  1  0.158450  0.503094  0.780953  1
  Dy  Dy4  1  0.840918  0.498228  0.282034  1
  Dy  Dy5  1  0.503094  0.158450  0.219047  1
  Dy  Dy6  1  0.498228  0.840918  0.717966  1
  Dy  Dy7  1  0.340885  0.001723  0.468062  1
  Ta  Ta8  1  0.347627  0.507000  0.374858  1
  Ta  Ta9  1  0.847345  0.994400  0.375547  1
  Ta  Ta10  1  0.006313  0.152909  0.125114  1
  Ta  Ta11  1  0.994400  0.847345  0.624453  1
  Ta  Ta12  1  0.507000  0.347627  0.625142  1
  Ta  Ta13  1  0.152909  0.006313  0.874886  1
  Ta  Ta14  1  0.329182  0.329182  0.000000  1
  Ta  Ta15  1  0.494362  0.652087  0.126243  1
  Ta  Ta16  1  0.652087  0.494362  0.873757  1
  Si  Si17  1  0.044917  0.705833  0.435044  1
  Si  Si18  1  0.953164  0.294404  0.934129  1
  Si  Si19  1  0.705833  0.044917  0.564956  1
  Si  Si20  1  0.205039  0.455971  0.185913  1
  Si  Si21  1  0.794163  0.545597  0.684632  1
  Si  Si22  1  0.455971  0.205039  0.814087  1
  Si  Si23  1  0.545597  0.794163  0.315368  1
  Si  Si24  1  0.294404  0.953164  0.065871  1
  Si  Si25  1  0.797672  0.866438  0.182885  1
  Si  Si26  1  0.297550  0.633017  0.567480  1
  Si  Si27  1  0.703716  0.366189  0.067224  1
  Si  Si28  1  0.633017  0.297550  0.432520  1
  Si  Si29  1  0.366189  0.703716  0.932776  1
  Si  Si30  1  0.133380  0.202957  0.317349  1
  Si  Si31  1  0.202957  0.133380  0.682651  1
  Si  Si32  1  0.866438  0.797672  0.817115  1
  W  W33  1  0.669936  0.669936  0.500000  1
  W  W34  1  0.829341  0.168943  0.748802  1
  W  W35  1  0.168943  0.829341  0.251198  1
