# generated using pymatgen
data_Ta8VCuS16
_symmetry_space_group_name_H-M   'P 1'
_cell_length_a   6.69321000
_cell_length_b   6.69321059
_cell_length_c   12.28911300
_cell_angle_alpha   90.00000000
_cell_angle_beta   90.00000000
_cell_angle_gamma   120.00000695
_symmetry_Int_Tables_number   1
_chemical_formula_structural   Ta8VCuS16
_chemical_formula_sum   'Ta8 V1 Cu1 S16'
_cell_volume   476.78225115
_cell_formula_units_Z   1
loop_
 _symmetry_equiv_pos_site_id
 _symmetry_equiv_pos_as_xyz
  1  'x, y, z'
loop_
 _atom_site_type_symbol
 _atom_site_label
 _atom_site_symmetry_multiplicity
 _atom_site_fract_x
 _atom_site_fract_y
 _atom_site_fract_z
 _atom_site_occupancy
  Ta  Ta0  1  0.506216  0.493784  0.748680  1
  Ta  Ta1  1  0.012432  0.506216  0.251320  1
  Ta  Ta2  1  0.493784  0.987568  0.251320  1
  Ta  Ta3  1  0.506216  0.012432  0.748680  1
  Ta  Ta4  1  0.987568  0.493784  0.748680  1
  Ta  Ta5  1  0.493784  0.506216  0.251320  1
  Ta  Ta6  1  0.000000  0.000000  0.751130  1
  Ta  Ta7  1  0.000000  0.000000  0.248870  1
  V  V8  1  0.000000  0.000000  0.500000  1
  Cu  Cu9  1  0.000000  0.000000  0.000000  1
  S  S10  1  0.834705  0.165295  0.377441  1
  S  S11  1  0.834705  0.669410  0.377441  1
  S  S12  1  0.330590  0.165295  0.377441  1
  S  S13  1  0.660528  0.830264  0.875228  1
  S  S14  1  0.165295  0.330590  0.622559  1
  S  S15  1  0.169736  0.830264  0.875228  1
  S  S16  1  0.169736  0.339472  0.875228  1
  S  S17  1  0.830264  0.169736  0.124772  1
  S  S18  1  0.339472  0.169736  0.124772  1
  S  S19  1  0.669410  0.834705  0.622559  1
  S  S20  1  0.333333  0.666667  0.121752  1
  S  S21  1  0.666667  0.333333  0.618213  1
  S  S22  1  0.666667  0.333333  0.878248  1
  S  S23  1  0.333333  0.666667  0.381787  1
  S  S24  1  0.830264  0.660528  0.124772  1
  S  S25  1  0.165295  0.834705  0.622559  1
