# generated using pymatgen
data_Lu10Si5P
_symmetry_space_group_name_H-M   'P 1'
_cell_length_a   8.19753300
_cell_length_b   8.20416632
_cell_length_c   6.12943100
_cell_angle_alpha   90.00000000
_cell_angle_beta   90.00000000
_cell_angle_gamma   119.97326167
_symmetry_Int_Tables_number   1
_chemical_formula_structural   Lu10Si5P
_chemical_formula_sum   'Lu10 Si5 P1'
_cell_volume   357.09631780
_cell_formula_units_Z   1
loop_
 _symmetry_equiv_pos_site_id
 _symmetry_equiv_pos_as_xyz
  1  'x, y, z'
loop_
 _atom_site_type_symbol
 _atom_site_label
 _atom_site_symmetry_multiplicity
 _atom_site_fract_x
 _atom_site_fract_y
 _atom_site_fract_z
 _atom_site_occupancy
  Lu  Lu0  1  0.666365  0.332897  0.999576  1
  Lu  Lu1  1  0.333467  0.667103  0.500424  1
  Lu  Lu2  1  0.333467  0.667103  0.999576  1
  Lu  Lu3  1  0.666365  0.332897  0.500424  1
  Lu  Lu4  1  0.757243  0.000000  0.750000  1
  Lu  Lu5  1  0.757936  0.757534  0.250000  1
  Lu  Lu6  1  0.000402  0.242466  0.250000  1
  Lu  Lu7  1  0.000852  0.758146  0.750000  1
  Lu  Lu8  1  0.242705  0.241854  0.750000  1
  Lu  Lu9  1  0.242243  0.000000  0.250000  1
  Si  Si10  1  0.395034  0.394610  0.250000  1
  Si  Si11  1  0.000424  0.605390  0.250000  1
  Si  Si12  1  0.999939  0.394771  0.750000  1
  Si  Si13  1  0.605168  0.605229  0.750000  1
  Si  Si14  1  0.605560  0.000000  0.250000  1
  P  P15  1  0.392829  0.000000  0.750000  1
