# generated using pymatgen
data_Dy4Ru7W
_symmetry_space_group_name_H-M   'P 1'
_cell_length_a   5.50542626
_cell_length_b   5.19333963
_cell_length_c   9.06309600
_cell_angle_alpha   90.00000000
_cell_angle_beta   90.00000000
_cell_angle_gamma   122.08231664
_symmetry_Int_Tables_number   1
_chemical_formula_structural   Dy4Ru7W
_chemical_formula_sum   'Dy4 Ru7 W1'
_cell_volume   219.55545300
_cell_formula_units_Z   1
loop_
 _symmetry_equiv_pos_site_id
 _symmetry_equiv_pos_as_xyz
  1  'x, y, z'
loop_
 _atom_site_type_symbol
 _atom_site_label
 _atom_site_symmetry_multiplicity
 _atom_site_fract_x
 _atom_site_fract_y
 _atom_site_fract_z
 _atom_site_occupancy
  Dy  Dy0  1  0.672936  0.346445  0.563115  1
  Dy  Dy1  1  0.334906  0.669860  0.431771  1
  Dy  Dy2  1  0.334906  0.669860  0.068229  1
  Dy  Dy3  1  0.672936  0.346445  0.936885  1
  Ru  Ru4  1  0.009734  0.019648  0.498398  1
  Ru  Ru5  1  0.009734  0.019648  0.001602  1
  Ru  Ru6  1  0.171408  0.818410  0.750000  1
  Ru  Ru7  1  0.647732  0.818319  0.750000  1
  Ru  Ru8  1  0.823826  0.647226  0.250000  1
  Ru  Ru9  1  0.831833  0.164403  0.250000  1
  Ru  Ru10  1  0.333104  0.164682  0.250000  1
  W  W11  1  0.156945  0.315055  0.750000  1
