# generated using pymatgen
data_CaLu2Co9(SiB2)2
_symmetry_space_group_name_H-M   'P 1'
_cell_length_a   5.07488600
_cell_length_b   5.07463641
_cell_length_c   9.32664600
_cell_angle_alpha   89.99992975
_cell_angle_beta   90.00018048
_cell_angle_gamma   119.99427636
_symmetry_Int_Tables_number   1
_chemical_formula_structural   CaLu2Co9(SiB2)2
_chemical_formula_sum   'Ca1 Lu2 Co9 Si2 B4'
_cell_volume   208.02349662
_cell_formula_units_Z   1
loop_
 _symmetry_equiv_pos_site_id
 _symmetry_equiv_pos_as_xyz
  1  'x, y, z'
loop_
 _atom_site_type_symbol
 _atom_site_label
 _atom_site_symmetry_multiplicity
 _atom_site_fract_x
 _atom_site_fract_y
 _atom_site_fract_z
 _atom_site_occupancy
  Ca  Ca0  1  0.999984  0.000000  0.999998  1
  Lu  Lu1  1  0.999995  0.000001  0.336757  1
  Lu  Lu2  1  0.999996  0.000001  0.663216  1
  Co  Co3  1  0.499998  0.999998  0.499974  1
  Co  Co4  1  0.499997  0.500000  0.499983  1
  Co  Co5  1  0.000000  0.499999  0.499988  1
  Co  Co6  1  0.499993  0.000001  0.198148  1
  Co  Co7  1  0.499990  0.499998  0.198117  1
  Co  Co8  1  0.999991  0.500002  0.198119  1
  Co  Co9  1  0.499996  0.999997  0.801871  1
  Co  Co10  1  0.499996  0.499999  0.801902  1
  Co  Co11  1  0.999998  0.500001  0.801897  1
  Si  Si12  1  0.333343  0.666722  0.000019  1
  Si  Si13  1  0.666630  0.333278  0.000019  1
  B  B14  1  0.333343  0.666650  0.346052  1
  B  B15  1  0.666648  0.333350  0.346050  1
  B  B16  1  0.666660  0.333364  0.653945  1
  B  B17  1  0.333340  0.666639  0.653945  1
