# generated using pymatgen
data_Cs2NaLaSb2
_symmetry_space_group_name_H-M   'P 1'
_cell_length_a   11.87134650
_cell_length_b   11.87134664
_cell_length_c   7.78036900
_cell_angle_alpha   90.00000000
_cell_angle_beta   90.00000000
_cell_angle_gamma   97.81987944
_symmetry_Int_Tables_number   1
_chemical_formula_structural   Cs2NaLaSb2
_chemical_formula_sum   'Cs8 Na4 La4 Sb8'
_cell_volume   1086.28211551
_cell_formula_units_Z   4
loop_
 _symmetry_equiv_pos_site_id
 _symmetry_equiv_pos_as_xyz
  1  'x, y, z'
loop_
 _atom_site_type_symbol
 _atom_site_label
 _atom_site_symmetry_multiplicity
 _atom_site_fract_x
 _atom_site_fract_y
 _atom_site_fract_z
 _atom_site_occupancy
  Cs  Cs0  1  0.068637  0.431363  0.250000  1
  Cs  Cs1  1  0.431363  0.068637  0.750000  1
  Cs  Cs2  1  0.931363  0.568637  0.750000  1
  Cs  Cs3  1  0.568637  0.931363  0.250000  1
  Cs  Cs4  1  0.678282  0.321718  0.213135  1
  Cs  Cs5  1  0.821718  0.178282  0.713135  1
  Cs  Cs6  1  0.321718  0.678282  0.786865  1
  Cs  Cs7  1  0.178282  0.821718  0.286865  1
  Na  Na8  1  0.382789  0.382789  0.000000  1
  Na  Na9  1  0.117211  0.117211  0.500000  1
  Na  Na10  1  0.617211  0.617211  0.000000  1
  Na  Na11  1  0.882789  0.882789  0.500000  1
  La  La12  1  0.132619  0.132619  0.000000  1
  La  La13  1  0.367381  0.367381  0.500000  1
  La  La14  1  0.867381  0.867381  0.000000  1
  La  La15  1  0.632619  0.632619  0.500000  1
  Sb  Sb16  1  0.845935  0.654064  0.250000  1
  Sb  Sb17  1  0.654064  0.845935  0.750000  1
  Sb  Sb18  1  0.154064  0.345935  0.750000  1
  Sb  Sb19  1  0.345935  0.154064  0.250000  1
  Sb  Sb20  1  0.903513  0.096487  0.221231  1
  Sb  Sb21  1  0.596487  0.403513  0.721231  1
  Sb  Sb22  1  0.096487  0.903513  0.778769  1
  Sb  Sb23  1  0.403513  0.596487  0.278769  1
