# generated using pymatgen
data_Sm4TcB16W3
_symmetry_space_group_name_H-M   'P 1'
_cell_length_a   3.66221400
_cell_length_b   6.07389801
_cell_length_c   11.76665206
_cell_angle_alpha   90.07535493
_cell_angle_beta   90.00000000
_cell_angle_gamma   90.00000000
_symmetry_Int_Tables_number   1
_chemical_formula_structural   Sm4TcB16W3
_chemical_formula_sum   'Sm4 Tc1 B16 W3'
_cell_volume   261.73617404
_cell_formula_units_Z   1
loop_
 _symmetry_equiv_pos_site_id
 _symmetry_equiv_pos_as_xyz
  1  'x, y, z'
loop_
 _atom_site_type_symbol
 _atom_site_label
 _atom_site_symmetry_multiplicity
 _atom_site_fract_x
 _atom_site_fract_y
 _atom_site_fract_z
 _atom_site_occupancy
  Sm  Sm0  1  0.000000  0.374142  0.650179  1
  Sm  Sm1  1  0.000000  0.624290  0.349616  1
  Sm  Sm2  1  0.000000  0.874277  0.849952  1
  Sm  Sm3  1  0.000000  0.125550  0.150734  1
  Tc  Tc4  1  0.000000  0.129397  0.415472  1
  B  B5  1  0.500000  0.025944  0.690691  1
  B  B6  1  0.500000  0.976212  0.309309  1
  B  B7  1  0.500000  0.525213  0.808170  1
  B  B8  1  0.500000  0.473675  0.192665  1
  B  B9  1  0.500000  0.386701  0.046995  1
  B  B10  1  0.500000  0.613690  0.954215  1
  B  B11  1  0.500000  0.888869  0.451769  1
  B  B12  1  0.500000  0.115031  0.544727  1
  B  B13  1  0.500000  0.281028  0.316395  1
  B  B14  1  0.500000  0.716604  0.684705  1
  B  B15  1  0.500000  0.785216  0.186580  1
  B  B16  1  0.500000  0.215805  0.814276  1
  B  B17  1  0.500000  0.361463  0.466833  1
  B  B18  1  0.500000  0.636166  0.530792  1
  B  B19  1  0.500000  0.864835  0.033187  1
  B  B20  1  0.500000  0.135550  0.967879  1
  W  W21  1  0.000000  0.371442  0.915977  1
  W  W22  1  0.000000  0.628788  0.085352  1
  W  W23  1  0.000000  0.870114  0.583530  1
