# generated using pymatgen
data_LaEr3(WF7)4
_symmetry_space_group_name_H-M   'P 1'
_cell_length_a   5.68628526
_cell_length_b   9.06369226
_cell_length_c   12.29146800
_cell_angle_alpha   62.76009846
_cell_angle_beta   90.01743171
_cell_angle_gamma   90.01617141
_symmetry_Int_Tables_number   1
_chemical_formula_structural   LaEr3(WF7)4
_chemical_formula_sum   'La1 Er3 W4 F28'
_cell_volume   563.23167819
_cell_formula_units_Z   1
loop_
 _symmetry_equiv_pos_site_id
 _symmetry_equiv_pos_as_xyz
  1  'x, y, z'
loop_
 _atom_site_type_symbol
 _atom_site_label
 _atom_site_symmetry_multiplicity
 _atom_site_fract_x
 _atom_site_fract_y
 _atom_site_fract_z
 _atom_site_occupancy
  La  La0  1  0.761910  0.815680  0.766341  1
  Er  Er1  1  0.265623  0.194227  0.733357  1
  Er  Er2  1  0.238300  0.186421  0.234094  1
  Er  Er3  1  0.739060  0.816044  0.266190  1
  W  W4  1  0.757604  0.265913  0.959377  1
  W  W5  1  0.251339  0.726022  0.536764  1
  W  W6  1  0.243121  0.725414  0.051542  1
  W  W7  1  0.741768  0.278769  0.452438  1
  F  F8  1  0.442333  0.705237  0.925575  1
  F  F9  1  0.955310  0.290545  0.577246  1
  F  F10  1  0.546524  0.289143  0.080449  1
  F  F11  1  0.046617  0.706473  0.412513  1
  F  F12  1  0.453109  0.285476  0.553345  1
  F  F13  1  0.948530  0.712598  0.959717  1
  F  F14  1  0.552225  0.720214  0.443973  1
  F  F15  1  0.051350  0.275773  0.055882  1
  F  F16  1  0.767841  0.510509  0.859296  1
  F  F17  1  0.253901  0.479289  0.639655  1
  F  F18  1  0.244498  0.477889  0.146653  1
  F  F19  1  0.739706  0.524497  0.354713  1
  F  F20  1  0.758540  0.020201  0.057929  1
  F  F21  1  0.256650  0.972390  0.440919  1
  F  F22  1  0.243827  0.970501  0.948170  1
  F  F23  1  0.738142  0.033156  0.547948  1
  F  F24  1  0.962732  0.728372  0.635353  1
  F  F25  1  0.473161  0.269565  0.853508  1
  F  F26  1  0.017086  0.267933  0.346641  1
  F  F27  1  0.525927  0.733003  0.153659  1
  F  F28  1  0.040396  0.748884  0.176185  1
  F  F29  1  0.529957  0.254760  0.330213  1
  F  F30  1  0.965075  0.244816  0.834075  1
  F  F31  1  0.444719  0.743765  0.665875  1
  F  F32  1  0.434661  0.980697  0.234760  1
  F  F33  1  0.934165  0.021930  0.265417  1
  F  F34  1  0.576411  0.041275  0.768580  1
  F  F35  1  0.097885  0.982622  0.731650  1
