# generated using pymatgen
data_Ho3TmReB12Os
_symmetry_space_group_name_H-M   'P 1'
_cell_length_a   3.65146300
_cell_length_b   9.12983722
_cell_length_c   11.51218904
_cell_angle_alpha   90.14975083
_cell_angle_beta   90.00000000
_cell_angle_gamma   90.00000000
_symmetry_Int_Tables_number   1
_chemical_formula_structural   Ho3TmReB12Os
_chemical_formula_sum   'Ho6 Tm2 Re2 B24 Os2'
_cell_volume   383.78356079
_cell_formula_units_Z   2
loop_
 _symmetry_equiv_pos_site_id
 _symmetry_equiv_pos_as_xyz
  1  'x, y, z'
loop_
 _atom_site_type_symbol
 _atom_site_label
 _atom_site_symmetry_multiplicity
 _atom_site_fract_x
 _atom_site_fract_y
 _atom_site_fract_z
 _atom_site_occupancy
  Ho  Ho0  1  0.000000  0.320851  0.412313  1
  Ho  Ho1  1  0.000000  0.679149  0.587687  1
  Ho  Ho2  1  0.000000  0.824133  0.084639  1
  Ho  Ho3  1  0.000000  0.175867  0.915361  1
  Ho  Ho4  1  0.000000  0.943209  0.370534  1
  Ho  Ho5  1  0.000000  0.056791  0.629466  1
  Tm  Tm6  1  0.000000  0.442614  0.128545  1
  Tm  Tm7  1  0.000000  0.557386  0.871455  1
  Re  Re8  1  0.000000  0.139301  0.179419  1
  Re  Re9  1  0.000000  0.860699  0.820581  1
  B  B10  1  0.500000  0.553475  0.433036  1
  B  B11  1  0.500000  0.446525  0.566964  1
  B  B12  1  0.500000  0.053199  0.066843  1
  B  B13  1  0.500000  0.946801  0.933157  1
  B  B14  1  0.500000  0.748414  0.418757  1
  B  B15  1  0.500000  0.251586  0.581243  1
  B  B16  1  0.500000  0.249527  0.080932  1
  B  B17  1  0.500000  0.750473  0.919068  1
  B  B18  1  0.500000  0.790379  0.265683  1
  B  B19  1  0.500000  0.209621  0.734317  1
  B  B20  1  0.500000  0.292359  0.234487  1
  B  B21  1  0.500000  0.707641  0.765513  1
  B  B22  1  0.500000  0.630127  0.185567  1
  B  B23  1  0.500000  0.369873  0.814433  1
  B  B24  1  0.500000  0.131428  0.314768  1
  B  B25  1  0.500000  0.868572  0.685232  1
  B  B26  1  0.500000  0.982542  0.212351  1
  B  B27  1  0.500000  0.017458  0.787649  1
  B  B28  1  0.500000  0.482365  0.287592  1
  B  B29  1  0.500000  0.517635  0.712408  1
  B  B30  1  0.500000  0.601961  0.028550  1
  B  B31  1  0.500000  0.398039  0.971450  1
  B  B32  1  0.500000  0.103620  0.471463  1
  B  B33  1  0.500000  0.896380  0.528537  1
  Os  Os34  1  0.000000  0.636798  0.321323  1
  Os  Os35  1  0.000000  0.363202  0.678677  1
