# generated using pymatgen
data_SmTm(WN3)2
_symmetry_space_group_name_H-M   'P 1'
_cell_length_a   7.30322127
_cell_length_b   7.30323095
_cell_length_c   6.24130141
_cell_angle_alpha   74.71031127
_cell_angle_beta   74.71029492
_cell_angle_gamma   82.45747166
_symmetry_Int_Tables_number   1
_chemical_formula_structural   SmTm(WN3)2
_chemical_formula_sum   'Sm2 Tm2 W4 N12'
_cell_volume   309.06215890
_cell_formula_units_Z   2
loop_
 _symmetry_equiv_pos_site_id
 _symmetry_equiv_pos_as_xyz
  1  'x, y, z'
loop_
 _atom_site_type_symbol
 _atom_site_label
 _atom_site_symmetry_multiplicity
 _atom_site_fract_x
 _atom_site_fract_y
 _atom_site_fract_z
 _atom_site_occupancy
  Sm  Sm0  1  0.704593  0.295406  0.249999  1
  Sm  Sm1  1  0.295407  0.704594  0.750001  1
  Tm  Tm2  1  0.912602  0.087395  0.750002  1
  Tm  Tm3  1  0.087398  0.912605  0.249998  1
  W  W4  1  0.619468  0.800982  0.256829  1
  W  W5  1  0.199017  0.380532  0.243172  1
  W  W6  1  0.380532  0.199018  0.743171  1
  W  W7  1  0.800983  0.619468  0.756828  1
  N  N8  1  0.642582  0.642474  0.044251  1
  N  N9  1  0.376101  0.893724  0.332101  1
  N  N10  1  0.357526  0.357418  0.455748  1
  N  N11  1  0.106276  0.623900  0.167900  1
  N  N12  1  0.003482  0.213202  0.353510  1
  N  N13  1  0.786798  0.996517  0.146488  1
  N  N14  1  0.213202  0.003483  0.853512  1
  N  N15  1  0.623899  0.106276  0.667899  1
  N  N16  1  0.357418  0.357526  0.955749  1
  N  N17  1  0.893724  0.376100  0.832100  1
  N  N18  1  0.642474  0.642582  0.544252  1
  N  N19  1  0.996518  0.786798  0.646490  1
