# generated using pymatgen
data_Tb8Si13Pt3
_symmetry_space_group_name_H-M   'P 1'
_cell_length_a   8.13552500
_cell_length_b   8.13552497
_cell_length_c   8.13952100
_cell_angle_alpha   90.00000000
_cell_angle_beta   90.00000000
_cell_angle_gamma   120.00000419
_symmetry_Int_Tables_number   1
_chemical_formula_structural   Tb8Si13Pt3
_chemical_formula_sum   'Tb8 Si13 Pt3'
_cell_volume   466.55261474
_cell_formula_units_Z   1
loop_
 _symmetry_equiv_pos_site_id
 _symmetry_equiv_pos_as_xyz
  1  'x, y, z'
loop_
 _atom_site_type_symbol
 _atom_site_label
 _atom_site_symmetry_multiplicity
 _atom_site_fract_x
 _atom_site_fract_y
 _atom_site_fract_z
 _atom_site_occupancy
  Tb  Tb0  1  0.000000  0.000000  0.252650  1
  Tb  Tb1  1  0.000000  0.000000  0.747474  1
  Tb  Tb2  1  0.996631  0.498314  0.253119  1
  Tb  Tb3  1  0.501686  0.498314  0.253119  1
  Tb  Tb4  1  0.502029  0.004058  0.746789  1
  Tb  Tb5  1  0.501686  0.003369  0.253119  1
  Tb  Tb6  1  0.502029  0.497971  0.746789  1
  Tb  Tb7  1  0.995942  0.497971  0.746789  1
  Si  Si8  1  0.166337  0.332675  0.000425  1
  Si  Si9  1  0.667325  0.833663  0.000425  1
  Si  Si10  1  0.166400  0.332799  0.499977  1
  Si  Si11  1  0.331018  0.165510  0.999569  1
  Si  Si12  1  0.166337  0.833663  0.000425  1
  Si  Si13  1  0.667201  0.833600  0.499977  1
  Si  Si14  1  0.834490  0.668982  0.999569  1
  Si  Si15  1  0.331419  0.165710  0.500104  1
  Si  Si16  1  0.166400  0.833600  0.499977  1
  Si  Si17  1  0.834290  0.668581  0.500104  1
  Si  Si18  1  0.834490  0.165510  0.999569  1
  Si  Si19  1  0.834290  0.165710  0.500104  1
  Si  Si20  1  0.666667  0.333333  0.499137  1
  Pt  Pt21  1  0.333333  0.666667  0.999682  1
  Pt  Pt22  1  0.333333  0.666667  0.500712  1
  Pt  Pt23  1  0.666667  0.333333  0.000395  1
