# generated using pymatgen
data_Zr3Nb2Sn(B2Ru5)2
_symmetry_space_group_name_H-M   'P 1'
_cell_length_a   9.49590975
_cell_length_b   9.51644983
_cell_length_c   3.11203600
_cell_angle_alpha   90.00000000
_cell_angle_beta   90.00000000
_cell_angle_gamma   90.20890440
_symmetry_Int_Tables_number   1
_chemical_formula_structural   Zr3Nb2Sn(B2Ru5)2
_chemical_formula_sum   'Zr3 Nb2 Sn1 B4 Ru10'
_cell_volume   281.22457315
_cell_formula_units_Z   1
loop_
 _symmetry_equiv_pos_site_id
 _symmetry_equiv_pos_as_xyz
  1  'x, y, z'
loop_
 _atom_site_type_symbol
 _atom_site_label
 _atom_site_symmetry_multiplicity
 _atom_site_fract_x
 _atom_site_fract_y
 _atom_site_fract_z
 _atom_site_occupancy
  Zr  Zr0  1  0.822593  0.675342  0.000000  1
  Zr  Zr1  1  0.178785  0.324747  0.000000  1
  Zr  Zr2  1  0.324605  0.823251  0.000000  1
  Nb  Nb3  1  0.677240  0.175844  0.000000  1
  Nb  Nb4  1  0.001227  0.999730  0.000000  1
  Sn  Sn5  1  0.499003  0.502048  0.000000  1
  B  B6  1  0.620887  0.879688  0.000000  1
  B  B7  1  0.380652  0.122606  0.000000  1
  B  B8  1  0.120197  0.620356  0.000000  1
  B  B9  1  0.876756  0.378184  0.000000  1
  Ru  Ru10  1  0.573390  0.724017  0.500000  1
  Ru  Ru11  1  0.434228  0.276841  0.500000  1
  Ru  Ru12  1  0.066547  0.781046  0.500000  1
  Ru  Ru13  1  0.926356  0.216333  0.500000  1
  Ru  Ru14  1  0.276549  0.574011  0.500000  1
  Ru  Ru15  1  0.718260  0.417467  0.500000  1
  Ru  Ru16  1  0.219811  0.069326  0.500000  1
  Ru  Ru17  1  0.780847  0.936736  0.500000  1
  Ru  Ru18  1  0.504251  0.004063  0.500000  1
  Ru  Ru19  1  0.997818  0.498368  0.500000  1
