# generated using pymatgen
data_Y12Fe2I17
_symmetry_space_group_name_H-M   'P 1'
_cell_length_a   9.72940164
_cell_length_b   11.67994604
_cell_length_c   11.69527648
_cell_angle_alpha   93.50634531
_cell_angle_beta   104.69865737
_cell_angle_gamma   114.18055281
_symmetry_Int_Tables_number   1
_chemical_formula_structural   Y12Fe2I17
_chemical_formula_sum   'Y12 Fe2 I17'
_cell_volume   1152.04069612
_cell_formula_units_Z   1
loop_
 _symmetry_equiv_pos_site_id
 _symmetry_equiv_pos_as_xyz
  1  'x, y, z'
loop_
 _atom_site_type_symbol
 _atom_site_label
 _atom_site_symmetry_multiplicity
 _atom_site_fract_x
 _atom_site_fract_y
 _atom_site_fract_z
 _atom_site_occupancy
  Y  Y0  1  0.053636  0.503874  0.320596  1
  Y  Y1  1  0.993056  0.809898  0.587826  1
  Y  Y2  1  0.655277  0.241453  0.281009  1
  Y  Y3  1  0.006944  0.190102  0.412174  1
  Y  Y4  1  0.219127  0.670848  0.983591  1
  Y  Y5  1  0.256000  0.979086  0.889401  1
  Y  Y6  1  0.344723  0.758547  0.718991  1
  Y  Y7  1  0.946364  0.496126  0.679404  1
  Y  Y8  1  0.744000  0.020914  0.110599  1
  Y  Y9  1  0.141423  0.287106  0.154564  1
  Y  Y10  1  0.780873  0.329152  0.016409  1
  Y  Y11  1  0.858577  0.712894  0.845436  1
  Fe  Fe12  1  0.104154  0.737935  0.785611  1
  Fe  Fe13  1  0.895846  0.262065  0.214389  1
  I  I14  1  0.783128  0.528738  0.416959  1
  I  I15  1  0.641806  0.418272  0.760647  1
  I  I16  1  0.843508  0.894236  0.326349  1
  I  I17  1  0.327796  0.213138  0.368874  1
  I  I18  1  0.156492  0.105764  0.673651  1
  I  I19  1  0.586995  0.053209  0.842183  1
  I  I20  1  0.755540  0.185394  0.538797  1
  I  I21  1  0.551187  0.709091  0.953621  1
  I  I22  1  0.358194  0.581728  0.239353  1
  I  I23  1  0.216872  0.471262  0.583041  1
  I  I24  1  0.056612  0.366844  0.896366  1
  I  I25  1  0.448813  0.290909  0.046379  1
  I  I26  1  0.000000  0.000000  0.000000  1
  I  I27  1  0.244460  0.814606  0.461203  1
  I  I28  1  0.413005  0.946791  0.157817  1
  I  I29  1  0.672204  0.786862  0.631126  1
  I  I30  1  0.943388  0.633156  0.103634  1
