# generated using pymatgen
data_Rb4Sr2TiBi4
_symmetry_space_group_name_H-M   'P 1'
_cell_length_a   11.38967748
_cell_length_b   11.38967725
_cell_length_c   8.49327042
_cell_angle_alpha   87.78709088
_cell_angle_beta   87.78710094
_cell_angle_gamma   119.07650967
_symmetry_Int_Tables_number   1
_chemical_formula_structural   Rb4Sr2TiBi4
_chemical_formula_sum   'Rb8 Sr4 Ti2 Bi8'
_cell_volume   960.13371823
_cell_formula_units_Z   2
loop_
 _symmetry_equiv_pos_site_id
 _symmetry_equiv_pos_as_xyz
  1  'x, y, z'
loop_
 _atom_site_type_symbol
 _atom_site_label
 _atom_site_symmetry_multiplicity
 _atom_site_fract_x
 _atom_site_fract_y
 _atom_site_fract_z
 _atom_site_occupancy
  Rb  Rb0  1  0.048811  0.521228  0.619355  1
  Rb  Rb1  1  0.521228  0.048811  0.119355  1
  Rb  Rb2  1  0.281673  0.136431  0.843414  1
  Rb  Rb3  1  0.873208  0.732458  0.773916  1
  Rb  Rb4  1  0.858494  0.146058  0.815018  1
  Rb  Rb5  1  0.732458  0.873208  0.273916  1
  Rb  Rb6  1  0.136431  0.281673  0.343414  1
  Rb  Rb7  1  0.146058  0.858494  0.315018  1
  Sr  Sr8  1  0.471446  0.936616  0.613374  1
  Sr  Sr9  1  0.476540  0.522404  0.626619  1
  Sr  Sr10  1  0.936616  0.471446  0.113374  1
  Sr  Sr11  1  0.522404  0.476540  0.126619  1
  Ti  Ti12  1  0.662723  0.335133  0.511607  1
  Ti  Ti13  1  0.335133  0.662723  0.011607  1
  Bi  Bi14  1  0.596508  0.787714  0.870626  1
  Bi  Bi15  1  0.204232  0.397576  0.926940  1
  Bi  Bi16  1  0.196500  0.789135  0.904111  1
  Bi  Bi17  1  0.397576  0.204232  0.426940  1
  Bi  Bi18  1  0.787714  0.596508  0.370626  1
  Bi  Bi19  1  0.789135  0.196500  0.404111  1
  Bi  Bi20  1  0.667740  0.356930  0.840654  1
  Bi  Bi21  1  0.356930  0.667740  0.340654  1
