# generated using pymatgen
data_Tb8Ti8ReSi16W3
_symmetry_space_group_name_H-M   'P 1'
_cell_length_a   6.98480848
_cell_length_b   6.98480872
_cell_length_c   12.86231521
_cell_angle_alpha   89.94135858
_cell_angle_beta   90.05863970
_cell_angle_gamma   89.97717562
_symmetry_Int_Tables_number   1
_chemical_formula_structural   Tb8Ti8ReSi16W3
_chemical_formula_sum   'Tb8 Ti8 Re1 Si16 W3'
_cell_volume   627.52015440
_cell_formula_units_Z   1
loop_
 _symmetry_equiv_pos_site_id
 _symmetry_equiv_pos_as_xyz
  1  'x, y, z'
loop_
 _atom_site_type_symbol
 _atom_site_label
 _atom_site_symmetry_multiplicity
 _atom_site_fract_x
 _atom_site_fract_y
 _atom_site_fract_z
 _atom_site_occupancy
  Tb  Tb0  1  0.340853  0.000694  0.468169  1
  Tb  Tb1  1  0.499156  0.840449  0.717559  1
  Tb  Tb2  1  0.501215  0.159037  0.217919  1
  Tb  Tb3  1  0.840449  0.499156  0.282441  1
  Tb  Tb4  1  0.159037  0.501215  0.782081  1
  Tb  Tb5  1  0.659624  0.998877  0.967704  1
  Tb  Tb6  1  0.000694  0.340853  0.531831  1
  Tb  Tb7  1  0.998877  0.659624  0.032296  1
  Ti  Ti8  1  0.153531  0.008775  0.876429  1
  Ti  Ti9  1  0.491389  0.653282  0.127331  1
  Ti  Ti10  1  0.507960  0.345613  0.626388  1
  Ti  Ti11  1  0.653282  0.491389  0.872669  1
  Ti  Ti12  1  0.345613  0.507960  0.373612  1
  Ti  Ti13  1  0.847468  0.992617  0.376707  1
  Ti  Ti14  1  0.008775  0.153531  0.123571  1
  Ti  Ti15  1  0.992617  0.847468  0.623293  1
  Re  Re16  1  0.672393  0.672393  0.500000  1
  Si  Si17  1  0.200229  0.129747  0.684924  1
  Si  Si18  1  0.370549  0.700218  0.935047  1
  Si  Si19  1  0.628535  0.301360  0.434614  1
  Si  Si20  1  0.700218  0.370549  0.064953  1
  Si  Si21  1  0.301360  0.628535  0.565386  1
  Si  Si22  1  0.800121  0.870227  0.184940  1
  Si  Si23  1  0.129747  0.200229  0.315076  1
  Si  Si24  1  0.870227  0.800121  0.815060  1
  Si  Si25  1  0.291381  0.953144  0.065462  1
  Si  Si26  1  0.547276  0.790559  0.316417  1
  Si  Si27  1  0.453265  0.208439  0.815741  1
  Si  Si28  1  0.790559  0.547276  0.683583  1
  Si  Si29  1  0.208439  0.453265  0.184259  1
  Si  Si30  1  0.709292  0.046376  0.565667  1
  Si  Si31  1  0.953144  0.291381  0.934538  1
  Si  Si32  1  0.046376  0.709292  0.434333  1
  W  W33  1  0.326982  0.326982  0.000000  1
  W  W34  1  0.172724  0.826639  0.250352  1
  W  W35  1  0.826639  0.172724  0.749648  1
