# generated using pymatgen
data_Pr4Er5LuPb6
_symmetry_space_group_name_H-M   'P 1'
_cell_length_a   9.15064662
_cell_length_b   9.15064735
_cell_length_c   6.71848800
_cell_angle_alpha   90.00000000
_cell_angle_beta   90.00000000
_cell_angle_gamma   119.25162858
_symmetry_Int_Tables_number   1
_chemical_formula_structural   Pr4Er5LuPb6
_chemical_formula_sum   'Pr4 Er5 Lu1 Pb6'
_cell_volume   490.83065998
_cell_formula_units_Z   1
loop_
 _symmetry_equiv_pos_site_id
 _symmetry_equiv_pos_as_xyz
  1  'x, y, z'
loop_
 _atom_site_type_symbol
 _atom_site_label
 _atom_site_symmetry_multiplicity
 _atom_site_fract_x
 _atom_site_fract_y
 _atom_site_fract_z
 _atom_site_occupancy
  Pr  Pr0  1  0.237391  0.002451  0.750000  1
  Pr  Pr1  1  0.002451  0.237391  0.750000  1
  Pr  Pr2  1  0.763213  0.998343  0.250000  1
  Pr  Pr3  1  0.998343  0.763213  0.250000  1
  Er  Er4  1  0.666885  0.332779  0.000064  1
  Er  Er5  1  0.332779  0.666885  0.000064  1
  Er  Er6  1  0.332779  0.666885  0.499936  1
  Er  Er7  1  0.666885  0.332779  0.499936  1
  Er  Er8  1  0.755048  0.755048  0.750000  1
  Lu  Lu9  1  0.243985  0.243985  0.250000  1
  Pb  Pb10  1  0.404637  0.404637  0.750000  1
  Pb  Pb11  1  0.602885  0.996203  0.750000  1
  Pb  Pb12  1  0.996203  0.602885  0.750000  1
  Pb  Pb13  1  0.595150  0.595150  0.250000  1
  Pb  Pb14  1  0.397277  0.004090  0.250000  1
  Pb  Pb15  1  0.004090  0.397277  0.250000  1
