# generated using pymatgen
data_Tb12Tc3Ru
_symmetry_space_group_name_H-M   'P 1'
_cell_length_a   7.42393804
_cell_length_b   9.27421600
_cell_length_c   6.29371004
_cell_angle_alpha   90.00000000
_cell_angle_beta   90.01287049
_cell_angle_gamma   90.00000000
_symmetry_Int_Tables_number   1
_chemical_formula_structural   Tb12Tc3Ru
_chemical_formula_sum   'Tb12 Tc3 Ru1'
_cell_volume   433.32950933
_cell_formula_units_Z   1
loop_
 _symmetry_equiv_pos_site_id
 _symmetry_equiv_pos_as_xyz
  1  'x, y, z'
loop_
 _atom_site_type_symbol
 _atom_site_label
 _atom_site_symmetry_multiplicity
 _atom_site_fract_x
 _atom_site_fract_y
 _atom_site_fract_z
 _atom_site_occupancy
  Tb  Tb0  1  0.956598  0.750000  0.129880  1
  Tb  Tb1  1  0.676452  0.064713  0.166819  1
  Tb  Tb2  1  0.676452  0.435286  0.166819  1
  Tb  Tb3  1  0.175545  0.063755  0.334760  1
  Tb  Tb4  1  0.175545  0.436244  0.334760  1
  Tb  Tb5  1  0.457903  0.750000  0.366989  1
  Tb  Tb6  1  0.542087  0.250000  0.628324  1
  Tb  Tb7  1  0.824380  0.563115  0.665917  1
  Tb  Tb8  1  0.824380  0.936884  0.665917  1
  Tb  Tb9  1  0.324228  0.563360  0.835131  1
  Tb  Tb10  1  0.324228  0.936639  0.835131  1
  Tb  Tb11  1  0.040573  0.250000  0.872301  1
  Tc  Tc12  1  0.387217  0.250000  0.038000  1
  Tc  Tc13  1  0.885189  0.250000  0.460430  1
  Tc  Tc14  1  0.114372  0.750000  0.538884  1
  Ru  Ru15  1  0.614852  0.750000  0.959930  1
