# generated using pymatgen
data_Nd20RuRh11
_symmetry_space_group_name_H-M   'P 1'
_cell_length_a   11.25754100
_cell_length_b   11.25754100
_cell_length_c   6.58146300
_cell_angle_alpha   90.00000000
_cell_angle_beta   90.00000000
_cell_angle_gamma   90.00000000
_symmetry_Int_Tables_number   1
_chemical_formula_structural   Nd20RuRh11
_chemical_formula_sum   'Nd20 Ru1 Rh11'
_cell_volume   834.08347848
_cell_formula_units_Z   1
loop_
 _symmetry_equiv_pos_site_id
 _symmetry_equiv_pos_as_xyz
  1  'x, y, z'
loop_
 _atom_site_type_symbol
 _atom_site_label
 _atom_site_symmetry_multiplicity
 _atom_site_fract_x
 _atom_site_fract_y
 _atom_site_fract_z
 _atom_site_occupancy
  Nd  Nd0  1  0.089566  0.292841  0.118700  1
  Nd  Nd1  1  0.792841  0.410434  0.118700  1
  Nd  Nd2  1  0.207159  0.589566  0.118700  1
  Nd  Nd3  1  0.910434  0.707159  0.118700  1
  Nd  Nd4  1  0.409688  0.791410  0.383539  1
  Nd  Nd5  1  0.590312  0.208590  0.383539  1
  Nd  Nd6  1  0.291410  0.090312  0.383539  1
  Nd  Nd7  1  0.708590  0.909688  0.383539  1
  Nd  Nd8  1  0.409336  0.208800  0.883214  1
  Nd  Nd9  1  0.708800  0.090664  0.883214  1
  Nd  Nd10  1  0.291200  0.909336  0.883214  1
  Nd  Nd11  1  0.590664  0.791200  0.883214  1
  Nd  Nd12  1  0.089436  0.707080  0.614009  1
  Nd  Nd13  1  0.910564  0.292920  0.614009  1
  Nd  Nd14  1  0.207080  0.410564  0.614009  1
  Nd  Nd15  1  0.792920  0.589436  0.614009  1
  Nd  Nd16  1  0.000000  0.000000  0.000502  1
  Nd  Nd17  1  0.500000  0.500000  0.000502  1
  Nd  Nd18  1  0.500000  0.500000  0.500776  1
  Nd  Nd19  1  0.000000  0.000000  0.500776  1
  Ru  Ru20  1  0.000000  0.500000  0.377044  1
  Rh  Rh21  1  0.154953  0.846552  0.249643  1
  Rh  Rh22  1  0.346552  0.345047  0.249643  1
  Rh  Rh23  1  0.653448  0.654953  0.249643  1
  Rh  Rh24  1  0.845047  0.153448  0.249643  1
  Rh  Rh25  1  0.346453  0.654595  0.749888  1
  Rh  Rh26  1  0.154595  0.153547  0.749888  1
  Rh  Rh27  1  0.845405  0.846453  0.749888  1
  Rh  Rh28  1  0.653547  0.345405  0.749888  1
  Rh  Rh29  1  0.500000  0.000000  0.123401  1
  Rh  Rh30  1  0.500000  0.000000  0.623460  1
  Rh  Rh31  1  0.000000  0.500000  0.877567  1
