# generated using pymatgen
data_Sr20Si11Pb
_symmetry_space_group_name_H-M   'P 1'
_cell_length_a   8.11615400
_cell_length_b   8.11615400
_cell_length_c   16.02377100
_cell_angle_alpha   90.00000000
_cell_angle_beta   90.00000000
_cell_angle_gamma   90.00000000
_symmetry_Int_Tables_number   1
_chemical_formula_structural   Sr20Si11Pb
_chemical_formula_sum   'Sr20 Si11 Pb1'
_cell_volume   1055.51713429
_cell_formula_units_Z   1
loop_
 _symmetry_equiv_pos_site_id
 _symmetry_equiv_pos_as_xyz
  1  'x, y, z'
loop_
 _atom_site_type_symbol
 _atom_site_label
 _atom_site_symmetry_multiplicity
 _atom_site_fract_x
 _atom_site_fract_y
 _atom_site_fract_z
 _atom_site_occupancy
  Sr  Sr0  1  0.326735  0.684520  0.113031  1
  Sr  Sr1  1  0.184520  0.173265  0.113031  1
  Sr  Sr2  1  0.500000  0.000000  0.732413  1
  Sr  Sr3  1  0.320389  0.679316  0.392386  1
  Sr  Sr4  1  0.669172  0.689050  0.887176  1
  Sr  Sr5  1  0.179316  0.179611  0.392386  1
  Sr  Sr6  1  0.679611  0.320684  0.392386  1
  Sr  Sr7  1  0.174043  0.815789  0.607532  1
  Sr  Sr8  1  0.330828  0.310950  0.887176  1
  Sr  Sr9  1  0.189050  0.830828  0.887176  1
  Sr  Sr10  1  0.500000  0.000000  0.257464  1
  Sr  Sr11  1  0.825957  0.184211  0.607532  1
  Sr  Sr12  1  0.315789  0.325957  0.607532  1
  Sr  Sr13  1  0.820684  0.820389  0.392386  1
  Sr  Sr14  1  0.810950  0.169172  0.887176  1
  Sr  Sr15  1  0.815480  0.826735  0.113031  1
  Sr  Sr16  1  0.000000  0.500000  0.253185  1
  Sr  Sr17  1  0.000000  0.500000  0.754792  1
  Sr  Sr18  1  0.673265  0.315480  0.113031  1
  Sr  Sr19  1  0.684211  0.674043  0.607532  1
  Si  Si20  1  0.107570  0.107250  0.747066  1
  Si  Si21  1  0.392750  0.607570  0.747066  1
  Si  Si22  1  0.607354  0.607274  0.253056  1
  Si  Si23  1  0.500000  0.000000  0.002729  1
  Si  Si24  1  0.107274  0.892646  0.253056  1
  Si  Si25  1  0.607250  0.392430  0.747066  1
  Si  Si26  1  0.892430  0.892750  0.747066  1
  Si  Si27  1  0.392646  0.392726  0.253056  1
  Si  Si28  1  0.892726  0.107354  0.253056  1
  Si  Si29  1  0.500000  0.000000  0.500830  1
  Si  Si30  1  0.000000  0.500000  0.498715  1
  Pb  Pb31  1  0.000000  0.500000  0.998889  1
