# generated using pymatgen
data_Tb3ErAl13Ga11Pt9
_symmetry_space_group_name_H-M   'P 1'
_cell_length_a   7.49594845
_cell_length_b   7.51747009
_cell_length_c   13.34688054
_cell_angle_alpha   84.65356024
_cell_angle_beta   100.65862056
_cell_angle_gamma   119.73643885
_symmetry_Int_Tables_number   1
_chemical_formula_structural   Tb3ErAl13Ga11Pt9
_chemical_formula_sum   'Tb3 Er1 Al13 Ga11 Pt9'
_cell_volume   641.79590822
_cell_formula_units_Z   1
loop_
 _symmetry_equiv_pos_site_id
 _symmetry_equiv_pos_as_xyz
  1  'x, y, z'
loop_
 _atom_site_type_symbol
 _atom_site_label
 _atom_site_symmetry_multiplicity
 _atom_site_fract_x
 _atom_site_fract_y
 _atom_site_fract_z
 _atom_site_occupancy
  Tb  Tb0  1  0.735161  0.002112  0.191919  1
  Tb  Tb1  1  0.264579  0.999381  0.807391  1
  Tb  Tb2  1  0.062765  0.663811  0.190194  1
  Er  Er3  1  0.938463  0.336647  0.808459  1
  Al  Al4  1  0.770698  0.660855  0.331842  1
  Al  Al5  1  0.853237  0.331834  0.557553  1
  Al  Al6  1  0.186525  0.999592  0.557298  1
  Al  Al7  1  0.812294  0.998959  0.441359  1
  Al  Al8  1  0.352385  0.000571  0.054201  1
  Al  Al9  1  0.648634  0.001121  0.945650  1
  Al  Al10  1  0.557329  0.995188  0.669267  1
  Al  Al11  1  0.442747  0.004582  0.331256  1
  Al  Al12  1  0.519537  0.666126  0.559873  1
  Al  Al13  1  0.478281  0.332002  0.439988  1
  Al  Al14  1  0.685553  0.667583  0.049090  1
  Al  Al15  1  0.315952  0.334671  0.951481  1
  Al  Al16  1  0.145293  0.667245  0.441598  1
  Ga  Ga17  1  0.803503  0.874033  0.814752  1
  Ga  Ga18  1  0.196056  0.126228  0.185113  1
  Ga  Ga19  1  0.980760  0.666557  0.939423  1
  Ga  Ga20  1  0.020534  0.333596  0.060305  1
  Ga  Ga21  1  0.399827  0.664939  0.816276  1
  Ga  Ga22  1  0.600406  0.336870  0.184121  1
  Ga  Ga23  1  0.884267  0.665023  0.671232  1
  Ga  Ga24  1  0.115476  0.333866  0.329441  1
  Ga  Ga25  1  0.601082  0.459541  0.814838  1
  Ga  Ga26  1  0.402511  0.542060  0.185535  1
  Ga  Ga27  1  0.227919  0.336456  0.672282  1
  Pt  Pt28  1  0.335689  0.674008  0.001022  1
  Pt  Pt29  1  0.545807  0.323338  0.634009  1
  Pt  Pt30  1  0.456458  0.675536  0.366348  1
  Pt  Pt31  1  0.881848  0.005648  0.634618  1
  Pt  Pt32  1  0.113012  0.989711  0.364274  1
  Pt  Pt33  1  0.665238  0.326896  0.998903  1
  Pt  Pt34  1  0.209389  0.669540  0.635550  1
  Pt  Pt35  1  0.790232  0.332689  0.364323  1
  Pt  Pt36  1  0.000555  0.001182  0.999214  1
