# generated using pymatgen
data_Li3Tm4Ni17As12
_symmetry_space_group_name_H-M   'P 1'
_cell_length_a   3.86626300
_cell_length_b   10.77799041
_cell_length_c   12.29007927
_cell_angle_alpha   89.56477969
_cell_angle_beta   90.00000000
_cell_angle_gamma   90.00000000
_symmetry_Int_Tables_number   1
_chemical_formula_structural   Li3Tm4Ni17As12
_chemical_formula_sum   'Li3 Tm4 Ni17 As12'
_cell_volume   512.11953261
_cell_formula_units_Z   1
loop_
 _symmetry_equiv_pos_site_id
 _symmetry_equiv_pos_as_xyz
  1  'x, y, z'
loop_
 _atom_site_type_symbol
 _atom_site_label
 _atom_site_symmetry_multiplicity
 _atom_site_fract_x
 _atom_site_fract_y
 _atom_site_fract_z
 _atom_site_occupancy
  Li  Li0  1  0.250000  0.695446  0.991725  1
  Li  Li1  1  0.250000  0.802076  0.493210  1
  Li  Li2  1  0.750000  0.304279  0.006415  1
  Tm  Tm3  1  0.250000  0.576359  0.702375  1
  Tm  Tm4  1  0.250000  0.920561  0.202656  1
  Tm  Tm5  1  0.750000  0.421375  0.296587  1
  Tm  Tm6  1  0.750000  0.078703  0.795045  1
  Ni  Ni7  1  0.750000  0.205321  0.505616  1
  Ni  Ni8  1  0.250000  0.406067  0.485901  1
  Ni  Ni9  1  0.250000  0.093432  0.989302  1
  Ni  Ni10  1  0.750000  0.593834  0.513827  1
  Ni  Ni11  1  0.750000  0.909037  0.013921  1
  Ni  Ni12  1  0.250000  0.216589  0.177700  1
  Ni  Ni13  1  0.250000  0.280789  0.672489  1
  Ni  Ni14  1  0.750000  0.785251  0.827994  1
  Ni  Ni15  1  0.750000  0.714449  0.327139  1
  Ni  Ni16  1  0.250000  0.880170  0.701219  1
  Ni  Ni17  1  0.250000  0.621781  0.201970  1
  Ni  Ni18  1  0.750000  0.121117  0.300850  1
  Ni  Ni19  1  0.750000  0.377758  0.796837  1
  Ni  Ni20  1  0.250000  0.465169  0.928148  1
  Ni  Ni21  1  0.250000  0.030522  0.427211  1
  Ni  Ni22  1  0.750000  0.533886  0.071108  1
  Ni  Ni23  1  0.750000  0.969541  0.568788  1
  As  As24  1  0.250000  0.421672  0.117377  1
  As  As25  1  0.250000  0.081308  0.613082  1
  As  As26  1  0.750000  0.577565  0.881845  1
  As  As27  1  0.750000  0.918450  0.382141  1
  As  As28  1  0.250000  0.264792  0.862321  1
  As  As29  1  0.250000  0.234070  0.369423  1
  As  As30  1  0.750000  0.734040  0.137056  1
  As  As31  1  0.750000  0.767029  0.637957  1
  As  As32  1  0.250000  0.598656  0.393935  1
  As  As33  1  0.250000  0.901770  0.893929  1
  As  As34  1  0.750000  0.395458  0.604147  1
  As  As35  1  0.750000  0.101685  0.108756  1
