# generated using pymatgen
data_TaTi4GaSn3
_symmetry_space_group_name_H-M   'P 1'
_cell_length_a   8.27025800
_cell_length_b   8.27025891
_cell_length_c   5.57798600
_cell_angle_alpha   90.00000000
_cell_angle_beta   90.00000000
_cell_angle_gamma   120.00000435
_symmetry_Int_Tables_number   1
_chemical_formula_structural   TaTi4GaSn3
_chemical_formula_sum   'Ta2 Ti8 Ga2 Sn6'
_cell_volume   330.40468486
_cell_formula_units_Z   2
loop_
 _symmetry_equiv_pos_site_id
 _symmetry_equiv_pos_as_xyz
  1  'x, y, z'
loop_
 _atom_site_type_symbol
 _atom_site_label
 _atom_site_symmetry_multiplicity
 _atom_site_fract_x
 _atom_site_fract_y
 _atom_site_fract_z
 _atom_site_occupancy
  Ta  Ta0  1  0.666667  0.333333  0.000000  1
  Ta  Ta1  1  0.333333  0.666667  0.000000  1
  Ti  Ti2  1  0.730323  0.730323  0.753917  1
  Ti  Ti3  1  0.269677  0.000000  0.753917  1
  Ti  Ti4  1  0.000000  0.269677  0.753917  1
  Ti  Ti5  1  0.269677  0.269677  0.246083  1
  Ti  Ti6  1  0.730323  0.000000  0.246083  1
  Ti  Ti7  1  0.000000  0.730323  0.246083  1
  Ti  Ti8  1  0.333333  0.666667  0.500000  1
  Ti  Ti9  1  0.666667  0.333333  0.500000  1
  Ga  Ga10  1  0.000000  0.000000  0.000000  1
  Ga  Ga11  1  0.000000  0.000000  0.500000  1
  Sn  Sn12  1  0.386455  0.386455  0.746174  1
  Sn  Sn13  1  0.613545  0.000000  0.746174  1
  Sn  Sn14  1  0.000000  0.613545  0.746174  1
  Sn  Sn15  1  0.613545  0.613545  0.253826  1
  Sn  Sn16  1  0.386455  0.000000  0.253826  1
  Sn  Sn17  1  0.000000  0.386455  0.253826  1
