# generated using pymatgen
data_PrEr3(Si3Ir)2
_symmetry_space_group_name_H-M   'P 1'
_cell_length_a   8.17831700
_cell_length_b   8.17830042
_cell_length_c   8.00035100
_cell_angle_alpha   90.00000000
_cell_angle_beta   90.00000000
_cell_angle_gamma   120.00004793
_symmetry_Int_Tables_number   1
_chemical_formula_structural   PrEr3(Si3Ir)2
_chemical_formula_sum   'Pr2 Er6 Si12 Ir4'
_cell_volume   463.41113298
_cell_formula_units_Z   2
loop_
 _symmetry_equiv_pos_site_id
 _symmetry_equiv_pos_as_xyz
  1  'x, y, z'
loop_
 _atom_site_type_symbol
 _atom_site_label
 _atom_site_symmetry_multiplicity
 _atom_site_fract_x
 _atom_site_fract_y
 _atom_site_fract_z
 _atom_site_occupancy
  Pr  Pr0  1  0.000000  0.000000  0.250000  1
  Pr  Pr1  1  0.000000  0.000000  0.750000  1
  Er  Er2  1  0.491503  0.508497  0.250000  1
  Er  Er3  1  0.491503  0.983005  0.250000  1
  Er  Er4  1  0.016995  0.508497  0.250000  1
  Er  Er5  1  0.508497  0.491503  0.750000  1
  Er  Er6  1  0.983005  0.491503  0.750000  1
  Er  Er7  1  0.508497  0.016995  0.750000  1
  Si  Si8  1  0.831237  0.168764  0.502984  1
  Si  Si9  1  0.831236  0.662474  0.502984  1
  Si  Si10  1  0.337527  0.168764  0.502984  1
  Si  Si11  1  0.831237  0.168764  0.997016  1
  Si  Si12  1  0.831236  0.662474  0.997016  1
  Si  Si13  1  0.337527  0.168764  0.997016  1
  Si  Si14  1  0.168763  0.831236  0.002984  1
  Si  Si15  1  0.662473  0.831236  0.002984  1
  Si  Si16  1  0.168764  0.337526  0.002984  1
  Si  Si17  1  0.168763  0.831236  0.497016  1
  Si  Si18  1  0.662473  0.831236  0.497016  1
  Si  Si19  1  0.168764  0.337526  0.497016  1
  Ir  Ir20  1  0.666665  0.333332  0.464092  1
  Ir  Ir21  1  0.666665  0.333332  0.035908  1
  Ir  Ir22  1  0.333335  0.666668  0.964092  1
  Ir  Ir23  1  0.333335  0.666668  0.535908  1
