# generated using pymatgen
data_Lu2ZrSn3Rh10
_symmetry_space_group_name_H-M   'P 1'
_cell_length_a   5.64624480
_cell_length_b   5.64709497
_cell_length_c   8.45831101
_cell_angle_alpha   89.99322434
_cell_angle_beta   89.93951751
_cell_angle_gamma   97.95077302
_symmetry_Int_Tables_number   1
_chemical_formula_structural   Lu2ZrSn3Rh10
_chemical_formula_sum   'Lu2 Zr1 Sn3 Rh10'
_cell_volume   267.09960171
_cell_formula_units_Z   1
loop_
 _symmetry_equiv_pos_site_id
 _symmetry_equiv_pos_as_xyz
  1  'x, y, z'
loop_
 _atom_site_type_symbol
 _atom_site_label
 _atom_site_symmetry_multiplicity
 _atom_site_fract_x
 _atom_site_fract_y
 _atom_site_fract_z
 _atom_site_occupancy
  Lu  Lu0  1  0.781029  0.218940  0.499978  1
  Lu  Lu1  1  0.218896  0.781143  0.999927  1
  Zr  Zr2  1  0.784365  0.215579  0.000035  1
  Sn  Sn3  1  0.507676  0.492150  0.751508  1
  Sn  Sn4  1  0.508270  0.492503  0.248440  1
  Sn  Sn5  1  0.207689  0.791491  0.500156  1
  Rh  Rh6  1  0.724687  0.726141  0.999858  1
  Rh  Rh7  1  0.720418  0.723353  0.500098  1
  Rh  Rh8  1  0.274068  0.275432  0.000106  1
  Rh  Rh9  1  0.276870  0.279086  0.499864  1
  Rh  Rh10  1  0.495197  0.989692  0.748741  1
  Rh  Rh11  1  0.494890  0.989611  0.251257  1
  Rh  Rh12  1  0.992465  0.007545  0.245446  1
  Rh  Rh13  1  0.992688  0.007599  0.754564  1
  Rh  Rh14  1  0.010231  0.504807  0.748832  1
  Rh  Rh15  1  0.010560  0.504927  0.251191  1
