# generated using pymatgen
data_Tb9Y3B2(CCl6)2
_symmetry_space_group_name_H-M   'P 1'
_cell_length_a   9.35254351
_cell_length_b   9.35395298
_cell_length_c   9.42989750
_cell_angle_alpha   109.51566454
_cell_angle_beta   109.50962918
_cell_angle_gamma   109.05620934
_symmetry_Int_Tables_number   1
_chemical_formula_structural   Tb9Y3B2(CCl6)2
_chemical_formula_sum   'Tb9 Y3 B2 C2 Cl12'
_cell_volume   637.63290153
_cell_formula_units_Z   1
loop_
 _symmetry_equiv_pos_site_id
 _symmetry_equiv_pos_as_xyz
  1  'x, y, z'
loop_
 _atom_site_type_symbol
 _atom_site_label
 _atom_site_symmetry_multiplicity
 _atom_site_fract_x
 _atom_site_fract_y
 _atom_site_fract_z
 _atom_site_occupancy
  Tb  Tb0  1  0.467648  0.479206  0.235776  1
  Tb  Tb1  1  0.743439  0.231839  0.264157  1
  Tb  Tb2  1  0.744235  0.014406  0.479402  1
  Tb  Tb3  1  0.235168  0.464999  0.479402  1
  Tb  Tb4  1  0.268128  0.756570  0.235776  1
  Tb  Tb5  1  0.034861  0.264829  0.020478  1
  Tb  Tb6  1  0.020718  0.032317  0.264157  1
  Tb  Tb7  1  0.485615  0.755649  0.020478  1
  Tb  Tb8  1  0.481071  0.231071  0.462143  1
  Y  Y9  1  0.014509  0.485321  0.749958  1
  Y  Y10  1  0.269240  0.019240  0.038481  1
  Y  Y11  1  0.235449  0.264637  0.749958  1
  B  B12  1  0.999445  0.249445  0.498891  1
  B  B13  1  0.250520  0.500520  0.001040  1
  C  C14  1  0.249570  0.250301  0.249833  1
  C  C15  1  0.500263  0.999532  0.249833  1
  Cl  Cl16  1  0.251921  0.758961  0.746922  1
  Cl  Cl17  1  0.511980  0.505363  0.753395  1
  Cl  Cl18  1  0.988281  0.745777  0.993640  1
  Cl  Cl19  1  0.741415  0.248032  0.753395  1
  Cl  Cl20  1  0.995002  0.987961  0.746922  1
  Cl  Cl21  1  0.251859  0.994336  0.506188  1
  Cl  Cl22  1  0.754328  0.511852  0.506188  1
  Cl  Cl23  1  0.505359  0.247863  0.993640  1
  Cl  Cl24  1  0.755485  0.744496  0.249982  1
  Cl  Cl25  1  0.744391  0.994391  0.988781  1
  Cl  Cl26  1  0.994496  0.505486  0.249982  1
  Cl  Cl27  1  0.505600  0.755600  0.511200  1
