# generated using pymatgen
data_Sc3Pa(Ta3Ge4)2
_symmetry_space_group_name_H-M   'P 1'
_cell_length_a   6.92180700
_cell_length_b   7.04045721
_cell_length_c   13.39603285
_cell_angle_alpha   90.13918451
_cell_angle_beta   90.00000000
_cell_angle_gamma   90.00000000
_symmetry_Int_Tables_number   1
_chemical_formula_structural   Sc3Pa(Ta3Ge4)2
_chemical_formula_sum   'Sc6 Pa2 Ta12 Ge16'
_cell_volume   652.82273630
_cell_formula_units_Z   2
loop_
 _symmetry_equiv_pos_site_id
 _symmetry_equiv_pos_as_xyz
  1  'x, y, z'
loop_
 _atom_site_type_symbol
 _atom_site_label
 _atom_site_symmetry_multiplicity
 _atom_site_fract_x
 _atom_site_fract_y
 _atom_site_fract_z
 _atom_site_occupancy
  Sc  Sc0  1  0.510149  0.323368  0.096646  1
  Sc  Sc1  1  0.010149  0.176632  0.403354  1
  Sc  Sc2  1  0.509469  0.324400  0.404773  1
  Sc  Sc3  1  0.009469  0.175600  0.095227  1
  Sc  Sc4  1  0.484521  0.677895  0.907745  1
  Sc  Sc5  1  0.984521  0.822105  0.592255  1
  Pa  Pa6  1  0.493356  0.673782  0.589443  1
  Pa  Pa7  1  0.993356  0.826218  0.910557  1
  Ta  Ta8  1  0.649234  0.168960  0.626108  1
  Ta  Ta9  1  0.149234  0.331040  0.873892  1
  Ta  Ta10  1  0.338897  0.831251  0.125418  1
  Ta  Ta11  1  0.838897  0.668749  0.374582  1
  Ta  Ta12  1  0.346766  0.829989  0.374658  1
  Ta  Ta13  1  0.846766  0.670011  0.125342  1
  Ta  Ta14  1  0.664180  0.163276  0.875796  1
  Ta  Ta15  1  0.164180  0.336724  0.624204  1
  Ta  Ta16  1  0.831609  0.492151  0.751663  1
  Ta  Ta17  1  0.331609  0.007849  0.748337  1
  Ta  Ta18  1  0.168206  0.510757  0.248918  1
  Ta  Ta19  1  0.668206  0.989243  0.251082  1
  Ge  Ge20  1  0.686533  0.969858  0.457385  1
  Ge  Ge21  1  0.186533  0.530142  0.042615  1
  Ge  Ge22  1  0.328278  0.045631  0.961029  1
  Ge  Ge23  1  0.828278  0.454369  0.538971  1
  Ge  Ge24  1  0.307966  0.039655  0.538589  1
  Ge  Ge25  1  0.807966  0.460345  0.961411  1
  Ge  Ge26  1  0.679774  0.964850  0.045584  1
  Ge  Ge27  1  0.179774  0.535150  0.454416  1
  Ge  Ge28  1  0.457312  0.382152  0.755167  1
  Ge  Ge29  1  0.957312  0.117848  0.744833  1
  Ge  Ge30  1  0.543000  0.613830  0.248706  1
  Ge  Ge31  1  0.043000  0.886170  0.251294  1
  Ge  Ge32  1  0.690328  0.854161  0.752971  1
  Ge  Ge33  1  0.190328  0.645839  0.747029  1
  Ge  Ge34  1  0.310421  0.149039  0.249779  1
  Ge  Ge35  1  0.810421  0.350961  0.250221  1
