# generated using pymatgen
data_Er2TmIn3Ag2Au
_symmetry_space_group_name_H-M   'P 1'
_cell_length_a   7.82566802
_cell_length_b   7.83151048
_cell_length_c   3.89742000
_cell_angle_alpha   90.00000000
_cell_angle_beta   90.00000000
_cell_angle_gamma   120.02123009
_symmetry_Int_Tables_number   1
_chemical_formula_structural   Er2TmIn3Ag2Au
_chemical_formula_sum   'Er2 Tm1 In3 Ag2 Au1'
_cell_volume   206.81491077
_cell_formula_units_Z   1
loop_
 _symmetry_equiv_pos_site_id
 _symmetry_equiv_pos_as_xyz
  1  'x, y, z'
loop_
 _atom_site_type_symbol
 _atom_site_label
 _atom_site_symmetry_multiplicity
 _atom_site_fract_x
 _atom_site_fract_y
 _atom_site_fract_z
 _atom_site_occupancy
  Er  Er0  1  0.401320  0.408645  0.500000  1
  Er  Er1  1  0.591572  0.992727  0.500000  1
  Tm  Tm2  1  0.007439  0.599044  0.500000  1
  In  In3  1  0.740348  0.733619  0.000000  1
  In  In4  1  0.266025  0.006279  0.000000  1
  In  In5  1  0.993862  0.259842  0.000000  1
  Ag  Ag6  1  0.667613  0.334104  0.000000  1
  Ag  Ag7  1  0.999760  0.999425  0.500000  1
  Au  Au8  1  0.332059  0.666312  0.000000  1
