# generated using pymatgen
data_DyTm3Tc4F28
_symmetry_space_group_name_H-M   'P 1'
_cell_length_a   5.54018762
_cell_length_b   8.82647372
_cell_length_c   11.94021266
_cell_angle_alpha   62.72706752
_cell_angle_beta   90.03770042
_cell_angle_gamma   90.00179014
_symmetry_Int_Tables_number   1
_chemical_formula_structural   DyTm3Tc4F28
_chemical_formula_sum   'Dy1 Tm3 Tc4 F28'
_cell_volume   518.97234760
_cell_formula_units_Z   1
loop_
 _symmetry_equiv_pos_site_id
 _symmetry_equiv_pos_as_xyz
  1  'x, y, z'
loop_
 _atom_site_type_symbol
 _atom_site_label
 _atom_site_symmetry_multiplicity
 _atom_site_fract_x
 _atom_site_fract_y
 _atom_site_fract_z
 _atom_site_occupancy
  Dy  Dy0  1  0.741471  0.814939  0.264625  1
  Tm  Tm1  1  0.758534  0.814986  0.764425  1
  Tm  Tm2  1  0.258682  0.185369  0.735641  1
  Tm  Tm3  1  0.240816  0.187438  0.235383  1
  Tc  Tc4  1  0.758813  0.274054  0.956121  1
  Tc  Tc5  1  0.258120  0.726772  0.544607  1
  Tc  Tc6  1  0.242296  0.726881  0.041575  1
  Tc  Tc7  1  0.741603  0.271284  0.457687  1
  F  F8  1  0.443649  0.706333  0.914768  1
  F  F9  1  0.944147  0.292705  0.583944  1
  F  F10  1  0.556658  0.293995  0.083051  1
  F  F11  1  0.058468  0.705951  0.417220  1
  F  F12  1  0.443132  0.274302  0.547380  1
  F  F13  1  0.942058  0.724986  0.952611  1
  F  F14  1  0.556729  0.723266  0.456025  1
  F  F15  1  0.057228  0.275884  0.046354  1
  F  F16  1  0.775648  0.523619  0.858279  1
  F  F17  1  0.274425  0.476760  0.642108  1
  F  F18  1  0.224585  0.477158  0.140467  1
  F  F19  1  0.723546  0.520327  0.359523  1
  F  F20  1  0.755957  0.025846  0.052145  1
  F  F21  1  0.256021  0.974883  0.447088  1
  F  F22  1  0.244750  0.975254  0.945604  1
  F  F23  1  0.744246  0.023081  0.554329  1
  F  F24  1  0.970734  0.728648  0.640371  1
  F  F25  1  0.472263  0.271592  0.859760  1
  F  F26  1  0.028685  0.271378  0.360955  1
  F  F27  1  0.529999  0.727160  0.137218  1
  F  F28  1  0.049516  0.746349  0.173071  1
  F  F29  1  0.544770  0.251434  0.326873  1
  F  F30  1  0.955832  0.253056  0.825937  1
  F  F31  1  0.454350  0.747438  0.674976  1
  F  F32  1  0.415071  0.973585  0.232039  1
  F  F33  1  0.920465  0.032966  0.267738  1
  F  F34  1  0.578445  0.028092  0.767307  1
  F  F35  1  0.078288  0.972227  0.732798  1
