# generated using pymatgen
data_Dy8Zn2CuSi12Pd
_symmetry_space_group_name_H-M   'P 1'
_cell_length_a   8.08493100
_cell_length_b   8.08493207
_cell_length_c   8.10685500
_cell_angle_alpha   90.00000000
_cell_angle_beta   90.00000000
_cell_angle_gamma   120.00000791
_symmetry_Int_Tables_number   1
_chemical_formula_structural   Dy8Zn2CuSi12Pd
_chemical_formula_sum   'Dy8 Zn2 Cu1 Si12 Pd1'
_cell_volume   458.91863726
_cell_formula_units_Z   1
loop_
 _symmetry_equiv_pos_site_id
 _symmetry_equiv_pos_as_xyz
  1  'x, y, z'
loop_
 _atom_site_type_symbol
 _atom_site_label
 _atom_site_symmetry_multiplicity
 _atom_site_fract_x
 _atom_site_fract_y
 _atom_site_fract_z
 _atom_site_occupancy
  Dy  Dy0  1  0.500193  0.499807  0.751594  1
  Dy  Dy1  1  0.500577  0.499423  0.248444  1
  Dy  Dy2  1  0.999615  0.499807  0.751594  1
  Dy  Dy3  1  0.998846  0.499423  0.248444  1
  Dy  Dy4  1  0.500193  0.000385  0.751594  1
  Dy  Dy5  1  0.500577  0.001154  0.248444  1
  Dy  Dy6  1  0.000000  0.000000  0.751243  1
  Dy  Dy7  1  0.000000  0.000000  0.248731  1
  Zn  Zn8  1  0.333333  0.666667  0.001585  1
  Zn  Zn9  1  0.333333  0.666667  0.499387  1
  Cu  Cu10  1  0.666667  0.333333  0.998271  1
  Si  Si11  1  0.828728  0.171272  0.000636  1
  Si  Si12  1  0.164701  0.835299  0.999409  1
  Si  Si13  1  0.342545  0.171272  0.000636  1
  Si  Si14  1  0.164553  0.835447  0.499546  1
  Si  Si15  1  0.670597  0.835299  0.999409  1
  Si  Si16  1  0.832358  0.167642  0.500616  1
  Si  Si17  1  0.828728  0.657455  0.000636  1
  Si  Si18  1  0.670895  0.835447  0.499546  1
  Si  Si19  1  0.164701  0.329403  0.999409  1
  Si  Si20  1  0.335286  0.167642  0.500616  1
  Si  Si21  1  0.164553  0.329105  0.499546  1
  Si  Si22  1  0.832358  0.664714  0.500616  1
  Pd  Pd23  1  0.666667  0.333333  0.500045  1
