# generated using pymatgen
data_LiY19(Cd3Ni)2
_symmetry_space_group_name_H-M   'P 1'
_cell_length_a   9.61169000
_cell_length_b   9.61168975
_cell_length_c   9.72523100
_cell_angle_alpha   90.00000000
_cell_angle_beta   90.00000000
_cell_angle_gamma   119.99999398
_symmetry_Int_Tables_number   1
_chemical_formula_structural   LiY19(Cd3Ni)2
_chemical_formula_sum   'Li1 Y19 Cd6 Ni2'
_cell_volume   778.09044657
_cell_formula_units_Z   1
loop_
 _symmetry_equiv_pos_site_id
 _symmetry_equiv_pos_as_xyz
  1  'x, y, z'
loop_
 _atom_site_type_symbol
 _atom_site_label
 _atom_site_symmetry_multiplicity
 _atom_site_fract_x
 _atom_site_fract_y
 _atom_site_fract_z
 _atom_site_occupancy
  Li  Li0  1  0.000000  0.000000  0.500000  1
  Y  Y1  1  0.000000  0.000000  0.000000  1
  Y  Y2  1  0.543533  0.456467  0.253852  1
  Y  Y3  1  0.543533  0.087065  0.253852  1
  Y  Y4  1  0.912935  0.456467  0.253852  1
  Y  Y5  1  0.456467  0.543533  0.746148  1
  Y  Y6  1  0.456467  0.912935  0.746148  1
  Y  Y7  1  0.087065  0.543533  0.746148  1
  Y  Y8  1  0.207705  0.792295  0.434191  1
  Y  Y9  1  0.207705  0.415412  0.434191  1
  Y  Y10  1  0.584588  0.792295  0.434191  1
  Y  Y11  1  0.792295  0.207705  0.565809  1
  Y  Y12  1  0.792295  0.584588  0.565809  1
  Y  Y13  1  0.415412  0.207705  0.565809  1
  Y  Y14  1  0.788902  0.211098  0.941498  1
  Y  Y15  1  0.788902  0.577803  0.941498  1
  Y  Y16  1  0.422197  0.211098  0.941498  1
  Y  Y17  1  0.211098  0.788902  0.058502  1
  Y  Y18  1  0.211098  0.422197  0.058502  1
  Y  Y19  1  0.577803  0.788902  0.058502  1
  Cd  Cd20  1  0.888585  0.111415  0.260104  1
  Cd  Cd21  1  0.888585  0.777170  0.260104  1
  Cd  Cd22  1  0.222830  0.111415  0.260104  1
  Cd  Cd23  1  0.111415  0.888585  0.739896  1
  Cd  Cd24  1  0.111415  0.222830  0.739896  1
  Cd  Cd25  1  0.777170  0.888585  0.739896  1
  Ni  Ni26  1  0.333333  0.666667  0.250362  1
  Ni  Ni27  1  0.666667  0.333333  0.749638  1
