# generated using pymatgen
data_LaTh3(Ga8Pt3)3
_symmetry_space_group_name_H-M   'P 1'
_cell_length_a   7.65964402
_cell_length_b   7.67440948
_cell_length_c   13.30670486
_cell_angle_alpha   84.48347921
_cell_angle_beta   79.01116292
_cell_angle_gamma   59.99912902
_symmetry_Int_Tables_number   1
_chemical_formula_structural   LaTh3(Ga8Pt3)3
_chemical_formula_sum   'La1 Th3 Ga24 Pt9'
_cell_volume   664.98785086
_cell_formula_units_Z   1
loop_
 _symmetry_equiv_pos_site_id
 _symmetry_equiv_pos_as_xyz
  1  'x, y, z'
loop_
 _atom_site_type_symbol
 _atom_site_label
 _atom_site_symmetry_multiplicity
 _atom_site_fract_x
 _atom_site_fract_y
 _atom_site_fract_z
 _atom_site_occupancy
  La  La0  1  0.267418  0.500754  0.191133  1
  Th  Th1  1  0.397962  0.167671  0.807067  1
  Th  Th2  1  0.601840  0.832399  0.193360  1
  Th  Th3  1  0.733159  0.499331  0.806942  1
  Ga  Ga4  1  0.687907  0.833516  0.941529  1
  Ga  Ga5  1  0.312019  0.166987  0.058820  1
  Ga  Ga6  1  0.144582  0.835046  0.560455  1
  Ga  Ga7  1  0.855155  0.165610  0.439059  1
  Ga  Ga8  1  0.480881  0.167340  0.556710  1
  Ga  Ga9  1  0.519438  0.832859  0.443461  1
  Ga  Ga10  1  0.214877  0.168022  0.331461  1
  Ga  Ga11  1  0.785453  0.834273  0.669440  1
  Ga  Ga12  1  0.435572  0.508640  0.669422  1
  Ga  Ga13  1  0.560827  0.492003  0.331507  1
  Ga  Ga14  1  0.110393  0.158551  0.668648  1
  Ga  Ga15  1  0.891683  0.838488  0.332663  1
  Ga  Ga16  1  0.351548  0.502072  0.941616  1
  Ga  Ga17  1  0.647994  0.498134  0.058069  1
  Ga  Ga18  1  0.018973  0.165703  0.946599  1
  Ga  Ga19  1  0.981047  0.833514  0.054006  1
  Ga  Ga20  1  0.186657  0.500206  0.442568  1
  Ga  Ga21  1  0.813806  0.499258  0.556825  1
  Ga  Ga22  1  0.737384  0.161974  0.182464  1
  Ga  Ga23  1  0.263374  0.836319  0.817463  1
  Ga  Ga24  1  0.063064  0.635294  0.816234  1
  Ga  Ga25  1  0.935172  0.366337  0.183393  1
  Ga  Ga26  1  0.864803  0.035470  0.815949  1
  Ga  Ga27  1  0.136653  0.964636  0.183823  1
  Pt  Pt28  1  0.119971  0.493469  0.639602  1
  Pt  Pt29  1  0.877276  0.506064  0.361414  1
  Pt  Pt30  1  0.661209  0.169737  0.996974  1
  Pt  Pt31  1  0.340338  0.830575  0.000406  1
  Pt  Pt32  1  0.541476  0.163733  0.361725  1
  Pt  Pt33  1  0.461049  0.833823  0.639583  1
  Pt  Pt34  1  0.779828  0.174138  0.638346  1
  Pt  Pt35  1  0.219220  0.828603  0.363030  1
  Pt  Pt36  1  0.999990  0.499450  0.998235  1
