# generated using pymatgen
data_Be3Ga(SiRh3)2
_symmetry_space_group_name_H-M   'P 1'
_cell_length_a   4.07776500
_cell_length_b   5.78612400
_cell_length_c   12.25329701
_cell_angle_alpha   90.00000000
_cell_angle_beta   90.00333668
_cell_angle_gamma   90.00000000
_symmetry_Int_Tables_number   1
_chemical_formula_structural   Be3Ga(SiRh3)2
_chemical_formula_sum   'Be6 Ga2 Si4 Rh12'
_cell_volume   289.10985135
_cell_formula_units_Z   2
loop_
 _symmetry_equiv_pos_site_id
 _symmetry_equiv_pos_as_xyz
  1  'x, y, z'
loop_
 _atom_site_type_symbol
 _atom_site_label
 _atom_site_symmetry_multiplicity
 _atom_site_fract_x
 _atom_site_fract_y
 _atom_site_fract_z
 _atom_site_occupancy
  Be  Be0  1  0.999990  0.500000  0.001750  1
  Be  Be1  1  0.499679  0.000000  0.164918  1
  Be  Be2  1  0.999606  0.500000  0.331117  1
  Be  Be3  1  0.499992  0.000000  0.499807  1
  Be  Be4  1  0.000346  0.500000  0.666860  1
  Be  Be5  1  0.500370  0.000000  0.835540  1
  Ga  Ga6  1  0.000030  0.000000  0.999825  1
  Ga  Ga7  1  0.499735  0.500000  0.166841  1
  Si  Si8  1  0.999749  0.000000  0.334486  1
  Si  Si9  1  0.499995  0.500000  0.500517  1
  Si  Si10  1  0.000244  0.000000  0.666149  1
  Si  Si11  1  0.500258  0.500000  0.832182  1
  Rh  Rh12  1  0.500043  0.254645  0.994253  1
  Rh  Rh13  1  0.500043  0.745355  0.994253  1
  Rh  Rh14  1  0.999769  0.245349  0.172413  1
  Rh  Rh15  1  0.999769  0.754652  0.172413  1
  Rh  Rh16  1  0.499815  0.247021  0.340395  1
  Rh  Rh17  1  0.499815  0.752980  0.340395  1
  Rh  Rh18  1  0.999996  0.250305  0.502031  1
  Rh  Rh19  1  0.999996  0.749696  0.502031  1
  Rh  Rh20  1  0.500176  0.249698  0.664638  1
  Rh  Rh21  1  0.500176  0.750303  0.664638  1
  Rh  Rh22  1  0.000203  0.252982  0.826273  1
  Rh  Rh23  1  0.000203  0.747019  0.826273  1
