# generated using pymatgen
data_Yb8CoAuO12
_symmetry_space_group_name_H-M   'P 1'
_cell_length_a   6.41579516
_cell_length_b   6.41579427
_cell_length_c   6.41579600
_cell_angle_alpha   90.30206415
_cell_angle_beta   90.30205517
_cell_angle_gamma   90.30206605
_symmetry_Int_Tables_number   1
_chemical_formula_structural   Yb8CoAuO12
_chemical_formula_sum   'Yb8 Co1 Au1 O12'
_cell_volume   264.07865217
_cell_formula_units_Z   1
loop_
 _symmetry_equiv_pos_site_id
 _symmetry_equiv_pos_as_xyz
  1  'x, y, z'
loop_
 _atom_site_type_symbol
 _atom_site_label
 _atom_site_symmetry_multiplicity
 _atom_site_fract_x
 _atom_site_fract_y
 _atom_site_fract_z
 _atom_site_occupancy
  Yb  Yb0  1  0.733764  0.125027  0.385914  1
  Yb  Yb1  1  0.385914  0.733764  0.125027  1
  Yb  Yb2  1  0.125027  0.385914  0.733764  1
  Yb  Yb3  1  0.266236  0.874973  0.614086  1
  Yb  Yb4  1  0.614086  0.266236  0.874973  1
  Yb  Yb5  1  0.874973  0.614086  0.266236  1
  Yb  Yb6  1  0.256702  0.256702  0.256702  1
  Yb  Yb7  1  0.743298  0.743298  0.743298  1
  Co  Co8  1  0.500000  0.500000  0.500000  1
  Au  Au9  1  0.000000  0.000000  0.000000  1
  O  O10  1  0.422406  0.209018  0.559843  1
  O  O11  1  0.559843  0.422406  0.209018  1
  O  O12  1  0.209018  0.559843  0.422406  1
  O  O13  1  0.070250  0.946352  0.304321  1
  O  O14  1  0.304321  0.070250  0.946352  1
  O  O15  1  0.946352  0.304321  0.070250  1
  O  O16  1  0.577594  0.790982  0.440157  1
  O  O17  1  0.440157  0.577594  0.790982  1
  O  O18  1  0.790982  0.440157  0.577594  1
  O  O19  1  0.929750  0.053648  0.695679  1
  O  O20  1  0.053648  0.695679  0.929750  1
  O  O21  1  0.695679  0.929750  0.053648  1
