# generated using pymatgen
data_Li4Ca2Er2Si7Ge
_symmetry_space_group_name_H-M   'P 1'
_cell_length_a   3.79524300
_cell_length_b   7.80565991
_cell_length_c   10.42044359
_cell_angle_alpha   89.32024826
_cell_angle_beta   90.00000000
_cell_angle_gamma   90.00000000
_symmetry_Int_Tables_number   1
_chemical_formula_structural   Li4Ca2Er2Si7Ge
_chemical_formula_sum   'Li4 Ca2 Er2 Si7 Ge1'
_cell_volume   308.67741541
_cell_formula_units_Z   1
loop_
 _symmetry_equiv_pos_site_id
 _symmetry_equiv_pos_as_xyz
  1  'x, y, z'
loop_
 _atom_site_type_symbol
 _atom_site_label
 _atom_site_symmetry_multiplicity
 _atom_site_fract_x
 _atom_site_fract_y
 _atom_site_fract_z
 _atom_site_occupancy
  Li  Li0  1  0.250000  0.998235  0.391091  1
  Li  Li1  1  0.750000  0.000846  0.610016  1
  Li  Li2  1  0.250000  0.491776  0.110220  1
  Li  Li3  1  0.750000  0.512022  0.889063  1
  Ca  Ca4  1  0.250000  0.636690  0.634509  1
  Ca  Ca5  1  0.750000  0.362859  0.366293  1
  Er  Er6  1  0.250000  0.127246  0.862911  1
  Er  Er7  1  0.750000  0.869659  0.135320  1
  Si  Si8  1  0.250000  0.740027  0.939048  1
  Si  Si9  1  0.750000  0.773153  0.425334  1
  Si  Si10  1  0.250000  0.226516  0.574826  1
  Si  Si11  1  0.750000  0.844685  0.826977  1
  Si  Si12  1  0.250000  0.152250  0.175944  1
  Si  Si13  1  0.750000  0.331127  0.685382  1
  Si  Si14  1  0.250000  0.668017  0.315184  1
  Ge  Ge15  1  0.750000  0.264893  0.057881  1
