# generated using pymatgen
data_Zr4VBi2
_symmetry_space_group_name_H-M   'P 1'
_cell_length_a   8.38446669
_cell_length_b   8.38446686
_cell_length_c   8.38446684
_cell_angle_alpha   96.14026237
_cell_angle_beta   96.14026662
_cell_angle_gamma   141.82014303
_symmetry_Int_Tables_number   1
_chemical_formula_structural   Zr4VBi2
_chemical_formula_sum   'Zr8 V2 Bi4'
_cell_volume   344.30427604
_cell_formula_units_Z   2
loop_
 _symmetry_equiv_pos_site_id
 _symmetry_equiv_pos_as_xyz
  1  'x, y, z'
loop_
 _atom_site_type_symbol
 _atom_site_label
 _atom_site_symmetry_multiplicity
 _atom_site_fract_x
 _atom_site_fract_y
 _atom_site_fract_z
 _atom_site_occupancy
  Zr  Zr0  1  0.801418  0.918372  0.719790  1
  Zr  Zr1  1  0.918372  0.198582  0.116954  1
  Zr  Zr2  1  0.581628  0.698582  0.280210  1
  Zr  Zr3  1  0.698582  0.418372  0.116954  1
  Zr  Zr4  1  0.081628  0.801418  0.883046  1
  Zr  Zr5  1  0.198582  0.081628  0.280210  1
  Zr  Zr6  1  0.301418  0.581628  0.883046  1
  Zr  Zr7  1  0.418372  0.301418  0.719790  1
  V  V8  1  0.250000  0.250000  0.000000  1
  V  V9  1  0.750000  0.750000  0.000000  1
  Bi  Bi10  1  0.860447  0.639553  0.500000  1
  Bi  Bi11  1  0.139553  0.360447  0.500000  1
  Bi  Bi12  1  0.360447  0.860447  0.220895  1
  Bi  Bi13  1  0.639553  0.139553  0.779105  1
