# generated using pymatgen
data_CaEuGa4
_symmetry_space_group_name_H-M   'P 1'
_cell_length_a   4.54160500
_cell_length_b   4.54160585
_cell_length_c   7.50703000
_cell_angle_alpha   90.00000000
_cell_angle_beta   90.00000000
_cell_angle_gamma   120.00000107
_symmetry_Int_Tables_number   1
_chemical_formula_structural   CaEuGa4
_chemical_formula_sum   'Ca1 Eu1 Ga4'
_cell_volume   134.09654200
_cell_formula_units_Z   1
loop_
 _symmetry_equiv_pos_site_id
 _symmetry_equiv_pos_as_xyz
  1  'x, y, z'
loop_
 _atom_site_type_symbol
 _atom_site_label
 _atom_site_symmetry_multiplicity
 _atom_site_fract_x
 _atom_site_fract_y
 _atom_site_fract_z
 _atom_site_occupancy
  Ca  Ca0  1  0.000000  0.000000  0.499987  1
  Eu  Eu1  1  0.000000  0.000000  0.000010  1
  Ga  Ga2  1  0.666667  0.333334  0.213124  1
  Ga  Ga3  1  0.333334  0.666668  0.290193  1
  Ga  Ga4  1  0.333334  0.666668  0.709807  1
  Ga  Ga5  1  0.666667  0.333334  0.786879  1
