# generated using pymatgen
data_Tb10Sn6BiSb
_symmetry_space_group_name_H-M   'P 1'
_cell_length_a   8.17599200
_cell_length_b   8.21337049
_cell_length_c   15.51890492
_cell_angle_alpha   89.96054123
_cell_angle_beta   90.00000000
_cell_angle_gamma   90.00000000
_symmetry_Int_Tables_number   1
_chemical_formula_structural   Tb10Sn6BiSb
_chemical_formula_sum   'Tb20 Sn12 Bi2 Sb2'
_cell_volume   1042.13226120
_cell_formula_units_Z   2
loop_
 _symmetry_equiv_pos_site_id
 _symmetry_equiv_pos_as_xyz
  1  'x, y, z'
loop_
 _atom_site_type_symbol
 _atom_site_label
 _atom_site_symmetry_multiplicity
 _atom_site_fract_x
 _atom_site_fract_y
 _atom_site_fract_z
 _atom_site_occupancy
  Tb  Tb0  1  0.379645  0.836017  0.876831  1
  Tb  Tb1  1  0.879645  0.663983  0.623169  1
  Tb  Tb2  1  0.620614  0.156783  0.378379  1
  Tb  Tb3  1  0.120614  0.343217  0.121621  1
  Tb  Tb4  1  0.627632  0.162328  0.122059  1
  Tb  Tb5  1  0.127632  0.337672  0.377941  1
  Tb  Tb6  1  0.376511  0.838319  0.621191  1
  Tb  Tb7  1  0.876511  0.661681  0.878809  1
  Tb  Tb8  1  0.541002  0.327994  0.895332  1
  Tb  Tb9  1  0.041002  0.172006  0.604668  1
  Tb  Tb10  1  0.454686  0.673929  0.394559  1
  Tb  Tb11  1  0.954686  0.826071  0.105441  1
  Tb  Tb12  1  0.470903  0.673061  0.102339  1
  Tb  Tb13  1  0.970903  0.826939  0.397661  1
  Tb  Tb14  1  0.527766  0.322352  0.603340  1
  Tb  Tb15  1  0.027766  0.177648  0.896660  1
  Tb  Tb16  1  0.206278  0.500425  0.747929  1
  Tb  Tb17  1  0.706278  0.999575  0.752071  1
  Tb  Tb18  1  0.793494  0.499496  0.246203  1
  Tb  Tb19  1  0.293494  0.000504  0.253797  1
  Sn  Sn20  1  0.717475  0.968075  0.957015  1
  Sn  Sn21  1  0.217475  0.531925  0.542985  1
  Sn  Sn22  1  0.282317  0.031909  0.457433  1
  Sn  Sn23  1  0.782317  0.468091  0.042567  1
  Sn  Sn24  1  0.573224  0.622267  0.748808  1
  Sn  Sn25  1  0.073224  0.877733  0.751192  1
  Sn  Sn26  1  0.427946  0.376793  0.249031  1
  Sn  Sn27  1  0.927946  0.123207  0.250969  1
  Sn  Sn28  1  0.340590  0.145327  0.751306  1
  Sn  Sn29  1  0.840590  0.354673  0.748694  1
  Sn  Sn30  1  0.658464  0.853495  0.250991  1
  Sn  Sn31  1  0.158464  0.646505  0.249009  1
  Bi  Bi32  1  0.278978  0.028953  0.043179  1
  Bi  Bi33  1  0.778978  0.471047  0.456821  1
  Sb  Sb34  1  0.722476  0.972708  0.544986  1
  Sb  Sb35  1  0.222476  0.527292  0.955014  1
