# generated using pymatgen
data_TbNd6(DySn2)3
_symmetry_space_group_name_H-M   'P 1'
_cell_length_a   9.18732500
_cell_length_b   9.18732625
_cell_length_c   6.71111200
_cell_angle_alpha   90.00000000
_cell_angle_beta   90.00000000
_cell_angle_gamma   119.99999909
_symmetry_Int_Tables_number   1
_chemical_formula_structural   TbNd6(DySn2)3
_chemical_formula_sum   'Tb1 Nd6 Dy3 Sn6'
_cell_volume   490.57266008
_cell_formula_units_Z   1
loop_
 _symmetry_equiv_pos_site_id
 _symmetry_equiv_pos_as_xyz
  1  'x, y, z'
loop_
 _atom_site_type_symbol
 _atom_site_label
 _atom_site_symmetry_multiplicity
 _atom_site_fract_x
 _atom_site_fract_y
 _atom_site_fract_z
 _atom_site_occupancy
  Tb  Tb0  1  0.333333  0.666667  0.000000  1
  Nd  Nd1  1  0.241470  0.000000  0.250000  1
  Nd  Nd2  1  0.241470  0.241470  0.750000  1
  Nd  Nd3  1  0.000000  0.758530  0.750000  1
  Nd  Nd4  1  0.000000  0.241470  0.250000  1
  Nd  Nd5  1  0.758530  0.758530  0.250000  1
  Nd  Nd6  1  0.758530  0.000000  0.750000  1
  Dy  Dy7  1  0.666667  0.333333  0.500000  1
  Dy  Dy8  1  0.666667  0.333333  0.000000  1
  Dy  Dy9  1  0.333333  0.666667  0.500000  1
  Sn  Sn10  1  0.602290  0.000000  0.250000  1
  Sn  Sn11  1  0.602290  0.602290  0.750000  1
  Sn  Sn12  1  0.000000  0.397710  0.750000  1
  Sn  Sn13  1  0.000000  0.602290  0.250000  1
  Sn  Sn14  1  0.397710  0.397710  0.250000  1
  Sn  Sn15  1  0.397710  0.000000  0.750000  1
