# generated using pymatgen
data_Li6CrSnO8
_symmetry_space_group_name_H-M   'P 1'
_cell_length_a   6.53621600
_cell_length_b   5.60966008
_cell_length_c   5.07539937
_cell_angle_alpha   90.18612633
_cell_angle_beta   90.00012137
_cell_angle_gamma   89.99931383
_symmetry_Int_Tables_number   1
_chemical_formula_structural   Li6CrSnO8
_chemical_formula_sum   'Li6 Cr1 Sn1 O8'
_cell_volume   186.09335728
_cell_formula_units_Z   1
loop_
 _symmetry_equiv_pos_site_id
 _symmetry_equiv_pos_as_xyz
  1  'x, y, z'
loop_
 _atom_site_type_symbol
 _atom_site_label
 _atom_site_symmetry_multiplicity
 _atom_site_fract_x
 _atom_site_fract_y
 _atom_site_fract_z
 _atom_site_occupancy
  Li  Li0  1  0.000003  0.149313  0.508610  1
  Li  Li1  1  0.240264  0.341153  0.973840  1
  Li  Li2  1  0.243407  0.672793  0.508012  1
  Li  Li3  1  0.500005  0.809845  0.977218  1
  Li  Li4  1  0.756598  0.672801  0.508009  1
  Li  Li5  1  0.759737  0.341154  0.973836  1
  Cr  Cr6  1  0.499989  0.170882  0.494684  1
  Sn  Sn7  1  0.999997  0.832153  0.997385  1
  O  O8  1  0.000001  0.170111  0.886155  1
  O  O9  1  0.000001  0.824451  0.390397  1
  O  O10  1  0.252156  0.665851  0.883374  1
  O  O11  1  0.290499  0.311968  0.387194  1
  O  O12  1  0.500000  0.170680  0.823454  1
  O  O13  1  0.500002  0.889023  0.386734  1
  O  O14  1  0.709492  0.311971  0.387196  1
  O  O15  1  0.747849  0.665848  0.883369  1
