# generated using pymatgen
data_TlSn3P6WO24
_symmetry_space_group_name_H-M   'P 1'
_cell_length_a   8.46895020
_cell_length_b   8.47296444
_cell_length_c   9.26577000
_cell_angle_alpha   90.03320235
_cell_angle_beta   117.16476758
_cell_angle_gamma   119.98996508
_symmetry_Int_Tables_number   1
_chemical_formula_structural   TlSn3P6WO24
_chemical_formula_sum   'Tl1 Sn3 P6 W1 O24'
_cell_volume   489.24330930
_cell_formula_units_Z   1
loop_
 _symmetry_equiv_pos_site_id
 _symmetry_equiv_pos_as_xyz
  1  'x, y, z'
loop_
 _atom_site_type_symbol
 _atom_site_label
 _atom_site_symmetry_multiplicity
 _atom_site_fract_x
 _atom_site_fract_y
 _atom_site_fract_z
 _atom_site_occupancy
  Tl  Tl0  1  0.003044  0.503821  0.497839  1
  Sn  Sn1  1  0.706417  0.849200  0.564366  1
  Sn  Sn2  1  0.304605  0.649954  0.957053  1
  Sn  Sn3  1  0.690619  0.344914  0.037208  1
  P  P4  1  0.789446  0.246930  0.753418  1
  P  P5  1  0.210889  0.961229  0.754008  1
  P  P6  1  0.496139  0.459413  0.247740  1
  P  P7  1  0.503886  0.541198  0.753051  1
  P  P8  1  0.781815  0.030426  0.248716  1
  P  P9  1  0.213819  0.748155  0.247288  1
  W  W10  1  0.292651  0.145233  0.438908  1
  O  O11  1  0.640598  0.618948  0.416404  1
  O  O12  1  0.265668  0.786572  0.106726  1
  O  O13  1  0.784076  0.013109  0.413790  1
  O  O14  1  0.843337  0.111021  0.717374  1
  O  O15  1  0.317639  0.472281  0.106171  1
  O  O16  1  0.585064  0.209342  0.584675  1
  O  O17  1  0.986288  0.872662  0.722774  1
  O  O18  1  0.972483  0.455820  0.796574  1
  O  O19  1  0.633681  0.842500  0.105423  1
  O  O20  1  0.279848  0.820509  0.798869  1
  O  O21  1  0.382068  0.265417  0.280607  1
  O  O22  1  0.338023  0.514640  0.798002  1
  O  O23  1  0.204278  0.990270  0.585336  1
  O  O24  1  0.650900  0.467298  0.198460  1
  O  O25  1  0.736690  0.182641  0.198661  1
  O  O26  1  0.610225  0.737556  0.726484  1
  O  O27  1  0.366596  0.152079  0.896161  1
  O  O28  1  0.375185  0.384144  0.583147  1
  O  O29  1  0.014428  0.545803  0.194318  1
  O  O30  1  0.016076  0.106680  0.295480  1
  O  O31  1  0.394605  0.767175  0.414904  1
  O  O32  1  0.680360  0.525235  0.893053  1
  O  O33  1  0.176797  0.899542  0.286296  1
  O  O34  1  0.736509  0.209185  0.892570  1
