# generated using pymatgen
data_Y4B16IrRu2Rh
_symmetry_space_group_name_H-M   'P 1'
_cell_length_a   3.56547900
_cell_length_b   5.96645992
_cell_length_c   11.56014801
_cell_angle_alpha   89.90839001
_cell_angle_beta   90.00000000
_cell_angle_gamma   90.00000000
_symmetry_Int_Tables_number   1
_chemical_formula_structural   Y4B16IrRu2Rh
_chemical_formula_sum   'Y4 B16 Ir1 Ru2 Rh1'
_cell_volume   245.92203845
_cell_formula_units_Z   1
loop_
 _symmetry_equiv_pos_site_id
 _symmetry_equiv_pos_as_xyz
  1  'x, y, z'
loop_
 _atom_site_type_symbol
 _atom_site_label
 _atom_site_symmetry_multiplicity
 _atom_site_fract_x
 _atom_site_fract_y
 _atom_site_fract_z
 _atom_site_occupancy
  Y  Y0  1  0.000000  0.629770  0.351813  1
  Y  Y1  1  0.000000  0.370022  0.647808  1
  Y  Y2  1  0.000000  0.130865  0.150782  1
  Y  Y3  1  0.000000  0.869060  0.849439  1
  B  B4  1  0.500000  0.788901  0.187980  1
  B  B5  1  0.500000  0.210580  0.812238  1
  B  B6  1  0.500000  0.289140  0.314216  1
  B  B7  1  0.500000  0.710970  0.685744  1
  B  B8  1  0.500000  0.862950  0.029483  1
  B  B9  1  0.500000  0.136708  0.970638  1
  B  B10  1  0.500000  0.363589  0.469320  1
  B  B11  1  0.500000  0.636424  0.530393  1
  B  B12  1  0.500000  0.888359  0.453821  1
  B  B13  1  0.500000  0.111556  0.546068  1
  B  B14  1  0.500000  0.388087  0.047030  1
  B  B15  1  0.500000  0.611825  0.952438  1
  B  B16  1  0.500000  0.975123  0.308447  1
  B  B17  1  0.500000  0.024654  0.691286  1
  B  B18  1  0.500000  0.477325  0.193253  1
  B  B19  1  0.500000  0.523039  0.806821  1
  Ir  Ir20  1  0.000000  0.357383  0.904997  1
  Ru  Ru21  1  0.000000  0.140220  0.407730  1
  Ru  Ru22  1  0.000000  0.859313  0.592849  1
  Rh  Rh23  1  0.000000  0.644135  0.095406  1
