# generated using pymatgen
data_YHo7Sc2(SiB4)4
_symmetry_space_group_name_H-M   'P 1'
_cell_length_a   7.16479824
_cell_length_b   7.16479301
_cell_length_c   7.89621000
_cell_angle_alpha   89.99920757
_cell_angle_beta   90.00173535
_cell_angle_gamma   90.01117162
_symmetry_Int_Tables_number   1
_chemical_formula_structural   YHo7Sc2(SiB4)4
_chemical_formula_sum   'Y1 Ho7 Sc2 Si4 B16'
_cell_volume   405.34637637
_cell_formula_units_Z   1
loop_
 _symmetry_equiv_pos_site_id
 _symmetry_equiv_pos_as_xyz
  1  'x, y, z'
loop_
 _atom_site_type_symbol
 _atom_site_label
 _atom_site_symmetry_multiplicity
 _atom_site_fract_x
 _atom_site_fract_y
 _atom_site_fract_z
 _atom_site_occupancy
  Y  Y0  1  0.680176  0.180116  0.228837  1
  Ho  Ho1  1  0.319743  0.819788  0.771709  1
  Ho  Ho2  1  0.319636  0.819599  0.228405  1
  Ho  Ho3  1  0.819787  0.680290  0.228262  1
  Ho  Ho4  1  0.819753  0.680255  0.771723  1
  Ho  Ho5  1  0.680184  0.180227  0.771600  1
  Ho  Ho6  1  0.180270  0.319744  0.771739  1
  Ho  Ho7  1  0.180281  0.319801  0.228279  1
  Sc  Sc8  1  0.000119  0.999948  0.500056  1
  Sc  Sc9  1  0.499955  0.500119  0.500045  1
  Si  Si10  1  0.117452  0.617426  0.499974  1
  Si  Si11  1  0.882467  0.382488  0.499991  1
  Si  Si12  1  0.382424  0.117577  0.500000  1
  Si  Si13  1  0.617550  0.882399  0.500055  1
  B  B14  1  0.172751  0.039136  0.000092  1
  B  B15  1  0.827385  0.960565  0.999788  1
  B  B16  1  0.961176  0.172783  0.999861  1
  B  B17  1  0.327179  0.539153  0.000064  1
  B  B18  1  0.039148  0.827183  0.000067  1
  B  B19  1  0.672785  0.461175  0.999865  1
  B  B20  1  0.539139  0.672757  0.000054  1
  B  B21  1  0.460559  0.327382  0.999826  1
  B  B22  1  0.089353  0.589356  0.000050  1
  B  B23  1  0.910860  0.410860  0.999887  1
  B  B24  1  0.410349  0.089316  0.999892  1
  B  B25  1  0.589314  0.910350  0.999870  1
  B  B26  1  0.000278  0.999824  0.167005  1
  B  B27  1  0.000063  0.000039  0.833002  1
  B  B28  1  0.500016  0.499993  0.832989  1
  B  B29  1  0.499845  0.500350  0.167016  1
