# generated using pymatgen
data_PrPa2(ZnPt)4
_symmetry_space_group_name_H-M   'P 1'
_cell_length_a   8.33573015
_cell_length_b   8.33572986
_cell_length_c   8.33572970
_cell_angle_alpha   153.03945623
_cell_angle_beta   122.79024762
_cell_angle_gamma   64.34926701
_symmetry_Int_Tables_number   1
_chemical_formula_structural   PrPa2(ZnPt)4
_chemical_formula_sum   'Pr1 Pa2 Zn4 Pt4'
_cell_volume   218.86039069
_cell_formula_units_Z   1
loop_
 _symmetry_equiv_pos_site_id
 _symmetry_equiv_pos_as_xyz
  1  'x, y, z'
loop_
 _atom_site_type_symbol
 _atom_site_label
 _atom_site_symmetry_multiplicity
 _atom_site_fract_x
 _atom_site_fract_y
 _atom_site_fract_z
 _atom_site_occupancy
  Pr  Pr0  1  0.500000  0.000000  0.500000  1
  Pa  Pa1  1  0.874221  0.874221  0.000000  1
  Pa  Pa2  1  0.125779  0.125779  0.000000  1
  Zn  Zn3  1  0.474301  0.675021  0.799280  1
  Zn  Zn4  1  0.875741  0.675021  0.200720  1
  Zn  Zn5  1  0.124259  0.324979  0.799280  1
  Zn  Zn6  1  0.525699  0.324979  0.200720  1
  Pt  Pt7  1  0.272072  0.772072  0.500000  1
  Pt  Pt8  1  0.727928  0.227928  0.500000  1
  Pt  Pt9  1  0.818600  0.500000  0.318600  1
  Pt  Pt10  1  0.181400  0.500000  0.681400  1
