# generated using pymatgen
data_Er8Tm2Cd3Ru
_symmetry_space_group_name_H-M   'P 1'
_cell_length_a   9.48979504
_cell_length_b   9.48979503
_cell_length_c   9.74564104
_cell_angle_alpha   90.00869856
_cell_angle_beta   89.99130238
_cell_angle_gamma   120.00662991
_symmetry_Int_Tables_number   1
_chemical_formula_structural   Er8Tm2Cd3Ru
_chemical_formula_sum   'Er16 Tm4 Cd6 Ru2'
_cell_volume   760.02115853
_cell_formula_units_Z   2
loop_
 _symmetry_equiv_pos_site_id
 _symmetry_equiv_pos_as_xyz
  1  'x, y, z'
loop_
 _atom_site_type_symbol
 _atom_site_label
 _atom_site_symmetry_multiplicity
 _atom_site_fract_x
 _atom_site_fract_y
 _atom_site_fract_z
 _atom_site_occupancy
  Er  Er0  1  0.209814  0.790186  0.440710  1
  Er  Er1  1  0.209859  0.419706  0.440544  1
  Er  Er2  1  0.580294  0.790141  0.440544  1
  Er  Er3  1  0.790206  0.209794  0.559257  1
  Er  Er4  1  0.790217  0.580391  0.559288  1
  Er  Er5  1  0.419609  0.209783  0.559288  1
  Er  Er6  1  0.790241  0.209759  0.940811  1
  Er  Er7  1  0.790163  0.580503  0.940757  1
  Er  Er8  1  0.419497  0.209837  0.940757  1
  Er  Er9  1  0.210050  0.789950  0.059336  1
  Er  Er10  1  0.540745  0.459255  0.249817  1
  Er  Er11  1  0.540904  0.081631  0.249934  1
  Er  Er12  1  0.918369  0.459096  0.249934  1
  Er  Er13  1  0.459068  0.540932  0.750214  1
  Er  Er14  1  0.459168  0.918223  0.750126  1
  Er  Er15  1  0.081777  0.540832  0.750126  1
  Tm  Tm16  1  0.999991  0.000009  0.500067  1
  Tm  Tm17  1  0.999913  0.000087  0.000057  1
  Tm  Tm18  1  0.210039  0.419936  0.059298  1
  Tm  Tm19  1  0.580064  0.789961  0.059298  1
  Cd  Cd20  1  0.885683  0.114317  0.249926  1
  Cd  Cd21  1  0.885623  0.771337  0.249945  1
  Cd  Cd22  1  0.228663  0.114377  0.249945  1
  Cd  Cd23  1  0.114287  0.885713  0.750050  1
  Cd  Cd24  1  0.114362  0.228736  0.750145  1
  Cd  Cd25  1  0.771264  0.885638  0.750145  1
  Ru  Ru26  1  0.333437  0.666563  0.249695  1
  Ru  Ru27  1  0.666691  0.333309  0.749986  1
