# generated using pymatgen
data_Dy8Th4Os3Ru
_symmetry_space_group_name_H-M   'P 1'
_cell_length_a   6.38411303
_cell_length_b   7.29100100
_cell_length_c   9.52993800
_cell_angle_alpha   90.00000000
_cell_angle_beta   90.00000000
_cell_angle_gamma   90.03704837
_symmetry_Int_Tables_number   1
_chemical_formula_structural   Dy8Th4Os3Ru
_chemical_formula_sum   'Dy8 Th4 Os3 Ru1'
_cell_volume   443.58587578
_cell_formula_units_Z   1
loop_
 _symmetry_equiv_pos_site_id
 _symmetry_equiv_pos_as_xyz
  1  'x, y, z'
loop_
 _atom_site_type_symbol
 _atom_site_label
 _atom_site_symmetry_multiplicity
 _atom_site_fract_x
 _atom_site_fract_y
 _atom_site_fract_z
 _atom_site_occupancy
  Dy  Dy0  1  0.336713  0.674141  0.065419  1
  Dy  Dy1  1  0.166781  0.175989  0.433824  1
  Dy  Dy2  1  0.665998  0.324797  0.565869  1
  Dy  Dy3  1  0.833667  0.824922  0.932071  1
  Dy  Dy4  1  0.665998  0.324797  0.934131  1
  Dy  Dy5  1  0.833667  0.824922  0.567929  1
  Dy  Dy6  1  0.336713  0.674141  0.434581  1
  Dy  Dy7  1  0.166781  0.175989  0.066176  1
  Th  Th8  1  0.848092  0.549216  0.250000  1
  Th  Th9  1  0.653519  0.045023  0.250000  1
  Th  Th10  1  0.152073  0.454749  0.750000  1
  Th  Th11  1  0.348201  0.955473  0.750000  1
  Os  Os12  1  0.462909  0.371555  0.250000  1
  Os  Os13  1  0.961938  0.128518  0.750000  1
  Os  Os14  1  0.537900  0.627892  0.750000  1
  Ru  Ru15  1  0.029048  0.867876  0.250000  1
