# generated using pymatgen
data_Ta9TiSi6
_symmetry_space_group_name_H-M   'P 1'
_cell_length_a   7.54559896
_cell_length_b   7.54559871
_cell_length_c   7.54559906
_cell_angle_alpha   128.61317528
_cell_angle_beta   128.61317437
_cell_angle_gamma   75.63379174
_symmetry_Int_Tables_number   1
_chemical_formula_structural   Ta9TiSi6
_chemical_formula_sum   'Ta9 Ti1 Si6'
_cell_volume   255.17812130
_cell_formula_units_Z   1
loop_
 _symmetry_equiv_pos_site_id
 _symmetry_equiv_pos_as_xyz
  1  'x, y, z'
loop_
 _atom_site_type_symbol
 _atom_site_label
 _atom_site_symmetry_multiplicity
 _atom_site_fract_x
 _atom_site_fract_y
 _atom_site_fract_z
 _atom_site_occupancy
  Ta  Ta0  1  0.015319  0.184804  0.499956  1
  Ta  Ta1  1  0.684848  0.515363  0.500044  1
  Ta  Ta2  1  0.515363  0.015319  0.830516  1
  Ta  Ta3  1  0.184804  0.684848  0.169484  1
  Ta  Ta4  1  0.984681  0.815196  0.500044  1
  Ta  Ta5  1  0.315152  0.484637  0.499956  1
  Ta  Ta6  1  0.484637  0.984681  0.169484  1
  Ta  Ta7  1  0.815196  0.315152  0.830516  1
  Ta  Ta8  1  0.500000  0.500000  0.000000  1
  Ti  Ti9  1  0.000000  0.000000  0.000000  1
  Si  Si10  1  0.750600  0.750600  0.000000  1
  Si  Si11  1  0.249400  0.249400  0.000000  1
  Si  Si12  1  0.366224  0.127405  0.493629  1
  Si  Si13  1  0.633776  0.872595  0.506371  1
  Si  Si14  1  0.872595  0.366224  0.238819  1
  Si  Si15  1  0.127405  0.633776  0.761181  1
