# generated using pymatgen
data_DyTm2Hf3(GaPt)6
_symmetry_space_group_name_H-M   'P 1'
_cell_length_a   7.26779201
_cell_length_b   7.25875629
_cell_length_c   7.32399200
_cell_angle_alpha   90.00000000
_cell_angle_beta   90.00000000
_cell_angle_gamma   119.95580062
_symmetry_Int_Tables_number   1
_chemical_formula_structural   DyTm2Hf3(GaPt)6
_chemical_formula_sum   'Dy1 Tm2 Hf3 Ga6 Pt6'
_cell_volume   334.76223101
_cell_formula_units_Z   1
loop_
 _symmetry_equiv_pos_site_id
 _symmetry_equiv_pos_as_xyz
  1  'x, y, z'
loop_
 _atom_site_type_symbol
 _atom_site_label
 _atom_site_symmetry_multiplicity
 _atom_site_fract_x
 _atom_site_fract_y
 _atom_site_fract_z
 _atom_site_occupancy
  Dy  Dy0  1  0.002059  0.592265  0.750000  1
  Tm  Tm1  1  0.590973  0.997696  0.750000  1
  Tm  Tm2  1  0.406981  0.408796  0.750000  1
  Hf  Hf3  1  0.391159  0.389132  0.250000  1
  Hf  Hf4  1  0.997898  0.608728  0.250000  1
  Hf  Hf5  1  0.610963  0.002172  0.250000  1
  Ga  Ga6  1  0.263507  0.999548  0.006767  1
  Ga  Ga7  1  0.263507  0.999548  0.493233  1
  Ga  Ga8  1  0.001065  0.263716  0.492613  1
  Ga  Ga9  1  0.001065  0.263716  0.007387  1
  Ga  Ga10  1  0.735465  0.737075  0.006757  1
  Ga  Ga11  1  0.735465  0.737075  0.493243  1
  Pt  Pt12  1  0.665658  0.332595  0.475098  1
  Pt  Pt13  1  0.999981  0.001560  0.750000  1
  Pt  Pt14  1  0.665658  0.332595  0.024902  1
  Pt  Pt15  1  0.334294  0.666918  0.030623  1
  Pt  Pt16  1  0.334294  0.666918  0.469377  1
  Pt  Pt17  1  0.000011  0.999949  0.250000  1
