# generated using pymatgen
data_Pr3Ta(Co4P3)2
_symmetry_space_group_name_H-M   'P 1'
_cell_length_a   3.78472800
_cell_length_b   10.80234400
_cell_length_c   12.54185500
_cell_angle_alpha   90.00000000
_cell_angle_beta   90.00000000
_cell_angle_gamma   90.00000000
_symmetry_Int_Tables_number   1
_chemical_formula_structural   Pr3Ta(Co4P3)2
_chemical_formula_sum   'Pr6 Ta2 Co16 P12'
_cell_volume   512.76036958
_cell_formula_units_Z   2
loop_
 _symmetry_equiv_pos_site_id
 _symmetry_equiv_pos_as_xyz
  1  'x, y, z'
loop_
 _atom_site_type_symbol
 _atom_site_label
 _atom_site_symmetry_multiplicity
 _atom_site_fract_x
 _atom_site_fract_y
 _atom_site_fract_z
 _atom_site_occupancy
  Pr  Pr0  1  0.000000  0.500000  0.525005  1
  Pr  Pr1  1  0.500000  0.000000  0.474995  1
  Pr  Pr2  1  0.500000  0.819896  0.205498  1
  Pr  Pr3  1  0.500000  0.180104  0.205498  1
  Pr  Pr4  1  0.000000  0.680104  0.794502  1
  Pr  Pr5  1  0.000000  0.319896  0.794502  1
  Ta  Ta6  1  0.500000  0.500000  0.152895  1
  Ta  Ta7  1  0.000000  0.000000  0.847105  1
  Co  Co8  1  0.500000  0.500000  0.703394  1
  Co  Co9  1  0.000000  0.000000  0.296606  1
  Co  Co10  1  0.000000  0.500000  0.987835  1
  Co  Co11  1  0.500000  0.000000  0.012165  1
  Co  Co12  1  0.500000  0.332747  0.993344  1
  Co  Co13  1  0.500000  0.667253  0.993344  1
  Co  Co14  1  0.000000  0.167253  0.006656  1
  Co  Co15  1  0.000000  0.832747  0.006656  1
  Co  Co16  1  0.500000  0.295637  0.431648  1
  Co  Co17  1  0.500000  0.704363  0.431648  1
  Co  Co18  1  0.000000  0.204363  0.568352  1
  Co  Co19  1  0.000000  0.795637  0.568352  1
  Co  Co20  1  0.500000  0.880610  0.707602  1
  Co  Co21  1  0.500000  0.119390  0.707602  1
  Co  Co22  1  0.000000  0.619390  0.292398  1
  Co  Co23  1  0.000000  0.380610  0.292398  1
  P  P24  1  0.500000  0.500000  0.886593  1
  P  P25  1  0.000000  0.000000  0.113407  1
  P  P26  1  0.500000  0.500000  0.349394  1
  P  P27  1  0.000000  0.000000  0.650606  1
  P  P28  1  0.500000  0.305384  0.613601  1
  P  P29  1  0.500000  0.694616  0.613601  1
  P  P30  1  0.000000  0.194616  0.386399  1
  P  P31  1  0.000000  0.805384  0.386399  1
  P  P32  1  0.500000  0.843572  0.896683  1
  P  P33  1  0.500000  0.156428  0.896683  1
  P  P34  1  0.000000  0.656428  0.103317  1
  P  P35  1  0.000000  0.343572  0.103317  1
