# generated using pymatgen
data_Nd6Ni16Mo3P13Pt
_symmetry_space_group_name_H-M   'P 1'
_cell_length_a   12.98785000
_cell_length_b   12.98785083
_cell_length_c   3.85948800
_cell_angle_alpha   90.00000000
_cell_angle_beta   90.00000000
_cell_angle_gamma   119.99999788
_symmetry_Int_Tables_number   1
_chemical_formula_structural   Nd6Ni16Mo3P13Pt
_chemical_formula_sum   'Nd6 Ni16 Mo3 P13 Pt1'
_cell_volume   563.81274918
_cell_formula_units_Z   1
loop_
 _symmetry_equiv_pos_site_id
 _symmetry_equiv_pos_as_xyz
  1  'x, y, z'
loop_
 _atom_site_type_symbol
 _atom_site_label
 _atom_site_symmetry_multiplicity
 _atom_site_fract_x
 _atom_site_fract_y
 _atom_site_fract_z
 _atom_site_occupancy
  Nd  Nd0  1  0.800923  0.949312  0.000000  1
  Nd  Nd1  1  0.050688  0.851612  0.000000  1
  Nd  Nd2  1  0.148388  0.199077  0.000000  1
  Nd  Nd3  1  0.518641  0.136066  0.500000  1
  Nd  Nd4  1  0.863934  0.382575  0.500000  1
  Nd  Nd5  1  0.617425  0.481359  0.500000  1
  Ni  Ni6  1  0.530976  0.775062  0.000000  1
  Ni  Ni7  1  0.224938  0.755914  0.000000  1
  Ni  Ni8  1  0.244086  0.469024  0.000000  1
  Ni  Ni9  1  0.666667  0.333333  0.000000  1
  Ni  Ni10  1  0.769448  0.685301  0.000000  1
  Ni  Ni11  1  0.314699  0.084148  0.000000  1
  Ni  Ni12  1  0.915852  0.230552  0.000000  1
  Ni  Ni13  1  0.652474  0.742757  0.500000  1
  Ni  Ni14  1  0.257243  0.909716  0.500000  1
  Ni  Ni15  1  0.090284  0.347526  0.500000  1
  Ni  Ni16  1  0.359588  0.258481  0.500000  1
  Ni  Ni17  1  0.741519  0.101107  0.500000  1
  Ni  Ni18  1  0.898893  0.640412  0.500000  1
  Ni  Ni19  1  0.571166  0.983319  0.000000  1
  Ni  Ni20  1  0.016681  0.587847  0.000000  1
  Ni  Ni21  1  0.412153  0.428834  0.000000  1
  Mo  Mo22  1  0.399548  0.818740  0.500000  1
  Mo  Mo23  1  0.181260  0.580809  0.500000  1
  Mo  Mo24  1  0.419191  0.600452  0.500000  1
  P  P25  1  0.847788  0.790192  0.500000  1
  P  P26  1  0.209808  0.057596  0.500000  1
  P  P27  1  0.942404  0.152212  0.500000  1
  P  P28  1  0.610599  0.899219  0.500000  1
  P  P29  1  0.100781  0.711379  0.500000  1
  P  P30  1  0.288621  0.389401  0.500000  1
  P  P31  1  0.469236  0.283339  0.000000  1
  P  P32  1  0.716661  0.185897  0.000000  1
  P  P33  1  0.814103  0.530764  0.000000  1
  P  P34  1  0.377266  0.945772  0.000000  1
  P  P35  1  0.054228  0.431494  0.000000  1
  P  P36  1  0.568506  0.622734  0.000000  1
  P  P37  1  0.333333  0.666667  0.000000  1
  Pt  Pt38  1  0.000000  0.000000  0.500000  1
