# generated using pymatgen
data_La15YCd4CoRu3
_symmetry_space_group_name_H-M   'P 1'
_cell_length_a   10.05595055
_cell_length_b   10.04984083
_cell_length_c   10.05595035
_cell_angle_alpha   59.37448226
_cell_angle_beta   59.85596501
_cell_angle_gamma   59.37448479
_symmetry_Int_Tables_number   1
_chemical_formula_structural   La15YCd4CoRu3
_chemical_formula_sum   'La15 Y1 Cd4 Co1 Ru3'
_cell_volume   710.97301484
_cell_formula_units_Z   1
loop_
 _symmetry_equiv_pos_site_id
 _symmetry_equiv_pos_as_xyz
  1  'x, y, z'
loop_
 _atom_site_type_symbol
 _atom_site_label
 _atom_site_symmetry_multiplicity
 _atom_site_fract_x
 _atom_site_fract_y
 _atom_site_fract_z
 _atom_site_occupancy
  La  La0  1  0.445088  0.440539  0.058004  1
  La  La1  1  0.064382  0.060266  0.437983  1
  La  La2  1  0.437983  0.060266  0.064382  1
  La  La3  1  0.840430  0.851946  0.840430  1
  La  La4  1  0.691920  0.306025  0.319816  1
  La  La5  1  0.058004  0.440539  0.445088  1
  La  La6  1  0.314706  0.685443  0.690785  1
  La  La7  1  0.319816  0.306025  0.691920  1
  La  La8  1  0.843799  0.850015  0.460409  1
  La  La9  1  0.690785  0.685443  0.314706  1
  La  La10  1  0.460409  0.850015  0.843799  1
  La  La11  1  0.058911  0.442481  0.058911  1
  La  La12  1  0.843154  0.462025  0.843154  1
  La  La13  1  0.442814  0.056232  0.442814  1
  La  La14  1  0.312941  0.685986  0.312941  1
  Y  Y15  1  0.692193  0.306383  0.692193  1
  Cd  Cd16  1  0.077875  0.763529  0.077875  1
  Cd  Cd17  1  0.075260  0.080489  0.762510  1
  Cd  Cd18  1  0.762510  0.080489  0.075260  1
  Cd  Cd19  1  0.078020  0.078714  0.078020  1
  Co  Co20  1  0.633886  0.085957  0.633886  1
  Ru  Ru21  1  0.632778  0.647439  0.632778  1
  Ru  Ru22  1  0.633005  0.636877  0.089329  1
  Ru  Ru23  1  0.089329  0.636877  0.633005  1
