# generated using pymatgen
data_Tb7Ho3Cd3Ni
_symmetry_space_group_name_H-M   'P 1'
_cell_length_a   9.60133578
_cell_length_b   9.60732381
_cell_length_c   9.83350821
_cell_angle_alpha   90.00000165
_cell_angle_beta   90.02043403
_cell_angle_gamma   120.02062880
_symmetry_Int_Tables_number   1
_chemical_formula_structural   Tb7Ho3Cd3Ni
_chemical_formula_sum   'Tb14 Ho6 Cd6 Ni2'
_cell_volume   785.38545098
_cell_formula_units_Z   2
loop_
 _symmetry_equiv_pos_site_id
 _symmetry_equiv_pos_as_xyz
  1  'x, y, z'
loop_
 _atom_site_type_symbol
 _atom_site_label
 _atom_site_symmetry_multiplicity
 _atom_site_fract_x
 _atom_site_fract_y
 _atom_site_fract_z
 _atom_site_occupancy
  Tb  Tb0  1  0.543094  0.456477  0.249190  1
  Tb  Tb1  1  0.543094  0.086618  0.249190  1
  Tb  Tb2  1  0.913574  0.456787  0.249715  1
  Tb  Tb3  1  0.456186  0.543568  0.750957  1
  Tb  Tb4  1  0.456186  0.912618  0.750957  1
  Tb  Tb5  1  0.087682  0.543840  0.750698  1
  Tb  Tb6  1  0.210136  0.789818  0.436519  1
  Tb  Tb7  1  0.210136  0.420319  0.436519  1
  Tb  Tb8  1  0.579345  0.789673  0.436442  1
  Tb  Tb9  1  0.789939  0.210102  0.562804  1
  Tb  Tb10  1  0.789939  0.579837  0.562804  1
  Tb  Tb11  1  0.420541  0.210270  0.563561  1
  Tb  Tb12  1  0.789351  0.210077  0.936988  1
  Tb  Tb13  1  0.789351  0.579273  0.936988  1
  Ho  Ho14  1  0.000032  0.000016  0.500270  1
  Ho  Ho15  1  0.000409  0.000205  0.000084  1
  Ho  Ho16  1  0.420362  0.210180  0.937133  1
  Ho  Ho17  1  0.211136  0.789282  0.063247  1
  Ho  Ho18  1  0.211136  0.421855  0.063247  1
  Ho  Ho19  1  0.578350  0.789176  0.063324  1
  Cd  Cd20  1  0.885494  0.114462  0.249828  1
  Cd  Cd21  1  0.885494  0.771032  0.249828  1
  Cd  Cd22  1  0.229022  0.114510  0.249634  1
  Cd  Cd23  1  0.114717  0.885599  0.750279  1
  Cd  Cd24  1  0.114717  0.229120  0.750279  1
  Cd  Cd25  1  0.770866  0.885433  0.750219  1
  Ni  Ni26  1  0.333317  0.666659  0.248844  1
  Ni  Ni27  1  0.666396  0.333197  0.750452  1
