# generated using pymatgen
data_CaNd4Ga3H
_symmetry_space_group_name_H-M   'P 1'
_cell_length_a   9.10946803
_cell_length_b   9.10946769
_cell_length_c   9.10946931
_cell_angle_alpha   128.02636415
_cell_angle_beta   128.02636148
_cell_angle_gamma   76.58232398
_symmetry_Int_Tables_number   1
_chemical_formula_structural   CaNd4Ga3H
_chemical_formula_sum   'Ca2 Nd8 Ga6 H2'
_cell_volume   455.62967114
_cell_formula_units_Z   2
loop_
 _symmetry_equiv_pos_site_id
 _symmetry_equiv_pos_as_xyz
  1  'x, y, z'
loop_
 _atom_site_type_symbol
 _atom_site_label
 _atom_site_symmetry_multiplicity
 _atom_site_fract_x
 _atom_site_fract_y
 _atom_site_fract_z
 _atom_site_occupancy
  Ca  Ca0  1  0.500000  0.500000  0.000000  1
  Ca  Ca1  1  0.000000  0.000000  0.000000  1
  Nd  Nd2  1  0.516722  0.016722  0.836223  1
  Nd  Nd3  1  0.180498  0.680498  0.163777  1
  Nd  Nd4  1  0.016722  0.180498  0.500000  1
  Nd  Nd5  1  0.680498  0.516722  0.500000  1
  Nd  Nd6  1  0.483278  0.983278  0.163777  1
  Nd  Nd7  1  0.819502  0.319502  0.836223  1
  Nd  Nd8  1  0.983278  0.819502  0.500000  1
  Nd  Nd9  1  0.319502  0.483278  0.500000  1
  Ga  Ga10  1  0.250000  0.250000  0.000000  1
  Ga  Ga11  1  0.750000  0.750000  0.000000  1
  Ga  Ga12  1  0.883556  0.383556  0.267114  1
  Ga  Ga13  1  0.116444  0.616444  0.732886  1
  Ga  Ga14  1  0.383556  0.116444  0.500000  1
  Ga  Ga15  1  0.616444  0.883556  0.500000  1
  H  H16  1  0.250000  0.750000  0.500000  1
  H  H17  1  0.750000  0.250000  0.500000  1
