# generated using pymatgen
data_Tb2LuZn2Ga6Co7
_symmetry_space_group_name_H-M   'P 1'
_cell_length_a   4.09321900
_cell_length_b   8.79141890
_cell_length_c   8.89192851
_cell_angle_alpha   59.58025750
_cell_angle_beta   90.00000000
_cell_angle_gamma   90.00000000
_symmetry_Int_Tables_number   1
_chemical_formula_structural   Tb2LuZn2Ga6Co7
_chemical_formula_sum   'Tb2 Lu1 Zn2 Ga6 Co7'
_cell_volume   275.92946130
_cell_formula_units_Z   1
loop_
 _symmetry_equiv_pos_site_id
 _symmetry_equiv_pos_as_xyz
  1  'x, y, z'
loop_
 _atom_site_type_symbol
 _atom_site_label
 _atom_site_symmetry_multiplicity
 _atom_site_fract_x
 _atom_site_fract_y
 _atom_site_fract_z
 _atom_site_occupancy
  Tb  Tb0  1  0.500000  0.323054  0.334335  1
  Tb  Tb1  1  0.500000  0.677524  0.657010  1
  Lu  Lu2  1  0.000000  0.999678  0.002214  1
  Zn  Zn3  1  0.500000  0.295865  0.706903  1
  Zn  Zn4  1  0.500000  0.704257  0.002666  1
  Ga  Ga5  1  0.000000  0.496967  0.505418  1
  Ga  Ga6  1  0.000000  0.503082  0.002308  1
  Ga  Ga7  1  0.000000  0.999947  0.490255  1
  Ga  Ga8  1  0.500000  0.728745  0.279709  1
  Ga  Ga9  1  0.500000  0.271410  0.008466  1
  Ga  Ga10  1  0.500000  0.999963  0.720177  1
  Co  Co11  1  0.000000  0.178601  0.177744  1
  Co  Co12  1  0.000000  0.177006  0.635298  1
  Co  Co13  1  0.000000  0.635593  0.187835  1
  Co  Co14  1  0.000000  0.823299  0.812273  1
  Co  Co15  1  0.000000  0.364043  0.823584  1
  Co  Co16  1  0.000000  0.820945  0.356918  1
  Co  Co17  1  0.500000  0.999920  0.296987  1
