# generated using pymatgen
data_Tm3HfZrSn3
_symmetry_space_group_name_H-M   'P 1'
_cell_length_a   8.74581600
_cell_length_b   8.74581701
_cell_length_c   6.05613600
_cell_angle_alpha   90.00000000
_cell_angle_beta   90.00000000
_cell_angle_gamma   119.99999618
_symmetry_Int_Tables_number   1
_chemical_formula_structural   Tm3HfZrSn3
_chemical_formula_sum   'Tm6 Hf2 Zr2 Sn6'
_cell_volume   401.16865302
_cell_formula_units_Z   2
loop_
 _symmetry_equiv_pos_site_id
 _symmetry_equiv_pos_as_xyz
  1  'x, y, z'
loop_
 _atom_site_type_symbol
 _atom_site_label
 _atom_site_symmetry_multiplicity
 _atom_site_fract_x
 _atom_site_fract_y
 _atom_site_fract_z
 _atom_site_occupancy
  Tm  Tm0  1  0.759438  0.759438  0.749915  1
  Tm  Tm1  1  0.240562  0.000000  0.749915  1
  Tm  Tm2  1  0.000000  0.240562  0.749915  1
  Tm  Tm3  1  0.240562  0.240562  0.250085  1
  Tm  Tm4  1  0.759438  0.000000  0.250085  1
  Tm  Tm5  1  0.000000  0.759438  0.250085  1
  Hf  Hf6  1  0.333333  0.666667  0.500000  1
  Hf  Hf7  1  0.666667  0.333333  0.500000  1
  Zr  Zr8  1  0.666667  0.333333  0.000000  1
  Zr  Zr9  1  0.333333  0.666667  0.000000  1
  Sn  Sn10  1  0.398384  0.398384  0.748602  1
  Sn  Sn11  1  0.601616  0.000000  0.748602  1
  Sn  Sn12  1  0.000000  0.601616  0.748602  1
  Sn  Sn13  1  0.601616  0.601616  0.251398  1
  Sn  Sn14  1  0.398384  0.000000  0.251398  1
  Sn  Sn15  1  0.000000  0.398384  0.251398  1
