# generated using pymatgen
data_K9Cd2
_symmetry_space_group_name_H-M   'P 1'
_cell_length_a   11.24046463
_cell_length_b   13.27024518
_cell_length_c   14.54380600
_cell_angle_alpha   122.12908985
_cell_angle_beta   118.65929321
_cell_angle_gamma   21.98109539
_symmetry_Int_Tables_number   1
_chemical_formula_structural   K9Cd2
_chemical_formula_sum   'K9 Cd2'
_cell_volume   687.02278650
_cell_formula_units_Z   1
loop_
 _symmetry_equiv_pos_site_id
 _symmetry_equiv_pos_as_xyz
  1  'x, y, z'
loop_
 _atom_site_type_symbol
 _atom_site_label
 _atom_site_symmetry_multiplicity
 _atom_site_fract_x
 _atom_site_fract_y
 _atom_site_fract_z
 _atom_site_occupancy
  K  K0  1  0.018341  0.801095  0.839002  1
  K  K1  1  0.009321  0.496393  0.881320  1
  K  K2  1  0.618396  0.754925  0.584608  1
  K  K3  1  0.434355  0.562099  0.190881  1
  K  K4  1  0.432093  0.835906  0.090443  1
  K  K5  1  0.381574  0.245588  0.187009  1
  K  K6  1  0.016354  0.104526  0.789312  1
  K  K7  1  0.664046  0.349925  0.488781  1
  K  K8  1  0.605428  0.040435  0.486074  1
  Cd  Cd9  1  0.876623  0.498094  0.314145  1
  Cd  Cd10  1  0.167445  0.099365  0.360963  1
