# generated using pymatgen
data_Tm3Lu3MnSb2
_symmetry_space_group_name_H-M   'P 1'
_cell_length_a   8.01822200
_cell_length_b   8.01822155
_cell_length_c   4.18537900
_cell_angle_alpha   90.00000000
_cell_angle_beta   90.00000000
_cell_angle_gamma   119.99999362
_symmetry_Int_Tables_number   1
_chemical_formula_structural   Tm3Lu3MnSb2
_chemical_formula_sum   'Tm3 Lu3 Mn1 Sb2'
_cell_volume   233.03522820
_cell_formula_units_Z   1
loop_
 _symmetry_equiv_pos_site_id
 _symmetry_equiv_pos_as_xyz
  1  'x, y, z'
loop_
 _atom_site_type_symbol
 _atom_site_label
 _atom_site_symmetry_multiplicity
 _atom_site_fract_x
 _atom_site_fract_y
 _atom_site_fract_z
 _atom_site_occupancy
  Tm  Tm0  1  0.605926  0.000000  0.000000  1
  Tm  Tm1  1  0.000000  0.605926  0.000000  1
  Tm  Tm2  1  0.394074  0.394074  0.000000  1
  Lu  Lu3  1  0.234426  0.000000  0.500000  1
  Lu  Lu4  1  0.000000  0.234426  0.500000  1
  Lu  Lu5  1  0.765574  0.765574  0.500000  1
  Mn  Mn6  1  0.000000  0.000000  0.000000  1
  Sb  Sb7  1  0.333333  0.666667  0.500000  1
  Sb  Sb8  1  0.666667  0.333333  0.500000  1
