# generated using pymatgen
data_Dy3In3Cu2Pd
_symmetry_space_group_name_H-M   'P 1'
_cell_length_a   7.55873100
_cell_length_b   7.55873119
_cell_length_c   3.92039900
_cell_angle_alpha   90.00000000
_cell_angle_beta   90.00000000
_cell_angle_gamma   120.00000353
_symmetry_Int_Tables_number   1
_chemical_formula_structural   Dy3In3Cu2Pd
_chemical_formula_sum   'Dy3 In3 Cu2 Pd1'
_cell_volume   193.98076912
_cell_formula_units_Z   1
loop_
 _symmetry_equiv_pos_site_id
 _symmetry_equiv_pos_as_xyz
  1  'x, y, z'
loop_
 _atom_site_type_symbol
 _atom_site_label
 _atom_site_symmetry_multiplicity
 _atom_site_fract_x
 _atom_site_fract_y
 _atom_site_fract_z
 _atom_site_occupancy
  Dy  Dy0  1  0.409577  0.997855  0.500000  1
  Dy  Dy1  1  0.002145  0.411722  0.500000  1
  Dy  Dy2  1  0.588278  0.590423  0.500000  1
  In  In3  1  0.749724  0.002003  0.000000  1
  In  In4  1  0.997997  0.747721  0.000000  1
  In  In5  1  0.252279  0.250276  0.000000  1
  Cu  Cu6  1  0.000000  0.000000  0.500000  1
  Cu  Cu7  1  0.666667  0.333333  0.000000  1
  Pd  Pd8  1  0.333333  0.666667  0.000000  1
