# generated using pymatgen
data_La6Zn2PtRh15
_symmetry_space_group_name_H-M   'P 1'
_cell_length_a   5.43558100
_cell_length_b   5.43558055
_cell_length_c   17.43094600
_cell_angle_alpha   90.00000000
_cell_angle_beta   90.00000000
_cell_angle_gamma   119.99999665
_symmetry_Int_Tables_number   1
_chemical_formula_structural   La6Zn2PtRh15
_chemical_formula_sum   'La6 Zn2 Pt1 Rh15'
_cell_volume   446.00888632
_cell_formula_units_Z   1
loop_
 _symmetry_equiv_pos_site_id
 _symmetry_equiv_pos_as_xyz
  1  'x, y, z'
loop_
 _atom_site_type_symbol
 _atom_site_label
 _atom_site_symmetry_multiplicity
 _atom_site_fract_x
 _atom_site_fract_y
 _atom_site_fract_z
 _atom_site_occupancy
  La  La0  1  0.333333  0.666667  0.541678  1
  La  La1  1  0.666667  0.333333  0.042390  1
  La  La2  1  0.666667  0.333333  0.458322  1
  La  La3  1  0.333333  0.666667  0.957610  1
  La  La4  1  0.333333  0.666667  0.749845  1
  La  La5  1  0.666667  0.333333  0.250155  1
  Zn  Zn6  1  0.000000  0.000000  0.250213  1
  Zn  Zn7  1  0.000000  0.000000  0.749787  1
  Pt  Pt8  1  0.000000  0.000000  0.000000  1
  Rh  Rh9  1  0.167726  0.335450  0.127915  1
  Rh  Rh10  1  0.832395  0.664790  0.627428  1
  Rh  Rh11  1  0.664550  0.832274  0.127915  1
  Rh  Rh12  1  0.167726  0.832274  0.127915  1
  Rh  Rh13  1  0.832395  0.167605  0.627428  1
  Rh  Rh14  1  0.335210  0.167605  0.627428  1
  Rh  Rh15  1  0.832274  0.664550  0.872085  1
  Rh  Rh16  1  0.832274  0.167726  0.872085  1
  Rh  Rh17  1  0.335450  0.167726  0.872085  1
  Rh  Rh18  1  0.664790  0.832395  0.372572  1
  Rh  Rh19  1  0.167605  0.832395  0.372572  1
  Rh  Rh20  1  0.167605  0.335210  0.372572  1
  Rh  Rh21  1  0.333333  0.666667  0.249575  1
  Rh  Rh22  1  0.666667  0.333333  0.750425  1
  Rh  Rh23  1  0.000000  0.000000  0.500000  1
