# generated using pymatgen
data_Nd10Ir5Os
_symmetry_space_group_name_H-M   'P 1'
_cell_length_a   11.27785000
_cell_length_b   11.27785000
_cell_length_c   6.59283200
_cell_angle_alpha   90.00000000
_cell_angle_beta   90.00000000
_cell_angle_gamma   90.00000000
_symmetry_Int_Tables_number   1
_chemical_formula_structural   Nd10Ir5Os
_chemical_formula_sum   'Nd20 Ir10 Os2'
_cell_volume   838.54164690
_cell_formula_units_Z   2
loop_
 _symmetry_equiv_pos_site_id
 _symmetry_equiv_pos_as_xyz
  1  'x, y, z'
loop_
 _atom_site_type_symbol
 _atom_site_label
 _atom_site_symmetry_multiplicity
 _atom_site_fract_x
 _atom_site_fract_y
 _atom_site_fract_z
 _atom_site_occupancy
  Nd  Nd0  1  0.089071  0.292750  0.118911  1
  Nd  Nd1  1  0.792750  0.410929  0.118911  1
  Nd  Nd2  1  0.207250  0.589071  0.118911  1
  Nd  Nd3  1  0.910929  0.707250  0.118911  1
  Nd  Nd4  1  0.410929  0.792750  0.381089  1
  Nd  Nd5  1  0.589071  0.207250  0.381089  1
  Nd  Nd6  1  0.292750  0.089071  0.381089  1
  Nd  Nd7  1  0.707250  0.910929  0.381089  1
  Nd  Nd8  1  0.410804  0.207331  0.884709  1
  Nd  Nd9  1  0.707331  0.089196  0.884709  1
  Nd  Nd10  1  0.292669  0.910804  0.884709  1
  Nd  Nd11  1  0.589196  0.792669  0.884709  1
  Nd  Nd12  1  0.089196  0.707331  0.615291  1
  Nd  Nd13  1  0.910804  0.292669  0.615291  1
  Nd  Nd14  1  0.207331  0.410804  0.615291  1
  Nd  Nd15  1  0.792669  0.589196  0.615291  1
  Nd  Nd16  1  0.000000  0.000000  0.999751  1
  Nd  Nd17  1  0.500000  0.500000  0.999751  1
  Nd  Nd18  1  0.500000  0.500000  0.500249  1
  Nd  Nd19  1  0.000000  0.000000  0.500249  1
  Ir  Ir20  1  0.153336  0.846664  0.250000  1
  Ir  Ir21  1  0.346664  0.346664  0.250000  1
  Ir  Ir22  1  0.653336  0.653336  0.250000  1
  Ir  Ir23  1  0.846664  0.153336  0.250000  1
  Ir  Ir24  1  0.347014  0.652986  0.750000  1
  Ir  Ir25  1  0.152986  0.152986  0.750000  1
  Ir  Ir26  1  0.847014  0.847014  0.750000  1
  Ir  Ir27  1  0.652986  0.347014  0.750000  1
  Ir  Ir28  1  0.500000  0.000000  0.620904  1
  Ir  Ir29  1  0.000000  0.500000  0.879096  1
  Os  Os30  1  0.000000  0.500000  0.378494  1
  Os  Os31  1  0.500000  0.000000  0.121506  1
