# generated using pymatgen
data_Y12Er4Cd4NiIr3
_symmetry_space_group_name_H-M   'P 1'
_cell_length_a   9.60322612
_cell_length_b   9.62156450
_cell_length_c   9.62156300
_cell_angle_alpha   60.00000172
_cell_angle_beta   59.93681232
_cell_angle_gamma   59.93681170
_symmetry_Int_Tables_number   1
_chemical_formula_structural   Y12Er4Cd4NiIr3
_chemical_formula_sum   'Y12 Er4 Cd4 Ni1 Ir3'
_cell_volume   628.02659703
_cell_formula_units_Z   1
loop_
 _symmetry_equiv_pos_site_id
 _symmetry_equiv_pos_as_xyz
  1  'x, y, z'
loop_
 _atom_site_type_symbol
 _atom_site_label
 _atom_site_symmetry_multiplicity
 _atom_site_fract_x
 _atom_site_fract_y
 _atom_site_fract_z
 _atom_site_occupancy
  Y  Y0  1  0.059607  0.439344  0.439344  1
  Y  Y1  1  0.439592  0.060379  0.060379  1
  Y  Y2  1  0.439592  0.060379  0.439649  1
  Y  Y3  1  0.059607  0.439344  0.061705  1
  Y  Y4  1  0.439592  0.439649  0.060379  1
  Y  Y5  1  0.059607  0.061705  0.439344  1
  Y  Y6  1  0.187618  0.812515  0.812515  1
  Y  Y7  1  0.811066  0.186512  0.186512  1
  Y  Y8  1  0.811066  0.186512  0.815911  1
  Y  Y9  1  0.187618  0.812515  0.187353  1
  Y  Y10  1  0.811066  0.815911  0.186512  1
  Y  Y11  1  0.187618  0.187353  0.812515  1
  Er  Er12  1  0.600779  0.597073  0.597073  1
  Er  Er13  1  0.600779  0.597073  0.205074  1
  Er  Er14  1  0.600779  0.205074  0.597073  1
  Er  Er15  1  0.203578  0.598807  0.598807  1
  Cd  Cd16  1  0.830331  0.830916  0.830916  1
  Cd  Cd17  1  0.830331  0.830916  0.507834  1
  Cd  Cd18  1  0.830331  0.507834  0.830916  1
  Cd  Cd19  1  0.507306  0.830898  0.830898  1
  Ni  Ni20  1  0.822332  0.392557  0.392557  1
  Ir  Ir21  1  0.393269  0.392918  0.392918  1
  Ir  Ir22  1  0.393269  0.392918  0.820896  1
  Ir  Ir23  1  0.393269  0.820896  0.392918  1
