# generated using pymatgen
data_Nd6Al24Ir2Os5Rh
_symmetry_space_group_name_H-M   'P 1'
_cell_length_a   8.88727608
_cell_length_b   8.87554048
_cell_length_c   9.69231911
_cell_angle_alpha   90.14466685
_cell_angle_beta   89.97187707
_cell_angle_gamma   119.48235596
_symmetry_Int_Tables_number   1
_chemical_formula_structural   Nd6Al24Ir2Os5Rh
_chemical_formula_sum   'Nd6 Al24 Ir2 Os5 Rh1'
_cell_volume   665.52144440
_cell_formula_units_Z   1
loop_
 _symmetry_equiv_pos_site_id
 _symmetry_equiv_pos_as_xyz
  1  'x, y, z'
loop_
 _atom_site_type_symbol
 _atom_site_label
 _atom_site_symmetry_multiplicity
 _atom_site_fract_x
 _atom_site_fract_y
 _atom_site_fract_z
 _atom_site_occupancy
  Nd  Nd0  1  0.186845  0.383022  0.250104  1
  Nd  Nd1  1  0.813155  0.616978  0.749896  1
  Nd  Nd2  1  0.618328  0.812728  0.250414  1
  Nd  Nd3  1  0.381672  0.187272  0.749586  1
  Nd  Nd4  1  0.190098  0.807366  0.250518  1
  Nd  Nd5  1  0.809902  0.192634  0.749482  1
  Al  Al6  1  0.331747  0.666069  0.019204  1
  Al  Al7  1  0.668253  0.333931  0.980796  1
  Al  Al8  1  0.667559  0.332313  0.519129  1
  Al  Al9  1  0.332441  0.667687  0.480871  1
  Al  Al10  1  0.162686  0.327391  0.574328  1
  Al  Al11  1  0.837314  0.672609  0.425672  1
  Al  Al12  1  0.673082  0.837941  0.574643  1
  Al  Al13  1  0.837296  0.672979  0.074662  1
  Al  Al14  1  0.326918  0.162059  0.425357  1
  Al  Al15  1  0.162704  0.327021  0.925338  1
  Al  Al16  1  0.164687  0.835912  0.574117  1
  Al  Al17  1  0.326664  0.164005  0.074767  1
  Al  Al18  1  0.835313  0.164088  0.425883  1
  Al  Al19  1  0.673336  0.835995  0.925233  1
  Al  Al20  1  0.837283  0.165859  0.074274  1
  Al  Al21  1  0.162717  0.834141  0.925726  1
  Al  Al22  1  0.561487  0.126035  0.250613  1
  Al  Al23  1  0.438513  0.873965  0.749387  1
  Al  Al24  1  0.873141  0.438077  0.249713  1
  Al  Al25  1  0.126859  0.561923  0.750287  1
  Al  Al26  1  0.562048  0.437722  0.249707  1
  Al  Al27  1  0.437952  0.562278  0.750293  1
  Al  Al28  1  0.998245  0.001162  0.250020  1
  Al  Al29  1  0.001755  0.998838  0.749980  1
  Ir  Ir30  1  0.500000  0.000000  0.000000  1
  Ir  Ir31  1  0.500000  0.500000  0.000000  1
  Os  Os32  1  0.000000  0.500000  0.000000  1
  Os  Os33  1  0.500000  0.000000  0.500000  1
  Os  Os34  1  0.000000  0.500000  0.500000  1
  Os  Os35  1  0.000000  0.000000  0.000000  1
  Os  Os36  1  0.000000  0.000000  0.500000  1
  Rh  Rh37  1  0.500000  0.500000  0.500000  1
