# generated using pymatgen
data_Tm7(PtSe)2
_symmetry_space_group_name_H-M   'P 1'
_cell_length_a   8.94698695
_cell_length_b   8.94698792
_cell_length_c   8.94698841
_cell_angle_alpha   154.34144442
_cell_angle_beta   67.88061533
_cell_angle_gamma   118.36893786
_symmetry_Int_Tables_number   1
_chemical_formula_structural   Tm7(PtSe)2
_chemical_formula_sum   'Tm7 Pt2 Se2'
_cell_volume   270.34464371
_cell_formula_units_Z   1
loop_
 _symmetry_equiv_pos_site_id
 _symmetry_equiv_pos_as_xyz
  1  'x, y, z'
loop_
 _atom_site_type_symbol
 _atom_site_label
 _atom_site_symmetry_multiplicity
 _atom_site_fract_x
 _atom_site_fract_y
 _atom_site_fract_z
 _atom_site_occupancy
  Tm  Tm0  1  0.326236  0.326236  0.000000  1
  Tm  Tm1  1  0.856951  0.733188  0.123764  1
  Tm  Tm2  1  0.264522  0.946453  0.318071  1
  Tm  Tm3  1  0.944389  0.581744  0.362644  1
  Tm  Tm4  1  0.219100  0.581746  0.637357  1
  Tm  Tm5  1  0.628383  0.946453  0.681932  1
  Tm  Tm6  1  0.609424  0.733189  0.876237  1
  Pt  Pt7  1  0.484109  0.246656  0.237453  1
  Pt  Pt8  1  0.009203  0.246657  0.762548  1
  Se  Se9  1  0.982593  0.982593  0.000000  1
  Se  Se10  1  0.580441  0.080441  0.500000  1
