# generated using pymatgen
data_TaV4W3O16
_symmetry_space_group_name_H-M   'P 1'
_cell_length_a   5.64847305
_cell_length_b   5.65022085
_cell_length_c   9.19618753
_cell_angle_alpha   92.33460836
_cell_angle_beta   87.61969437
_cell_angle_gamma   108.97044681
_symmetry_Int_Tables_number   1
_chemical_formula_structural   TaV4W3O16
_chemical_formula_sum   'Ta1 V4 W3 O16'
_cell_volume   277.20181999
_cell_formula_units_Z   1
loop_
 _symmetry_equiv_pos_site_id
 _symmetry_equiv_pos_as_xyz
  1  'x, y, z'
loop_
 _atom_site_type_symbol
 _atom_site_label
 _atom_site_symmetry_multiplicity
 _atom_site_fract_x
 _atom_site_fract_y
 _atom_site_fract_z
 _atom_site_occupancy
  Ta  Ta0  1  0.000030  0.000036  0.999997  1
  V  V1  1  0.873225  0.126772  0.624563  1
  V  V2  1  0.126774  0.873221  0.375441  1
  V  V3  1  0.621855  0.378178  0.875920  1
  V  V4  1  0.378154  0.621845  0.124079  1
  W  W5  1  0.247484  0.752400  0.751228  1
  W  W6  1  0.500030  0.500021  0.499998  1
  W  W7  1  0.752476  0.247554  0.248770  1
  O  O8  1  0.022381  0.977763  0.780003  1
  O  O9  1  0.277159  0.722986  0.527949  1
  O  O10  1  0.780344  0.219628  0.024599  1
  O  O11  1  0.530296  0.469714  0.277428  1
  O  O12  1  0.722849  0.277004  0.472049  1
  O  O13  1  0.977623  0.022235  0.219995  1
  O  O14  1  0.469704  0.530280  0.722570  1
  O  O15  1  0.219646  0.780375  0.975400  1
  O  O16  1  0.543359  0.048280  0.749711  1
  O  O17  1  0.796881  0.796707  0.499921  1
  O  O18  1  0.300307  0.300387  0.999997  1
  O  O19  1  0.048176  0.543134  0.250215  1
  O  O20  1  0.951869  0.456922  0.749793  1
  O  O21  1  0.203059  0.203216  0.500086  1
  O  O22  1  0.699623  0.699573  0.999996  1
  O  O23  1  0.456694  0.951769  0.250287  1
