# generated using pymatgen
data_Hf4TaTi3Re4
_symmetry_space_group_name_H-M   'P 1'
_cell_length_a   5.32788039
_cell_length_b   5.35449189
_cell_length_c   8.75820300
_cell_angle_alpha   90.00000000
_cell_angle_beta   90.00000000
_cell_angle_gamma   120.18237330
_symmetry_Int_Tables_number   1
_chemical_formula_structural   Hf4TaTi3Re4
_chemical_formula_sum   'Hf4 Ta1 Ti3 Re4'
_cell_volume   215.98188333
_cell_formula_units_Z   1
loop_
 _symmetry_equiv_pos_site_id
 _symmetry_equiv_pos_as_xyz
  1  'x, y, z'
loop_
 _atom_site_type_symbol
 _atom_site_label
 _atom_site_symmetry_multiplicity
 _atom_site_fract_x
 _atom_site_fract_y
 _atom_site_fract_z
 _atom_site_occupancy
  Hf  Hf0  1  0.333072  0.663155  0.062350  1
  Hf  Hf1  1  0.665921  0.330131  0.563193  1
  Hf  Hf2  1  0.665921  0.330131  0.936807  1
  Hf  Hf3  1  0.333072  0.663155  0.437650  1
  Ta  Ta4  1  0.169818  0.830904  0.750000  1
  Ti  Ti5  1  0.999081  0.006050  0.003218  1
  Ti  Ti6  1  0.999081  0.006050  0.496782  1
  Ti  Ti7  1  0.831080  0.661304  0.250000  1
  Re  Re8  1  0.661943  0.829744  0.750000  1
  Re  Re9  1  0.342346  0.170036  0.250000  1
  Re  Re10  1  0.827140  0.170097  0.250000  1
  Re  Re11  1  0.171527  0.339242  0.750000  1
