# generated using pymatgen
data_Lu2Nb4C5
_symmetry_space_group_name_H-M   'P 1'
_cell_length_a   5.67391790
_cell_length_b   5.67391840
_cell_length_c   5.59539454
_cell_angle_alpha   81.51801224
_cell_angle_beta   81.51801455
_cell_angle_gamma   120.97234463
_symmetry_Int_Tables_number   1
_chemical_formula_structural   Lu2Nb4C5
_chemical_formula_sum   'Lu2 Nb4 C5'
_cell_volume   147.36477193
_cell_formula_units_Z   1
loop_
 _symmetry_equiv_pos_site_id
 _symmetry_equiv_pos_as_xyz
  1  'x, y, z'
loop_
 _atom_site_type_symbol
 _atom_site_label
 _atom_site_symmetry_multiplicity
 _atom_site_fract_x
 _atom_site_fract_y
 _atom_site_fract_z
 _atom_site_occupancy
  Lu  Lu0  1  0.756767  0.756767  0.753146  1
  Lu  Lu1  1  0.243233  0.243233  0.246854  1
  Nb  Nb2  1  0.098839  0.450081  0.741834  1
  Nb  Nb3  1  0.549919  0.901161  0.258166  1
  Nb  Nb4  1  0.901161  0.549919  0.258166  1
  Nb  Nb5  1  0.450081  0.098839  0.741834  1
  C  C6  1  0.500000  0.500000  0.500000  1
  C  C7  1  0.676451  0.323549  0.000000  1
  C  C8  1  0.323549  0.676451  0.000000  1
  C  C9  1  0.823154  0.176846  0.500000  1
  C  C10  1  0.176846  0.823154  0.500000  1
