# generated using pymatgen
data_Ca2Tm2Al18(NiRh)3
_symmetry_space_group_name_H-M   'P 1'
_cell_length_a   7.51573197
_cell_length_b   7.51150710
_cell_length_c   9.39141914
_cell_angle_alpha   89.87697429
_cell_angle_beta   89.91127421
_cell_angle_gamma   119.83808293
_symmetry_Int_Tables_number   1
_chemical_formula_structural   Ca2Tm2Al18(NiRh)3
_chemical_formula_sum   'Ca2 Tm2 Al18 Ni3 Rh3'
_cell_volume   459.90011891
_cell_formula_units_Z   1
loop_
 _symmetry_equiv_pos_site_id
 _symmetry_equiv_pos_as_xyz
  1  'x, y, z'
loop_
 _atom_site_type_symbol
 _atom_site_label
 _atom_site_symmetry_multiplicity
 _atom_site_fract_x
 _atom_site_fract_y
 _atom_site_fract_z
 _atom_site_occupancy
  Ca  Ca0  1  0.994721  0.667679  0.249885  1
  Ca  Ca1  1  0.007797  0.334232  0.750251  1
  Tm  Tm2  1  0.667691  0.994736  0.249565  1
  Tm  Tm3  1  0.329897  0.002610  0.750097  1
  Al  Al4  1  0.120048  0.122540  0.249428  1
  Al  Al5  1  0.879966  0.877290  0.750791  1
  Al  Al6  1  0.994988  0.331319  0.072513  1
  Al  Al7  1  0.998227  0.666876  0.927402  1
  Al  Al8  1  0.000293  0.667542  0.573048  1
  Al  Al9  1  0.332223  0.999511  0.426132  1
  Al  Al10  1  0.999099  0.331090  0.426798  1
  Al  Al11  1  0.668864  0.001007  0.574462  1
  Al  Al12  1  0.668255  0.005589  0.925835  1
  Al  Al13  1  0.333427  0.001959  0.073458  1
  Al  Al14  1  0.330534  0.329556  0.548299  1
  Al  Al15  1  0.670265  0.669725  0.451629  1
  Al  Al16  1  0.669437  0.668907  0.048145  1
  Al  Al17  1  0.331357  0.330081  0.951852  1
  Al  Al18  1  0.341418  0.547345  0.249704  1
  Al  Al19  1  0.658396  0.448237  0.752842  1
  Al  Al20  1  0.547751  0.335284  0.246993  1
  Al  Al21  1  0.455741  0.664520  0.750615  1
  Ni  Ni22  1  0.668877  0.327932  0.000351  1
  Ni  Ni23  1  0.999681  0.000476  0.000179  1
  Ni  Ni24  1  0.000239  0.999827  0.499840  1
  Rh  Rh25  1  0.330322  0.674412  0.000011  1
  Rh  Rh26  1  0.331037  0.673044  0.500136  1
  Rh  Rh27  1  0.669450  0.326674  0.499738  1
