# generated using pymatgen
data_Y12InCo4Ru
_symmetry_space_group_name_H-M   'P 1'
_cell_length_a   8.35029297
_cell_length_b   8.35029269
_cell_length_c   8.35029277
_cell_angle_alpha   111.10461526
_cell_angle_beta   110.58372804
_cell_angle_gamma   106.75933272
_symmetry_Int_Tables_number   1
_chemical_formula_structural   Y12InCo4Ru
_chemical_formula_sum   'Y12 In1 Co4 Ru1'
_cell_volume   447.45342370
_cell_formula_units_Z   1
loop_
 _symmetry_equiv_pos_site_id
 _symmetry_equiv_pos_as_xyz
  1  'x, y, z'
loop_
 _atom_site_type_symbol
 _atom_site_label
 _atom_site_symmetry_multiplicity
 _atom_site_fract_x
 _atom_site_fract_y
 _atom_site_fract_z
 _atom_site_occupancy
  Y  Y0  1  0.408824  0.215922  0.192902  1
  Y  Y1  1  0.591176  0.784078  0.807098  1
  Y  Y2  1  0.023021  0.215922  0.807098  1
  Y  Y3  1  0.976979  0.784078  0.192902  1
  Y  Y4  1  0.184502  0.286725  0.471228  1
  Y  Y5  1  0.815498  0.713275  0.528772  1
  Y  Y6  1  0.184502  0.713275  0.897778  1
  Y  Y7  1  0.815498  0.286725  0.102222  1
  Y  Y8  1  0.313890  0.619265  0.305376  1
  Y  Y9  1  0.686110  0.380735  0.694624  1
  Y  Y10  1  0.313890  0.008514  0.694624  1
  Y  Y11  1  0.686110  0.991486  0.305376  1
  In  In12  1  0.500000  0.500000  0.000000  1
  Co  Co13  1  0.379634  0.000000  0.379634  1
  Co  Co14  1  0.620366  0.000000  0.620366  1
  Co  Co15  1  0.110381  0.610381  0.500000  1
  Co  Co16  1  0.889619  0.389619  0.500000  1
  Ru  Ru17  1  0.000000  0.000000  0.000000  1
