# generated using pymatgen
data_Ca14Ta2Ti(SiN6)3
_symmetry_space_group_name_H-M   'P 1'
_cell_length_a   10.04203000
_cell_length_b   6.08194338
_cell_length_c   9.08357740
_cell_angle_alpha   87.68377737
_cell_angle_beta   90.00000000
_cell_angle_gamma   90.00000000
_symmetry_Int_Tables_number   1
_chemical_formula_structural   Ca14Ta2Ti(SiN6)3
_chemical_formula_sum   'Ca14 Ta2 Ti1 Si3 N18'
_cell_volume   554.32675560
_cell_formula_units_Z   1
loop_
 _symmetry_equiv_pos_site_id
 _symmetry_equiv_pos_as_xyz
  1  'x, y, z'
loop_
 _atom_site_type_symbol
 _atom_site_label
 _atom_site_symmetry_multiplicity
 _atom_site_fract_x
 _atom_site_fract_y
 _atom_site_fract_z
 _atom_site_occupancy
  Ca  Ca0  1  0.937156  0.424789  0.160983  1
  Ca  Ca1  1  0.077433  0.249709  0.493932  1
  Ca  Ca2  1  0.250000  0.086928  0.799966  1
  Ca  Ca3  1  0.452511  0.562288  0.825113  1
  Ca  Ca4  1  0.576976  0.753051  0.502987  1
  Ca  Ca5  1  0.580365  0.063096  0.827725  1
  Ca  Ca6  1  0.919635  0.063096  0.827725  1
  Ca  Ca7  1  0.425389  0.925321  0.167420  1
  Ca  Ca8  1  0.422567  0.249709  0.493932  1
  Ca  Ca9  1  0.074611  0.925321  0.167420  1
  Ca  Ca10  1  0.923024  0.753051  0.502987  1
  Ca  Ca11  1  0.047489  0.562288  0.825113  1
  Ca  Ca12  1  0.750000  0.906687  0.198979  1
  Ca  Ca13  1  0.562844  0.424789  0.160983  1
  Ta  Ta14  1  0.750000  0.279704  0.438535  1
  Ta  Ta15  1  0.250000  0.720675  0.565288  1
  Ti  Ti16  1  0.250000  0.335348  0.064323  1
  Si  Si17  1  0.750000  0.458442  0.720687  1
  Si  Si18  1  0.750000  0.673686  0.937164  1
  Si  Si19  1  0.250000  0.551470  0.286114  1
  N  N20  1  0.410234  0.230025  0.978117  1
  N  N21  1  0.250000  0.253557  0.273476  1
  N  N22  1  0.899768  0.115808  0.342885  1
  N  N23  1  0.611815  0.365624  0.627647  1
  N  N24  1  0.750000  0.556592  0.331119  1
  N  N25  1  0.250000  0.650755  0.096636  1
  N  N26  1  0.888185  0.365624  0.627647  1
  N  N27  1  0.388786  0.640696  0.377986  1
  N  N28  1  0.750000  0.378928  0.913185  1
  N  N29  1  0.098355  0.883060  0.659398  1
  N  N30  1  0.750000  0.751629  0.740910  1
  N  N31  1  0.111214  0.640696  0.377986  1
  N  N32  1  0.602107  0.763522  0.017282  1
  N  N33  1  0.250000  0.441619  0.670667  1
  N  N34  1  0.401645  0.883060  0.659398  1
  N  N35  1  0.600232  0.115808  0.342885  1
  N  N36  1  0.089766  0.230025  0.978117  1
  N  N37  1  0.897893  0.763522  0.017282  1
