# generated using pymatgen
data_Zr3Ta(Ni4P3)2
_symmetry_space_group_name_H-M   'P 1'
_cell_length_a   3.67546600
_cell_length_b   10.56999100
_cell_length_c   12.19753300
_cell_angle_alpha   90.00000000
_cell_angle_beta   90.00000000
_cell_angle_gamma   90.00000000
_symmetry_Int_Tables_number   1
_chemical_formula_structural   Zr3Ta(Ni4P3)2
_chemical_formula_sum   'Zr6 Ta2 Ni16 P12'
_cell_volume   473.86979693
_cell_formula_units_Z   2
loop_
 _symmetry_equiv_pos_site_id
 _symmetry_equiv_pos_as_xyz
  1  'x, y, z'
loop_
 _atom_site_type_symbol
 _atom_site_label
 _atom_site_symmetry_multiplicity
 _atom_site_fract_x
 _atom_site_fract_y
 _atom_site_fract_z
 _atom_site_occupancy
  Zr  Zr0  1  0.751810  0.000000  0.470512  1
  Zr  Zr1  1  0.251810  0.500000  0.529488  1
  Zr  Zr2  1  0.251749  0.676069  0.792145  1
  Zr  Zr3  1  0.251749  0.323931  0.792145  1
  Zr  Zr4  1  0.751749  0.823931  0.207855  1
  Zr  Zr5  1  0.751749  0.176069  0.207855  1
  Ta  Ta6  1  0.251897  0.000000  0.841179  1
  Ta  Ta7  1  0.751897  0.500000  0.158821  1
  Ni  Ni8  1  0.751874  0.000000  0.017219  1
  Ni  Ni9  1  0.251874  0.500000  0.982781  1
  Ni  Ni10  1  0.251617  0.199849  0.567649  1
  Ni  Ni11  1  0.251617  0.800151  0.567649  1
  Ni  Ni12  1  0.751617  0.300151  0.432351  1
  Ni  Ni13  1  0.751617  0.699849  0.432351  1
  Ni  Ni14  1  0.251975  0.624680  0.296386  1
  Ni  Ni15  1  0.251975  0.375320  0.296386  1
  Ni  Ni16  1  0.751975  0.875320  0.703614  1
  Ni  Ni17  1  0.751975  0.124680  0.703614  1
  Ni  Ni18  1  0.252006  0.167174  0.012583  1
  Ni  Ni19  1  0.252006  0.832826  0.012583  1
  Ni  Ni20  1  0.752006  0.332826  0.987417  1
  Ni  Ni21  1  0.752006  0.667174  0.987417  1
  Ni  Ni22  1  0.251329  0.000000  0.300524  1
  Ni  Ni23  1  0.751329  0.500000  0.699476  1
  P  P24  1  0.251789  0.183071  0.383308  1
  P  P25  1  0.251789  0.816929  0.383308  1
  P  P26  1  0.751789  0.316929  0.616692  1
  P  P27  1  0.751789  0.683071  0.616692  1
  P  P28  1  0.251831  0.000000  0.123985  1
  P  P29  1  0.751831  0.500000  0.876015  1
  P  P30  1  0.251918  0.660480  0.111583  1
  P  P31  1  0.251918  0.339520  0.111583  1
  P  P32  1  0.751918  0.839520  0.888417  1
  P  P33  1  0.751918  0.160480  0.888417  1
  P  P34  1  0.251954  0.000000  0.640602  1
  P  P35  1  0.751954  0.500000  0.359398  1
