# generated using pymatgen
data_Nd3Mg3AlHgSb
_symmetry_space_group_name_H-M   'P 1'
_cell_length_a   7.62125400
_cell_length_b   7.62125487
_cell_length_c   4.65778300
_cell_angle_alpha   90.00000000
_cell_angle_beta   90.00000000
_cell_angle_gamma   120.00000490
_symmetry_Int_Tables_number   1
_chemical_formula_structural   Nd3Mg3AlHgSb
_chemical_formula_sum   'Nd3 Mg3 Al1 Hg1 Sb1'
_cell_volume   234.29487194
_cell_formula_units_Z   1
loop_
 _symmetry_equiv_pos_site_id
 _symmetry_equiv_pos_as_xyz
  1  'x, y, z'
loop_
 _atom_site_type_symbol
 _atom_site_label
 _atom_site_symmetry_multiplicity
 _atom_site_fract_x
 _atom_site_fract_y
 _atom_site_fract_z
 _atom_site_occupancy
  Nd  Nd0  1  0.575209  0.988409  0.000000  1
  Nd  Nd1  1  0.011591  0.586801  0.000000  1
  Nd  Nd2  1  0.413199  0.424791  0.000000  1
  Mg  Mg3  1  0.236933  0.992611  0.500000  1
  Mg  Mg4  1  0.007389  0.244323  0.500000  1
  Mg  Mg5  1  0.755677  0.763067  0.500000  1
  Al  Al6  1  0.333333  0.666667  0.500000  1
  Hg  Hg7  1  0.000000  0.000000  0.000000  1
  Sb  Sb8  1  0.666667  0.333333  0.500000  1
