# generated using pymatgen
data_Nd2YEr3Co16(TcP6)2
_symmetry_space_group_name_H-M   'P 1'
_cell_length_a   3.71727800
_cell_length_b   10.56566701
_cell_length_c   12.21594400
_cell_angle_alpha   90.00287952
_cell_angle_beta   90.00000000
_cell_angle_gamma   90.00000000
_symmetry_Int_Tables_number   1
_chemical_formula_structural   Nd2YEr3Co16(TcP6)2
_chemical_formula_sum   'Nd2 Y1 Er3 Co16 Tc2 P12'
_cell_volume   479.78757115
_cell_formula_units_Z   1
loop_
 _symmetry_equiv_pos_site_id
 _symmetry_equiv_pos_as_xyz
  1  'x, y, z'
loop_
 _atom_site_type_symbol
 _atom_site_label
 _atom_site_symmetry_multiplicity
 _atom_site_fract_x
 _atom_site_fract_y
 _atom_site_fract_z
 _atom_site_occupancy
  Nd  Nd0  1  0.750000  0.249830  0.475207  1
  Nd  Nd1  1  0.250000  0.750103  0.524372  1
  Y  Y2  1  0.250000  0.932099  0.795444  1
  Er  Er3  1  0.250000  0.567637  0.795727  1
  Er  Er4  1  0.750000  0.067915  0.204525  1
  Er  Er5  1  0.750000  0.432167  0.204485  1
  Co  Co6  1  0.250000  0.250130  0.294197  1
  Co  Co7  1  0.750000  0.748911  0.705564  1
  Co  Co8  1  0.750000  0.250450  0.013159  1
  Co  Co9  1  0.250000  0.749530  0.987620  1
  Co  Co10  1  0.250000  0.418001  0.009935  1
  Co  Co11  1  0.250000  0.082526  0.010182  1
  Co  Co12  1  0.750000  0.581735  0.990571  1
  Co  Co13  1  0.750000  0.917893  0.990961  1
  Co  Co14  1  0.250000  0.454054  0.570828  1
  Co  Co15  1  0.250000  0.045973  0.570065  1
  Co  Co16  1  0.750000  0.545774  0.429007  1
  Co  Co17  1  0.750000  0.954146  0.428574  1
  Co  Co18  1  0.250000  0.870977  0.288703  1
  Co  Co19  1  0.250000  0.629036  0.288945  1
  Co  Co20  1  0.750000  0.129730  0.710623  1
  Co  Co21  1  0.750000  0.371132  0.711202  1
  Tc  Tc22  1  0.250000  0.250330  0.845994  1
  Tc  Tc23  1  0.750000  0.749754  0.154218  1
  P  P24  1  0.250000  0.250276  0.118146  1
  P  P25  1  0.750000  0.749171  0.882486  1
  P  P26  1  0.250000  0.250015  0.655220  1
  P  P27  1  0.750000  0.750015  0.344690  1
  P  P28  1  0.250000  0.441304  0.381563  1
  P  P29  1  0.250000  0.058791  0.381241  1
  P  P30  1  0.750000  0.558497  0.618345  1
  P  P31  1  0.750000  0.941398  0.617261  1
  P  P32  1  0.250000  0.904732  0.106372  1
  P  P33  1  0.250000  0.595163  0.106639  1
  P  P34  1  0.750000  0.096121  0.894190  1
  P  P35  1  0.750000  0.404685  0.893739  1
