# generated using pymatgen
data_La2Ga3Ge(IrRh)2
_symmetry_space_group_name_H-M   'P 1'
_cell_length_a   4.32602900
_cell_length_b   4.32602900
_cell_length_c   10.27164500
_cell_angle_alpha   90.00000000
_cell_angle_beta   90.00000000
_cell_angle_gamma   90.00000000
_symmetry_Int_Tables_number   1
_chemical_formula_structural   La2Ga3Ge(IrRh)2
_chemical_formula_sum   'La2 Ga3 Ge1 Ir2 Rh2'
_cell_volume   192.22897675
_cell_formula_units_Z   1
loop_
 _symmetry_equiv_pos_site_id
 _symmetry_equiv_pos_as_xyz
  1  'x, y, z'
loop_
 _atom_site_type_symbol
 _atom_site_label
 _atom_site_symmetry_multiplicity
 _atom_site_fract_x
 _atom_site_fract_y
 _atom_site_fract_z
 _atom_site_occupancy
  La  La0  1  0.000000  0.500000  0.247091  1
  La  La1  1  0.500000  0.000000  0.750068  1
  Ga  Ga2  1  0.000000  0.000000  0.499183  1
  Ga  Ga3  1  0.500000  0.500000  0.499183  1
  Ga  Ga4  1  0.000000  0.500000  0.877015  1
  Ge  Ge5  1  0.500000  0.000000  0.122614  1
  Ir  Ir6  1  0.000000  0.500000  0.632132  1
  Ir  Ir7  1  0.500000  0.000000  0.365230  1
  Rh  Rh8  1  0.000000  0.000000  0.003742  1
  Rh  Rh9  1  0.500000  0.500000  0.003742  1
