# generated using pymatgen
data_Ti3BeSi2Os3
_symmetry_space_group_name_H-M   'P 1'
_cell_length_a   7.36563709
_cell_length_b   7.36563681
_cell_length_c   7.36563626
_cell_angle_alpha   126.33626435
_cell_angle_beta   129.02267208
_cell_angle_gamma   77.16459996
_symmetry_Int_Tables_number   1
_chemical_formula_structural   Ti3BeSi2Os3
_chemical_formula_sum   'Ti6 Be2 Si4 Os6'
_cell_volume   242.70511491
_cell_formula_units_Z   2
loop_
 _symmetry_equiv_pos_site_id
 _symmetry_equiv_pos_as_xyz
  1  'x, y, z'
loop_
 _atom_site_type_symbol
 _atom_site_label
 _atom_site_symmetry_multiplicity
 _atom_site_fract_x
 _atom_site_fract_y
 _atom_site_fract_z
 _atom_site_occupancy
  Ti  Ti0  1  0.447736  0.398716  0.450980  1
  Ti  Ti1  1  0.552264  0.003243  0.950980  1
  Ti  Ti2  1  0.052363  0.003195  0.450832  1
  Ti  Ti3  1  0.947637  0.398470  0.950832  1
  Ti  Ti4  1  0.249735  0.607502  0.857768  1
  Ti  Ti5  1  0.750265  0.608033  0.357768  1
  Be  Be6  1  0.250137  0.003191  0.253055  1
  Be  Be7  1  0.749863  0.002918  0.753055  1
  Si  Si8  1  0.166856  0.669902  0.503404  1
  Si  Si9  1  0.833144  0.336548  0.503046  1
  Si  Si10  1  0.666497  0.669902  0.003046  1
  Si  Si11  1  0.333503  0.336548  0.003404  1
  Os  Os12  1  0.000000  0.253963  0.253963  1
  Os  Os13  1  0.500000  0.253963  0.753963  1
  Os  Os14  1  0.374315  0.752590  0.377679  1
  Os  Os15  1  0.625685  0.003364  0.378274  1
  Os  Os16  1  0.874911  0.752590  0.878274  1
  Os  Os17  1  0.125089  0.003364  0.877679  1
