# generated using pymatgen
data_Ca(In3Te5)2
_symmetry_space_group_name_H-M   'P 1'
_cell_length_a   10.98360152
_cell_length_b   10.98360128
_cell_length_c   10.86777088
_cell_angle_alpha   89.61051534
_cell_angle_beta   89.61051996
_cell_angle_gamma   88.34316457
_symmetry_Int_Tables_number   1
_chemical_formula_structural   Ca(In3Te5)2
_chemical_formula_sum   'Ca2 In12 Te20'
_cell_volume   1310.47545561
_cell_formula_units_Z   2
loop_
 _symmetry_equiv_pos_site_id
 _symmetry_equiv_pos_as_xyz
  1  'x, y, z'
loop_
 _atom_site_type_symbol
 _atom_site_label
 _atom_site_symmetry_multiplicity
 _atom_site_fract_x
 _atom_site_fract_y
 _atom_site_fract_z
 _atom_site_occupancy
  Ca  Ca0  1  0.258204  0.002947  0.743805  1
  Ca  Ca1  1  0.997053  0.741796  0.256195  1
  In  In2  1  0.745787  0.172617  0.330236  1
  In  In3  1  0.173393  0.338949  0.744574  1
  In  In4  1  0.342803  0.746096  0.171648  1
  In  In5  1  0.253904  0.657197  0.828352  1
  In  In6  1  0.827383  0.254213  0.669764  1
  In  In7  1  0.661051  0.826607  0.255426  1
  In  In8  1  0.842635  0.875184  0.575931  1
  In  In9  1  0.870175  0.571071  0.843746  1
  In  In10  1  0.573708  0.844029  0.875982  1
  In  In11  1  0.155971  0.426292  0.124018  1
  In  In12  1  0.124816  0.157365  0.424069  1
  In  In13  1  0.428929  0.129825  0.156254  1
  Te  Te14  1  0.165485  0.834515  0.000000  1
  Te  Te15  1  0.835034  0.988863  0.166853  1
  Te  Te16  1  0.011137  0.164966  0.833147  1
  Te  Te17  1  0.834178  0.833729  0.836751  1
  Te  Te18  1  0.166271  0.165822  0.163249  1
  Te  Te19  1  0.771238  0.674893  0.434551  1
  Te  Te20  1  0.677479  0.442996  0.752625  1
  Te  Te21  1  0.428594  0.766013  0.677416  1
  Te  Te22  1  0.233987  0.571406  0.322584  1
  Te  Te23  1  0.325107  0.228762  0.565449  1
  Te  Te24  1  0.557004  0.322521  0.247375  1
  Te  Te25  1  0.089717  0.910283  0.500000  1
  Te  Te26  1  0.913016  0.509665  0.093983  1
  Te  Te27  1  0.490335  0.086984  0.906017  1
  Te  Te28  1  0.671616  0.072785  0.568284  1
  Te  Te29  1  0.069029  0.568484  0.668443  1
  Te  Te30  1  0.571321  0.664595  0.069424  1
  Te  Te31  1  0.335405  0.428679  0.930576  1
  Te  Te32  1  0.927215  0.328384  0.431716  1
  Te  Te33  1  0.431516  0.930971  0.331557  1
