# generated using pymatgen
data_LiGeB6
_symmetry_space_group_name_H-M   'P 1'
_cell_length_a   6.39326390
_cell_length_b   6.39326446
_cell_length_c   8.45670749
_cell_angle_alpha   90.00963157
_cell_angle_beta   89.99036971
_cell_angle_gamma   122.30396895
_symmetry_Int_Tables_number   1
_chemical_formula_structural   LiGeB6
_chemical_formula_sum   'Li4 Ge4 B24'
_cell_volume   292.15871237
_cell_formula_units_Z   4
loop_
 _symmetry_equiv_pos_site_id
 _symmetry_equiv_pos_as_xyz
  1  'x, y, z'
loop_
 _atom_site_type_symbol
 _atom_site_label
 _atom_site_symmetry_multiplicity
 _atom_site_fract_x
 _atom_site_fract_y
 _atom_site_fract_z
 _atom_site_occupancy
  Li  Li0  1  0.325497  0.674503  0.661537  1
  Li  Li1  1  0.825352  0.174648  0.838463  1
  Li  Li2  1  0.174929  0.825071  0.161539  1
  Li  Li3  1  0.674450  0.325550  0.338382  1
  Ge  Ge4  1  0.332495  0.667505  0.380096  1
  Ge  Ge5  1  0.667567  0.332433  0.619959  1
  Ge  Ge6  1  0.167434  0.832566  0.880011  1
  Ge  Ge7  1  0.832317  0.167683  0.120010  1
  B  B8  1  0.309172  0.153929  0.530865  1
  B  B9  1  0.846071  0.690828  0.530865  1
  B  B10  1  0.851945  0.148055  0.555861  1
  B  B11  1  0.098014  0.901986  0.649100  1
  B  B12  1  0.120151  0.197036  0.666079  1
  B  B13  1  0.802964  0.879850  0.666079  1
  B  B14  1  0.302694  0.379975  0.834041  1
  B  B15  1  0.620025  0.697306  0.834041  1
  B  B16  1  0.597844  0.402156  0.850879  1
  B  B17  1  0.351644  0.648356  0.944323  1
  B  B18  1  0.345788  0.190939  0.969090  1
  B  B19  1  0.809061  0.654211  0.969090  1
  B  B20  1  0.190676  0.345973  0.030975  1
  B  B21  1  0.654027  0.809324  0.030975  1
  B  B22  1  0.648097  0.351903  0.055820  1
  B  B23  1  0.401944  0.598056  0.149297  1
  B  B24  1  0.379821  0.302823  0.166002  1
  B  B25  1  0.697178  0.620178  0.166002  1
  B  B26  1  0.197205  0.119989  0.333818  1
  B  B27  1  0.880011  0.802795  0.333818  1
  B  B28  1  0.902161  0.097839  0.350901  1
  B  B29  1  0.148334  0.851666  0.444044  1
  B  B30  1  0.154308  0.309179  0.469021  1
  B  B31  1  0.690821  0.845692  0.469021  1
