# generated using pymatgen
data_Tb4MoOs6Ru
_symmetry_space_group_name_H-M   'P 1'
_cell_length_a   5.24096267
_cell_length_b   5.24096240
_cell_length_c   9.11057205
_cell_angle_alpha   89.98968719
_cell_angle_beta   90.01031277
_cell_angle_gamma   117.92894790
_symmetry_Int_Tables_number   1
_chemical_formula_structural   Tb4MoOs6Ru
_chemical_formula_sum   'Tb4 Mo1 Os6 Ru1'
_cell_volume   221.09993084
_cell_formula_units_Z   1
loop_
 _symmetry_equiv_pos_site_id
 _symmetry_equiv_pos_as_xyz
  1  'x, y, z'
loop_
 _atom_site_type_symbol
 _atom_site_label
 _atom_site_symmetry_multiplicity
 _atom_site_fract_x
 _atom_site_fract_y
 _atom_site_fract_z
 _atom_site_occupancy
  Tb  Tb0  1  0.329192  0.670808  0.437926  1
  Tb  Tb1  1  0.665095  0.334905  0.565884  1
  Tb  Tb2  1  0.665096  0.334904  0.933603  1
  Tb  Tb3  1  0.328940  0.671060  0.061887  1
  Mo  Mo4  1  0.839998  0.160002  0.250198  1
  Os  Os5  1  0.992477  0.007523  0.502585  1
  Os  Os6  1  0.827114  0.652283  0.250856  1
  Os  Os7  1  0.347717  0.172886  0.250856  1
  Os  Os8  1  0.176809  0.823191  0.748735  1
  Os  Os9  1  0.169295  0.333651  0.749669  1
  Os  Os10  1  0.666349  0.830705  0.749669  1
  Ru  Ru11  1  0.991918  0.008082  0.998131  1
