# generated using pymatgen
data_Tm(ScNi6)2
_symmetry_space_group_name_H-M   'P 1'
_cell_length_a   4.76159474
_cell_length_b   4.77306356
_cell_length_c   10.05483500
_cell_angle_alpha   85.24870919
_cell_angle_beta   80.44117541
_cell_angle_gamma   60.07945860
_symmetry_Int_Tables_number   1
_chemical_formula_structural   Tm(ScNi6)2
_chemical_formula_sum   'Tm1 Sc2 Ni12'
_cell_volume   195.31259204
_cell_formula_units_Z   1
loop_
 _symmetry_equiv_pos_site_id
 _symmetry_equiv_pos_as_xyz
  1  'x, y, z'
loop_
 _atom_site_type_symbol
 _atom_site_label
 _atom_site_symmetry_multiplicity
 _atom_site_fract_x
 _atom_site_fract_y
 _atom_site_fract_z
 _atom_site_occupancy
  Tm  Tm0  1  0.000000  0.000000  0.000000  1
  Sc  Sc1  1  0.870264  0.000000  0.357331  1
  Sc  Sc2  1  0.129736  0.000000  0.642669  1
  Ni  Ni3  1  0.333351  0.333299  0.000000  1
  Ni  Ni4  1  0.666649  0.666701  0.000000  1
  Ni  Ni5  1  0.425754  0.000000  0.202434  1
  Ni  Ni6  1  0.574246  0.000000  0.797566  1
  Ni  Ni7  1  0.929659  0.501841  0.201920  1
  Ni  Ni8  1  0.431500  0.498159  0.201920  1
  Ni  Ni9  1  0.070341  0.498159  0.798080  1
  Ni  Ni10  1  0.568500  0.501841  0.798080  1
  Ni  Ni11  1  0.190773  0.334544  0.407394  1
  Ni  Ni12  1  0.525317  0.665456  0.407394  1
  Ni  Ni13  1  0.809227  0.665456  0.592606  1
  Ni  Ni14  1  0.474683  0.334544  0.592606  1
