# generated using pymatgen
data_YbHo(CuO2)4
_symmetry_space_group_name_H-M   'P 1'
_cell_length_a   6.24056128
_cell_length_b   6.24056216
_cell_length_c   6.24056136
_cell_angle_alpha   125.85623071
_cell_angle_beta   125.85623432
_cell_angle_gamma   80.12455380
_symmetry_Int_Tables_number   1
_chemical_formula_structural   YbHo(CuO2)4
_chemical_formula_sum   'Yb1 Ho1 Cu4 O8'
_cell_volume   154.10523657
_cell_formula_units_Z   1
loop_
 _symmetry_equiv_pos_site_id
 _symmetry_equiv_pos_as_xyz
  1  'x, y, z'
loop_
 _atom_site_type_symbol
 _atom_site_label
 _atom_site_symmetry_multiplicity
 _atom_site_fract_x
 _atom_site_fract_y
 _atom_site_fract_z
 _atom_site_occupancy
  Yb  Yb0  1  0.000000  0.000000  0.000000  1
  Ho  Ho1  1  0.750000  0.250000  0.500000  1
  Cu  Cu2  1  0.370981  0.625993  0.245993  1
  Cu  Cu3  1  0.379999  0.124987  0.754007  1
  Cu  Cu4  1  0.374007  0.620001  0.744988  1
  Cu  Cu5  1  0.875013  0.629019  0.255012  1
  O  O6  1  0.737447  0.307709  0.149172  1
  O  O7  1  0.158537  0.588274  0.850828  1
  O  O8  1  0.016063  0.953183  0.369019  1
  O  O9  1  0.584165  0.647045  0.630981  1
  O  O10  1  0.046817  0.415835  0.062880  1
  O  O11  1  0.352955  0.983937  0.937120  1
  O  O12  1  0.411726  0.262553  0.570262  1
  O  O13  1  0.692291  0.841463  0.429738  1
