# generated using pymatgen
data_YTh3(Sc3Ge4)2
_symmetry_space_group_name_H-M   'P 1'
_cell_length_a   7.42708943
_cell_length_b   7.54802870
_cell_length_c   14.20189609
_cell_angle_alpha   89.99361574
_cell_angle_beta   89.98867942
_cell_angle_gamma   89.74497679
_symmetry_Int_Tables_number   1
_chemical_formula_structural   YTh3(Sc3Ge4)2
_chemical_formula_sum   'Y2 Th6 Sc12 Ge16'
_cell_volume   796.14874333
_cell_formula_units_Z   2
loop_
 _symmetry_equiv_pos_site_id
 _symmetry_equiv_pos_as_xyz
  1  'x, y, z'
loop_
 _atom_site_type_symbol
 _atom_site_label
 _atom_site_symmetry_multiplicity
 _atom_site_fract_x
 _atom_site_fract_y
 _atom_site_fract_z
 _atom_site_occupancy
  Y  Y0  1  0.993910  0.175596  0.096702  1
  Y  Y1  1  0.006090  0.824404  0.903298  1
  Th  Th2  1  0.504556  0.675594  0.904781  1
  Th  Th3  1  0.006241  0.825018  0.595776  1
  Th  Th4  1  0.495444  0.324406  0.095219  1
  Th  Th5  1  0.993759  0.174982  0.404224  1
  Th  Th6  1  0.493245  0.324266  0.402803  1
  Th  Th7  1  0.506755  0.675734  0.597197  1
  Sc  Sc8  1  0.174891  0.498346  0.750684  1
  Sc  Sc9  1  0.825109  0.501654  0.249316  1
  Sc  Sc10  1  0.324882  0.998834  0.249550  1
  Sc  Sc11  1  0.675118  0.001166  0.750450  1
  Sc  Sc12  1  0.342379  0.164183  0.625491  1
  Sc  Sc13  1  0.657621  0.835817  0.374509  1
  Sc  Sc14  1  0.155919  0.664879  0.374235  1
  Sc  Sc15  1  0.656668  0.835304  0.124677  1
  Sc  Sc16  1  0.844081  0.335121  0.625765  1
  Sc  Sc17  1  0.343332  0.164696  0.875323  1
  Sc  Sc18  1  0.843595  0.333551  0.875171  1
  Sc  Sc19  1  0.156405  0.666449  0.124829  1
  Ge  Ge20  1  0.184046  0.456686  0.543056  1
  Ge  Ge21  1  0.815954  0.543314  0.456944  1
  Ge  Ge22  1  0.317481  0.955840  0.456718  1
  Ge  Ge23  1  0.819456  0.542693  0.042693  1
  Ge  Ge24  1  0.682519  0.044160  0.543282  1
  Ge  Ge25  1  0.180544  0.457307  0.957307  1
  Ge  Ge26  1  0.688028  0.041216  0.956006  1
  Ge  Ge27  1  0.311972  0.958784  0.043994  1
  Ge  Ge28  1  0.039917  0.130345  0.750261  1
  Ge  Ge29  1  0.960083  0.869655  0.249739  1
  Ge  Ge30  1  0.460561  0.631553  0.249681  1
  Ge  Ge31  1  0.539439  0.368447  0.750319  1
  Ge  Ge32  1  0.309032  0.865800  0.751335  1
  Ge  Ge33  1  0.690968  0.134200  0.248665  1
  Ge  Ge34  1  0.185980  0.362960  0.248181  1
  Ge  Ge35  1  0.814020  0.637040  0.751819  1
