# generated using pymatgen
data_Ho7U(Nb3Si4)4
_symmetry_space_group_name_H-M   'P 1'
_cell_length_a   7.05101949
_cell_length_b   7.05822448
_cell_length_c   13.03512204
_cell_angle_alpha   89.99378697
_cell_angle_beta   89.99311380
_cell_angle_gamma   90.04191612
_symmetry_Int_Tables_number   1
_chemical_formula_structural   Ho7U(Nb3Si4)4
_chemical_formula_sum   'Ho7 U1 Nb12 Si16'
_cell_volume   648.72757900
_cell_formula_units_Z   1
loop_
 _symmetry_equiv_pos_site_id
 _symmetry_equiv_pos_as_xyz
  1  'x, y, z'
loop_
 _atom_site_type_symbol
 _atom_site_label
 _atom_site_symmetry_multiplicity
 _atom_site_fract_x
 _atom_site_fract_y
 _atom_site_fract_z
 _atom_site_occupancy
  Ho  Ho0  1  0.997504  0.339418  0.217827  1
  Ho  Ho1  1  0.001070  0.659856  0.717236  1
  Ho  Ho2  1  0.160113  0.499735  0.467770  1
  Ho  Ho3  1  0.500977  0.840494  0.032214  1
  Ho  Ho4  1  0.840973  0.501408  0.967580  1
  Ho  Ho5  1  0.499338  0.159414  0.532248  1
  Ho  Ho6  1  0.340770  0.997848  0.782228  1
  U  U7  1  0.659941  0.000965  0.283283  1
  Nb  Nb8  1  0.170307  0.170743  0.999492  1
  Nb  Nb9  1  0.827965  0.831658  0.498258  1
  Nb  Nb10  1  0.333134  0.673416  0.250684  1
  Nb  Nb11  1  0.671055  0.329788  0.749849  1
  Nb  Nb12  1  0.152440  0.992762  0.375622  1
  Nb  Nb13  1  0.846693  0.006720  0.876078  1
  Nb  Nb14  1  0.506442  0.653219  0.625722  1
  Nb  Nb15  1  0.346050  0.492796  0.874411  1
  Nb  Nb16  1  0.495162  0.343057  0.126905  1
  Nb  Nb17  1  0.653187  0.503857  0.373957  1
  Nb  Nb18  1  0.992479  0.155027  0.624300  1
  Nb  Nb19  1  0.003861  0.848595  0.125371  1
  Si  Si20  1  0.294480  0.043553  0.185357  1
  Si  Si21  1  0.705874  0.955364  0.686385  1
  Si  Si22  1  0.455576  0.794542  0.436934  1
  Si  Si23  1  0.206530  0.545073  0.064154  1
  Si  Si24  1  0.544560  0.205860  0.936246  1
  Si  Si25  1  0.795105  0.457330  0.562997  1
  Si  Si26  1  0.044360  0.295014  0.813220  1
  Si  Si27  1  0.955770  0.703572  0.313499  1
  Si  Si28  1  0.367389  0.292985  0.317753  1
  Si  Si29  1  0.633484  0.703661  0.817452  1
  Si  Si30  1  0.204392  0.867818  0.567636  1
  Si  Si31  1  0.132139  0.795413  0.932741  1
  Si  Si32  1  0.794059  0.132289  0.067993  1
  Si  Si33  1  0.867532  0.206496  0.432244  1
  Si  Si34  1  0.295162  0.367214  0.682259  1
  Si  Si35  1  0.704129  0.633039  0.182096  1
