# generated using pymatgen
data_Tb5(GaBi)2
_symmetry_space_group_name_H-M   'P 1'
_cell_length_a   8.79560387
_cell_length_b   8.79560477
_cell_length_c   8.06841300
_cell_angle_alpha   90.00000000
_cell_angle_beta   90.00000000
_cell_angle_gamma   125.36757224
_symmetry_Int_Tables_number   1
_chemical_formula_structural   Tb5(GaBi)2
_chemical_formula_sum   'Tb10 Ga4 Bi4'
_cell_volume   509.00232504
_cell_formula_units_Z   2
loop_
 _symmetry_equiv_pos_site_id
 _symmetry_equiv_pos_as_xyz
  1  'x, y, z'
loop_
 _atom_site_type_symbol
 _atom_site_label
 _atom_site_symmetry_multiplicity
 _atom_site_fract_x
 _atom_site_fract_y
 _atom_site_fract_z
 _atom_site_occupancy
  Tb  Tb0  1  0.042333  0.295172  0.331674  1
  Tb  Tb1  1  0.957667  0.704828  0.668326  1
  Tb  Tb2  1  0.457667  0.204828  0.831674  1
  Tb  Tb3  1  0.795172  0.542333  0.168326  1
  Tb  Tb4  1  0.542333  0.795172  0.168326  1
  Tb  Tb5  1  0.204828  0.457667  0.831674  1
  Tb  Tb6  1  0.704828  0.957667  0.668326  1
  Tb  Tb7  1  0.295172  0.042333  0.331674  1
  Tb  Tb8  1  0.000000  0.000000  0.000000  1
  Tb  Tb9  1  0.500000  0.500000  0.500000  1
  Ga  Ga10  1  0.373336  0.373336  0.126082  1
  Ga  Ga11  1  0.626664  0.626664  0.873918  1
  Ga  Ga12  1  0.126664  0.126664  0.626082  1
  Ga  Ga13  1  0.873336  0.873336  0.373918  1
  Bi  Bi14  1  0.792378  0.207622  0.000000  1
  Bi  Bi15  1  0.207622  0.792378  0.000000  1
  Bi  Bi16  1  0.707622  0.292378  0.500000  1
  Bi  Bi17  1  0.292378  0.707622  0.500000  1
