# generated using pymatgen
data_PmYSi3Au
_symmetry_space_group_name_H-M   'P 1'
_cell_length_a   5.94104229
_cell_length_b   5.94432031
_cell_length_c   5.94432100
_cell_angle_alpha   138.69508382
_cell_angle_beta   105.40641093
_cell_angle_gamma   89.04115233
_symmetry_Int_Tables_number   1
_chemical_formula_structural   PmYSi3Au
_chemical_formula_sum   'Pm1 Y1 Si3 Au1'
_cell_volume   127.95341237
_cell_formula_units_Z   1
loop_
 _symmetry_equiv_pos_site_id
 _symmetry_equiv_pos_as_xyz
  1  'x, y, z'
loop_
 _atom_site_type_symbol
 _atom_site_label
 _atom_site_symmetry_multiplicity
 _atom_site_fract_x
 _atom_site_fract_y
 _atom_site_fract_z
 _atom_site_occupancy
  Pm  Pm0  1  0.002539  0.003398  0.999141  1
  Y  Y1  1  0.495443  0.496268  0.999174  1
  Si  Si2  1  0.084022  0.750590  0.333430  1
  Si  Si3  1  0.921914  0.250275  0.671638  1
  Si  Si4  1  0.413902  0.752612  0.661289  1
  Au  Au5  1  0.582179  0.246853  0.335327  1
