# generated using pymatgen
data_Er9Cd5NiPd3
_symmetry_space_group_name_H-M   'P 1'
_cell_length_a   10.74924085
_cell_length_b   10.74924085
_cell_length_c   3.72240800
_cell_angle_alpha   90.00000000
_cell_angle_beta   90.00000000
_cell_angle_gamma   89.79118333
_symmetry_Int_Tables_number   1
_chemical_formula_structural   Er9Cd5NiPd3
_chemical_formula_sum   'Er9 Cd5 Ni1 Pd3'
_cell_volume   430.10716381
_cell_formula_units_Z   1
loop_
 _symmetry_equiv_pos_site_id
 _symmetry_equiv_pos_as_xyz
  1  'x, y, z'
loop_
 _atom_site_type_symbol
 _atom_site_label
 _atom_site_symmetry_multiplicity
 _atom_site_fract_x
 _atom_site_fract_y
 _atom_site_fract_z
 _atom_site_occupancy
  Er  Er0  1  0.330980  0.332459  0.500000  1
  Er  Er1  1  0.667541  0.669020  0.500000  1
  Er  Er2  1  0.332264  0.667736  0.500000  1
  Er  Er3  1  0.673498  0.326502  0.500000  1
  Er  Er4  1  0.992598  0.285003  0.500000  1
  Er  Er5  1  0.999353  0.710220  0.500000  1
  Er  Er6  1  0.289780  0.000647  0.500000  1
  Er  Er7  1  0.714997  0.007402  0.500000  1
  Er  Er8  1  0.996434  0.003566  0.000000  1
  Cd  Cd9  1  0.501382  0.148555  0.000000  1
  Cd  Cd10  1  0.501715  0.854614  0.000000  1
  Cd  Cd11  1  0.145386  0.498285  0.000000  1
  Cd  Cd12  1  0.851445  0.498618  0.000000  1
  Cd  Cd13  1  0.502863  0.497137  0.000000  1
  Ni  Ni14  1  0.807793  0.192207  0.000000  1
  Pd  Pd15  1  0.192424  0.192707  0.000000  1
  Pd  Pd16  1  0.807293  0.807576  0.000000  1
  Pd  Pd17  1  0.192254  0.807746  0.000000  1
