# generated using pymatgen
data_Tb2Th2Ga16Ir3
_symmetry_space_group_name_H-M   'P 1'
_cell_length_a   6.24104700
_cell_length_b   6.24104700
_cell_length_c   11.26767800
_cell_angle_alpha   90.00000000
_cell_angle_beta   90.00000000
_cell_angle_gamma   90.00000000
_symmetry_Int_Tables_number   1
_chemical_formula_structural   Tb2Th2Ga16Ir3
_chemical_formula_sum   'Tb2 Th2 Ga16 Ir3'
_cell_volume   438.88358104
_cell_formula_units_Z   1
loop_
 _symmetry_equiv_pos_site_id
 _symmetry_equiv_pos_as_xyz
  1  'x, y, z'
loop_
 _atom_site_type_symbol
 _atom_site_label
 _atom_site_symmetry_multiplicity
 _atom_site_fract_x
 _atom_site_fract_y
 _atom_site_fract_z
 _atom_site_occupancy
  Tb  Tb0  1  0.500000  0.000000  0.198192  1
  Tb  Tb1  1  0.000000  0.500000  0.198192  1
  Th  Th2  1  0.500000  0.000000  0.806851  1
  Th  Th3  1  0.000000  0.500000  0.806851  1
  Ga  Ga4  1  0.250414  0.250414  0.614824  1
  Ga  Ga5  1  0.749586  0.749586  0.614824  1
  Ga  Ga6  1  0.749586  0.250414  0.614824  1
  Ga  Ga7  1  0.250414  0.749586  0.614824  1
  Ga  Ga8  1  0.750023  0.750023  0.378629  1
  Ga  Ga9  1  0.249977  0.249977  0.378629  1
  Ga  Ga10  1  0.249977  0.750023  0.378629  1
  Ga  Ga11  1  0.750023  0.249977  0.378629  1
  Ga  Ga12  1  0.289014  0.289014  0.007056  1
  Ga  Ga13  1  0.710986  0.710986  0.007056  1
  Ga  Ga14  1  0.710986  0.289014  0.007056  1
  Ga  Ga15  1  0.289014  0.710986  0.007056  1
  Ga  Ga16  1  0.500000  0.500000  0.809374  1
  Ga  Ga17  1  0.500000  0.500000  0.203625  1
  Ga  Ga18  1  0.000000  0.000000  0.766839  1
  Ga  Ga19  1  0.000000  0.000000  0.220436  1
  Ir  Ir20  1  0.500000  0.000000  0.497845  1
  Ir  Ir21  1  0.000000  0.500000  0.497845  1
  Ir  Ir22  1  0.000000  0.000000  0.991913  1
