# generated using pymatgen
data_Lu8Ga12Cu3Pt
_symmetry_space_group_name_H-M   'P 1'
_cell_length_a   8.75168210
_cell_length_b   8.75168313
_cell_length_c   6.85569100
_cell_angle_alpha   90.00126292
_cell_angle_beta   89.99874102
_cell_angle_gamma   120.01806686
_symmetry_Int_Tables_number   1
_chemical_formula_structural   Lu8Ga12Cu3Pt
_chemical_formula_sum   'Lu8 Ga12 Cu3 Pt1'
_cell_volume   454.65910384
_cell_formula_units_Z   1
loop_
 _symmetry_equiv_pos_site_id
 _symmetry_equiv_pos_as_xyz
  1  'x, y, z'
loop_
 _atom_site_type_symbol
 _atom_site_label
 _atom_site_symmetry_multiplicity
 _atom_site_fract_x
 _atom_site_fract_y
 _atom_site_fract_z
 _atom_site_occupancy
  Lu  Lu0  1  0.000027  0.999973  0.251770  1
  Lu  Lu1  1  0.999956  0.000044  0.754201  1
  Lu  Lu2  1  0.519130  0.038344  0.252066  1
  Lu  Lu3  1  0.519174  0.480826  0.252189  1
  Lu  Lu4  1  0.961656  0.480870  0.252066  1
  Lu  Lu5  1  0.485347  0.970581  0.748187  1
  Lu  Lu6  1  0.485170  0.514830  0.748195  1
  Lu  Lu7  1  0.029419  0.514653  0.748187  1
  Ga  Ga8  1  0.170382  0.340365  0.040795  1
  Ga  Ga9  1  0.170722  0.829278  0.460291  1
  Ga  Ga10  1  0.657832  0.828953  0.460407  1
  Ga  Ga11  1  0.659635  0.829618  0.040795  1
  Ga  Ga12  1  0.170647  0.829353  0.040383  1
  Ga  Ga13  1  0.831160  0.661879  0.963468  1
  Ga  Ga14  1  0.830932  0.169068  0.963818  1
  Ga  Ga15  1  0.338121  0.168840  0.963468  1
  Ga  Ga16  1  0.171047  0.342168  0.460407  1
  Ga  Ga17  1  0.330579  0.165284  0.541773  1
  Ga  Ga18  1  0.834716  0.669421  0.541773  1
  Ga  Ga19  1  0.834752  0.165248  0.541763  1
  Cu  Cu20  1  0.333460  0.666540  0.030694  1
  Cu  Cu21  1  0.332889  0.667111  0.466069  1
  Cu  Cu22  1  0.666274  0.333726  0.953108  1
  Pt  Pt23  1  0.666970  0.333030  0.524123  1
