# generated using pymatgen
data_Tm4Mn2(ReTc)3
_symmetry_space_group_name_H-M   'P 1'
_cell_length_a   5.28415200
_cell_length_b   5.28415211
_cell_length_c   8.88704900
_cell_angle_alpha   90.00000000
_cell_angle_beta   90.00000000
_cell_angle_gamma   119.99999929
_symmetry_Int_Tables_number   1
_chemical_formula_structural   Tm4Mn2(ReTc)3
_chemical_formula_sum   'Tm4 Mn2 Re3 Tc3'
_cell_volume   214.90119092
_cell_formula_units_Z   1
loop_
 _symmetry_equiv_pos_site_id
 _symmetry_equiv_pos_as_xyz
  1  'x, y, z'
loop_
 _atom_site_type_symbol
 _atom_site_label
 _atom_site_symmetry_multiplicity
 _atom_site_fract_x
 _atom_site_fract_y
 _atom_site_fract_z
 _atom_site_occupancy
  Tm  Tm0  1  0.333333  0.666667  0.436292  1
  Tm  Tm1  1  0.666667  0.333333  0.563681  1
  Tm  Tm2  1  0.666667  0.333333  0.936319  1
  Tm  Tm3  1  0.333333  0.666667  0.063708  1
  Mn  Mn4  1  0.000000  0.000000  0.499923  1
  Mn  Mn5  1  0.000000  0.000000  0.000077  1
  Re  Re6  1  0.168400  0.831600  0.750000  1
  Re  Re7  1  0.168400  0.336801  0.750000  1
  Re  Re8  1  0.663199  0.831600  0.750000  1
  Tc  Tc9  1  0.831424  0.168576  0.250000  1
  Tc  Tc10  1  0.831424  0.662848  0.250000  1
  Tc  Tc11  1  0.337152  0.168576  0.250000  1
