# generated using pymatgen
data_Ca2AlGa3I16
_symmetry_space_group_name_H-M   'P 1'
_cell_length_a   8.22328854
_cell_length_b   8.38932796
_cell_length_c   15.43398500
_cell_angle_alpha   87.18818934
_cell_angle_beta   90.31785907
_cell_angle_gamma   90.26503423
_symmetry_Int_Tables_number   1
_chemical_formula_structural   Ca2AlGa3I16
_chemical_formula_sum   'Ca2 Al1 Ga3 I16'
_cell_volume   1063.44927952
_cell_formula_units_Z   1
loop_
 _symmetry_equiv_pos_site_id
 _symmetry_equiv_pos_as_xyz
  1  'x, y, z'
loop_
 _atom_site_type_symbol
 _atom_site_label
 _atom_site_symmetry_multiplicity
 _atom_site_fract_x
 _atom_site_fract_y
 _atom_site_fract_z
 _atom_site_occupancy
  Ca  Ca0  1  0.755720  0.077128  0.812602  1
  Ca  Ca1  1  0.245737  0.074994  0.311738  1
  Al  Al2  1  0.933491  0.220599  0.580478  1
  Ga  Ga3  1  0.065876  0.223816  0.078708  1
  Ga  Ga4  1  0.573910  0.640190  0.776391  1
  Ga  Ga5  1  0.426477  0.639412  0.276329  1
  I  I6  1  0.419241  0.613012  0.636696  1
  I  I7  1  0.580376  0.612592  0.137284  1
  I  I8  1  0.876629  0.733577  0.759528  1
  I  I9  1  0.123667  0.730364  0.259159  1
  I  I10  1  0.936879  0.482935  0.496648  1
  I  I11  1  0.061629  0.487482  0.993544  1
  I  I12  1  0.915438  0.995080  0.998829  1
  I  I13  1  0.081815  0.999982  0.498409  1
  I  I14  1  0.638921  0.127183  0.616611  1
  I  I15  1  0.361369  0.125241  0.116386  1
  I  I16  1  0.564763  0.377736  0.877306  1
  I  I17  1  0.435382  0.377960  0.377912  1
  I  I18  1  0.447789  0.865721  0.867990  1
  I  I19  1  0.554717  0.866526  0.367608  1
  I  I20  1  0.928431  0.230256  0.231993  1
  I  I21  1  0.071742  0.233014  0.732255  1
