# generated using pymatgen
data_LiAcNdAgSb4
_symmetry_space_group_name_H-M   'P 1'
_cell_length_a   4.42133592
_cell_length_b   4.42133618
_cell_length_c   22.89202000
_cell_angle_alpha   90.36133620
_cell_angle_beta   90.36133622
_cell_angle_gamma   89.78226988
_symmetry_Int_Tables_number   1
_chemical_formula_structural   LiAcNdAgSb4
_chemical_formula_sum   'Li2 Ac2 Nd2 Ag2 Sb8'
_cell_volume   447.47710972
_cell_formula_units_Z   2
loop_
 _symmetry_equiv_pos_site_id
 _symmetry_equiv_pos_as_xyz
  1  'x, y, z'
loop_
 _atom_site_type_symbol
 _atom_site_label
 _atom_site_symmetry_multiplicity
 _atom_site_fract_x
 _atom_site_fract_y
 _atom_site_fract_z
 _atom_site_occupancy
  Li  Li0  1  0.243795  0.744642  0.759943  1
  Li  Li1  1  0.255358  0.756205  0.240057  1
  Ac  Ac2  1  0.256099  0.256964  0.377311  1
  Ac  Ac3  1  0.743036  0.743901  0.622689  1
  Nd  Nd4  1  0.753030  0.753078  0.112128  1
  Nd  Nd5  1  0.246922  0.246970  0.887872  1
  Ag  Ag6  1  0.756476  0.254947  0.240173  1
  Ag  Ag7  1  0.745053  0.243524  0.759827  1
  Sb  Sb8  1  0.746103  0.746015  0.840900  1
  Sb  Sb9  1  0.253985  0.253897  0.159100  1
  Sb  Sb10  1  0.243969  0.244303  0.678678  1
  Sb  Sb11  1  0.755697  0.756031  0.321322  1
  Sb  Sb12  1  0.250109  0.749891  0.000000  1
  Sb  Sb13  1  0.234289  0.765711  0.500000  1
  Sb  Sb14  1  0.750337  0.249663  0.000000  1
  Sb  Sb15  1  0.765739  0.234261  0.500000  1
