# generated using pymatgen
data_PbWF6
_symmetry_space_group_name_H-M   'P 1'
_cell_length_a   6.34260770
_cell_length_b   6.35804253
_cell_length_c   6.34309082
_cell_angle_alpha   59.91695357
_cell_angle_beta   60.15852018
_cell_angle_gamma   59.92451452
_symmetry_Int_Tables_number   1
_chemical_formula_structural   PbWF6
_chemical_formula_sum   'Pb1 W1 F6'
_cell_volume   180.87234715
_cell_formula_units_Z   1
loop_
 _symmetry_equiv_pos_site_id
 _symmetry_equiv_pos_as_xyz
  1  'x, y, z'
loop_
 _atom_site_type_symbol
 _atom_site_label
 _atom_site_symmetry_multiplicity
 _atom_site_fract_x
 _atom_site_fract_y
 _atom_site_fract_z
 _atom_site_occupancy
  Pb  Pb0  1  0.500000  0.500000  0.500000  1
  W  W1  1  0.000000  0.000000  0.000000  1
  F  F2  1  0.777501  0.222499  0.222499  1
  F  F3  1  0.230361  0.769639  0.230361  1
  F  F4  1  0.777523  0.777523  0.222477  1
  F  F5  1  0.222477  0.222477  0.777523  1
  F  F6  1  0.769639  0.230361  0.769639  1
  F  F7  1  0.222499  0.777501  0.777501  1
