# generated using pymatgen
data_Nd17Y3(Ir2Ru)4
_symmetry_space_group_name_H-M   'P 1'
_cell_length_a   11.18647700
_cell_length_b   11.18647700
_cell_length_c   6.58797100
_cell_angle_alpha   90.00000000
_cell_angle_beta   90.00000000
_cell_angle_gamma   90.00000000
_symmetry_Int_Tables_number   1
_chemical_formula_structural   Nd17Y3(Ir2Ru)4
_chemical_formula_sum   'Nd17 Y3 Ir8 Ru4'
_cell_volume   824.40069044
_cell_formula_units_Z   1
loop_
 _symmetry_equiv_pos_site_id
 _symmetry_equiv_pos_as_xyz
  1  'x, y, z'
loop_
 _atom_site_type_symbol
 _atom_site_label
 _atom_site_symmetry_multiplicity
 _atom_site_fract_x
 _atom_site_fract_y
 _atom_site_fract_z
 _atom_site_occupancy
  Nd  Nd0  1  0.293180  0.086773  0.380838  1
  Nd  Nd1  1  0.292534  0.913045  0.881498  1
  Nd  Nd2  1  0.707466  0.086955  0.881498  1
  Nd  Nd3  1  0.706820  0.913227  0.380838  1
  Nd  Nd4  1  0.587089  0.791320  0.880379  1
  Nd  Nd5  1  0.586739  0.208913  0.380448  1
  Nd  Nd6  1  0.413261  0.791087  0.380448  1
  Nd  Nd7  1  0.412911  0.208680  0.880379  1
  Nd  Nd8  1  0.208913  0.413261  0.619552  1
  Nd  Nd9  1  0.208680  0.587089  0.119621  1
  Nd  Nd10  1  0.791320  0.412911  0.119621  1
  Nd  Nd11  1  0.791087  0.586739  0.619552  1
  Nd  Nd12  1  0.913045  0.707466  0.118502  1
  Nd  Nd13  1  0.913227  0.293180  0.619162  1
  Nd  Nd14  1  0.086773  0.706820  0.619162  1
  Nd  Nd15  1  0.086955  0.292534  0.118502  1
  Nd  Nd16  1  0.000000  0.000000  0.500000  1
  Y  Y17  1  0.000000  0.000000  0.000000  1
  Y  Y18  1  0.500000  0.500000  0.000000  1
  Y  Y19  1  0.500000  0.500000  0.500000  1
  Ir  Ir20  1  0.848875  0.151117  0.246630  1
  Ir  Ir21  1  0.848883  0.848875  0.753370  1
  Ir  Ir22  1  0.151117  0.151125  0.753370  1
  Ir  Ir23  1  0.151125  0.848883  0.246630  1
  Ir  Ir24  1  0.649388  0.350915  0.749867  1
  Ir  Ir25  1  0.649085  0.649388  0.250133  1
  Ir  Ir26  1  0.350915  0.350612  0.250133  1
  Ir  Ir27  1  0.350612  0.649085  0.749867  1
  Ru  Ru28  1  0.500000  0.000000  0.120073  1
  Ru  Ru29  1  0.500000  0.000000  0.620411  1
  Ru  Ru30  1  0.000000  0.500000  0.879927  1
  Ru  Ru31  1  0.000000  0.500000  0.379589  1
