# generated using pymatgen
data_K2LiCrCl6
_symmetry_space_group_name_H-M   'P 1'
_cell_length_a   6.96891300
_cell_length_b   6.96891301
_cell_length_c   6.04487300
_cell_angle_alpha   90.00000000
_cell_angle_beta   90.00000000
_cell_angle_gamma   119.99999519
_symmetry_Int_Tables_number   1
_chemical_formula_structural   K2LiCrCl6
_chemical_formula_sum   'K2 Li1 Cr1 Cl6'
_cell_volume   254.24236530
_cell_formula_units_Z   1
loop_
 _symmetry_equiv_pos_site_id
 _symmetry_equiv_pos_as_xyz
  1  'x, y, z'
loop_
 _atom_site_type_symbol
 _atom_site_label
 _atom_site_symmetry_multiplicity
 _atom_site_fract_x
 _atom_site_fract_y
 _atom_site_fract_z
 _atom_site_occupancy
  K  K0  1  0.333333  0.666667  0.263316  1
  K  K1  1  0.666667  0.333333  0.736684  1
  Li  Li2  1  0.000000  0.000000  0.000000  1
  Cr  Cr3  1  0.000000  0.000000  0.500000  1
  Cl  Cl4  1  0.841035  0.158965  0.270568  1
  Cl  Cl5  1  0.158965  0.841035  0.729432  1
  Cl  Cl6  1  0.841035  0.682069  0.270568  1
  Cl  Cl7  1  0.158965  0.317931  0.729432  1
  Cl  Cl8  1  0.317931  0.158965  0.270568  1
  Cl  Cl9  1  0.682069  0.841035  0.729432  1
