# generated using pymatgen
data_Nd6Al24Os7Pd
_symmetry_space_group_name_H-M   'P 1'
_cell_length_a   8.93124463
_cell_length_b   8.93124397
_cell_length_c   9.67185373
_cell_angle_alpha   89.76654688
_cell_angle_beta   90.23345404
_cell_angle_gamma   119.73439112
_symmetry_Int_Tables_number   1
_chemical_formula_structural   Nd6Al24Os7Pd
_chemical_formula_sum   'Nd6 Al24 Os7 Pd1'
_cell_volume   669.90871360
_cell_formula_units_Z   1
loop_
 _symmetry_equiv_pos_site_id
 _symmetry_equiv_pos_as_xyz
  1  'x, y, z'
loop_
 _atom_site_type_symbol
 _atom_site_label
 _atom_site_symmetry_multiplicity
 _atom_site_fract_x
 _atom_site_fract_y
 _atom_site_fract_z
 _atom_site_occupancy
  Nd  Nd0  1  0.188691  0.383223  0.251181  1
  Nd  Nd1  1  0.811309  0.616777  0.748819  1
  Nd  Nd2  1  0.616777  0.811309  0.251181  1
  Nd  Nd3  1  0.383223  0.188691  0.748819  1
  Nd  Nd4  1  0.192674  0.807326  0.252969  1
  Nd  Nd5  1  0.807326  0.192674  0.747031  1
  Al  Al6  1  0.330022  0.669978  0.011852  1
  Al  Al7  1  0.669978  0.330022  0.988148  1
  Al  Al8  1  0.666549  0.333451  0.510486  1
  Al  Al9  1  0.333451  0.666549  0.489514  1
  Al  Al10  1  0.162748  0.325805  0.575016  1
  Al  Al11  1  0.837252  0.674195  0.424984  1
  Al  Al12  1  0.674195  0.837252  0.575016  1
  Al  Al13  1  0.844033  0.676827  0.077293  1
  Al  Al14  1  0.325805  0.162748  0.424984  1
  Al  Al15  1  0.155967  0.323173  0.922707  1
  Al  Al16  1  0.163226  0.836774  0.574221  1
  Al  Al17  1  0.323173  0.155967  0.077293  1
  Al  Al18  1  0.836774  0.163226  0.425779  1
  Al  Al19  1  0.676827  0.844033  0.922707  1
  Al  Al20  1  0.836902  0.163098  0.074055  1
  Al  Al21  1  0.163098  0.836902  0.925945  1
  Al  Al22  1  0.561633  0.123924  0.249376  1
  Al  Al23  1  0.438367  0.876076  0.750624  1
  Al  Al24  1  0.876076  0.438367  0.249376  1
  Al  Al25  1  0.123924  0.561633  0.750624  1
  Al  Al26  1  0.562707  0.437293  0.253474  1
  Al  Al27  1  0.437293  0.562707  0.746526  1
  Al  Al28  1  0.999580  0.000420  0.250354  1
  Al  Al29  1  0.000420  0.999580  0.749646  1
  Os  Os30  1  0.500000  0.000000  0.000000  1
  Os  Os31  1  0.000000  0.500000  0.000000  1
  Os  Os32  1  0.500000  0.000000  0.500000  1
  Os  Os33  1  0.000000  0.500000  0.500000  1
  Os  Os34  1  0.500000  0.500000  0.500000  1
  Os  Os35  1  0.000000  0.000000  0.000000  1
  Os  Os36  1  0.000000  0.000000  0.500000  1
  Pd  Pd37  1  0.500000  0.500000  0.000000  1
