# generated using pymatgen
data_TbHo2In3Cu2Rh
_symmetry_space_group_name_H-M   'P 1'
_cell_length_a   7.54763708
_cell_length_b   7.53937662
_cell_length_c   3.90370200
_cell_angle_alpha   90.00000000
_cell_angle_beta   90.00000000
_cell_angle_gamma   120.05359261
_symmetry_Int_Tables_number   1
_chemical_formula_structural   TbHo2In3Cu2Rh
_chemical_formula_sum   'Tb1 Ho2 In3 Cu2 Rh1'
_cell_volume   192.27328630
_cell_formula_units_Z   1
loop_
 _symmetry_equiv_pos_site_id
 _symmetry_equiv_pos_as_xyz
  1  'x, y, z'
loop_
 _atom_site_type_symbol
 _atom_site_label
 _atom_site_symmetry_multiplicity
 _atom_site_fract_x
 _atom_site_fract_y
 _atom_site_fract_z
 _atom_site_occupancy
  Tb  Tb0  1  0.013916  0.596279  0.500000  1
  Ho  Ho1  1  0.402988  0.417699  0.500000  1
  Ho  Ho2  1  0.582599  0.985014  0.500000  1
  In  In3  1  0.750093  0.744563  0.000000  1
  In  In4  1  0.994138  0.249142  0.000000  1
  In  In5  1  0.256576  0.006323  0.000000  1
  Cu  Cu6  1  0.999346  0.001483  0.500000  1
  Cu  Cu7  1  0.665296  0.332595  0.000000  1
  Rh  Rh8  1  0.335047  0.666902  0.000000  1
