# generated using pymatgen
data_Zr3Al2GaPd2Rh
_symmetry_space_group_name_H-M   'P 1'
_cell_length_a   7.31070771
_cell_length_b   7.27970668
_cell_length_c   3.47174800
_cell_angle_alpha   90.00000000
_cell_angle_beta   90.00000000
_cell_angle_gamma   120.06308256
_symmetry_Int_Tables_number   1
_chemical_formula_structural   Zr3Al2GaPd2Rh
_chemical_formula_sum   'Zr3 Al2 Ga1 Pd2 Rh1'
_cell_volume   159.91003236
_cell_formula_units_Z   1
loop_
 _symmetry_equiv_pos_site_id
 _symmetry_equiv_pos_as_xyz
  1  'x, y, z'
loop_
 _atom_site_type_symbol
 _atom_site_label
 _atom_site_symmetry_multiplicity
 _atom_site_fract_x
 _atom_site_fract_y
 _atom_site_fract_z
 _atom_site_occupancy
  Zr  Zr0  1  0.989607  0.394180  0.500000  1
  Zr  Zr1  1  0.605478  0.596590  0.500000  1
  Zr  Zr2  1  0.408876  0.009639  0.500000  1
  Al  Al3  1  0.006077  0.739294  0.000000  1
  Al  Al4  1  0.263215  0.263768  0.000000  1
  Ga  Ga5  1  0.729879  0.996874  0.000000  1
  Pd  Pd6  1  0.328246  0.662095  0.000000  1
  Pd  Pd7  1  0.002298  0.999729  0.500000  1
  Rh  Rh8  1  0.666323  0.337832  0.000000  1
