# generated using pymatgen
data_Tm19Mg(IrPt2)4
_symmetry_space_group_name_H-M   'P 1'
_cell_length_a   10.86317100
_cell_length_b   10.86317100
_cell_length_c   6.27335400
_cell_angle_alpha   90.00000000
_cell_angle_beta   90.00000000
_cell_angle_gamma   90.00000000
_symmetry_Int_Tables_number   1
_chemical_formula_structural   Tm19Mg(IrPt2)4
_chemical_formula_sum   'Tm19 Mg1 Ir4 Pt8'
_cell_volume   740.30899623
_cell_formula_units_Z   1
loop_
 _symmetry_equiv_pos_site_id
 _symmetry_equiv_pos_as_xyz
  1  'x, y, z'
loop_
 _atom_site_type_symbol
 _atom_site_label
 _atom_site_symmetry_multiplicity
 _atom_site_fract_x
 _atom_site_fract_y
 _atom_site_fract_z
 _atom_site_occupancy
  Tm  Tm0  1  0.289394  0.083269  0.376172  1
  Tm  Tm1  1  0.295372  0.911858  0.877267  1
  Tm  Tm2  1  0.704628  0.088142  0.877267  1
  Tm  Tm3  1  0.710606  0.916731  0.376172  1
  Tm  Tm4  1  0.589011  0.795896  0.875451  1
  Tm  Tm5  1  0.584884  0.204221  0.374362  1
  Tm  Tm6  1  0.415116  0.795779  0.374362  1
  Tm  Tm7  1  0.410989  0.204104  0.875451  1
  Tm  Tm8  1  0.204221  0.415116  0.625638  1
  Tm  Tm9  1  0.204104  0.589011  0.124549  1
  Tm  Tm10  1  0.795896  0.410989  0.124549  1
  Tm  Tm11  1  0.795779  0.584884  0.625638  1
  Tm  Tm12  1  0.911858  0.704628  0.122733  1
  Tm  Tm13  1  0.916731  0.289394  0.623828  1
  Tm  Tm14  1  0.083269  0.710606  0.623828  1
  Tm  Tm15  1  0.088142  0.295372  0.122733  1
  Tm  Tm16  1  0.000000  0.000000  0.000000  1
  Tm  Tm17  1  0.500000  0.500000  0.000000  1
  Tm  Tm18  1  0.500000  0.500000  0.500000  1
  Mg  Mg19  1  0.000000  0.000000  0.500000  1
  Ir  Ir20  1  0.500000  0.000000  0.123264  1
  Ir  Ir21  1  0.500000  0.000000  0.621055  1
  Ir  Ir22  1  0.000000  0.500000  0.876736  1
  Ir  Ir23  1  0.000000  0.500000  0.378945  1
  Pt  Pt24  1  0.847402  0.154687  0.248370  1
  Pt  Pt25  1  0.845313  0.847402  0.751630  1
  Pt  Pt26  1  0.154687  0.152598  0.751630  1
  Pt  Pt27  1  0.152598  0.845313  0.248370  1
  Pt  Pt28  1  0.654725  0.346159  0.747213  1
  Pt  Pt29  1  0.653841  0.654725  0.252787  1
  Pt  Pt30  1  0.346159  0.345275  0.252787  1
  Pt  Pt31  1  0.345275  0.653841  0.747213  1
