# generated using pymatgen
data_DyHo2PaHg2Rh3
_symmetry_space_group_name_H-M   'P 1'
_cell_length_a   7.79954101
_cell_length_b   7.79793362
_cell_length_c   3.83641100
_cell_angle_alpha   90.00000000
_cell_angle_beta   90.00000000
_cell_angle_gamma   121.76475352
_symmetry_Int_Tables_number   1
_chemical_formula_structural   DyHo2PaHg2Rh3
_chemical_formula_sum   'Dy1 Ho2 Pa1 Hg2 Rh3'
_cell_volume   198.38249031
_cell_formula_units_Z   1
loop_
 _symmetry_equiv_pos_site_id
 _symmetry_equiv_pos_as_xyz
  1  'x, y, z'
loop_
 _atom_site_type_symbol
 _atom_site_label
 _atom_site_symmetry_multiplicity
 _atom_site_fract_x
 _atom_site_fract_y
 _atom_site_fract_z
 _atom_site_occupancy
  Dy  Dy0  1  0.961844  0.403770  0.500000  1
  Ho  Ho1  1  0.643227  0.643350  0.500000  1
  Ho  Ho2  1  0.403747  0.961834  0.500000  1
  Pa  Pa3  1  0.267541  0.267388  0.000000  1
  Hg  Hg4  1  0.013513  0.737911  0.000000  1
  Hg  Hg5  1  0.737010  0.012775  0.000000  1
  Rh  Rh6  1  0.325370  0.620297  0.000000  1
  Rh  Rh7  1  0.028260  0.028035  0.500000  1
  Rh  Rh8  1  0.619490  0.324643  0.000000  1
