# generated using pymatgen
data_Tb4Al18CuIr5
_symmetry_space_group_name_H-M   'P 1'
_cell_length_a   7.56434415
_cell_length_b   7.56434478
_cell_length_c   9.45429300
_cell_angle_alpha   90.07880464
_cell_angle_beta   90.07879707
_cell_angle_gamma   119.62564570
_symmetry_Int_Tables_number   1
_chemical_formula_structural   Tb4Al18CuIr5
_chemical_formula_sum   'Tb4 Al18 Cu1 Ir5'
_cell_volume   470.24760788
_cell_formula_units_Z   1
loop_
 _symmetry_equiv_pos_site_id
 _symmetry_equiv_pos_as_xyz
  1  'x, y, z'
loop_
 _atom_site_type_symbol
 _atom_site_label
 _atom_site_symmetry_multiplicity
 _atom_site_fract_x
 _atom_site_fract_y
 _atom_site_fract_z
 _atom_site_occupancy
  Tb  Tb0  1  0.994870  0.671327  0.250123  1
  Tb  Tb1  1  0.005130  0.328673  0.749877  1
  Tb  Tb2  1  0.671327  0.994870  0.250123  1
  Tb  Tb3  1  0.328673  0.005130  0.749877  1
  Al  Al4  1  0.129393  0.129393  0.250838  1
  Al  Al5  1  0.870607  0.870607  0.749162  1
  Al  Al6  1  0.001133  0.338222  0.076991  1
  Al  Al7  1  0.998867  0.661778  0.923009  1
  Al  Al8  1  0.999924  0.665639  0.573879  1
  Al  Al9  1  0.334361  0.000076  0.426121  1
  Al  Al10  1  0.000076  0.334361  0.426121  1
  Al  Al11  1  0.665639  0.999924  0.573879  1
  Al  Al12  1  0.661778  0.998867  0.923009  1
  Al  Al13  1  0.338222  0.001133  0.076991  1
  Al  Al14  1  0.333227  0.333227  0.550732  1
  Al  Al15  1  0.666773  0.666773  0.449268  1
  Al  Al16  1  0.664102  0.664102  0.052389  1
  Al  Al17  1  0.335898  0.335898  0.947611  1
  Al  Al18  1  0.339592  0.548520  0.250257  1
  Al  Al19  1  0.660408  0.451480  0.749743  1
  Al  Al20  1  0.548520  0.339592  0.250257  1
  Al  Al21  1  0.451480  0.660408  0.749743  1
  Cu  Cu22  1  0.000000  0.000000  0.000000  1
  Ir  Ir23  1  0.671944  0.328056  0.000000  1
  Ir  Ir24  1  0.328056  0.671944  0.000000  1
  Ir  Ir25  1  0.328140  0.671860  0.500000  1
  Ir  Ir26  1  0.671860  0.328140  0.500000  1
  Ir  Ir27  1  0.000000  0.000000  0.500000  1
