# generated using pymatgen
data_Y5Si9As3Ir19
_symmetry_space_group_name_H-M   'P 1'
_cell_length_a   12.95739200
_cell_length_b   12.95739181
_cell_length_c   3.97420200
_cell_angle_alpha   90.00000000
_cell_angle_beta   90.00000000
_cell_angle_gamma   119.99999537
_symmetry_Int_Tables_number   1
_chemical_formula_structural   Y5Si9As3Ir19
_chemical_formula_sum   'Y5 Si9 As3 Ir19'
_cell_volume   577.85087948
_cell_formula_units_Z   1
loop_
 _symmetry_equiv_pos_site_id
 _symmetry_equiv_pos_as_xyz
  1  'x, y, z'
loop_
 _atom_site_type_symbol
 _atom_site_label
 _atom_site_symmetry_multiplicity
 _atom_site_fract_x
 _atom_site_fract_y
 _atom_site_fract_z
 _atom_site_occupancy
  Y  Y0  1  0.333333  0.666667  0.500000  1
  Y  Y1  1  0.666667  0.333333  0.500000  1
  Y  Y2  1  0.000000  0.809727  0.000000  1
  Y  Y3  1  0.190273  0.190273  0.000000  1
  Y  Y4  1  0.809727  0.000000  0.000000  1
  Si  Si5  1  0.000000  0.631185  0.500000  1
  Si  Si6  1  0.368815  0.368815  0.500000  1
  Si  Si7  1  0.631185  0.000000  0.500000  1
  Si  Si8  1  0.516170  0.686649  0.000000  1
  Si  Si9  1  0.313351  0.829521  0.000000  1
  Si  Si10  1  0.170479  0.483830  0.000000  1
  Si  Si11  1  0.483830  0.170479  0.000000  1
  Si  Si12  1  0.686649  0.516170  0.000000  1
  Si  Si13  1  0.829521  0.313351  0.000000  1
  As  As14  1  0.000000  0.180174  0.500000  1
  As  As15  1  0.819826  0.819826  0.500000  1
  As  As16  1  0.180174  0.000000  0.500000  1
  Ir  Ir17  1  0.512013  0.873303  0.000000  1
  Ir  Ir18  1  0.126697  0.638710  0.000000  1
  Ir  Ir19  1  0.361290  0.487987  0.000000  1
  Ir  Ir20  1  0.487987  0.361290  0.000000  1
  Ir  Ir21  1  0.873303  0.512013  0.000000  1
  Ir  Ir22  1  0.638710  0.126697  0.000000  1
  Ir  Ir23  1  0.000000  0.448087  0.500000  1
  Ir  Ir24  1  0.551913  0.551913  0.500000  1
  Ir  Ir25  1  0.448087  0.000000  0.500000  1
  Ir  Ir26  1  0.000000  0.288977  0.000000  1
  Ir  Ir27  1  0.711023  0.711023  0.000000  1
  Ir  Ir28  1  0.288977  0.000000  0.000000  1
  Ir  Ir29  1  0.620590  0.804223  0.500000  1
  Ir  Ir30  1  0.195777  0.816368  0.500000  1
  Ir  Ir31  1  0.183632  0.379410  0.500000  1
  Ir  Ir32  1  0.379410  0.183632  0.500000  1
  Ir  Ir33  1  0.804223  0.620590  0.500000  1
  Ir  Ir34  1  0.816368  0.195777  0.500000  1
  Ir  Ir35  1  0.000000  0.000000  0.500000  1
