# generated using pymatgen
data_Yb4Ga5Os2Ru
_symmetry_space_group_name_H-M   'P 1'
_cell_length_a   5.46876147
_cell_length_b   5.51339159
_cell_length_c   8.53180270
_cell_angle_alpha   89.99054555
_cell_angle_beta   89.90541809
_cell_angle_gamma   120.28623566
_symmetry_Int_Tables_number   1
_chemical_formula_structural   Yb4Ga5Os2Ru
_chemical_formula_sum   'Yb4 Ga5 Os2 Ru1'
_cell_volume   222.13577097
_cell_formula_units_Z   1
loop_
 _symmetry_equiv_pos_site_id
 _symmetry_equiv_pos_as_xyz
  1  'x, y, z'
loop_
 _atom_site_type_symbol
 _atom_site_label
 _atom_site_symmetry_multiplicity
 _atom_site_fract_x
 _atom_site_fract_y
 _atom_site_fract_z
 _atom_site_occupancy
  Yb  Yb0  1  0.670081  0.335053  0.559862  1
  Yb  Yb1  1  0.336636  0.668291  0.447888  1
  Yb  Yb2  1  0.332893  0.666466  0.051488  1
  Yb  Yb3  1  0.665410  0.332681  0.940857  1
  Ga  Ga4  1  0.162395  0.323428  0.749921  1
  Ga  Ga5  1  0.162398  0.838987  0.749969  1
  Ga  Ga6  1  0.675904  0.837912  0.748607  1
  Ga  Ga7  1  0.806650  0.653765  0.250110  1
  Ga  Ga8  1  0.806649  0.152911  0.250139  1
  Os  Os9  1  0.024271  0.012114  0.488834  1
  Os  Os10  1  0.333817  0.166787  0.251777  1
  Ru  Ru11  1  0.022896  0.011601  0.010547  1
