# generated using pymatgen
data_Tb15ErCd4Co3Ni
_symmetry_space_group_name_H-M   'P 1'
_cell_length_a   9.53607116
_cell_length_b   9.53607183
_cell_length_c   9.53777665
_cell_angle_alpha   60.06656798
_cell_angle_beta   60.06656737
_cell_angle_gamma   60.05195174
_symmetry_Int_Tables_number   1
_chemical_formula_structural   Tb15ErCd4Co3Ni
_chemical_formula_sum   'Tb15 Er1 Cd4 Co3 Ni1'
_cell_volume   614.15495061
_cell_formula_units_Z   1
loop_
 _symmetry_equiv_pos_site_id
 _symmetry_equiv_pos_as_xyz
  1  'x, y, z'
loop_
 _atom_site_type_symbol
 _atom_site_label
 _atom_site_symmetry_multiplicity
 _atom_site_fract_x
 _atom_site_fract_y
 _atom_site_fract_z
 _atom_site_occupancy
  Tb  Tb0  1  0.595367  0.595367  0.596000  1
  Tb  Tb1  1  0.188706  0.812321  0.812801  1
  Tb  Tb2  1  0.061560  0.061560  0.436276  1
  Tb  Tb3  1  0.436373  0.062053  0.061445  1
  Tb  Tb4  1  0.812321  0.188706  0.812801  1
  Tb  Tb5  1  0.438871  0.057365  0.438480  1
  Tb  Tb6  1  0.599432  0.208079  0.599614  1
  Tb  Tb7  1  0.812654  0.812654  0.188558  1
  Tb  Tb8  1  0.208079  0.599432  0.599614  1
  Tb  Tb9  1  0.812170  0.188069  0.187823  1
  Tb  Tb10  1  0.057365  0.438871  0.438480  1
  Tb  Tb11  1  0.188069  0.812170  0.187823  1
  Tb  Tb12  1  0.599505  0.599505  0.207844  1
  Tb  Tb13  1  0.187865  0.187865  0.812487  1
  Tb  Tb14  1  0.062053  0.436373  0.061445  1
  Er  Er15  1  0.438816  0.438816  0.057034  1
  Cd  Cd16  1  0.830478  0.830478  0.507793  1
  Cd  Cd17  1  0.830162  0.830162  0.830160  1
  Cd  Cd18  1  0.507774  0.830224  0.830621  1
  Cd  Cd19  1  0.830224  0.507774  0.830621  1
  Co  Co20  1  0.826882  0.391542  0.391736  1
  Co  Co21  1  0.391542  0.826882  0.391736  1
  Co  Co22  1  0.391630  0.391630  0.827081  1
  Ni  Ni23  1  0.392102  0.392102  0.391728  1
