# generated using pymatgen
data_YbEu7(ScSn3)2
_symmetry_space_group_name_H-M   'P 1'
_cell_length_a   9.42710554
_cell_length_b   9.42718167
_cell_length_c   9.42484200
_cell_angle_alpha   96.84390194
_cell_angle_beta   96.83648332
_cell_angle_gamma   139.62794583
_symmetry_Int_Tables_number   1
_chemical_formula_structural   YbEu7(ScSn3)2
_chemical_formula_sum   'Yb1 Eu7 Sc2 Sn6'
_cell_volume   509.21011665
_cell_formula_units_Z   1
loop_
 _symmetry_equiv_pos_site_id
 _symmetry_equiv_pos_as_xyz
  1  'x, y, z'
loop_
 _atom_site_type_symbol
 _atom_site_label
 _atom_site_symmetry_multiplicity
 _atom_site_fract_x
 _atom_site_fract_y
 _atom_site_fract_z
 _atom_site_occupancy
  Yb  Yb0  1  0.083815  0.212957  0.296752  1
  Eu  Eu1  1  0.913691  0.783756  0.697406  1
  Eu  Eu2  1  0.783301  0.086878  0.870170  1
  Eu  Eu3  1  0.414223  0.717319  0.131543  1
  Eu  Eu4  1  0.217146  0.913814  0.130946  1
  Eu  Eu5  1  0.586597  0.283148  0.869734  1
  Eu  Eu6  1  0.716727  0.587662  0.304375  1
  Eu  Eu7  1  0.282857  0.412733  0.695577  1
  Sc  Sc8  1  0.250322  0.750375  0.499713  1
  Sc  Sc9  1  0.749341  0.249385  0.499706  1
  Sn  Sn10  1  0.145242  0.644832  0.790042  1
  Sn  Sn11  1  0.856673  0.353760  0.210434  1
  Sn  Sn12  1  0.353723  0.146024  0.499833  1
  Sn  Sn13  1  0.645435  0.854952  0.500469  1
  Sn  Sn14  1  0.250213  0.250963  0.001646  1
  Sn  Sn15  1  0.750696  0.751444  0.001654  1
