# generated using pymatgen
data_Rb5Mo3OF18
_symmetry_space_group_name_H-M   'P 1'
_cell_length_a   7.97372268
_cell_length_b   11.87695042
_cell_length_c   11.87695100
_cell_angle_alpha   83.53697660
_cell_angle_beta   70.39293514
_cell_angle_gamma   70.39293090
_symmetry_Int_Tables_number   1
_chemical_formula_structural   Rb5Mo3OF18
_chemical_formula_sum   'Rb10 Mo6 O2 F36'
_cell_volume   998.13126176
_cell_formula_units_Z   2
loop_
 _symmetry_equiv_pos_site_id
 _symmetry_equiv_pos_as_xyz
  1  'x, y, z'
loop_
 _atom_site_type_symbol
 _atom_site_label
 _atom_site_symmetry_multiplicity
 _atom_site_fract_x
 _atom_site_fract_y
 _atom_site_fract_z
 _atom_site_occupancy
  Rb  Rb0  1  0.758648  0.500037  0.500063  1
  Rb  Rb1  1  0.258648  0.500063  0.500037  1
  Rb  Rb2  1  0.817432  0.137510  0.307476  1
  Rb  Rb3  1  0.954623  0.307796  0.862626  1
  Rb  Rb4  1  0.124832  0.692275  0.137458  1
  Rb  Rb5  1  0.262543  0.862199  0.692373  1
  Rb  Rb6  1  0.624832  0.137458  0.692275  1
  Rb  Rb7  1  0.454623  0.862626  0.307796  1
  Rb  Rb8  1  0.317432  0.307476  0.137510  1
  Rb  Rb9  1  0.762543  0.692373  0.862199  1
  Mo  Mo10  1  0.652159  0.500198  0.194363  1
  Mo  Mo11  1  0.152159  0.194363  0.500198  1
  Mo  Mo12  1  0.846606  0.805618  0.499940  1
  Mo  Mo13  1  0.346606  0.499940  0.805618  1
  Mo  Mo14  1  0.276856  0.999990  0.999955  1
  Mo  Mo15  1  0.776856  0.999955  0.999990  1
  O  O16  1  0.995943  0.999736  0.000236  1
  O  O17  1  0.495943  0.000236  0.999736  1
  F  F18  1  0.392106  0.499791  0.220874  1
  F  F19  1  0.892106  0.220874  0.499791  1
  F  F20  1  0.612821  0.779177  0.499963  1
  F  F21  1  0.112821  0.499963  0.779177  1
  F  F22  1  0.983872  0.663370  0.391191  1
  F  F23  1  0.646939  0.391467  0.336478  1
  F  F24  1  0.374953  0.608616  0.663340  1
  F  F25  1  0.038470  0.336735  0.608981  1
  F  F26  1  0.874953  0.663340  0.608616  1
  F  F27  1  0.146939  0.336478  0.391467  1
  F  F28  1  0.483872  0.391191  0.663370  1
  F  F29  1  0.538470  0.608981  0.336735  1
  F  F30  1  0.594538  0.500129  0.801373  1
  F  F31  1  0.094538  0.801373  0.500129  1
  F  F32  1  0.395931  0.198723  0.500161  1
  F  F33  1  0.895931  0.500161  0.198723  1
  F  F34  1  0.349870  0.841824  0.929124  1
  F  F35  1  0.192073  0.929025  0.158101  1
  F  F36  1  0.278428  0.070842  0.841897  1
  F  F37  1  0.120619  0.158066  0.070973  1
  F  F38  1  0.778428  0.841897  0.070842  1
  F  F39  1  0.692073  0.158101  0.929025  1
  F  F40  1  0.849870  0.929124  0.841824  1
  F  F41  1  0.620619  0.070973  0.158066  1
  F  F42  1  0.210853  0.135066  0.337634  1
  F  F43  1  0.346136  0.337540  0.864898  1
  F  F44  1  0.548714  0.662324  0.134953  1
  F  F45  1  0.683708  0.864963  0.662278  1
  F  F46  1  0.048714  0.134953  0.662324  1
  F  F47  1  0.846136  0.864898  0.337540  1
  F  F48  1  0.710853  0.337634  0.135066  1
  F  F49  1  0.183708  0.662278  0.864963  1
  F  F50  1  0.315082  0.499918  0.980477  1
  F  F51  1  0.815082  0.980477  0.499918  1
  F  F52  1  0.295549  0.019552  0.500329  1
  F  F53  1  0.795549  0.500329  0.019552  1
