# generated using pymatgen
data_Pr3Th(B10Ir)2
_symmetry_space_group_name_H-M   'P 1'
_cell_length_a   4.23047000
_cell_length_b   5.75718305
_cell_length_c   11.49530180
_cell_angle_alpha   90.03585890
_cell_angle_beta   90.00000000
_cell_angle_gamma   90.00000000
_symmetry_Int_Tables_number   1
_chemical_formula_structural   Pr3Th(B10Ir)2
_chemical_formula_sum   'Pr3 Th1 B20 Ir2'
_cell_volume   279.97480455
_cell_formula_units_Z   1
loop_
 _symmetry_equiv_pos_site_id
 _symmetry_equiv_pos_as_xyz
  1  'x, y, z'
loop_
 _atom_site_type_symbol
 _atom_site_label
 _atom_site_symmetry_multiplicity
 _atom_site_fract_x
 _atom_site_fract_y
 _atom_site_fract_z
 _atom_site_occupancy
  Pr  Pr0  1  0.500000  0.294446  0.865945  1
  Pr  Pr1  1  0.500000  0.706036  0.134174  1
  Pr  Pr2  1  0.500000  0.796743  0.635771  1
  Th  Th3  1  0.500000  0.205735  0.365660  1
  B  B4  1  0.000000  0.116989  0.543050  1
  B  B5  1  0.000000  0.880464  0.457011  1
  B  B6  1  0.000000  0.618762  0.956471  1
  B  B7  1  0.000000  0.380848  0.043646  1
  B  B8  1  0.000000  0.138626  0.697060  1
  B  B9  1  0.000000  0.864466  0.303640  1
  B  B10  1  0.300307  0.217705  0.119180  1
  B  B11  1  0.299904  0.782198  0.881722  1
  B  B12  1  0.698851  0.716974  0.380558  1
  B  B13  1  0.699351  0.281326  0.618243  1
  B  B14  1  0.700096  0.782198  0.881722  1
  B  B15  1  0.699693  0.217705  0.119180  1
  B  B16  1  0.300649  0.281326  0.618243  1
  B  B17  1  0.301149  0.716974  0.380558  1
  B  B18  1  0.000000  0.056806  0.193681  1
  B  B19  1  0.000000  0.944946  0.807548  1
  B  B20  1  0.000000  0.555625  0.306528  1
  B  B21  1  0.000000  0.445426  0.691978  1
  B  B22  1  0.000000  0.362449  0.197121  1
  B  B23  1  0.000000  0.638796  0.802811  1
  Ir  Ir24  1  0.000000  0.496208  0.498413  1
  Ir  Ir25  1  0.000000  0.000228  0.000084  1
