# generated using pymatgen
data_NdMnAlO5
_symmetry_space_group_name_H-M   'P 1'
_cell_length_a   5.74341323
_cell_length_b   7.45734914
_cell_length_c   8.60782543
_cell_angle_alpha   89.98054193
_cell_angle_beta   90.03001920
_cell_angle_gamma   89.98785046
_symmetry_Int_Tables_number   1
_chemical_formula_structural   NdMnAlO5
_chemical_formula_sum   'Nd4 Mn4 Al4 O20'
_cell_volume   368.67857230
_cell_formula_units_Z   4
loop_
 _symmetry_equiv_pos_site_id
 _symmetry_equiv_pos_as_xyz
  1  'x, y, z'
loop_
 _atom_site_type_symbol
 _atom_site_label
 _atom_site_symmetry_multiplicity
 _atom_site_fract_x
 _atom_site_fract_y
 _atom_site_fract_z
 _atom_site_occupancy
  Nd  Nd0  1  0.000161  0.362062  0.676162  1
  Nd  Nd1  1  0.999197  0.639295  0.324477  1
  Nd  Nd2  1  0.002650  0.860950  0.832603  1
  Nd  Nd3  1  0.001441  0.134539  0.167468  1
  Mn  Mn4  1  0.495377  0.399919  0.356036  1
  Mn  Mn5  1  0.746129  0.000037  0.501566  1
  Mn  Mn6  1  0.742890  0.499988  0.997942  1
  Mn  Mn7  1  0.254713  0.999942  0.501378  1
  Al  Al8  1  0.502225  0.110409  0.862847  1
  Al  Al9  1  0.501819  0.888200  0.138057  1
  Al  Al10  1  0.496327  0.610809  0.646426  1
  Al  Al11  1  0.259350  0.501361  0.995696  1
  O  O12  1  0.258408  0.901237  0.290562  1
  O  O13  1  0.259318  0.098522  0.709864  1
  O  O14  1  0.748283  0.399132  0.209786  1
  O  O15  1  0.743060  0.600040  0.788362  1
  O  O16  1  0.742520  0.098249  0.709609  1
  O  O17  1  0.742782  0.901966  0.290799  1
  O  O18  1  0.258021  0.600321  0.788260  1
  O  O19  1  0.252925  0.399418  0.209465  1
  O  O20  1  0.496338  0.340398  0.932710  1
  O  O21  1  0.496153  0.657318  0.070056  1
  O  O22  1  0.500356  0.839975  0.566057  1
  O  O23  1  0.499950  0.159825  0.426903  1
  O  O24  1  0.287223  0.999340  0.000387  1
  O  O25  1  0.712473  0.500270  0.503047  1
  O  O26  1  0.715068  0.998753  0.000214  1
  O  O27  1  0.284101  0.500225  0.502039  1
  O  O28  1  0.000264  0.157491  0.449119  1
  O  O29  1  0.000283  0.841101  0.551752  1
  O  O30  1  0.000252  0.655624  0.051688  1
  O  O31  1  0.999943  0.343285  0.948663  1
