# generated using pymatgen
data_Zr6Al16Tc4Ni2Pd
_symmetry_space_group_name_H-M   'P 1'
_cell_length_a   8.69565460
_cell_length_b   8.69565499
_cell_length_c   8.90025900
_cell_angle_alpha   59.21855487
_cell_angle_beta   59.21855335
_cell_angle_gamma   61.56289871
_symmetry_Int_Tables_number   1
_chemical_formula_structural   Zr6Al16Tc4Ni2Pd
_chemical_formula_sum   'Zr6 Al16 Tc4 Ni2 Pd1'
_cell_volume   475.33460236
_cell_formula_units_Z   1
loop_
 _symmetry_equiv_pos_site_id
 _symmetry_equiv_pos_as_xyz
  1  'x, y, z'
loop_
 _atom_site_type_symbol
 _atom_site_label
 _atom_site_symmetry_multiplicity
 _atom_site_fract_x
 _atom_site_fract_y
 _atom_site_fract_z
 _atom_site_occupancy
  Zr  Zr0  1  0.680859  0.680859  0.319141  1
  Zr  Zr1  1  0.285698  0.714302  0.285698  1
  Zr  Zr2  1  0.714302  0.285698  0.285698  1
  Zr  Zr3  1  0.319141  0.319141  0.680859  1
  Zr  Zr4  1  0.714302  0.285698  0.714302  1
  Zr  Zr5  1  0.285698  0.714302  0.714302  1
  Al  Al6  1  0.875545  0.875545  0.367322  1
  Al  Al7  1  0.881590  0.367322  0.875545  1
  Al  Al8  1  0.367322  0.881590  0.875545  1
  Al  Al9  1  0.875545  0.875545  0.881590  1
  Al  Al10  1  0.124455  0.124455  0.632678  1
  Al  Al11  1  0.118410  0.632678  0.124455  1
  Al  Al12  1  0.632678  0.118410  0.124455  1
  Al  Al13  1  0.124455  0.124455  0.118410  1
  Al  Al14  1  0.657930  0.657930  0.013626  1
  Al  Al15  1  0.670514  0.013626  0.657930  1
  Al  Al16  1  0.013626  0.670514  0.657930  1
  Al  Al17  1  0.657930  0.657930  0.670514  1
  Al  Al18  1  0.342070  0.342070  0.986374  1
  Al  Al19  1  0.329486  0.986374  0.342070  1
  Al  Al20  1  0.986374  0.329486  0.342070  1
  Al  Al21  1  0.342070  0.342070  0.329486  1
  Tc  Tc22  1  0.500000  0.000000  0.500000  1
  Tc  Tc23  1  0.000000  0.500000  0.500000  1
  Tc  Tc24  1  0.000000  0.500000  0.000000  1
  Tc  Tc25  1  0.500000  0.000000  0.000000  1
  Ni  Ni26  1  0.000000  0.000000  0.500000  1
  Ni  Ni27  1  0.500000  0.500000  0.000000  1
  Pd  Pd28  1  0.000000  0.000000  0.000000  1
