# generated using pymatgen
data_Y7Sn23(OsRh2)2
_symmetry_space_group_name_H-M   'P 1'
_cell_length_a   9.89147300
_cell_length_b   9.89114268
_cell_length_c   10.09991046
_cell_angle_alpha   90.21310880
_cell_angle_beta   90.00000000
_cell_angle_gamma   120.00111477
_symmetry_Int_Tables_number   1
_chemical_formula_structural   Y7Sn23(OsRh2)2
_chemical_formula_sum   'Y7 Sn23 Os2 Rh4'
_cell_volume   855.74960524
_cell_formula_units_Z   1
loop_
 _symmetry_equiv_pos_site_id
 _symmetry_equiv_pos_as_xyz
  1  'x, y, z'
loop_
 _atom_site_type_symbol
 _atom_site_label
 _atom_site_symmetry_multiplicity
 _atom_site_fract_x
 _atom_site_fract_y
 _atom_site_fract_z
 _atom_site_occupancy
  Y  Y0  1  0.997569  0.995138  0.994495  1
  Y  Y1  1  0.042422  0.521259  0.308054  1
  Y  Y2  1  0.478173  0.956348  0.308002  1
  Y  Y3  1  0.478835  0.521259  0.308054  1
  Y  Y4  1  0.960045  0.481731  0.692899  1
  Y  Y5  1  0.519402  0.038803  0.693935  1
  Y  Y6  1  0.521687  0.481731  0.692899  1
  Sn  Sn7  1  0.000047  0.000094  0.496885  1
  Sn  Sn8  1  0.118889  0.881845  0.280327  1
  Sn  Sn9  1  0.762955  0.881845  0.280327  1
  Sn  Sn10  1  0.118325  0.236652  0.280908  1
  Sn  Sn11  1  0.882249  0.117990  0.720410  1
  Sn  Sn12  1  0.235742  0.117990  0.720410  1
  Sn  Sn13  1  0.882365  0.764728  0.720180  1
  Sn  Sn14  1  0.350386  0.999491  0.000398  1
  Sn  Sn15  1  0.648779  0.649603  0.000280  1
  Sn  Sn16  1  0.999802  0.350779  0.000139  1
  Sn  Sn17  1  0.350977  0.350779  0.000139  1
  Sn  Sn18  1  0.000824  0.649603  0.000280  1
  Sn  Sn19  1  0.649105  0.999491  0.000398  1
  Sn  Sn20  1  0.779159  0.558317  0.455191  1
  Sn  Sn21  1  0.778891  0.221333  0.455112  1
  Sn  Sn22  1  0.442442  0.221333  0.455112  1
  Sn  Sn23  1  0.221398  0.442795  0.545505  1
  Sn  Sn24  1  0.220732  0.779129  0.544498  1
  Sn  Sn25  1  0.558397  0.779129  0.544498  1
  Sn  Sn26  1  0.666555  0.333109  0.181260  1
  Sn  Sn27  1  0.334275  0.668552  0.820370  1
  Sn  Sn28  1  0.666567  0.333133  0.882679  1
  Sn  Sn29  1  0.332973  0.665948  0.118833  1
  Os  Os30  1  0.167733  0.831285  0.800729  1
  Os  Os31  1  0.663553  0.831285  0.800729  1
  Rh  Rh32  1  0.168518  0.337035  0.801337  1
  Rh  Rh33  1  0.831328  0.169302  0.198310  1
  Rh  Rh34  1  0.337974  0.169302  0.198310  1
  Rh  Rh35  1  0.830928  0.661856  0.198108  1
