# generated using pymatgen
data_Tb10Dy2Co4OsPb
_symmetry_space_group_name_H-M   'P 1'
_cell_length_a   8.36472315
_cell_length_b   8.36472211
_cell_length_c   8.36779452
_cell_angle_alpha   106.49908085
_cell_angle_beta   110.46502848
_cell_angle_gamma   111.47723730
_symmetry_Int_Tables_number   1
_chemical_formula_structural   Tb10Dy2Co4OsPb
_chemical_formula_sum   'Tb10 Dy2 Co4 Os1 Pb1'
_cell_volume   449.84566728
_cell_formula_units_Z   1
loop_
 _symmetry_equiv_pos_site_id
 _symmetry_equiv_pos_as_xyz
  1  'x, y, z'
loop_
 _atom_site_type_symbol
 _atom_site_label
 _atom_site_symmetry_multiplicity
 _atom_site_fract_x
 _atom_site_fract_y
 _atom_site_fract_z
 _atom_site_occupancy
  Tb  Tb0  1  0.466618  0.284315  0.181878  1
  Tb  Tb1  1  0.102437  0.284739  0.818122  1
  Tb  Tb2  1  0.897563  0.715261  0.181878  1
  Tb  Tb3  1  0.533382  0.715685  0.818122  1
  Tb  Tb4  1  0.307004  0.620672  0.312664  1
  Tb  Tb5  1  0.308008  0.994341  0.687336  1
  Tb  Tb6  1  0.692996  0.379328  0.687336  1
  Tb  Tb7  1  0.691992  0.005659  0.312664  1
  Tb  Tb8  1  0.194143  0.214201  0.408345  1
  Tb  Tb9  1  0.805857  0.785799  0.591655  1
  Dy  Dy10  1  0.194247  0.785804  0.980050  1
  Dy  Dy11  1  0.805753  0.214196  0.019950  1
  Co  Co12  1  0.499381  0.610844  0.110225  1
  Co  Co13  1  0.500619  0.389156  0.889775  1
  Co  Co14  1  0.378676  0.999624  0.378300  1
  Co  Co15  1  0.621324  0.000376  0.621700  1
  Os  Os16  1  0.000000  0.000000  0.000000  1
  Pb  Pb17  1  0.000000  0.500000  0.500000  1
