# generated using pymatgen
data_Dy4Er2P13Rh20
_symmetry_space_group_name_H-M   'P 1'
_cell_length_a   13.32431900
_cell_length_b   13.32344528
_cell_length_c   3.91814600
_cell_angle_alpha   90.00046122
_cell_angle_beta   90.00002752
_cell_angle_gamma   120.00167775
_symmetry_Int_Tables_number   1
_chemical_formula_structural   Dy4Er2P13Rh20
_chemical_formula_sum   'Dy4 Er2 P13 Rh20'
_cell_volume   602.37295956
_cell_formula_units_Z   1
loop_
 _symmetry_equiv_pos_site_id
 _symmetry_equiv_pos_as_xyz
  1  'x, y, z'
loop_
 _atom_site_type_symbol
 _atom_site_label
 _atom_site_symmetry_multiplicity
 _atom_site_fract_x
 _atom_site_fract_y
 _atom_site_fract_z
 _atom_site_occupancy
  Dy  Dy0  1  0.529299  0.717511  0.248543  1
  Dy  Dy1  1  0.282461  0.811742  0.248544  1
  Dy  Dy2  1  0.188240  0.470699  0.248525  1
  Dy  Dy3  1  0.470880  0.282527  0.751474  1
  Er  Er4  1  0.717541  0.188318  0.751437  1
  Er  Er5  1  0.811721  0.529287  0.751451  1
  P  P6  1  0.526711  0.139454  0.250260  1
  P  P7  1  0.860408  0.387016  0.250269  1
  P  P8  1  0.613271  0.473695  0.250294  1
  P  P9  1  0.944562  0.714045  0.254385  1
  P  P10  1  0.285540  0.230375  0.254346  1
  P  P11  1  0.769477  0.055420  0.254363  1
  P  P12  1  0.387054  0.526262  0.749736  1
  P  P13  1  0.473762  0.860750  0.749746  1
  P  P14  1  0.139229  0.612971  0.749738  1
  P  P15  1  0.714464  0.769693  0.745618  1
  P  P16  1  0.230407  0.944859  0.745643  1
  P  P17  1  0.055146  0.285516  0.745565  1
  P  P18  1  0.999965  0.999981  0.999937  1
  Rh  Rh19  1  0.333312  0.666674  0.751689  1
  Rh  Rh20  1  0.920557  0.250293  0.253648  1
  Rh  Rh21  1  0.749839  0.670400  0.253669  1
  Rh  Rh22  1  0.329238  0.078701  0.253625  1
  Rh  Rh23  1  0.438738  0.022495  0.751385  1
  Rh  Rh24  1  0.977321  0.416037  0.751382  1
  Rh  Rh25  1  0.584112  0.561509  0.751358  1
  Rh  Rh26  1  0.667238  0.333476  0.248289  1
  Rh  Rh27  1  0.094495  0.187115  0.247668  1
  Rh  Rh28  1  0.812832  0.907490  0.247619  1
  Rh  Rh29  1  0.092476  0.905312  0.247613  1
  Rh  Rh30  1  0.021830  0.583774  0.248626  1
  Rh  Rh31  1  0.416116  0.438477  0.248626  1
  Rh  Rh32  1  0.561950  0.978154  0.248602  1
  Rh  Rh33  1  0.670897  0.921523  0.746405  1
  Rh  Rh34  1  0.078505  0.749386  0.746344  1
  Rh  Rh35  1  0.250486  0.329140  0.746369  1
  Rh  Rh36  1  0.905498  0.812882  0.752445  1
  Rh  Rh37  1  0.187062  0.092556  0.752332  1
  Rh  Rh38  1  0.907359  0.094483  0.752432  1
