# generated using pymatgen
data_Tb17Dy2SnIr12
_symmetry_space_group_name_H-M   'P 1'
_cell_length_a   10.92013700
_cell_length_b   10.92013700
_cell_length_c   6.35319500
_cell_angle_alpha   90.00000000
_cell_angle_beta   90.00000000
_cell_angle_gamma   90.00000000
_symmetry_Int_Tables_number   1
_chemical_formula_structural   Tb17Dy2SnIr12
_chemical_formula_sum   'Tb17 Dy2 Sn1 Ir12'
_cell_volume   757.61464163
_cell_formula_units_Z   1
loop_
 _symmetry_equiv_pos_site_id
 _symmetry_equiv_pos_as_xyz
  1  'x, y, z'
loop_
 _atom_site_type_symbol
 _atom_site_label
 _atom_site_symmetry_multiplicity
 _atom_site_fract_x
 _atom_site_fract_y
 _atom_site_fract_z
 _atom_site_occupancy
  Tb  Tb0  1  0.284188  0.084939  0.380486  1
  Tb  Tb1  1  0.291692  0.910933  0.882574  1
  Tb  Tb2  1  0.708308  0.089067  0.882574  1
  Tb  Tb3  1  0.715812  0.915061  0.380486  1
  Tb  Tb4  1  0.589115  0.791099  0.882479  1
  Tb  Tb5  1  0.588298  0.208315  0.378871  1
  Tb  Tb6  1  0.411702  0.791685  0.378871  1
  Tb  Tb7  1  0.410885  0.208901  0.882479  1
  Tb  Tb8  1  0.208315  0.411702  0.621129  1
  Tb  Tb9  1  0.208901  0.589115  0.117521  1
  Tb  Tb10  1  0.791099  0.410885  0.117521  1
  Tb  Tb11  1  0.791685  0.588298  0.621129  1
  Tb  Tb12  1  0.910933  0.708308  0.117426  1
  Tb  Tb13  1  0.915061  0.284188  0.619514  1
  Tb  Tb14  1  0.084939  0.715812  0.619514  1
  Tb  Tb15  1  0.089067  0.291692  0.117426  1
  Tb  Tb16  1  0.000000  0.000000  0.000000  1
  Dy  Dy17  1  0.500000  0.500000  0.000000  1
  Dy  Dy18  1  0.500000  0.500000  0.500000  1
  Sn  Sn19  1  0.000000  0.000000  0.500000  1
  Ir  Ir20  1  0.848067  0.155203  0.248103  1
  Ir  Ir21  1  0.844797  0.848067  0.751897  1
  Ir  Ir22  1  0.155203  0.151933  0.751897  1
  Ir  Ir23  1  0.151933  0.844797  0.248103  1
  Ir  Ir24  1  0.654561  0.347295  0.746053  1
  Ir  Ir25  1  0.652705  0.654561  0.253947  1
  Ir  Ir26  1  0.347295  0.345439  0.253947  1
  Ir  Ir27  1  0.345439  0.652705  0.746053  1
  Ir  Ir28  1  0.500000  0.000000  0.126075  1
  Ir  Ir29  1  0.500000  0.000000  0.621041  1
  Ir  Ir30  1  0.000000  0.500000  0.873925  1
  Ir  Ir31  1  0.000000  0.500000  0.378959  1
