# generated using pymatgen
data_TbTiFeB6
_symmetry_space_group_name_H-M   'P 1'
_cell_length_a   3.34857700
_cell_length_b   8.84437000
_cell_length_c   11.19968500
_cell_angle_alpha   90.00000000
_cell_angle_beta   90.00000000
_cell_angle_gamma   90.00000000
_symmetry_Int_Tables_number   1
_chemical_formula_structural   TbTiFeB6
_chemical_formula_sum   'Tb4 Ti4 Fe4 B24'
_cell_volume   331.69047531
_cell_formula_units_Z   4
loop_
 _symmetry_equiv_pos_site_id
 _symmetry_equiv_pos_as_xyz
  1  'x, y, z'
loop_
 _atom_site_type_symbol
 _atom_site_label
 _atom_site_symmetry_multiplicity
 _atom_site_fract_x
 _atom_site_fract_y
 _atom_site_fract_z
 _atom_site_occupancy
  Tb  Tb0  1  0.000000  0.821830  0.085490  1
  Tb  Tb1  1  0.000000  0.178170  0.914510  1
  Tb  Tb2  1  0.000000  0.321830  0.414510  1
  Tb  Tb3  1  0.000000  0.678170  0.585490  1
  Ti  Ti4  1  0.000000  0.445075  0.126581  1
  Ti  Ti5  1  0.000000  0.554925  0.873419  1
  Ti  Ti6  1  0.000000  0.945075  0.373419  1
  Ti  Ti7  1  0.000000  0.054925  0.626581  1
  Fe  Fe8  1  0.000000  0.144719  0.184237  1
  Fe  Fe9  1  0.000000  0.855281  0.815763  1
  Fe  Fe10  1  0.000000  0.644719  0.315763  1
  Fe  Fe11  1  0.000000  0.355281  0.684237  1
  B  B12  1  0.500000  0.056699  0.069119  1
  B  B13  1  0.500000  0.943301  0.930881  1
  B  B14  1  0.500000  0.556699  0.430881  1
  B  B15  1  0.500000  0.443301  0.569119  1
  B  B16  1  0.500000  0.255087  0.083990  1
  B  B17  1  0.500000  0.744913  0.916010  1
  B  B18  1  0.500000  0.755087  0.416010  1
  B  B19  1  0.500000  0.244913  0.583990  1
  B  B20  1  0.500000  0.296183  0.235060  1
  B  B21  1  0.500000  0.703817  0.764940  1
  B  B22  1  0.500000  0.796183  0.264940  1
  B  B23  1  0.500000  0.203817  0.735060  1
  B  B24  1  0.500000  0.128721  0.317692  1
  B  B25  1  0.500000  0.871279  0.682308  1
  B  B26  1  0.500000  0.628721  0.182308  1
  B  B27  1  0.500000  0.371279  0.817692  1
  B  B28  1  0.500000  0.484289  0.285181  1
  B  B29  1  0.500000  0.515711  0.714819  1
  B  B30  1  0.500000  0.984289  0.214819  1
  B  B31  1  0.500000  0.015711  0.785181  1
  B  B32  1  0.500000  0.096719  0.474504  1
  B  B33  1  0.500000  0.903281  0.525496  1
  B  B34  1  0.500000  0.596719  0.025496  1
  B  B35  1  0.500000  0.403281  0.974504  1
