# generated using pymatgen
data_Eu2ErAl3Si2Pt
_symmetry_space_group_name_H-M   'P 1'
_cell_length_a   7.08571864
_cell_length_b   7.08571819
_cell_length_c   4.34527300
_cell_angle_alpha   90.00000000
_cell_angle_beta   90.00000000
_cell_angle_gamma   120.16826913
_symmetry_Int_Tables_number   1
_chemical_formula_structural   Eu2ErAl3Si2Pt
_chemical_formula_sum   'Eu2 Er1 Al3 Si2 Pt1'
_cell_volume   188.61515811
_cell_formula_units_Z   1
loop_
 _symmetry_equiv_pos_site_id
 _symmetry_equiv_pos_as_xyz
  1  'x, y, z'
loop_
 _atom_site_type_symbol
 _atom_site_label
 _atom_site_symmetry_multiplicity
 _atom_site_fract_x
 _atom_site_fract_y
 _atom_site_fract_z
 _atom_site_occupancy
  Eu  Eu0  1  0.424806  0.001570  0.000000  1
  Eu  Eu1  1  0.001570  0.424806  0.000000  1
  Er  Er2  1  0.581732  0.581732  0.000000  1
  Al  Al3  1  0.765642  0.996269  0.499999  1
  Al  Al4  1  0.235769  0.235770  0.499999  1
  Al  Al5  1  0.996269  0.765641  0.499999  1
  Si  Si6  1  0.662532  0.343007  0.499999  1
  Si  Si7  1  0.343007  0.662533  0.499999  1
  Pt  Pt8  1  0.988674  0.988674  0.000000  1
