# generated using pymatgen
data_Zr8In4Co3Ni5
_symmetry_space_group_name_H-M   'P 1'
_cell_length_a   7.24536300
_cell_length_b   7.24536300
_cell_length_c   6.62824113
_cell_angle_alpha   89.83863250
_cell_angle_beta   90.16136750
_cell_angle_gamma   90.08134370
_symmetry_Int_Tables_number   1
_chemical_formula_structural   Zr8In4Co3Ni5
_chemical_formula_sum   'Zr8 In4 Co3 Ni5'
_cell_volume   347.94830061
_cell_formula_units_Z   1
loop_
 _symmetry_equiv_pos_site_id
 _symmetry_equiv_pos_as_xyz
  1  'x, y, z'
loop_
 _atom_site_type_symbol
 _atom_site_label
 _atom_site_symmetry_multiplicity
 _atom_site_fract_x
 _atom_site_fract_y
 _atom_site_fract_z
 _atom_site_occupancy
  Zr  Zr0  1  0.658313  0.341687  0.004400  1
  Zr  Zr1  1  0.335487  0.664513  0.007615  1
  Zr  Zr2  1  0.839190  0.833333  0.495405  1
  Zr  Zr3  1  0.166667  0.160810  0.495405  1
  Zr  Zr4  1  0.176872  0.170556  0.004056  1
  Zr  Zr5  1  0.829444  0.823128  0.004056  1
  Zr  Zr6  1  0.327837  0.672163  0.493470  1
  Zr  Zr7  1  0.669032  0.330968  0.496413  1
  In  In8  1  0.501462  0.999669  0.249956  1
  In  In9  1  0.000331  0.498538  0.249956  1
  In  In10  1  0.000436  0.497198  0.750297  1
  In  In11  1  0.502802  0.999564  0.750297  1
  Co  Co12  1  0.374079  0.374576  0.261683  1
  Co  Co13  1  0.625424  0.625921  0.261683  1
  Co  Co14  1  0.121818  0.878182  0.239468  1
  Ni  Ni15  1  0.873301  0.126699  0.234227  1
  Ni  Ni16  1  0.623538  0.625506  0.737039  1
  Ni  Ni17  1  0.374494  0.376462  0.737039  1
  Ni  Ni18  1  0.124465  0.875535  0.762481  1
  Ni  Ni19  1  0.875008  0.124992  0.765053  1
