# generated using pymatgen
data_Dy2HoLu2Sn3
_symmetry_space_group_name_H-M   'P 1'
_cell_length_a   8.89800807
_cell_length_b   8.89800920
_cell_length_c   6.44267900
_cell_angle_alpha   90.00000000
_cell_angle_beta   90.00000000
_cell_angle_gamma   120.01465482
_symmetry_Int_Tables_number   1
_chemical_formula_structural   Dy2HoLu2Sn3
_chemical_formula_sum   'Dy4 Ho2 Lu4 Sn6'
_cell_volume   441.69107013
_cell_formula_units_Z   2
loop_
 _symmetry_equiv_pos_site_id
 _symmetry_equiv_pos_as_xyz
  1  'x, y, z'
loop_
 _atom_site_type_symbol
 _atom_site_label
 _atom_site_symmetry_multiplicity
 _atom_site_fract_x
 _atom_site_fract_y
 _atom_site_fract_z
 _atom_site_occupancy
  Dy  Dy0  1  0.760692  0.760692  0.750000  1
  Dy  Dy1  1  0.239393  0.999939  0.750000  1
  Dy  Dy2  1  0.999939  0.239393  0.750000  1
  Dy  Dy3  1  0.239323  0.239323  0.250000  1
  Ho  Ho4  1  0.760593  0.999954  0.250000  1
  Ho  Ho5  1  0.999954  0.760593  0.250000  1
  Lu  Lu6  1  0.666700  0.333344  0.999965  1
  Lu  Lu7  1  0.333344  0.666700  0.999965  1
  Lu  Lu8  1  0.333344  0.666700  0.500035  1
  Lu  Lu9  1  0.666700  0.333344  0.500035  1
  Sn  Sn10  1  0.396117  0.396117  0.750000  1
  Sn  Sn11  1  0.603870  0.999970  0.750000  1
  Sn  Sn12  1  0.999970  0.603870  0.750000  1
  Sn  Sn13  1  0.604169  0.604169  0.250000  1
  Sn  Sn14  1  0.396008  0.999884  0.250000  1
  Sn  Sn15  1  0.999884  0.396008  0.250000  1
