# generated using pymatgen
data_Yb3Hf(B4Ru5)2
_symmetry_space_group_name_H-M   'P 1'
_cell_length_a   3.00768900
_cell_length_b   8.64730686
_cell_length_c   10.17524351
_cell_angle_alpha   89.96694425
_cell_angle_beta   90.00000000
_cell_angle_gamma   90.00000000
_symmetry_Int_Tables_number   1
_chemical_formula_structural   Yb3Hf(B4Ru5)2
_chemical_formula_sum   'Yb3 Hf1 B8 Ru10'
_cell_volume   264.64185822
_cell_formula_units_Z   1
loop_
 _symmetry_equiv_pos_site_id
 _symmetry_equiv_pos_as_xyz
  1  'x, y, z'
loop_
 _atom_site_type_symbol
 _atom_site_label
 _atom_site_symmetry_multiplicity
 _atom_site_fract_x
 _atom_site_fract_y
 _atom_site_fract_z
 _atom_site_occupancy
  Yb  Yb0  1  0.500000  0.841935  0.181598  1
  Yb  Yb1  1  0.500000  0.157377  0.818525  1
  Yb  Yb2  1  0.500000  0.658089  0.682209  1
  Hf  Hf3  1  0.500000  0.344048  0.317480  1
  B  B4  1  0.500000  0.964912  0.590396  1
  B  B5  1  0.500000  0.035389  0.411581  1
  B  B6  1  0.500000  0.853971  0.899636  1
  B  B7  1  0.500000  0.147699  0.098734  1
  B  B8  1  0.500000  0.647901  0.400085  1
  B  B9  1  0.500000  0.351445  0.602596  1
  B  B10  1  0.500000  0.466144  0.909583  1
  B  B11  1  0.500000  0.535497  0.087651  1
  Ru  Ru12  1  0.000000  0.656386  0.955661  1
  Ru  Ru13  1  0.000000  0.342854  0.049539  1
  Ru  Ru14  1  0.000000  0.841925  0.452023  1
  Ru  Ru15  1  0.000000  0.158161  0.542937  1
  Ru  Ru16  1  0.000000  0.000589  0.002060  1
  Ru  Ru17  1  0.000000  0.404685  0.759782  1
  Ru  Ru18  1  0.000000  0.590152  0.240123  1
  Ru  Ru19  1  0.000000  0.493389  0.496359  1
  Ru  Ru20  1  0.000000  0.905014  0.739591  1
  Ru  Ru21  1  0.000000  0.102439  0.261852  1
