# generated using pymatgen
data_Dy9Tm(TlSb)4
_symmetry_space_group_name_H-M   'P 1'
_cell_length_a   8.85519793
_cell_length_b   8.85519834
_cell_length_c   8.12344100
_cell_angle_alpha   90.03784478
_cell_angle_beta   90.03784478
_cell_angle_gamma   125.43773980
_symmetry_Int_Tables_number   1
_chemical_formula_structural   Dy9Tm(TlSb)4
_chemical_formula_sum   'Dy9 Tm1 Tl4 Sb4'
_cell_volume   518.98930964
_cell_formula_units_Z   1
loop_
 _symmetry_equiv_pos_site_id
 _symmetry_equiv_pos_as_xyz
  1  'x, y, z'
loop_
 _atom_site_type_symbol
 _atom_site_label
 _atom_site_symmetry_multiplicity
 _atom_site_fract_x
 _atom_site_fract_y
 _atom_site_fract_z
 _atom_site_occupancy
  Dy  Dy0  1  0.031142  0.306376  0.333927  1
  Dy  Dy1  1  0.968858  0.693624  0.666073  1
  Dy  Dy2  1  0.468722  0.192541  0.834310  1
  Dy  Dy3  1  0.807459  0.531278  0.165690  1
  Dy  Dy4  1  0.531278  0.807459  0.165690  1
  Dy  Dy5  1  0.192541  0.468722  0.834310  1
  Dy  Dy6  1  0.693624  0.968858  0.666073  1
  Dy  Dy7  1  0.306376  0.031142  0.333927  1
  Dy  Dy8  1  0.500000  0.500000  0.500000  1
  Tm  Tm9  1  0.000000  0.000000  0.000000  1
  Tl  Tl10  1  0.366164  0.366164  0.130917  1
  Tl  Tl11  1  0.633836  0.633836  0.869083  1
  Tl  Tl12  1  0.132224  0.132224  0.633125  1
  Tl  Tl13  1  0.867776  0.867776  0.366875  1
  Sb  Sb14  1  0.797684  0.202316  0.000000  1
  Sb  Sb15  1  0.202316  0.797684  0.000000  1
  Sb  Sb16  1  0.703204  0.296796  0.500000  1
  Sb  Sb17  1  0.296796  0.703204  0.500000  1
