# generated using pymatgen
data_DyZr2(SnRh)3
_symmetry_space_group_name_H-M   'P 1'
_cell_length_a   7.50388323
_cell_length_b   7.52007851
_cell_length_c   7.37098600
_cell_angle_alpha   90.00000000
_cell_angle_beta   90.00000000
_cell_angle_gamma   119.89915549
_symmetry_Int_Tables_number   1
_chemical_formula_structural   DyZr2(SnRh)3
_chemical_formula_sum   'Dy2 Zr4 Sn6 Rh6'
_cell_volume   360.58286357
_cell_formula_units_Z   2
loop_
 _symmetry_equiv_pos_site_id
 _symmetry_equiv_pos_as_xyz
  1  'x, y, z'
loop_
 _atom_site_type_symbol
 _atom_site_label
 _atom_site_symmetry_multiplicity
 _atom_site_fract_x
 _atom_site_fract_y
 _atom_site_fract_z
 _atom_site_occupancy
  Dy  Dy0  1  0.596481  0.999094  0.250000  1
  Dy  Dy1  1  0.403377  0.402468  0.250000  1
  Zr  Zr2  1  0.609272  0.003400  0.750000  1
  Zr  Zr3  1  0.390329  0.394580  0.750000  1
  Zr  Zr4  1  0.000424  0.603252  0.750000  1
  Zr  Zr5  1  0.003269  0.602315  0.250000  1
  Sn  Sn6  1  0.267164  0.999465  0.992233  1
  Sn  Sn7  1  0.733187  0.731637  0.507356  1
  Sn  Sn8  1  0.999330  0.268680  0.497138  1
  Sn  Sn9  1  0.999330  0.268680  0.002862  1
  Sn  Sn10  1  0.733187  0.731637  0.992644  1
  Sn  Sn11  1  0.267164  0.999465  0.507767  1
  Rh  Rh12  1  0.670247  0.335790  0.974238  1
  Rh  Rh13  1  0.670247  0.335790  0.525762  1
  Rh  Rh14  1  0.328791  0.665673  0.974728  1
  Rh  Rh15  1  0.328791  0.665673  0.525272  1
  Rh  Rh16  1  0.999409  0.003241  0.750000  1
  Rh  Rh17  1  0.000004  0.989161  0.250000  1
