# generated using pymatgen
data_TmLuFeCo5P4
_symmetry_space_group_name_H-M   'P 1'
_cell_length_a   3.66407200
_cell_length_b   10.49088300
_cell_length_c   12.05799300
_cell_angle_alpha   90.00112869
_cell_angle_beta   90.00000000
_cell_angle_gamma   90.00000000
_symmetry_Int_Tables_number   1
_chemical_formula_structural   TmLuFeCo5P4
_chemical_formula_sum   'Tm3 Lu3 Fe3 Co15 P12'
_cell_volume   463.50142108
_cell_formula_units_Z   3
loop_
 _symmetry_equiv_pos_site_id
 _symmetry_equiv_pos_as_xyz
  1  'x, y, z'
loop_
 _atom_site_type_symbol
 _atom_site_label
 _atom_site_symmetry_multiplicity
 _atom_site_fract_x
 _atom_site_fract_y
 _atom_site_fract_z
 _atom_site_occupancy
  Tm  Tm0  1  0.000000  0.500058  0.522879  1
  Tm  Tm1  1  0.500000  0.999968  0.476889  1
  Tm  Tm2  1  0.000000  0.319489  0.795795  1
  Lu  Lu3  1  0.500000  0.818170  0.205025  1
  Lu  Lu4  1  0.500000  0.181817  0.204927  1
  Lu  Lu5  1  0.000000  0.680552  0.795799  1
  Fe  Fe6  1  0.500000  0.500106  0.156413  1
  Fe  Fe7  1  0.000000  0.999958  0.842162  1
  Fe  Fe8  1  0.000000  0.500282  0.988505  1
  Co  Co9  1  0.500000  0.500500  0.701663  1
  Co  Co10  1  0.000000  0.999922  0.298181  1
  Co  Co11  1  0.500000  0.999760  0.014083  1
  Co  Co12  1  0.500000  0.331007  0.994112  1
  Co  Co13  1  0.500000  0.669226  0.993850  1
  Co  Co14  1  0.000000  0.166345  0.006626  1
  Co  Co15  1  0.000000  0.833409  0.006368  1
  Co  Co16  1  0.500000  0.297277  0.430322  1
  Co  Co17  1  0.500000  0.702769  0.430546  1
  Co  Co18  1  0.000000  0.203184  0.569080  1
  Co  Co19  1  0.000000  0.796717  0.569403  1
  Co  Co20  1  0.500000  0.877949  0.708677  1
  Co  Co21  1  0.500000  0.121514  0.708360  1
  Co  Co22  1  0.000000  0.621968  0.290647  1
  Co  Co23  1  0.000000  0.378035  0.290570  1
  P  P24  1  0.500000  0.500443  0.883456  1
  P  P25  1  0.000000  0.999875  0.119073  1
  P  P26  1  0.500000  0.500000  0.343283  1
  P  P27  1  0.000000  0.000042  0.655622  1
  P  P28  1  0.500000  0.311707  0.616748  1
  P  P29  1  0.500000  0.688402  0.617273  1
  P  P30  1  0.000000  0.188508  0.382521  1
  P  P31  1  0.000000  0.811412  0.382661  1
  P  P32  1  0.500000  0.846987  0.891465  1
  P  P33  1  0.500000  0.152505  0.891792  1
  P  P34  1  0.000000  0.653445  0.107675  1
  P  P35  1  0.000000  0.346688  0.107548  1
