# generated using pymatgen
data_Ce3AlAu5
_symmetry_space_group_name_H-M   'P 1'
_cell_length_a   7.85648500
_cell_length_b   7.61105698
_cell_length_c   4.00893900
_cell_angle_alpha   90.00000000
_cell_angle_beta   90.00000000
_cell_angle_gamma   118.97190461
_symmetry_Int_Tables_number   1
_chemical_formula_structural   Ce3AlAu5
_chemical_formula_sum   'Ce3 Al1 Au5'
_cell_volume   209.72004524
_cell_formula_units_Z   1
loop_
 _symmetry_equiv_pos_site_id
 _symmetry_equiv_pos_as_xyz
  1  'x, y, z'
loop_
 _atom_site_type_symbol
 _atom_site_label
 _atom_site_symmetry_multiplicity
 _atom_site_fract_x
 _atom_site_fract_y
 _atom_site_fract_z
 _atom_site_occupancy
  Ce  Ce0  1  0.415182  0.399080  0.500000  1
  Ce  Ce1  1  0.584818  0.983898  0.500000  1
  Ce  Ce2  1  0.000000  0.620864  0.500000  1
  Al  Al3  1  0.000000  0.251492  0.000000  1
  Au  Au4  1  0.693802  0.330221  0.000000  1
  Au  Au5  1  0.306198  0.636419  0.000000  1
  Au  Au6  1  0.000000  0.035480  0.500000  1
  Au  Au7  1  0.725568  0.734056  0.000000  1
  Au  Au8  1  0.274432  0.008488  0.000000  1
