# generated using pymatgen
data_Hf18MnBe2CrRe6
_symmetry_space_group_name_H-M   'P 1'
_cell_length_a   8.48488400
_cell_length_b   8.48488429
_cell_length_c   8.52134300
_cell_angle_alpha   90.00000000
_cell_angle_beta   90.00000000
_cell_angle_gamma   119.99999109
_symmetry_Int_Tables_number   1
_chemical_formula_structural   Hf18MnBe2CrRe6
_chemical_formula_sum   'Hf18 Mn1 Be2 Cr1 Re6'
_cell_volume   531.28866548
_cell_formula_units_Z   1
loop_
 _symmetry_equiv_pos_site_id
 _symmetry_equiv_pos_as_xyz
  1  'x, y, z'
loop_
 _atom_site_type_symbol
 _atom_site_label
 _atom_site_symmetry_multiplicity
 _atom_site_fract_x
 _atom_site_fract_y
 _atom_site_fract_z
 _atom_site_occupancy
  Hf  Hf0  1  0.196031  0.803969  0.446798  1
  Hf  Hf1  1  0.196031  0.392064  0.446798  1
  Hf  Hf2  1  0.607936  0.803969  0.446798  1
  Hf  Hf3  1  0.803969  0.196031  0.553202  1
  Hf  Hf4  1  0.803969  0.607936  0.553202  1
  Hf  Hf5  1  0.392064  0.196031  0.553202  1
  Hf  Hf6  1  0.802922  0.197078  0.946674  1
  Hf  Hf7  1  0.802922  0.605842  0.946674  1
  Hf  Hf8  1  0.394158  0.197078  0.946674  1
  Hf  Hf9  1  0.197078  0.802922  0.053326  1
  Hf  Hf10  1  0.197078  0.394158  0.053326  1
  Hf  Hf11  1  0.605842  0.802922  0.053326  1
  Hf  Hf12  1  0.539902  0.460098  0.250435  1
  Hf  Hf13  1  0.539902  0.079804  0.250435  1
  Hf  Hf14  1  0.920196  0.460098  0.250435  1
  Hf  Hf15  1  0.460098  0.539902  0.749565  1
  Hf  Hf16  1  0.460098  0.920196  0.749565  1
  Hf  Hf17  1  0.079804  0.539902  0.749565  1
  Mn  Mn18  1  0.000000  0.000000  0.500000  1
  Be  Be19  1  0.333333  0.666667  0.251318  1
  Be  Be20  1  0.666667  0.333333  0.748682  1
  Cr  Cr21  1  0.000000  0.000000  0.000000  1
  Re  Re22  1  0.891768  0.108232  0.249631  1
  Re  Re23  1  0.891768  0.783538  0.249631  1
  Re  Re24  1  0.216462  0.108232  0.249631  1
  Re  Re25  1  0.108232  0.891768  0.750369  1
  Re  Re26  1  0.108232  0.216462  0.750369  1
  Re  Re27  1  0.783538  0.891768  0.750369  1
