# generated using pymatgen
data_YbEr(Ga2Ag)2
_symmetry_space_group_name_H-M   'P 1'
_cell_length_a   4.35019200
_cell_length_b   6.96647681
_cell_length_c   10.34630009
_cell_angle_alpha   90.67642156
_cell_angle_beta   90.00000000
_cell_angle_gamma   90.00000000
_symmetry_Int_Tables_number   1
_chemical_formula_structural   YbEr(Ga2Ag)2
_chemical_formula_sum   'Yb2 Er2 Ga8 Ag4'
_cell_volume   313.52806771
_cell_formula_units_Z   2
loop_
 _symmetry_equiv_pos_site_id
 _symmetry_equiv_pos_as_xyz
  1  'x, y, z'
loop_
 _atom_site_type_symbol
 _atom_site_label
 _atom_site_symmetry_multiplicity
 _atom_site_fract_x
 _atom_site_fract_y
 _atom_site_fract_z
 _atom_site_occupancy
  Yb  Yb0  1  0.750000  0.723953  0.328127  1
  Yb  Yb1  1  0.250000  0.276047  0.671873  1
  Er  Er2  1  0.250000  0.776882  0.828221  1
  Er  Er3  1  0.750000  0.223118  0.171779  1
  Ga  Ga4  1  0.250000  0.702512  0.535314  1
  Ga  Ga5  1  0.750000  0.297488  0.464686  1
  Ga  Ga6  1  0.750000  0.796962  0.035325  1
  Ga  Ga7  1  0.250000  0.203038  0.964675  1
  Ga  Ga8  1  0.250000  0.928435  0.151191  1
  Ga  Ga9  1  0.750000  0.071565  0.848809  1
  Ga  Ga10  1  0.750000  0.572524  0.652370  1
  Ga  Ga11  1  0.250000  0.427476  0.347630  1
  Ag  Ag12  1  0.250000  0.542194  0.099126  1
  Ag  Ag13  1  0.750000  0.457806  0.900874  1
  Ag  Ag14  1  0.750000  0.959633  0.599012  1
  Ag  Ag15  1  0.250000  0.040367  0.400988  1
