# generated using pymatgen
data_Sr2(Al3Pd)3
_symmetry_space_group_name_H-M   'P 1'
_cell_length_a   7.76294180
_cell_length_b   7.76294115
_cell_length_c   9.72308000
_cell_angle_alpha   90.00000000
_cell_angle_beta   90.00000000
_cell_angle_gamma   119.30575398
_symmetry_Int_Tables_number   1
_chemical_formula_structural   Sr2(Al3Pd)3
_chemical_formula_sum   'Sr4 Al18 Pd6'
_cell_volume   510.95539491
_cell_formula_units_Z   2
loop_
 _symmetry_equiv_pos_site_id
 _symmetry_equiv_pos_as_xyz
  1  'x, y, z'
loop_
 _atom_site_type_symbol
 _atom_site_label
 _atom_site_symmetry_multiplicity
 _atom_site_fract_x
 _atom_site_fract_y
 _atom_site_fract_z
 _atom_site_occupancy
  Sr  Sr0  1  0.996151  0.669820  0.250000  1
  Sr  Sr1  1  0.003849  0.330180  0.750000  1
  Sr  Sr2  1  0.669820  0.996151  0.250000  1
  Sr  Sr3  1  0.330180  0.003849  0.750000  1
  Al  Al4  1  0.134632  0.134632  0.250000  1
  Al  Al5  1  0.865368  0.865368  0.750000  1
  Al  Al6  1  0.005152  0.335004  0.073086  1
  Al  Al7  1  0.994848  0.664996  0.926914  1
  Al  Al8  1  0.994848  0.664996  0.573086  1
  Al  Al9  1  0.335004  0.005152  0.426914  1
  Al  Al10  1  0.005152  0.335004  0.426914  1
  Al  Al11  1  0.664996  0.994848  0.573086  1
  Al  Al12  1  0.664996  0.994848  0.926914  1
  Al  Al13  1  0.335004  0.005152  0.073086  1
  Al  Al14  1  0.335480  0.335480  0.548323  1
  Al  Al15  1  0.664520  0.664520  0.451677  1
  Al  Al16  1  0.664520  0.664520  0.048323  1
  Al  Al17  1  0.335480  0.335480  0.951677  1
  Al  Al18  1  0.339428  0.540853  0.250000  1
  Al  Al19  1  0.660572  0.459147  0.750000  1
  Al  Al20  1  0.540853  0.339428  0.250000  1
  Al  Al21  1  0.459147  0.660572  0.750000  1
  Pd  Pd22  1  0.670309  0.329691  0.000000  1
  Pd  Pd23  1  0.329691  0.670309  0.000000  1
  Pd  Pd24  1  0.329691  0.670309  0.500000  1
  Pd  Pd25  1  0.670309  0.329691  0.500000  1
  Pd  Pd26  1  0.000000  0.000000  0.000000  1
  Pd  Pd27  1  0.000000  0.000000  0.500000  1
