# generated using pymatgen
data_Rb11In2Bi5
_symmetry_space_group_name_H-M   'P 1'
_cell_length_a   10.59482318
_cell_length_b   12.72381896
_cell_length_c   13.99138802
_cell_angle_alpha   103.45218478
_cell_angle_beta   97.20449870
_cell_angle_gamma   107.33916881
_symmetry_Int_Tables_number   1
_chemical_formula_structural   Rb11In2Bi5
_chemical_formula_sum   'Rb22 In4 Bi10'
_cell_volume   1712.06665574
_cell_formula_units_Z   2
loop_
 _symmetry_equiv_pos_site_id
 _symmetry_equiv_pos_as_xyz
  1  'x, y, z'
loop_
 _atom_site_type_symbol
 _atom_site_label
 _atom_site_symmetry_multiplicity
 _atom_site_fract_x
 _atom_site_fract_y
 _atom_site_fract_z
 _atom_site_occupancy
  Rb  Rb0  1  0.857722  0.575967  0.964519  1
  Rb  Rb1  1  0.142278  0.424033  0.035481  1
  Rb  Rb2  1  0.308763  0.893169  0.773559  1
  Rb  Rb3  1  0.691237  0.106831  0.226441  1
  Rb  Rb4  1  0.632183  0.166195  0.529358  1
  Rb  Rb5  1  0.367817  0.833805  0.470642  1
  Rb  Rb6  1  0.631379  0.671729  0.555536  1
  Rb  Rb7  1  0.368621  0.328271  0.444464  1
  Rb  Rb8  1  0.186662  0.554496  0.572384  1
  Rb  Rb9  1  0.813338  0.445504  0.427616  1
  Rb  Rb10  1  0.050958  0.705617  0.266980  1
  Rb  Rb11  1  0.949042  0.294383  0.733020  1
  Rb  Rb12  1  0.188294  0.074753  0.570487  1
  Rb  Rb13  1  0.811706  0.925247  0.429513  1
  Rb  Rb14  1  0.878715  0.093855  0.986148  1
  Rb  Rb15  1  0.121285  0.906145  0.013852  1
  Rb  Rb16  1  0.588487  0.225205  0.865881  1
  Rb  Rb17  1  0.411513  0.774795  0.134119  1
  Rb  Rb18  1  0.377530  0.242948  0.142294  1
  Rb  Rb19  1  0.622470  0.757052  0.857706  1
  Rb  Rb20  1  0.353525  0.415251  0.787407  1
  Rb  Rb21  1  0.646475  0.584749  0.212593  1
  In  In22  1  0.940778  0.921280  0.741920  1
  In  In23  1  0.059222  0.078720  0.258080  1
  In  In24  1  0.940028  0.675551  0.740650  1
  In  In25  1  0.059972  0.324449  0.259350  1
  Bi  Bi26  1  0.002083  0.763783  0.549475  1
  Bi  Bi27  1  0.997917  0.236217  0.450525  1
  Bi  Bi28  1  0.676016  0.464672  0.693874  1
  Bi  Bi29  1  0.323984  0.535328  0.306126  1
  Bi  Bi30  1  0.676842  0.974197  0.699185  1
  Bi  Bi31  1  0.323158  0.025803  0.300815  1
  Bi  Bi32  1  0.184289  0.141011  0.857420  1
  Bi  Bi33  1  0.815711  0.858989  0.142580  1
  Bi  Bi34  1  0.181212  0.633876  0.861381  1
  Bi  Bi35  1  0.818788  0.366124  0.138619  1
