# generated using pymatgen
data_Zr3V3MoOs2
_symmetry_space_group_name_H-M   'P 1'
_cell_length_a   5.23575603
_cell_length_b   5.34311126
_cell_length_c   12.74841491
_cell_angle_alpha   89.90421727
_cell_angle_beta   89.68752949
_cell_angle_gamma   120.77169632
_symmetry_Int_Tables_number   1
_chemical_formula_structural   Zr3V3MoOs2
_chemical_formula_sum   'Zr6 V6 Mo2 Os4'
_cell_volume   306.42077121
_cell_formula_units_Z   2
loop_
 _symmetry_equiv_pos_site_id
 _symmetry_equiv_pos_as_xyz
  1  'x, y, z'
loop_
 _atom_site_type_symbol
 _atom_site_label
 _atom_site_symmetry_multiplicity
 _atom_site_fract_x
 _atom_site_fract_y
 _atom_site_fract_z
 _atom_site_occupancy
  Zr  Zr0  1  0.335189  0.665607  0.918832  1
  Zr  Zr1  1  0.003901  0.002052  0.246865  1
  Zr  Zr2  1  0.667909  0.332135  0.582703  1
  Zr  Zr3  1  0.332091  0.667865  0.667297  1
  Zr  Zr4  1  0.996099  0.997948  0.003134  1
  Zr  Zr5  1  0.664811  0.334393  0.331168  1
  V  V6  1  0.334747  0.670267  0.288757  1
  V  V7  1  0.000000  0.000000  0.625000  1
  V  V8  1  0.665253  0.329733  0.961243  1
  V  V9  1  0.000000  0.500000  0.125000  1
  V  V10  1  0.666015  0.833489  0.457144  1
  V  V11  1  0.333985  0.166511  0.792856  1
  Mo  Mo12  1  0.166442  0.334261  0.457377  1
  Mo  Mo13  1  0.833558  0.665739  0.792623  1
  Os  Os14  1  0.500000  0.500000  0.125000  1
  Os  Os15  1  0.166410  0.833818  0.457586  1
  Os  Os16  1  0.833590  0.166182  0.792414  1
  Os  Os17  1  0.500000  0.000000  0.125000  1
