# generated using pymatgen
data_Y3ThHgRu
_symmetry_space_group_name_H-M   'P 1'
_cell_length_a   9.70700035
_cell_length_b   9.70699988
_cell_length_c   9.70700100
_cell_angle_alpha   59.99999960
_cell_angle_beta   60.00000120
_cell_angle_gamma   59.99999723
_symmetry_Int_Tables_number   1
_chemical_formula_structural   Y3ThHgRu
_chemical_formula_sum   'Y12 Th4 Hg4 Ru4'
_cell_volume   646.75551347
_cell_formula_units_Z   4
loop_
 _symmetry_equiv_pos_site_id
 _symmetry_equiv_pos_as_xyz
  1  'x, y, z'
loop_
 _atom_site_type_symbol
 _atom_site_label
 _atom_site_symmetry_multiplicity
 _atom_site_fract_x
 _atom_site_fract_y
 _atom_site_fract_z
 _atom_site_occupancy
  Y  Y0  1  0.811431  0.188569  0.188569  1
  Y  Y1  1  0.188569  0.811431  0.811431  1
  Y  Y2  1  0.188569  0.811431  0.188569  1
  Y  Y3  1  0.811431  0.188569  0.811431  1
  Y  Y4  1  0.188569  0.188569  0.811431  1
  Y  Y5  1  0.811431  0.811431  0.188569  1
  Y  Y6  1  0.936756  0.563244  0.563244  1
  Y  Y7  1  0.563244  0.936756  0.936756  1
  Y  Y8  1  0.563244  0.936756  0.563244  1
  Y  Y9  1  0.936756  0.563244  0.936756  1
  Y  Y10  1  0.563244  0.563244  0.936756  1
  Y  Y11  1  0.936756  0.936756  0.563244  1
  Th  Th12  1  0.348087  0.348087  0.348087  1
  Th  Th13  1  0.348087  0.348087  0.955739  1
  Th  Th14  1  0.348087  0.955739  0.348087  1
  Th  Th15  1  0.955739  0.348087  0.348087  1
  Hg  Hg16  1  0.584558  0.584558  0.584558  1
  Hg  Hg17  1  0.584558  0.584558  0.246326  1
  Hg  Hg18  1  0.584558  0.246326  0.584558  1
  Hg  Hg19  1  0.246326  0.584558  0.584558  1
  Ru  Ru20  1  0.144288  0.144288  0.144288  1
  Ru  Ru21  1  0.144288  0.144288  0.567136  1
  Ru  Ru22  1  0.144288  0.567136  0.144288  1
  Ru  Ru23  1  0.567136  0.144288  0.144288  1
