# generated using pymatgen
data_Be15Nb6Co4Cu3Ni
_symmetry_space_group_name_H-M   'P 1'
_cell_length_a   7.59310725
_cell_length_b   7.58899717
_cell_length_c   7.60177355
_cell_angle_alpha   60.04937827
_cell_angle_beta   60.03280332
_cell_angle_gamma   60.05039494
_symmetry_Int_Tables_number   1
_chemical_formula_structural   Be15Nb6Co4Cu3Ni
_chemical_formula_sum   'Be15 Nb6 Co4 Cu3 Ni1'
_cell_volume   310.05492229
_cell_formula_units_Z   1
loop_
 _symmetry_equiv_pos_site_id
 _symmetry_equiv_pos_as_xyz
  1  'x, y, z'
loop_
 _atom_site_type_symbol
 _atom_site_label
 _atom_site_symmetry_multiplicity
 _atom_site_fract_x
 _atom_site_fract_y
 _atom_site_fract_z
 _atom_site_occupancy
  Be  Be0  1  0.322415  0.329000  0.326591  1
  Be  Be1  1  0.675654  0.675522  0.667759  1
  Be  Be2  1  0.323830  0.330527  0.018915  1
  Be  Be3  1  0.321659  0.021128  0.330266  1
  Be  Be4  1  0.674720  0.675341  0.982140  1
  Be  Be5  1  0.678587  0.974721  0.674158  1
  Be  Be6  1  0.028208  0.325586  0.324413  1
  Be  Be7  1  0.973555  0.680851  0.673358  1
  Be  Be8  1  0.500154  0.999759  0.000896  1
  Be  Be9  1  0.001646  0.500222  0.496115  1
  Be  Be10  1  0.000787  0.501484  0.000920  1
  Be  Be11  1  0.499464  0.999789  0.499675  1
  Be  Be12  1  0.999567  0.998762  0.501249  1
  Be  Be13  1  0.496710  0.501651  0.000412  1
  Be  Be14  1  0.002055  0.996304  0.001521  1
  Nb  Nb15  1  0.703980  0.291681  0.309023  1
  Nb  Nb16  1  0.286493  0.705909  0.705126  1
  Nb  Nb17  1  0.287271  0.700453  0.303943  1
  Nb  Nb18  1  0.710118  0.289661  0.693402  1
  Nb  Nb19  1  0.300239  0.300597  0.695078  1
  Nb  Nb20  1  0.713356  0.697445  0.294565  1
  Co  Co21  1  0.877103  0.878007  0.878913  1
  Co  Co22  1  0.122673  0.122489  0.632709  1
  Co  Co23  1  0.122722  0.634237  0.121192  1
  Co  Co24  1  0.876772  0.877716  0.367673  1
  Cu  Cu25  1  0.876247  0.367478  0.878187  1
  Cu  Cu26  1  0.631595  0.122983  0.122430  1
  Cu  Cu27  1  0.369089  0.877133  0.877254  1
  Ni  Ni28  1  0.123329  0.123568  0.122117  1
