# generated using pymatgen
data_Sm4Y4Re(B8Os)3
_symmetry_space_group_name_H-M   'P 1'
_cell_length_a   3.69517300
_cell_length_b   9.22071255
_cell_length_c   11.63281100
_cell_angle_alpha   89.91225704
_cell_angle_beta   90.00000000
_cell_angle_gamma   90.00000000
_symmetry_Int_Tables_number   1
_chemical_formula_structural   Sm4Y4Re(B8Os)3
_chemical_formula_sum   'Sm4 Y4 Re1 B24 Os3'
_cell_volume   396.35416151
_cell_formula_units_Z   1
loop_
 _symmetry_equiv_pos_site_id
 _symmetry_equiv_pos_as_xyz
  1  'x, y, z'
loop_
 _atom_site_type_symbol
 _atom_site_label
 _atom_site_symmetry_multiplicity
 _atom_site_fract_x
 _atom_site_fract_y
 _atom_site_fract_z
 _atom_site_occupancy
  Sm  Sm0  1  0.000000  0.823147  0.085385  1
  Sm  Sm1  1  0.000000  0.179089  0.912167  1
  Sm  Sm2  1  0.000000  0.322971  0.415819  1
  Sm  Sm3  1  0.000000  0.676142  0.586994  1
  Y  Y4  1  0.000000  0.443393  0.128127  1
  Y  Y5  1  0.000000  0.555834  0.872189  1
  Y  Y6  1  0.000000  0.942860  0.372219  1
  Y  Y7  1  0.000000  0.056694  0.627220  1
  Re  Re8  1  0.000000  0.361950  0.679362  1
  B  B9  1  0.500000  0.054755  0.068213  1
  B  B10  1  0.500000  0.945416  0.931391  1
  B  B11  1  0.500000  0.554453  0.431325  1
  B  B12  1  0.500000  0.446224  0.568384  1
  B  B13  1  0.500000  0.248113  0.081731  1
  B  B14  1  0.500000  0.752038  0.918493  1
  B  B15  1  0.500000  0.747862  0.418079  1
  B  B16  1  0.500000  0.251942  0.581918  1
  B  B17  1  0.500000  0.289340  0.233237  1
  B  B18  1  0.500000  0.710150  0.767496  1
  B  B19  1  0.500000  0.789890  0.266714  1
  B  B20  1  0.500000  0.209435  0.733256  1
  B  B21  1  0.500000  0.130597  0.313993  1
  B  B22  1  0.500000  0.868931  0.686377  1
  B  B23  1  0.500000  0.631302  0.185789  1
  B  B24  1  0.500000  0.368977  0.813846  1
  B  B25  1  0.500000  0.484678  0.286752  1
  B  B26  1  0.500000  0.516310  0.713328  1
  B  B27  1  0.500000  0.984356  0.212759  1
  B  B28  1  0.500000  0.015760  0.786608  1
  B  B29  1  0.500000  0.104307  0.470305  1
  B  B30  1  0.500000  0.894130  0.528950  1
  B  B31  1  0.500000  0.605754  0.029634  1
  B  B32  1  0.500000  0.394864  0.971422  1
  Os  Os33  1  0.000000  0.137938  0.179426  1
  Os  Os34  1  0.000000  0.862165  0.821019  1
  Os  Os35  1  0.000000  0.638231  0.320075  1
