# generated using pymatgen
data_Tm4LuZn2Bi
_symmetry_space_group_name_H-M   'P 1'
_cell_length_a   8.55486996
_cell_length_b   8.55486828
_cell_length_c   8.55486962
_cell_angle_alpha   124.22604068
_cell_angle_beta   124.22604679
_cell_angle_gamma   82.82394858
_symmetry_Int_Tables_number   1
_chemical_formula_structural   Tm4LuZn2Bi
_chemical_formula_sum   'Tm8 Lu2 Zn4 Bi2'
_cell_volume   410.89812282
_cell_formula_units_Z   2
loop_
 _symmetry_equiv_pos_site_id
 _symmetry_equiv_pos_as_xyz
  1  'x, y, z'
loop_
 _atom_site_type_symbol
 _atom_site_label
 _atom_site_symmetry_multiplicity
 _atom_site_fract_x
 _atom_site_fract_y
 _atom_site_fract_z
 _atom_site_occupancy
  Tm  Tm0  1  0.795842  0.295842  0.807693  1
  Tm  Tm1  1  0.204158  0.704158  0.192307  1
  Tm  Tm2  1  0.488150  0.988150  0.192307  1
  Tm  Tm3  1  0.295842  0.488150  0.500000  1
  Tm  Tm4  1  0.011850  0.204158  0.500000  1
  Tm  Tm5  1  0.511850  0.011850  0.807693  1
  Tm  Tm6  1  0.704158  0.511850  0.500000  1
  Tm  Tm7  1  0.988150  0.795842  0.500000  1
  Lu  Lu8  1  0.000000  0.000000  0.000000  1
  Lu  Lu9  1  0.500000  0.500000  0.000000  1
  Zn  Zn10  1  0.137342  0.637342  0.774684  1
  Zn  Zn11  1  0.862658  0.362658  0.225316  1
  Zn  Zn12  1  0.637342  0.862658  0.500000  1
  Zn  Zn13  1  0.362658  0.137342  0.500000  1
  Bi  Bi14  1  0.250000  0.250000  0.000000  1
  Bi  Bi15  1  0.750000  0.750000  0.000000  1
