# generated using pymatgen
data_UTa2(Nb2Cl9)2
_symmetry_space_group_name_H-M   'P 1'
_cell_length_a   10.15617423
_cell_length_b   10.15726666
_cell_length_c   10.15957800
_cell_angle_alpha   55.99622661
_cell_angle_beta   55.99965672
_cell_angle_gamma   55.97808998
_symmetry_Int_Tables_number   1
_chemical_formula_structural   UTa2(Nb2Cl9)2
_chemical_formula_sum   'U1 Ta2 Nb4 Cl18'
_cell_volume   672.25768767
_cell_formula_units_Z   1
loop_
 _symmetry_equiv_pos_site_id
 _symmetry_equiv_pos_as_xyz
  1  'x, y, z'
loop_
 _atom_site_type_symbol
 _atom_site_label
 _atom_site_symmetry_multiplicity
 _atom_site_fract_x
 _atom_site_fract_y
 _atom_site_fract_z
 _atom_site_occupancy
  U  U0  1  0.000233  0.999670  0.000111  1
  Ta  Ta1  1  0.410326  0.304418  0.646708  1
  Ta  Ta2  1  0.353204  0.590066  0.695257  1
  Nb  Nb3  1  0.696404  0.352688  0.589698  1
  Nb  Nb4  1  0.304141  0.647488  0.409562  1
  Nb  Nb5  1  0.647828  0.409895  0.303361  1
  Nb  Nb6  1  0.590493  0.696382  0.352100  1
  Cl  Cl7  1  0.566239  0.159969  0.444991  1
  Cl  Cl8  1  0.223757  0.371468  0.907435  1
  Cl  Cl9  1  0.910396  0.222105  0.370264  1
  Cl  Cl10  1  0.370321  0.910420  0.222537  1
  Cl  Cl11  1  0.777614  0.629568  0.089848  1
  Cl  Cl12  1  0.091448  0.776325  0.631738  1
  Cl  Cl13  1  0.705688  0.959873  0.157888  1
  Cl  Cl14  1  0.958679  0.157256  0.707007  1
  Cl  Cl15  1  0.160199  0.704550  0.956044  1
  Cl  Cl16  1  0.294975  0.044186  0.840554  1
  Cl  Cl17  1  0.040698  0.841778  0.294134  1
  Cl  Cl18  1  0.842298  0.293533  0.040723  1
  Cl  Cl19  1  0.554790  0.433825  0.840099  1
  Cl  Cl20  1  0.161693  0.439153  0.570409  1
  Cl  Cl21  1  0.442033  0.568249  0.159783  1
  Cl  Cl22  1  0.429799  0.838203  0.560717  1
  Cl  Cl23  1  0.840302  0.558235  0.431474  1
  Cl  Cl24  1  0.626445  0.090701  0.777559  1
