# generated using pymatgen
data_Sc2Ga8MoPb3O20
_symmetry_space_group_name_H-M   'P 1'
_cell_length_a   10.03086487
_cell_length_b   10.03086566
_cell_length_c   5.35198700
_cell_angle_alpha   75.07359833
_cell_angle_beta   75.07359121
_cell_angle_gamma   74.06301192
_symmetry_Int_Tables_number   1
_chemical_formula_structural   Sc2Ga8MoPb3O20
_chemical_formula_sum   'Sc2 Ga8 Mo1 Pb3 O20'
_cell_volume   490.11519933
_cell_formula_units_Z   1
loop_
 _symmetry_equiv_pos_site_id
 _symmetry_equiv_pos_as_xyz
  1  'x, y, z'
loop_
 _atom_site_type_symbol
 _atom_site_label
 _atom_site_symmetry_multiplicity
 _atom_site_fract_x
 _atom_site_fract_y
 _atom_site_fract_z
 _atom_site_occupancy
  Sc  Sc0  1  0.638277  0.361723  0.500000  1
  Sc  Sc1  1  0.361723  0.638277  0.500000  1
  Ga  Ga2  1  0.279092  0.011397  0.370085  1
  Ga  Ga3  1  0.988603  0.720908  0.629915  1
  Ga  Ga4  1  0.720908  0.988603  0.629915  1
  Ga  Ga5  1  0.011397  0.279092  0.370085  1
  Ga  Ga6  1  0.580793  0.140006  0.111222  1
  Ga  Ga7  1  0.859994  0.419207  0.888778  1
  Ga  Ga8  1  0.419207  0.859994  0.888778  1
  Ga  Ga9  1  0.140006  0.580793  0.111222  1
  Mo  Mo10  1  0.500000  0.500000  0.000000  1
  Pb  Pb11  1  0.000000  0.000000  0.000000  1
  Pb  Pb12  1  0.724258  0.724258  0.198581  1
  Pb  Pb13  1  0.275742  0.275742  0.801419  1
  O  O14  1  0.570763  0.570763  0.270117  1
  O  O15  1  0.429237  0.429237  0.729883  1
  O  O16  1  0.099739  0.099739  0.299698  1
  O  O17  1  0.900261  0.900261  0.700302  1
  O  O18  1  0.397794  0.122435  0.132838  1
  O  O19  1  0.877565  0.602206  0.867162  1
  O  O20  1  0.602206  0.877565  0.867162  1
  O  O21  1  0.122435  0.397794  0.132838  1
  O  O22  1  0.335184  0.839611  0.251850  1
  O  O23  1  0.160389  0.664816  0.748150  1
  O  O24  1  0.664816  0.160389  0.748150  1
  O  O25  1  0.839611  0.335184  0.251850  1
  O  O26  1  0.993137  0.281074  0.723559  1
  O  O27  1  0.718926  0.006863  0.276441  1
  O  O28  1  0.006863  0.718926  0.276441  1
  O  O29  1  0.281074  0.993137  0.723559  1
  O  O30  1  0.694465  0.451348  0.762435  1
  O  O31  1  0.548652  0.305535  0.237565  1
  O  O32  1  0.305535  0.548652  0.237565  1
  O  O33  1  0.451348  0.694465  0.762435  1
