# generated using pymatgen
data_Eu2TlAu2
_symmetry_space_group_name_H-M   'P 1'
_cell_length_a   8.40560800
_cell_length_b   8.40560800
_cell_length_c   3.96114300
_cell_angle_alpha   90.00000000
_cell_angle_beta   90.00000000
_cell_angle_gamma   90.00000000
_symmetry_Int_Tables_number   1
_chemical_formula_structural   Eu2TlAu2
_chemical_formula_sum   'Eu4 Tl2 Au4'
_cell_volume   279.87157137
_cell_formula_units_Z   2
loop_
 _symmetry_equiv_pos_site_id
 _symmetry_equiv_pos_as_xyz
  1  'x, y, z'
loop_
 _atom_site_type_symbol
 _atom_site_label
 _atom_site_symmetry_multiplicity
 _atom_site_fract_x
 _atom_site_fract_y
 _atom_site_fract_z
 _atom_site_occupancy
  Eu  Eu0  1  0.327304  0.172696  0.499999  1
  Eu  Eu1  1  0.827304  0.327304  0.499999  1
  Eu  Eu2  1  0.172696  0.672695  0.499999  1
  Eu  Eu3  1  0.672695  0.827304  0.499999  1
  Tl  Tl4  1  0.000000  0.000000  0.000000  1
  Tl  Tl5  1  0.500000  0.500000  0.000000  1
  Au  Au6  1  0.624313  0.124314  0.000000  1
  Au  Au7  1  0.124314  0.375687  0.000000  1
  Au  Au8  1  0.875687  0.624313  0.000000  1
  Au  Au9  1  0.375687  0.875687  0.000000  1
