# generated using pymatgen
data_Dy9Er3InCo4Os
_symmetry_space_group_name_H-M   'P 1'
_cell_length_a   8.26640508
_cell_length_b   8.26953073
_cell_length_c   8.26953037
_cell_angle_alpha   111.44980922
_cell_angle_beta   110.63972138
_cell_angle_gamma   106.38338672
_symmetry_Int_Tables_number   1
_chemical_formula_structural   Dy9Er3InCo4Os
_chemical_formula_sum   'Dy9 Er3 In1 Co4 Os1'
_cell_volume   434.12186123
_cell_formula_units_Z   1
loop_
 _symmetry_equiv_pos_site_id
 _symmetry_equiv_pos_as_xyz
  1  'x, y, z'
loop_
 _atom_site_type_symbol
 _atom_site_label
 _atom_site_symmetry_multiplicity
 _atom_site_fract_x
 _atom_site_fract_y
 _atom_site_fract_z
 _atom_site_occupancy
  Dy  Dy0  1  0.973326  0.780131  0.193196  1
  Dy  Dy1  1  0.182240  0.281543  0.463457  1
  Dy  Dy2  1  0.817944  0.719057  0.537280  1
  Dy  Dy3  1  0.182240  0.718782  0.900698  1
  Dy  Dy4  1  0.817944  0.280665  0.098887  1
  Dy  Dy5  1  0.315143  0.620543  0.306217  1
  Dy  Dy6  1  0.684853  0.378893  0.693408  1
  Dy  Dy7  1  0.315143  0.008926  0.694600  1
  Dy  Dy8  1  0.684853  0.991446  0.305960  1
  Er  Er9  1  0.412916  0.219775  0.193142  1
  Er  Er10  1  0.586759  0.780372  0.806386  1
  Er  Er11  1  0.026305  0.219502  0.806802  1
  In  In12  1  0.499361  0.499680  0.999682  1
  Co  Co13  1  0.376240  0.000226  0.376014  1
  Co  Co14  1  0.624371  0.000049  0.624321  1
  Co  Co15  1  0.111803  0.611417  0.500386  1
  Co  Co16  1  0.888613  0.388459  0.500154  1
  Os  Os17  1  0.999944  0.000534  0.999410  1
