# generated using pymatgen
data_DyHo11(ThSn2)8
_symmetry_space_group_name_H-M   'P 1'
_cell_length_a   8.12273406
_cell_length_b   8.21839005
_cell_length_c   15.52541003
_cell_angle_alpha   89.99669776
_cell_angle_beta   89.99373846
_cell_angle_gamma   89.98822595
_symmetry_Int_Tables_number   1
_chemical_formula_structural   DyHo11(ThSn2)8
_chemical_formula_sum   'Dy1 Ho11 Th8 Sn16'
_cell_volume   1036.41108599
_cell_formula_units_Z   1
loop_
 _symmetry_equiv_pos_site_id
 _symmetry_equiv_pos_as_xyz
  1  'x, y, z'
loop_
 _atom_site_type_symbol
 _atom_site_label
 _atom_site_symmetry_multiplicity
 _atom_site_fract_x
 _atom_site_fract_y
 _atom_site_fract_z
 _atom_site_occupancy
  Dy  Dy0  1  0.363396  0.836434  0.876406  1
  Ho  Ho1  1  0.863340  0.663493  0.623653  1
  Ho  Ho2  1  0.636658  0.163503  0.376280  1
  Ho  Ho3  1  0.136648  0.336483  0.123745  1
  Ho  Ho4  1  0.636633  0.163463  0.123676  1
  Ho  Ho5  1  0.136659  0.336492  0.376290  1
  Ho  Ho6  1  0.363296  0.836514  0.623615  1
  Ho  Ho7  1  0.863339  0.663534  0.876325  1
  Ho  Ho8  1  0.191806  0.497834  0.749974  1
  Ho  Ho9  1  0.691999  0.002147  0.749979  1
  Ho  Ho10  1  0.808128  0.502057  0.249977  1
  Ho  Ho11  1  0.308140  0.997954  0.249987  1
  Th  Th12  1  0.519303  0.320483  0.903431  1
  Th  Th13  1  0.019269  0.179571  0.596563  1
  Th  Th14  1  0.480688  0.679536  0.403406  1
  Th  Th15  1  0.980732  0.820472  0.096584  1
  Th  Th16  1  0.480734  0.679490  0.096694  1
  Th  Th17  1  0.980709  0.820457  0.403411  1
  Th  Th18  1  0.519347  0.320463  0.596558  1
  Th  Th19  1  0.019257  0.179603  0.903436  1
  Sn  Sn20  1  0.297145  0.039080  0.042533  1
  Sn  Sn21  1  0.797227  0.461152  0.457662  1
  Sn  Sn22  1  0.702767  0.961137  0.542330  1
  Sn  Sn23  1  0.202531  0.538420  0.957767  1
  Sn  Sn24  1  0.703154  0.961313  0.957741  1
  Sn  Sn25  1  0.202798  0.538831  0.542326  1
  Sn  Sn26  1  0.297213  0.038869  0.457667  1
  Sn  Sn27  1  0.797255  0.461150  0.042336  1
  Sn  Sn28  1  0.559126  0.621921  0.749849  1
  Sn  Sn29  1  0.058693  0.877858  0.749883  1
  Sn  Sn30  1  0.441068  0.377809  0.250000  1
  Sn  Sn31  1  0.941068  0.122200  0.250010  1
  Sn  Sn32  1  0.325543  0.142381  0.749904  1
  Sn  Sn33  1  0.825566  0.357853  0.749990  1
  Sn  Sn34  1  0.674376  0.857839  0.250007  1
  Sn  Sn35  1  0.174391  0.642205  0.250003  1
