# generated using pymatgen
data_YHo2Ga5Cu6
_symmetry_space_group_name_H-M   'P 1'
_cell_length_a   7.92911075
_cell_length_b   7.92911077
_cell_length_c   7.92911000
_cell_angle_alpha   148.62368526
_cell_angle_beta   113.40382182
_cell_angle_gamma   75.46477986
_symmetry_Int_Tables_number   1
_chemical_formula_structural   YHo2Ga5Cu6
_chemical_formula_sum   'Y1 Ho2 Ga5 Cu6'
_cell_volume   234.11007749
_cell_formula_units_Z   1
loop_
 _symmetry_equiv_pos_site_id
 _symmetry_equiv_pos_as_xyz
  1  'x, y, z'
loop_
 _atom_site_type_symbol
 _atom_site_label
 _atom_site_symmetry_multiplicity
 _atom_site_fract_x
 _atom_site_fract_y
 _atom_site_fract_z
 _atom_site_occupancy
  Y  Y0  1  0.000000  0.000000  0.000000  1
  Ho  Ho1  1  0.698000  0.698000  0.000000  1
  Ho  Ho2  1  0.302000  0.302000  0.000000  1
  Ga  Ga3  1  0.309899  0.662832  0.646582  1
  Ga  Ga4  1  0.500000  0.000000  0.500000  1
  Ga  Ga5  1  0.690101  0.337168  0.353418  1
  Ga  Ga6  1  0.983751  0.336683  0.646582  1
  Ga  Ga7  1  0.016249  0.663317  0.353418  1
  Cu  Cu8  1  0.312580  0.499959  0.812538  1
  Cu  Cu9  1  0.687420  0.500041  0.187462  1
  Cu  Cu10  1  0.412386  0.131561  0.280948  1
  Cu  Cu11  1  0.850613  0.131437  0.719052  1
  Cu  Cu12  1  0.149387  0.868563  0.280948  1
  Cu  Cu13  1  0.587614  0.868439  0.719052  1
