# generated using pymatgen
data_Li2LaPr2Al7
_symmetry_space_group_name_H-M   'P 1'
_cell_length_a   9.48075851
_cell_length_b   9.48075929
_cell_length_c   9.48075802
_cell_angle_alpha   34.84922336
_cell_angle_beta   34.84922932
_cell_angle_gamma   34.84921742
_symmetry_Int_Tables_number   1
_chemical_formula_structural   Li2LaPr2Al7
_chemical_formula_sum   'Li2 La1 Pr2 Al7'
_cell_volume   248.38198956
_cell_formula_units_Z   1
loop_
 _symmetry_equiv_pos_site_id
 _symmetry_equiv_pos_as_xyz
  1  'x, y, z'
loop_
 _atom_site_type_symbol
 _atom_site_label
 _atom_site_symmetry_multiplicity
 _atom_site_fract_x
 _atom_site_fract_y
 _atom_site_fract_z
 _atom_site_occupancy
  Li  Li0  1  0.664827  0.664827  0.664827  1
  Li  Li1  1  0.335173  0.335173  0.335173  1
  La  La2  1  0.000000  0.000000  0.000000  1
  Pr  Pr3  1  0.140956  0.140956  0.140956  1
  Pr  Pr4  1  0.859044  0.859044  0.859044  1
  Al  Al5  1  0.415402  0.415402  0.925169  1
  Al  Al6  1  0.925169  0.415402  0.415402  1
  Al  Al7  1  0.500000  0.500000  0.500000  1
  Al  Al8  1  0.584598  0.584598  0.074831  1
  Al  Al9  1  0.415402  0.925169  0.415402  1
  Al  Al10  1  0.074831  0.584598  0.584598  1
  Al  Al11  1  0.584598  0.074831  0.584598  1
