# generated using pymatgen
data_Tb7HoRe(B8Ru)3
_symmetry_space_group_name_H-M   'P 1'
_cell_length_a   3.68777400
_cell_length_b   9.17325657
_cell_length_c   11.55977022
_cell_angle_alpha   90.14908389
_cell_angle_beta   90.00000000
_cell_angle_gamma   90.00000000
_symmetry_Int_Tables_number   1
_chemical_formula_structural   Tb7HoRe(B8Ru)3
_chemical_formula_sum   'Tb7 Ho1 Re1 B24 Ru3'
_cell_volume   391.05295302
_cell_formula_units_Z   1
loop_
 _symmetry_equiv_pos_site_id
 _symmetry_equiv_pos_as_xyz
  1  'x, y, z'
loop_
 _atom_site_type_symbol
 _atom_site_label
 _atom_site_symmetry_multiplicity
 _atom_site_fract_x
 _atom_site_fract_y
 _atom_site_fract_z
 _atom_site_occupancy
  Tb  Tb0  1  0.000000  0.323618  0.415078  1
  Tb  Tb1  1  0.000000  0.679373  0.588125  1
  Tb  Tb2  1  0.000000  0.822934  0.083433  1
  Tb  Tb3  1  0.000000  0.176063  0.913403  1
  Tb  Tb4  1  0.000000  0.942824  0.370701  1
  Tb  Tb5  1  0.000000  0.056810  0.628009  1
  Tb  Tb6  1  0.000000  0.442451  0.128578  1
  Ho  Ho7  1  0.000000  0.556205  0.872130  1
  Re  Re8  1  0.000000  0.861744  0.821456  1
  B  B9  1  0.500000  0.554226  0.432923  1
  B  B10  1  0.500000  0.446133  0.567631  1
  B  B11  1  0.500000  0.053845  0.067759  1
  B  B12  1  0.500000  0.946707  0.932866  1
  B  B13  1  0.500000  0.747747  0.419084  1
  B  B14  1  0.500000  0.252758  0.580738  1
  B  B15  1  0.500000  0.247528  0.081115  1
  B  B16  1  0.500000  0.751233  0.918923  1
  B  B17  1  0.500000  0.789468  0.266082  1
  B  B18  1  0.500000  0.210235  0.733055  1
  B  B19  1  0.500000  0.290008  0.233966  1
  B  B20  1  0.500000  0.708403  0.766309  1
  B  B21  1  0.500000  0.631076  0.185656  1
  B  B22  1  0.500000  0.368786  0.814242  1
  B  B23  1  0.500000  0.131966  0.314466  1
  B  B24  1  0.500000  0.868382  0.685933  1
  B  B25  1  0.500000  0.984353  0.212181  1
  B  B26  1  0.500000  0.016926  0.787627  1
  B  B27  1  0.500000  0.484066  0.288306  1
  B  B28  1  0.500000  0.516283  0.712936  1
  B  B29  1  0.500000  0.605779  0.029517  1
  B  B30  1  0.500000  0.392661  0.970213  1
  B  B31  1  0.500000  0.108209  0.469535  1
  B  B32  1  0.500000  0.892722  0.529026  1
  Ru  Ru33  1  0.000000  0.637557  0.321285  1
  Ru  Ru34  1  0.000000  0.363093  0.678663  1
  Ru  Ru35  1  0.000000  0.137825  0.179048  1
