# generated using pymatgen
data_Dy4ErRe2BC6
_symmetry_space_group_name_H-M   'P 1'
_cell_length_a   8.32180574
_cell_length_b   8.32180626
_cell_length_c   3.41580300
_cell_angle_alpha   90.00000000
_cell_angle_beta   90.00000000
_cell_angle_gamma   122.51986618
_symmetry_Int_Tables_number   1
_chemical_formula_structural   Dy4ErRe2BC6
_chemical_formula_sum   'Dy4 Er1 Re2 B1 C6'
_cell_volume   199.46247941
_cell_formula_units_Z   1
loop_
 _symmetry_equiv_pos_site_id
 _symmetry_equiv_pos_as_xyz
  1  'x, y, z'
loop_
 _atom_site_type_symbol
 _atom_site_label
 _atom_site_symmetry_multiplicity
 _atom_site_fract_x
 _atom_site_fract_y
 _atom_site_fract_z
 _atom_site_occupancy
  Dy  Dy0  1  0.077281  0.329179  0.500000  1
  Dy  Dy1  1  0.922719  0.670821  0.500000  1
  Dy  Dy2  1  0.670821  0.922719  0.500000  1
  Dy  Dy3  1  0.329179  0.077281  0.500000  1
  Er  Er4  1  0.500000  0.500000  0.000000  1
  Re  Re5  1  0.713914  0.286086  0.000000  1
  Re  Re6  1  0.286086  0.713914  0.000000  1
  B  B7  1  0.000000  0.000000  0.000000  1
  C  C8  1  0.627079  0.372921  0.500000  1
  C  C9  1  0.372921  0.627079  0.500000  1
  C  C10  1  0.183479  0.183479  0.000000  1
  C  C11  1  0.816521  0.816521  0.000000  1
  C  C12  1  0.000000  0.500000  0.000000  1
  C  C13  1  0.500000  0.000000  0.000000  1
