# generated using pymatgen
data_Tb2DySc3FeTe2
_symmetry_space_group_name_H-M   'P 1'
_cell_length_a   7.95891800
_cell_length_b   7.96774601
_cell_length_c   4.02779400
_cell_angle_alpha   90.00000000
_cell_angle_beta   90.00000000
_cell_angle_gamma   119.96335547
_symmetry_Int_Tables_number   1
_chemical_formula_structural   Tb2DySc3FeTe2
_chemical_formula_sum   'Tb2 Dy1 Sc3 Fe1 Te2'
_cell_volume   221.28279119
_cell_formula_units_Z   1
loop_
 _symmetry_equiv_pos_site_id
 _symmetry_equiv_pos_as_xyz
  1  'x, y, z'
loop_
 _atom_site_type_symbol
 _atom_site_label
 _atom_site_symmetry_multiplicity
 _atom_site_fract_x
 _atom_site_fract_y
 _atom_site_fract_z
 _atom_site_occupancy
  Tb  Tb0  1  0.390125  0.390024  0.000000  1
  Tb  Tb1  1  0.000100  0.609976  0.000000  1
  Dy  Dy2  1  0.610956  0.000000  0.000000  1
  Sc  Sc3  1  0.224155  0.000000  0.500000  1
  Sc  Sc4  1  0.775681  0.776373  0.500000  1
  Sc  Sc5  1  0.999308  0.223627  0.500000  1
  Fe  Fe6  1  0.998979  0.000000  0.000000  1
  Te  Te7  1  0.334115  0.667534  0.500000  1
  Te  Te8  1  0.666581  0.332466  0.500000  1
