# generated using pymatgen
data_Tb4Mg(InAu5)2
_symmetry_space_group_name_H-M   'P 1'
_cell_length_a   8.55248679
_cell_length_b   8.55248696
_cell_length_c   10.25159800
_cell_angle_alpha   90.00000000
_cell_angle_beta   90.00000000
_cell_angle_gamma   107.08250045
_symmetry_Int_Tables_number   1
_chemical_formula_structural   Tb4Mg(InAu5)2
_chemical_formula_sum   'Tb8 Mg2 In4 Au20'
_cell_volume   716.77200859
_cell_formula_units_Z   2
loop_
 _symmetry_equiv_pos_site_id
 _symmetry_equiv_pos_as_xyz
  1  'x, y, z'
loop_
 _atom_site_type_symbol
 _atom_site_label
 _atom_site_symmetry_multiplicity
 _atom_site_fract_x
 _atom_site_fract_y
 _atom_site_fract_z
 _atom_site_occupancy
  Tb  Tb0  1  0.699902  0.300098  0.000000  1
  Tb  Tb1  1  0.199902  0.800098  0.500000  1
  Tb  Tb2  1  0.800853  0.800853  0.297890  1
  Tb  Tb3  1  0.300853  0.300853  0.202110  1
  Tb  Tb4  1  0.800098  0.199902  0.500000  1
  Tb  Tb5  1  0.300098  0.699902  0.000000  1
  Tb  Tb6  1  0.699147  0.699147  0.797890  1
  Tb  Tb7  1  0.199147  0.199147  0.702110  1
  Mg  Mg8  1  0.000000  0.000000  0.000000  1
  Mg  Mg9  1  0.500000  0.500000  0.500000  1
  In  In10  1  0.516189  0.016189  0.250000  1
  In  In11  1  0.983811  0.483811  0.750000  1
  In  In12  1  0.016189  0.516189  0.250000  1
  In  In13  1  0.483811  0.983811  0.750000  1
  Au  Au14  1  0.160688  0.432756  0.482730  1
  Au  Au15  1  0.903754  0.903754  0.595623  1
  Au  Au16  1  0.567244  0.839312  0.517270  1
  Au  Au17  1  0.884833  0.163236  0.208415  1
  Au  Au18  1  0.384833  0.663236  0.291585  1
  Au  Au19  1  0.663236  0.384833  0.291585  1
  Au  Au20  1  0.403754  0.403754  0.904377  1
  Au  Au21  1  0.932756  0.660688  0.017270  1
  Au  Au22  1  0.336764  0.615167  0.708415  1
  Au  Au23  1  0.339312  0.067244  0.982730  1
  Au  Au24  1  0.596246  0.596246  0.095623  1
  Au  Au25  1  0.660688  0.932756  0.017270  1
  Au  Au26  1  0.096246  0.096246  0.404377  1
  Au  Au27  1  0.615167  0.336764  0.708415  1
  Au  Au28  1  0.115167  0.836764  0.791585  1
  Au  Au29  1  0.067244  0.339312  0.982730  1
  Au  Au30  1  0.839312  0.567244  0.517270  1
  Au  Au31  1  0.163236  0.884833  0.208415  1
  Au  Au32  1  0.432756  0.160688  0.482730  1
  Au  Au33  1  0.836764  0.115167  0.791585  1
