# generated using pymatgen
data_CsSm3CI6
_symmetry_space_group_name_H-M   'P 1'
_cell_length_a   9.52682226
_cell_length_b   9.59435913
_cell_length_c   10.13264699
_cell_angle_alpha   71.38834292
_cell_angle_beta   84.60159785
_cell_angle_gamma   89.33166835
_symmetry_Int_Tables_number   1
_chemical_formula_structural   CsSm3CI6
_chemical_formula_sum   'Cs2 Sm6 C2 I12'
_cell_volume   873.66836802
_cell_formula_units_Z   2
loop_
 _symmetry_equiv_pos_site_id
 _symmetry_equiv_pos_as_xyz
  1  'x, y, z'
loop_
 _atom_site_type_symbol
 _atom_site_label
 _atom_site_symmetry_multiplicity
 _atom_site_fract_x
 _atom_site_fract_y
 _atom_site_fract_z
 _atom_site_occupancy
  Cs  Cs0  1  0.464707  0.367398  0.327878  1
  Cs  Cs1  1  0.535294  0.632602  0.672122  1
  Sm  Sm2  1  0.918922  0.753744  0.003335  1
  Sm  Sm3  1  0.081078  0.246256  0.996664  1
  Sm  Sm4  1  0.751347  0.082823  0.001405  1
  Sm  Sm5  1  0.248652  0.917177  0.998596  1
  Sm  Sm6  1  0.973456  0.895063  0.311542  1
  Sm  Sm7  1  0.026543  0.104937  0.688459  1
  C  C8  1  0.006339  0.024486  0.926295  1
  C  C9  1  0.993660  0.975514  0.073705  1
  I  I10  1  0.075217  0.201825  0.327190  1
  I  I11  1  0.924783  0.798175  0.672810  1
  I  I12  1  0.205481  0.592241  0.000171  1
  I  I13  1  0.794520  0.407759  0.999829  1
  I  I14  1  0.404939  0.201596  0.001606  1
  I  I15  1  0.595060  0.798405  0.998393  1
  I  I16  1  0.663072  0.002958  0.327883  1
  I  I17  1  0.336928  0.997042  0.672117  1
  I  I18  1  0.281051  0.776980  0.323710  1
  I  I19  1  0.718949  0.223020  0.676290  1
  I  I20  1  0.851238  0.589820  0.327667  1
  I  I21  1  0.148761  0.410180  0.672333  1
