# generated using pymatgen
data_Mn2GePd4Rh
_symmetry_space_group_name_H-M   'P 1'
_cell_length_a   5.46253945
_cell_length_b   5.46253901
_cell_length_c   4.04199600
_cell_angle_alpha   90.00000000
_cell_angle_beta   90.00000000
_cell_angle_gamma   98.06786347
_symmetry_Int_Tables_number   1
_chemical_formula_structural   Mn2GePd4Rh
_chemical_formula_sum   'Mn2 Ge1 Pd4 Rh1'
_cell_volume   119.41673368
_cell_formula_units_Z   1
loop_
 _symmetry_equiv_pos_site_id
 _symmetry_equiv_pos_as_xyz
  1  'x, y, z'
loop_
 _atom_site_type_symbol
 _atom_site_label
 _atom_site_symmetry_multiplicity
 _atom_site_fract_x
 _atom_site_fract_y
 _atom_site_fract_z
 _atom_site_occupancy
  Mn  Mn0  1  0.278751  0.717542  0.500000  1
  Mn  Mn1  1  0.717542  0.278751  0.500000  1
  Ge  Ge2  1  0.007253  0.007253  0.000000  1
  Pd  Pd3  1  0.498610  0.498610  0.000000  1
  Pd  Pd4  1  0.502485  0.999542  0.000000  1
  Pd  Pd5  1  0.999542  0.502485  0.000000  1
  Pd  Pd6  1  0.784763  0.784763  0.500000  1
  Rh  Rh7  1  0.211053  0.211053  0.500000  1
