# generated using pymatgen
data_Hf3NbGa6
_symmetry_space_group_name_H-M   'P 1'
_cell_length_a   8.24149083
_cell_length_b   7.31126300
_cell_length_c   5.43383970
_cell_angle_alpha   79.42527367
_cell_angle_beta   60.87035063
_cell_angle_gamma   40.24452758
_symmetry_Int_Tables_number   1
_chemical_formula_structural   Hf3NbGa6
_chemical_formula_sum   'Hf3 Nb1 Ga6'
_cell_volume   174.21617728
_cell_formula_units_Z   1
loop_
 _symmetry_equiv_pos_site_id
 _symmetry_equiv_pos_as_xyz
  1  'x, y, z'
loop_
 _atom_site_type_symbol
 _atom_site_label
 _atom_site_symmetry_multiplicity
 _atom_site_fract_x
 _atom_site_fract_y
 _atom_site_fract_z
 _atom_site_occupancy
  Hf  Hf0  1  0.108897  0.497230  0.018584  1
  Hf  Hf1  1  0.758077  0.136406  0.874794  1
  Hf  Hf2  1  0.232522  0.873144  0.135709  1
  Nb  Nb3  1  0.381849  0.012937  0.486027  1
  Ga  Ga4  1  0.616557  0.883586  0.883862  1
  Ga  Ga5  1  0.373502  0.629264  0.624677  1
  Ga  Ga6  1  0.810307  0.421069  0.052153  1
  Ga  Ga7  1  0.708936  0.057958  0.428523  1
  Ga  Ga8  1  0.191414  0.532596  0.447201  1
  Ga  Ga9  1  0.827937  0.445812  0.538470  1
