# generated using pymatgen
data_Sc4Co15Ni3(P6Ru)2
_symmetry_space_group_name_H-M   'P 1'
_cell_length_a   3.61596500
_cell_length_b   10.19749467
_cell_length_c   11.69277710
_cell_angle_alpha   89.91682785
_cell_angle_beta   90.00000000
_cell_angle_gamma   90.00000000
_symmetry_Int_Tables_number   1
_chemical_formula_structural   Sc4Co15Ni3(P6Ru)2
_chemical_formula_sum   'Sc4 Co15 Ni3 P12 Ru2'
_cell_volume   431.15648064
_cell_formula_units_Z   1
loop_
 _symmetry_equiv_pos_site_id
 _symmetry_equiv_pos_as_xyz
  1  'x, y, z'
loop_
 _atom_site_type_symbol
 _atom_site_label
 _atom_site_symmetry_multiplicity
 _atom_site_fract_x
 _atom_site_fract_y
 _atom_site_fract_z
 _atom_site_occupancy
  Sc  Sc0  1  0.250000  0.581044  0.702049  1
  Sc  Sc1  1  0.250000  0.919699  0.201461  1
  Sc  Sc2  1  0.750000  0.415957  0.292654  1
  Sc  Sc3  1  0.750000  0.083912  0.794267  1
  Co  Co4  1  0.250000  0.092530  0.983595  1
  Co  Co5  1  0.750000  0.588870  0.513990  1
  Co  Co6  1  0.750000  0.910220  0.014198  1
  Co  Co7  1  0.250000  0.219988  0.176289  1
  Co  Co8  1  0.250000  0.280996  0.677756  1
  Co  Co9  1  0.750000  0.778644  0.822987  1
  Co  Co10  1  0.750000  0.721826  0.322982  1
  Co  Co11  1  0.250000  0.886598  0.703287  1
  Co  Co12  1  0.250000  0.613363  0.202990  1
  Co  Co13  1  0.750000  0.117326  0.299778  1
  Co  Co14  1  0.750000  0.382235  0.801030  1
  Co  Co15  1  0.250000  0.463766  0.930980  1
  Co  Co16  1  0.250000  0.036290  0.431197  1
  Co  Co17  1  0.750000  0.533885  0.070799  1
  Co  Co18  1  0.750000  0.966266  0.570685  1
  Ni  Ni19  1  0.750000  0.281983  0.008229  1
  Ni  Ni20  1  0.750000  0.216799  0.509689  1
  Ni  Ni21  1  0.250000  0.406722  0.482129  1
  P  P22  1  0.250000  0.417443  0.113999  1
  P  P23  1  0.250000  0.083141  0.614843  1
  P  P24  1  0.750000  0.578642  0.885109  1
  P  P25  1  0.750000  0.921619  0.385179  1
  P  P26  1  0.250000  0.265226  0.866931  1
  P  P27  1  0.250000  0.232800  0.364371  1
  P  P28  1  0.750000  0.734408  0.134449  1
  P  P29  1  0.750000  0.765714  0.634450  1
  P  P30  1  0.250000  0.594658  0.388233  1
  P  P31  1  0.250000  0.907349  0.888602  1
  P  P32  1  0.750000  0.399936  0.613097  1
  P  P33  1  0.750000  0.099353  0.110165  1
  Ru  Ru34  1  0.250000  0.716581  0.993785  1
  Ru  Ru35  1  0.250000  0.784210  0.493769  1
