# generated using pymatgen
data_Tb16Y4Sn9Sb7
_symmetry_space_group_name_H-M   'P 1'
_cell_length_a   8.13920607
_cell_length_b   8.18047932
_cell_length_c   15.48811737
_cell_angle_alpha   90.13855068
_cell_angle_beta   89.67178432
_cell_angle_gamma   89.80397525
_symmetry_Int_Tables_number   1
_chemical_formula_structural   Tb16Y4Sn9Sb7
_chemical_formula_sum   'Tb16 Y4 Sn9 Sb7'
_cell_volume   1031.21321085
_cell_formula_units_Z   1
loop_
 _symmetry_equiv_pos_site_id
 _symmetry_equiv_pos_as_xyz
  1  'x, y, z'
loop_
 _atom_site_type_symbol
 _atom_site_label
 _atom_site_symmetry_multiplicity
 _atom_site_fract_x
 _atom_site_fract_y
 _atom_site_fract_z
 _atom_site_occupancy
  Tb  Tb0  1  0.388028  0.838887  0.880616  1
  Tb  Tb1  1  0.891004  0.662826  0.618973  1
  Tb  Tb2  1  0.609790  0.161271  0.381175  1
  Tb  Tb3  1  0.113066  0.337673  0.120290  1
  Tb  Tb4  1  0.611922  0.162298  0.119307  1
  Tb  Tb5  1  0.109958  0.337876  0.380979  1
  Tb  Tb6  1  0.388774  0.839474  0.619327  1
  Tb  Tb7  1  0.887291  0.662936  0.880040  1
  Tb  Tb8  1  0.553529  0.331647  0.892630  1
  Tb  Tb9  1  0.054887  0.170116  0.607485  1
  Tb  Tb10  1  0.445256  0.669328  0.392372  1
  Tb  Tb11  1  0.948242  0.824950  0.106405  1
  Tb  Tb12  1  0.451824  0.667595  0.106101  1
  Tb  Tb13  1  0.945219  0.829265  0.392210  1
  Tb  Tb14  1  0.554990  0.330063  0.608238  1
  Tb  Tb15  1  0.045921  0.177239  0.896003  1
  Y  Y16  1  0.219894  0.500579  0.750456  1
  Y  Y17  1  0.719661  0.002642  0.750521  1
  Y  Y18  1  0.780637  0.499498  0.248042  1
  Y  Y19  1  0.279923  0.997932  0.249464  1
  Sn  Sn20  1  0.774622  0.473854  0.043561  1
  Sn  Sn21  1  0.585989  0.628092  0.748934  1
  Sn  Sn22  1  0.085399  0.875531  0.750403  1
  Sn  Sn23  1  0.414418  0.372563  0.251125  1
  Sn  Sn24  1  0.913922  0.125427  0.250511  1
  Sn  Sn25  1  0.355589  0.143579  0.750843  1
  Sn  Sn26  1  0.858007  0.358627  0.749534  1
  Sn  Sn27  1  0.643143  0.856835  0.249917  1
  Sn  Sn28  1  0.143664  0.641598  0.250229  1
  Sb  Sb29  1  0.268591  0.018728  0.046223  1
  Sb  Sb30  1  0.768392  0.481450  0.453456  1
  Sb  Sb31  1  0.731214  0.982363  0.546796  1
  Sb  Sb32  1  0.228991  0.522663  0.954325  1
  Sb  Sb33  1  0.727706  0.979351  0.953713  1
  Sb  Sb34  1  0.232526  0.518205  0.546711  1
  Sb  Sb35  1  0.268010  0.017040  0.453085  1
