# generated using pymatgen
data_Ho4Tm6RuRh3
_symmetry_space_group_name_H-M   'P 1'
_cell_length_a   6.38036151
_cell_length_b   7.13692519
_cell_length_c   8.43291592
_cell_angle_alpha   96.69533332
_cell_angle_beta   111.97776989
_cell_angle_gamma   90.01454230
_symmetry_Int_Tables_number   1
_chemical_formula_structural   Ho4Tm6RuRh3
_chemical_formula_sum   'Ho4 Tm6 Ru1 Rh3'
_cell_volume   353.26654085
_cell_formula_units_Z   1
loop_
 _symmetry_equiv_pos_site_id
 _symmetry_equiv_pos_as_xyz
  1  'x, y, z'
loop_
 _atom_site_type_symbol
 _atom_site_label
 _atom_site_symmetry_multiplicity
 _atom_site_fract_x
 _atom_site_fract_y
 _atom_site_fract_z
 _atom_site_occupancy
  Ho  Ho0  1  0.790211  0.082448  0.811370  1
  Ho  Ho1  1  0.977608  0.417913  0.187576  1
  Ho  Ho2  1  0.209451  0.917511  0.183099  1
  Ho  Ho3  1  0.023841  0.582946  0.811110  1
  Tm  Tm4  1  0.210559  0.183222  0.563440  1
  Tm  Tm5  1  0.647800  0.314630  0.437147  1
  Tm  Tm6  1  0.791500  0.814556  0.440359  1
  Tm  Tm7  1  0.349031  0.687614  0.563785  1
  Tm  Tm8  1  0.423907  0.248520  0.998816  1
  Tm  Tm9  1  0.575219  0.750520  0.999611  1
  Ru  Ru10  1  0.177153  0.926567  0.781823  1
  Rh  Rh11  1  0.601208  0.427286  0.778068  1
  Rh  Rh12  1  0.821998  0.073738  0.221561  1
  Rh  Rh13  1  0.400512  0.572528  0.222234  1
