# generated using pymatgen
data_NdPa4O10
_symmetry_space_group_name_H-M   'P 1'
_cell_length_a   6.72091985
_cell_length_b   7.76258661
_cell_length_c   8.67941675
_cell_angle_alpha   102.95133793
_cell_angle_beta   97.39713432
_cell_angle_gamma   106.71385501
_symmetry_Int_Tables_number   1
_chemical_formula_structural   NdPa4O10
_chemical_formula_sum   'Nd2 Pa8 O20'
_cell_volume   413.50361934
_cell_formula_units_Z   2
loop_
 _symmetry_equiv_pos_site_id
 _symmetry_equiv_pos_as_xyz
  1  'x, y, z'
loop_
 _atom_site_type_symbol
 _atom_site_label
 _atom_site_symmetry_multiplicity
 _atom_site_fract_x
 _atom_site_fract_y
 _atom_site_fract_z
 _atom_site_occupancy
  Nd  Nd0  1  0.200534  0.900106  0.399182  1
  Nd  Nd1  1  0.999569  0.999920  0.000795  1
  Pa  Pa2  1  0.802507  0.601772  0.600746  1
  Pa  Pa3  1  0.597922  0.199055  0.199737  1
  Pa  Pa4  1  0.999593  0.500765  0.000812  1
  Pa  Pa5  1  0.799602  0.099353  0.600310  1
  Pa  Pa6  1  0.400367  0.800731  0.799651  1
  Pa  Pa7  1  0.200288  0.399131  0.399173  1
  Pa  Pa8  1  0.602310  0.701040  0.200392  1
  Pa  Pa9  1  0.397396  0.298107  0.799171  1
  O  O10  1  0.848107  0.325666  0.450951  1
  O  O11  1  0.636739  0.921855  0.050727  1
  O  O12  1  0.938271  0.760365  0.145982  1
  O  O13  1  0.452011  0.524255  0.650118  1
  O  O14  1  0.840533  0.822426  0.452588  1
  O  O15  1  0.645678  0.422976  0.048611  1
  O  O16  1  0.747884  0.375765  0.749944  1
  O  O17  1  0.262002  0.139647  0.254016  1
  O  O18  1  0.944415  0.283819  0.155113  1
  O  O19  1  0.458012  0.029961  0.656813  1
  O  O20  1  0.563331  0.978240  0.349421  1
  O  O21  1  0.052599  0.715814  0.845597  1
  O  O22  1  0.742016  0.870097  0.743183  1
  O  O23  1  0.351837  0.574276  0.949061  1
  O  O24  1  0.255493  0.616067  0.244772  1
  O  O25  1  0.554316  0.477068  0.351448  1
  O  O26  1  0.147341  0.184093  0.554404  1
  O  O27  1  0.049828  0.233051  0.846615  1
  O  O28  1  0.359482  0.077640  0.947367  1
  O  O29  1  0.150016  0.666941  0.553302  1
