# generated using pymatgen
data_Lu8B24MoIr3
_symmetry_space_group_name_H-M   'P 1'
_cell_length_a   3.59757800
_cell_length_b   9.07799363
_cell_length_c   11.42537634
_cell_angle_alpha   89.82270635
_cell_angle_beta   90.00000000
_cell_angle_gamma   90.00000000
_symmetry_Int_Tables_number   1
_chemical_formula_structural   Lu8B24MoIr3
_chemical_formula_sum   'Lu8 B24 Mo1 Ir3'
_cell_volume   373.13718216
_cell_formula_units_Z   1
loop_
 _symmetry_equiv_pos_site_id
 _symmetry_equiv_pos_as_xyz
  1  'x, y, z'
loop_
 _atom_site_type_symbol
 _atom_site_label
 _atom_site_symmetry_multiplicity
 _atom_site_fract_x
 _atom_site_fract_y
 _atom_site_fract_z
 _atom_site_occupancy
  Lu  Lu0  1  0.000000  0.322734  0.412457  1
  Lu  Lu1  1  0.000000  0.680394  0.582304  1
  Lu  Lu2  1  0.000000  0.815609  0.090604  1
  Lu  Lu3  1  0.000000  0.180113  0.914817  1
  Lu  Lu4  1  0.000000  0.943558  0.375042  1
  Lu  Lu5  1  0.000000  0.056763  0.626276  1
  Lu  Lu6  1  0.000000  0.446064  0.125632  1
  Lu  Lu7  1  0.000000  0.556281  0.872993  1
  B  B8  1  0.500000  0.551240  0.436246  1
  B  B9  1  0.500000  0.446270  0.566537  1
  B  B10  1  0.500000  0.052546  0.065453  1
  B  B11  1  0.500000  0.946202  0.935004  1
  B  B12  1  0.500000  0.751018  0.422499  1
  B  B13  1  0.500000  0.250513  0.578728  1
  B  B14  1  0.500000  0.250187  0.078225  1
  B  B15  1  0.500000  0.749245  0.921231  1
  B  B16  1  0.500000  0.795245  0.263868  1
  B  B17  1  0.500000  0.206252  0.736236  1
  B  B18  1  0.500000  0.292242  0.233902  1
  B  B19  1  0.500000  0.707639  0.763673  1
  B  B20  1  0.500000  0.630950  0.182626  1
  B  B21  1  0.500000  0.368144  0.816910  1
  B  B22  1  0.500000  0.131737  0.316283  1
  B  B23  1  0.500000  0.869417  0.683283  1
  B  B24  1  0.500000  0.981013  0.212990  1
  B  B25  1  0.500000  0.019624  0.787606  1
  B  B26  1  0.500000  0.478253  0.286118  1
  B  B27  1  0.500000  0.519201  0.713255  1
  B  B28  1  0.500000  0.606520  0.027216  1
  B  B29  1  0.500000  0.392445  0.969733  1
  B  B30  1  0.500000  0.108190  0.471086  1
  B  B31  1  0.500000  0.895456  0.530748  1
  Mo  Mo32  1  0.000000  0.637292  0.320999  1
  Ir  Ir33  1  0.000000  0.361322  0.679864  1
  Ir  Ir34  1  0.000000  0.137432  0.177783  1
  Ir  Ir35  1  0.000000  0.862888  0.821769  1
