# generated using pymatgen
data_NbP(OF3)2
_symmetry_space_group_name_H-M   'P 1'
_cell_length_a   5.78596957
_cell_length_b   7.72614774
_cell_length_c   7.80893318
_cell_angle_alpha   88.20983772
_cell_angle_beta   76.47360847
_cell_angle_gamma   84.02521053
_symmetry_Int_Tables_number   1
_chemical_formula_structural   NbP(OF3)2
_chemical_formula_sum   'Nb2 P2 O4 F12'
_cell_volume   337.54964691
_cell_formula_units_Z   2
loop_
 _symmetry_equiv_pos_site_id
 _symmetry_equiv_pos_as_xyz
  1  'x, y, z'
loop_
 _atom_site_type_symbol
 _atom_site_label
 _atom_site_symmetry_multiplicity
 _atom_site_fract_x
 _atom_site_fract_y
 _atom_site_fract_z
 _atom_site_occupancy
  Nb  Nb0  1  0.582298  0.233927  0.750976  1
  Nb  Nb1  1  0.417702  0.766073  0.249024  1
  P  P2  1  0.230072  0.191371  0.165673  1
  P  P3  1  0.769928  0.808629  0.834327  1
  O  O4  1  0.576168  0.740292  0.976318  1
  O  O5  1  0.775411  0.002569  0.816283  1
  O  O6  1  0.423832  0.259708  0.023682  1
  O  O7  1  0.224589  0.997431  0.183717  1
  F  F8  1  0.398578  0.436257  0.701896  1
  F  F9  1  0.243542  0.268178  0.343531  1
  F  F10  1  0.016184  0.727085  0.856648  1
  F  F11  1  0.731247  0.189151  0.512932  1
  F  F12  1  0.268753  0.810849  0.487068  1
  F  F13  1  0.601422  0.563743  0.298104  1
  F  F14  1  0.830087  0.350721  0.804131  1
  F  F15  1  0.169913  0.649279  0.195869  1
  F  F16  1  0.335593  0.084862  0.756878  1
  F  F17  1  0.664407  0.915138  0.243122  1
  F  F18  1  0.756458  0.731822  0.656469  1
  F  F19  1  0.983816  0.272915  0.143352  1
