# generated using pymatgen
data_CsNpF6
_symmetry_space_group_name_H-M   'P 1'
_cell_length_a   5.60226630
_cell_length_b   5.60226622
_cell_length_c   5.60226637
_cell_angle_alpha   95.39812722
_cell_angle_beta   95.39813453
_cell_angle_gamma   95.39813448
_symmetry_Int_Tables_number   1
_chemical_formula_structural   CsNpF6
_chemical_formula_sum   'Cs1 Np1 F6'
_cell_volume   173.33095115
_cell_formula_units_Z   1
loop_
 _symmetry_equiv_pos_site_id
 _symmetry_equiv_pos_as_xyz
  1  'x, y, z'
loop_
 _atom_site_type_symbol
 _atom_site_label
 _atom_site_symmetry_multiplicity
 _atom_site_fract_x
 _atom_site_fract_y
 _atom_site_fract_z
 _atom_site_occupancy
  Cs  Cs0  1  0.500000  0.500000  0.500000  1
  Np  Np1  1  0.000000  0.000000  0.000000  1
  F  F2  1  0.309512  0.923447  0.200734  1
  F  F3  1  0.200734  0.309512  0.923447  1
  F  F4  1  0.076553  0.799266  0.690488  1
  F  F5  1  0.799266  0.690488  0.076553  1
  F  F6  1  0.690488  0.076553  0.799266  1
  F  F7  1  0.923447  0.200734  0.309512  1
