# generated using pymatgen
data_DyEr4Lu3Pt4
_symmetry_space_group_name_H-M   'P 1'
_cell_length_a   4.73637600
_cell_length_b   7.08420203
_cell_length_c   8.63546506
_cell_angle_alpha   90.01256409
_cell_angle_beta   90.00000000
_cell_angle_gamma   90.00000000
_symmetry_Int_Tables_number   1
_chemical_formula_structural   DyEr4Lu3Pt4
_chemical_formula_sum   'Dy1 Er4 Lu3 Pt4'
_cell_volume   289.74959071
_cell_formula_units_Z   1
loop_
 _symmetry_equiv_pos_site_id
 _symmetry_equiv_pos_as_xyz
  1  'x, y, z'
loop_
 _atom_site_type_symbol
 _atom_site_label
 _atom_site_symmetry_multiplicity
 _atom_site_fract_x
 _atom_site_fract_y
 _atom_site_fract_z
 _atom_site_occupancy
  Dy  Dy0  1  0.250000  0.511988  0.168538  1
  Er  Er1  1  0.750000  0.355244  0.421742  1
  Er  Er2  1  0.250000  0.009463  0.332166  1
  Er  Er3  1  0.750000  0.987126  0.671219  1
  Er  Er4  1  0.750000  0.489166  0.829630  1
  Lu  Lu5  1  0.250000  0.143400  0.921927  1
  Lu  Lu6  1  0.250000  0.643344  0.578912  1
  Lu  Lu7  1  0.750000  0.857695  0.078221  1
  Pt  Pt8  1  0.250000  0.243695  0.594931  1
  Pt  Pt9  1  0.250000  0.745554  0.904483  1
  Pt  Pt10  1  0.750000  0.758201  0.407476  1
  Pt  Pt11  1  0.750000  0.255126  0.090754  1
