# generated using pymatgen
data_LaEr2Th(Al3Ir)6
_symmetry_space_group_name_H-M   'P 1'
_cell_length_a   7.60394406
_cell_length_b   7.60361576
_cell_length_c   9.53572700
_cell_angle_alpha   90.00000000
_cell_angle_beta   90.00000000
_cell_angle_gamma   119.43078514
_symmetry_Int_Tables_number   1
_chemical_formula_structural   LaEr2Th(Al3Ir)6
_chemical_formula_sum   'La1 Er2 Th1 Al18 Ir6'
_cell_volume   480.18221323
_cell_formula_units_Z   1
loop_
 _symmetry_equiv_pos_site_id
 _symmetry_equiv_pos_as_xyz
  1  'x, y, z'
loop_
 _atom_site_type_symbol
 _atom_site_label
 _atom_site_symmetry_multiplicity
 _atom_site_fract_x
 _atom_site_fract_y
 _atom_site_fract_z
 _atom_site_occupancy
  La  La0  1  0.671491  0.994521  0.250000  1
  Er  Er1  1  0.003515  0.327399  0.750000  1
  Er  Er2  1  0.327323  0.004368  0.750000  1
  Th  Th3  1  0.995338  0.671611  0.250000  1
  Al  Al4  1  0.135595  0.134301  0.250000  1
  Al  Al5  1  0.873490  0.874192  0.750000  1
  Al  Al6  1  0.004443  0.333915  0.068462  1
  Al  Al7  1  0.000194  0.664003  0.917885  1
  Al  Al8  1  0.000194  0.664003  0.582115  1
  Al  Al9  1  0.337166  0.005593  0.431646  1
  Al  Al10  1  0.004443  0.333915  0.431538  1
  Al  Al11  1  0.664036  0.000478  0.580683  1
  Al  Al12  1  0.664036  0.000478  0.919317  1
  Al  Al13  1  0.337166  0.005593  0.068354  1
  Al  Al14  1  0.331818  0.331875  0.557849  1
  Al  Al15  1  0.663386  0.664437  0.460058  1
  Al  Al16  1  0.663386  0.664437  0.039942  1
  Al  Al17  1  0.331818  0.331875  0.942151  1
  Al  Al18  1  0.339258  0.544107  0.250000  1
  Al  Al19  1  0.658130  0.448011  0.750000  1
  Al  Al20  1  0.544811  0.341246  0.250000  1
  Al  Al21  1  0.447289  0.659251  0.750000  1
  Ir  Ir22  1  0.672874  0.329605  0.998750  1
  Ir  Ir23  1  0.326266  0.670984  0.998831  1
  Ir  Ir24  1  0.326266  0.670984  0.501169  1
  Ir  Ir25  1  0.672874  0.329605  0.501250  1
  Ir  Ir26  1  0.001693  0.999606  0.998766  1
  Ir  Ir27  1  0.001693  0.999606  0.501234  1
