# generated using pymatgen
data_Y7HoTc2(B12Ru)2
_symmetry_space_group_name_H-M   'P 1'
_cell_length_a   3.67666000
_cell_length_b   9.15960916
_cell_length_c   11.55093502
_cell_angle_alpha   89.86112103
_cell_angle_beta   90.00000000
_cell_angle_gamma   90.00000000
_symmetry_Int_Tables_number   1
_chemical_formula_structural   Y7HoTc2(B12Ru)2
_chemical_formula_sum   'Y7 Ho1 Tc2 B24 Ru2'
_cell_volume   388.99702296
_cell_formula_units_Z   1
loop_
 _symmetry_equiv_pos_site_id
 _symmetry_equiv_pos_as_xyz
  1  'x, y, z'
loop_
 _atom_site_type_symbol
 _atom_site_label
 _atom_site_symmetry_multiplicity
 _atom_site_fract_x
 _atom_site_fract_y
 _atom_site_fract_z
 _atom_site_occupancy
  Y  Y0  1  0.000000  0.325180  0.415572  1
  Y  Y1  1  0.000000  0.674798  0.584511  1
  Y  Y2  1  0.000000  0.821371  0.087332  1
  Y  Y3  1  0.000000  0.178678  0.912591  1
  Y  Y4  1  0.000000  0.942227  0.370702  1
  Y  Y5  1  0.000000  0.057760  0.629328  1
  Y  Y6  1  0.000000  0.443255  0.129748  1
  Ho  Ho7  1  0.000000  0.556928  0.869824  1
  Tc  Tc8  1  0.000000  0.638483  0.320281  1
  Tc  Tc9  1  0.000000  0.361768  0.679968  1
  B  B10  1  0.500000  0.553247  0.432842  1
  B  B11  1  0.500000  0.446762  0.567220  1
  B  B12  1  0.500000  0.053946  0.067162  1
  B  B13  1  0.500000  0.945990  0.932808  1
  B  B14  1  0.500000  0.748151  0.418814  1
  B  B15  1  0.500000  0.251879  0.581207  1
  B  B16  1  0.500000  0.248188  0.081202  1
  B  B17  1  0.500000  0.751465  0.918686  1
  B  B18  1  0.500000  0.791272  0.265326  1
  B  B19  1  0.500000  0.208809  0.734689  1
  B  B20  1  0.500000  0.290342  0.234179  1
  B  B21  1  0.500000  0.709380  0.766011  1
  B  B22  1  0.500000  0.631529  0.185409  1
  B  B23  1  0.500000  0.368820  0.814667  1
  B  B24  1  0.500000  0.131258  0.313781  1
  B  B25  1  0.500000  0.868683  0.686270  1
  B  B26  1  0.500000  0.983478  0.211800  1
  B  B27  1  0.500000  0.016476  0.788218  1
  B  B28  1  0.500000  0.482951  0.287737  1
  B  B29  1  0.500000  0.517152  0.712571  1
  B  B30  1  0.500000  0.604098  0.028391  1
  B  B31  1  0.500000  0.396146  0.971089  1
  B  B32  1  0.500000  0.104334  0.470935  1
  B  B33  1  0.500000  0.895667  0.529080  1
  Ru  Ru34  1  0.000000  0.137724  0.178353  1
  Ru  Ru35  1  0.000000  0.861803  0.821695  1
