# generated using pymatgen
data_Lu12CoTc2Ru
_symmetry_space_group_name_H-M   'P 1'
_cell_length_a   6.12518271
_cell_length_b   7.18149819
_cell_length_c   8.89456800
_cell_angle_alpha   90.00000000
_cell_angle_beta   90.00000000
_cell_angle_gamma   90.23521669
_symmetry_Int_Tables_number   1
_chemical_formula_structural   Lu12CoTc2Ru
_chemical_formula_sum   'Lu12 Co1 Tc2 Ru1'
_cell_volume   391.25085797
_cell_formula_units_Z   1
loop_
 _symmetry_equiv_pos_site_id
 _symmetry_equiv_pos_as_xyz
  1  'x, y, z'
loop_
 _atom_site_type_symbol
 _atom_site_label
 _atom_site_symmetry_multiplicity
 _atom_site_fract_x
 _atom_site_fract_y
 _atom_site_fract_z
 _atom_site_occupancy
  Lu  Lu0  1  0.331082  0.678579  0.062802  1
  Lu  Lu1  1  0.162990  0.176066  0.439541  1
  Lu  Lu2  1  0.664109  0.327061  0.563828  1
  Lu  Lu3  1  0.831312  0.820211  0.937040  1
  Lu  Lu4  1  0.664109  0.327061  0.936172  1
  Lu  Lu5  1  0.831312  0.820211  0.562960  1
  Lu  Lu6  1  0.331082  0.678579  0.437198  1
  Lu  Lu7  1  0.162990  0.176066  0.060459  1
  Lu  Lu8  1  0.875798  0.540286  0.250000  1
  Lu  Lu9  1  0.626795  0.041066  0.250000  1
  Lu  Lu10  1  0.139857  0.459894  0.750000  1
  Lu  Lu11  1  0.376776  0.952521  0.750000  1
  Co  Co12  1  0.538301  0.616588  0.750000  1
  Tc  Tc13  1  0.460398  0.388418  0.250000  1
  Tc  Tc14  1  0.964769  0.112299  0.750000  1
  Ru  Ru15  1  0.038319  0.885095  0.250000  1
