# generated using pymatgen
data_Dy(Y2Ru)2
_symmetry_space_group_name_H-M   'P 1'
_cell_length_a   8.53643381
_cell_length_b   8.53643377
_cell_length_c   7.29184480
_cell_angle_alpha   83.40421480
_cell_angle_beta   83.40421645
_cell_angle_gamma   43.93736309
_symmetry_Int_Tables_number   1
_chemical_formula_structural   Dy(Y2Ru)2
_chemical_formula_sum   'Dy2 Y8 Ru4'
_cell_volume   365.85791097
_cell_formula_units_Z   2
loop_
 _symmetry_equiv_pos_site_id
 _symmetry_equiv_pos_as_xyz
  1  'x, y, z'
loop_
 _atom_site_type_symbol
 _atom_site_label
 _atom_site_symmetry_multiplicity
 _atom_site_fract_x
 _atom_site_fract_y
 _atom_site_fract_z
 _atom_site_occupancy
  Dy  Dy0  1  0.576491  0.423509  0.750000  1
  Dy  Dy1  1  0.423509  0.576491  0.250000  1
  Y  Y2  1  0.207593  0.978780  0.584751  1
  Y  Y3  1  0.021220  0.792407  0.915249  1
  Y  Y4  1  0.205835  0.359681  0.314980  1
  Y  Y5  1  0.640319  0.794165  0.185020  1
  Y  Y6  1  0.794165  0.640319  0.685020  1
  Y  Y7  1  0.359681  0.205835  0.814980  1
  Y  Y8  1  0.978780  0.207593  0.084751  1
  Y  Y9  1  0.792407  0.021220  0.415249  1
  Ru  Ru10  1  0.179207  0.602284  0.574123  1
  Ru  Ru11  1  0.397716  0.820793  0.925877  1
  Ru  Ru12  1  0.820793  0.397716  0.425877  1
  Ru  Ru13  1  0.602284  0.179207  0.074123  1
