# generated using pymatgen
data_TbDy9Sn8
_symmetry_space_group_name_H-M   'P 1'
_cell_length_a   8.04184300
_cell_length_b   8.18274608
_cell_length_c   15.47261602
_cell_angle_alpha   90.00522704
_cell_angle_beta   90.00000000
_cell_angle_gamma   90.00000000
_symmetry_Int_Tables_number   1
_chemical_formula_structural   TbDy9Sn8
_chemical_formula_sum   'Tb2 Dy18 Sn16'
_cell_volume   1018.16557858
_cell_formula_units_Z   2
loop_
 _symmetry_equiv_pos_site_id
 _symmetry_equiv_pos_as_xyz
  1  'x, y, z'
loop_
 _atom_site_type_symbol
 _atom_site_label
 _atom_site_symmetry_multiplicity
 _atom_site_fract_x
 _atom_site_fract_y
 _atom_site_fract_z
 _atom_site_occupancy
  Tb  Tb0  1  0.520296  0.319770  0.597494  1
  Tb  Tb1  1  0.020296  0.180230  0.902506  1
  Dy  Dy2  1  0.367798  0.835648  0.878327  1
  Dy  Dy3  1  0.867798  0.664352  0.621673  1
  Dy  Dy4  1  0.632294  0.164173  0.378223  1
  Dy  Dy5  1  0.132294  0.335827  0.121777  1
  Dy  Dy6  1  0.632292  0.164224  0.121746  1
  Dy  Dy7  1  0.132292  0.335776  0.378254  1
  Dy  Dy8  1  0.367790  0.835685  0.621676  1
  Dy  Dy9  1  0.867790  0.664315  0.878324  1
  Dy  Dy10  1  0.520499  0.319790  0.902301  1
  Dy  Dy11  1  0.020499  0.180210  0.597699  1
  Dy  Dy12  1  0.479591  0.680307  0.402303  1
  Dy  Dy13  1  0.979591  0.819693  0.097697  1
  Dy  Dy14  1  0.479573  0.680271  0.097665  1
  Dy  Dy15  1  0.979573  0.819729  0.402335  1
  Dy  Dy16  1  0.198077  0.502631  0.750024  1
  Dy  Dy17  1  0.698077  0.997369  0.749976  1
  Dy  Dy18  1  0.801899  0.497513  0.250017  1
  Dy  Dy19  1  0.301899  0.002487  0.249983  1
  Sn  Sn20  1  0.292507  0.034334  0.042126  1
  Sn  Sn21  1  0.792507  0.465666  0.457874  1
  Sn  Sn22  1  0.708100  0.965252  0.541845  1
  Sn  Sn23  1  0.208100  0.534748  0.958155  1
  Sn  Sn24  1  0.707312  0.965084  0.958191  1
  Sn  Sn25  1  0.207312  0.534916  0.541809  1
  Sn  Sn26  1  0.292128  0.034500  0.458077  1
  Sn  Sn27  1  0.792128  0.465500  0.041923  1
  Sn  Sn28  1  0.565181  0.619085  0.750015  1
  Sn  Sn29  1  0.065181  0.880915  0.749985  1
  Sn  Sn30  1  0.434851  0.381097  0.249973  1
  Sn  Sn31  1  0.934851  0.118903  0.250027  1
  Sn  Sn32  1  0.328193  0.146010  0.750142  1
  Sn  Sn33  1  0.828193  0.353990  0.749858  1
  Sn  Sn34  1  0.671620  0.853662  0.249986  1
  Sn  Sn35  1  0.171620  0.646338  0.250014  1
