# generated using pymatgen
data_Tm3Zr2Sb3
_symmetry_space_group_name_H-M   'P 1'
_cell_length_a   8.74933600
_cell_length_b   8.74933629
_cell_length_c   5.95828400
_cell_angle_alpha   90.00000000
_cell_angle_beta   90.00000000
_cell_angle_gamma   120.00000646
_symmetry_Int_Tables_number   1
_chemical_formula_structural   Tm3Zr2Sb3
_chemical_formula_sum   'Tm6 Zr4 Sb6'
_cell_volume   395.00446772
_cell_formula_units_Z   2
loop_
 _symmetry_equiv_pos_site_id
 _symmetry_equiv_pos_as_xyz
  1  'x, y, z'
loop_
 _atom_site_type_symbol
 _atom_site_label
 _atom_site_symmetry_multiplicity
 _atom_site_fract_x
 _atom_site_fract_y
 _atom_site_fract_z
 _atom_site_occupancy
  Tm  Tm0  1  0.750048  0.750048  0.750000  1
  Tm  Tm1  1  0.249952  0.000000  0.750000  1
  Tm  Tm2  1  0.000000  0.249952  0.750000  1
  Tm  Tm3  1  0.249952  0.249952  0.250000  1
  Tm  Tm4  1  0.750048  0.000000  0.250000  1
  Tm  Tm5  1  0.000000  0.750048  0.250000  1
  Zr  Zr6  1  0.666667  0.333333  0.000000  1
  Zr  Zr7  1  0.333333  0.666667  0.000000  1
  Zr  Zr8  1  0.333333  0.666667  0.500000  1
  Zr  Zr9  1  0.666667  0.333333  0.500000  1
  Sb  Sb10  1  0.390821  0.390821  0.750000  1
  Sb  Sb11  1  0.609179  0.000000  0.750000  1
  Sb  Sb12  1  0.000000  0.609179  0.750000  1
  Sb  Sb13  1  0.609179  0.609179  0.250000  1
  Sb  Sb14  1  0.390821  0.000000  0.250000  1
  Sb  Sb15  1  0.000000  0.390821  0.250000  1
