# generated using pymatgen
data_NaIrF6
_symmetry_space_group_name_H-M   'P 1'
_cell_length_a   5.95842352
_cell_length_b   5.95842390
_cell_length_c   5.95842300
_cell_angle_alpha   59.99999944
_cell_angle_beta   59.99999735
_cell_angle_gamma   60.00000673
_symmetry_Int_Tables_number   1
_chemical_formula_structural   NaIrF6
_chemical_formula_sum   'Na1 Ir1 F6'
_cell_volume   149.58192278
_cell_formula_units_Z   1
loop_
 _symmetry_equiv_pos_site_id
 _symmetry_equiv_pos_as_xyz
  1  'x, y, z'
loop_
 _atom_site_type_symbol
 _atom_site_label
 _atom_site_symmetry_multiplicity
 _atom_site_fract_x
 _atom_site_fract_y
 _atom_site_fract_z
 _atom_site_occupancy
  Na  Na0  1  0.500000  0.500000  0.500000  1
  Ir  Ir1  1  0.000000  0.000000  0.000000  1
  F  F2  1  0.772998  0.772998  0.227002  1
  F  F3  1  0.227002  0.772998  0.227002  1
  F  F4  1  0.772998  0.227002  0.227002  1
  F  F5  1  0.227002  0.227002  0.772998  1
  F  F6  1  0.772998  0.227002  0.772998  1
  F  F7  1  0.227002  0.772998  0.772998  1
