# generated using pymatgen
data_Th4AlSi6Pd
_symmetry_space_group_name_H-M   'P 1'
_cell_length_a   8.28298700
_cell_length_b   8.28298488
_cell_length_c   8.51223200
_cell_angle_alpha   90.00000000
_cell_angle_beta   90.00000000
_cell_angle_gamma   120.00000448
_symmetry_Int_Tables_number   1
_chemical_formula_structural   Th4AlSi6Pd
_chemical_formula_sum   'Th8 Al2 Si12 Pd2'
_cell_volume   505.76399863
_cell_formula_units_Z   2
loop_
 _symmetry_equiv_pos_site_id
 _symmetry_equiv_pos_as_xyz
  1  'x, y, z'
loop_
 _atom_site_type_symbol
 _atom_site_label
 _atom_site_symmetry_multiplicity
 _atom_site_fract_x
 _atom_site_fract_y
 _atom_site_fract_z
 _atom_site_occupancy
  Th  Th0  1  0.500471  0.000941  0.242674  1
  Th  Th1  1  0.499529  0.999059  0.757326  1
  Th  Th2  1  0.999059  0.499529  0.242674  1
  Th  Th3  1  0.000941  0.500471  0.757326  1
  Th  Th4  1  0.500471  0.499529  0.242674  1
  Th  Th5  1  0.499529  0.500471  0.757326  1
  Th  Th6  1  0.000000  0.000000  0.249370  1
  Th  Th7  1  0.000000  0.000000  0.750630  1
  Al  Al8  1  0.333333  0.666667  0.001874  1
  Al  Al9  1  0.666667  0.333333  0.998126  1
  Si  Si10  1  0.165765  0.331530  0.999594  1
  Si  Si11  1  0.834235  0.668470  0.000406  1
  Si  Si12  1  0.668470  0.834235  0.999594  1
  Si  Si13  1  0.834491  0.668983  0.501022  1
  Si  Si14  1  0.331530  0.165765  0.000406  1
  Si  Si15  1  0.165509  0.331017  0.498978  1
  Si  Si16  1  0.165765  0.834235  0.999594  1
  Si  Si17  1  0.331017  0.165509  0.501022  1
  Si  Si18  1  0.834235  0.165765  0.000406  1
  Si  Si19  1  0.668983  0.834491  0.498978  1
  Si  Si20  1  0.834491  0.165509  0.501022  1
  Si  Si21  1  0.165509  0.834491  0.498978  1
  Pd  Pd22  1  0.666667  0.333333  0.500967  1
  Pd  Pd23  1  0.333333  0.666667  0.499033  1
