# generated using pymatgen
data_Be2H3F7
_symmetry_space_group_name_H-M   'P 1'
_cell_length_a   4.80632348
_cell_length_b   4.89836683
_cell_length_c   6.94813466
_cell_angle_alpha   81.57631889
_cell_angle_beta   80.51147176
_cell_angle_gamma   62.33498788
_symmetry_Int_Tables_number   1
_chemical_formula_structural   Be2H3F7
_chemical_formula_sum   'Be2 H3 F7'
_cell_volume   142.43882955
_cell_formula_units_Z   1
loop_
 _symmetry_equiv_pos_site_id
 _symmetry_equiv_pos_as_xyz
  1  'x, y, z'
loop_
 _atom_site_type_symbol
 _atom_site_label
 _atom_site_symmetry_multiplicity
 _atom_site_fract_x
 _atom_site_fract_y
 _atom_site_fract_z
 _atom_site_occupancy
  Be  Be0  1  0.727515  0.189915  0.773740  1
  Be  Be1  1  0.410385  0.884467  0.633367  1
  H  H2  1  0.550822  0.674304  0.331101  1
  H  H3  1  0.404852  0.304339  0.071102  1
  H  H4  1  0.970166  0.483234  0.198006  1
  F  F5  1  0.087485  0.099599  0.744629  1
  F  F6  1  0.741568  0.461368  0.257826  1
  F  F7  1  0.656792  0.006567  0.638708  1
  F  F8  1  0.535765  0.546177  0.728903  1
  F  F9  1  0.365300  0.883527  0.415157  1
  F  F10  1  0.192021  0.511399  0.141393  1
  F  F11  1  0.617497  0.110637  0.991674  1
