# generated using pymatgen
data_Sm8Sc12Ga11Sn5
_symmetry_space_group_name_H-M   'P 1'
_cell_length_a   7.42864688
_cell_length_b   7.78512431
_cell_length_c   14.79312466
_cell_angle_alpha   90.01976111
_cell_angle_beta   90.15160255
_cell_angle_gamma   90.02306916
_symmetry_Int_Tables_number   1
_chemical_formula_structural   Sm8Sc12Ga11Sn5
_chemical_formula_sum   'Sm8 Sc12 Ga11 Sn5'
_cell_volume   855.52676673
_cell_formula_units_Z   1
loop_
 _symmetry_equiv_pos_site_id
 _symmetry_equiv_pos_as_xyz
  1  'x, y, z'
loop_
 _atom_site_type_symbol
 _atom_site_label
 _atom_site_symmetry_multiplicity
 _atom_site_fract_x
 _atom_site_fract_y
 _atom_site_fract_z
 _atom_site_occupancy
  Sm  Sm0  1  0.500941  0.318590  0.900101  1
  Sm  Sm1  1  0.991908  0.176083  0.595394  1
  Sm  Sm2  1  0.508589  0.676170  0.404124  1
  Sm  Sm3  1  0.003801  0.826500  0.099575  1
  Sm  Sm4  1  0.494900  0.683178  0.101836  1
  Sm  Sm5  1  0.992818  0.819821  0.401323  1
  Sm  Sm6  1  0.508117  0.321422  0.598663  1
  Sm  Sm7  1  0.006314  0.176185  0.899663  1
  Sc  Sc8  1  0.336702  0.837887  0.869166  1
  Sc  Sc9  1  0.829950  0.672730  0.625271  1
  Sc  Sc10  1  0.671255  0.173173  0.374596  1
  Sc  Sc11  1  0.167724  0.321954  0.130080  1
  Sc  Sc12  1  0.648619  0.166869  0.132526  1
  Sc  Sc13  1  0.151852  0.330514  0.369209  1
  Sc  Sc14  1  0.347353  0.830997  0.630390  1
  Sc  Sc15  1  0.840394  0.669925  0.867754  1
  Sc  Sc16  1  0.176853  0.498151  0.747976  1
  Sc  Sc17  1  0.679211  0.001790  0.747292  1
  Sc  Sc18  1  0.822757  0.501018  0.252570  1
  Sc  Sc19  1  0.322005  0.997081  0.249739  1
  Ga  Ga20  1  0.327672  0.041768  0.040376  1
  Ga  Ga21  1  0.830426  0.458794  0.459018  1
  Ga  Ga22  1  0.670013  0.958722  0.540790  1
  Ga  Ga23  1  0.540801  0.617907  0.751669  1
  Ga  Ga24  1  0.041514  0.880688  0.746122  1
  Ga  Ga25  1  0.458785  0.382209  0.254706  1
  Ga  Ga26  1  0.957092  0.116967  0.247851  1
  Ga  Ga27  1  0.296740  0.127383  0.747911  1
  Ga  Ga28  1  0.799580  0.375057  0.750153  1
  Ga  Ga29  1  0.702021  0.875706  0.251207  1
  Ga  Ga30  1  0.201925  0.624112  0.250538  1
  Sn  Sn31  1  0.177935  0.544363  0.960114  1
  Sn  Sn32  1  0.670833  0.958254  0.961687  1
  Sn  Sn33  1  0.170228  0.540354  0.538696  1
  Sn  Sn34  1  0.330324  0.040588  0.460911  1
  Sn  Sn35  1  0.822047  0.457093  0.041002  1
