# generated using pymatgen
data_Nd8Y3HoIn20
_symmetry_space_group_name_H-M   'P 1'
_cell_length_a   6.67453329
_cell_length_b   10.54934300
_cell_length_c   12.46063900
_cell_angle_alpha   90.00000000
_cell_angle_beta   89.98299463
_cell_angle_gamma   90.00000000
_symmetry_Int_Tables_number   1
_chemical_formula_structural   Nd8Y3HoIn20
_chemical_formula_sum   'Nd8 Y3 Ho1 In20'
_cell_volume   877.37774048
_cell_formula_units_Z   1
loop_
 _symmetry_equiv_pos_site_id
 _symmetry_equiv_pos_as_xyz
  1  'x, y, z'
loop_
 _atom_site_type_symbol
 _atom_site_label
 _atom_site_symmetry_multiplicity
 _atom_site_fract_x
 _atom_site_fract_y
 _atom_site_fract_z
 _atom_site_occupancy
  Nd  Nd0  1  0.888402  0.490172  0.143696  1
  Nd  Nd1  1  0.612209  0.011150  0.643373  1
  Nd  Nd2  1  0.110979  0.989920  0.856334  1
  Nd  Nd3  1  0.389329  0.509879  0.356380  1
  Nd  Nd4  1  0.110979  0.510080  0.856334  1
  Nd  Nd5  1  0.389329  0.990121  0.356380  1
  Nd  Nd6  1  0.888402  0.009828  0.143696  1
  Nd  Nd7  1  0.612209  0.488850  0.643373  1
  Y  Y8  1  0.150431  0.750000  0.559023  1
  Y  Y9  1  0.649169  0.250000  0.940394  1
  Y  Y10  1  0.850544  0.250000  0.440960  1
  Ho  Ho11  1  0.348825  0.750000  0.059894  1
  In  In12  1  0.617301  0.750000  0.505089  1
  In  In13  1  0.881588  0.750000  0.003325  1
  In  In14  1  0.383869  0.250000  0.496117  1
  In  In15  1  0.114287  0.250000  0.996232  1
  In  In16  1  0.655310  0.750000  0.243795  1
  In  In17  1  0.845950  0.750000  0.743881  1
  In  In18  1  0.345639  0.250000  0.755702  1
  In  In19  1  0.154345  0.250000  0.255777  1
  In  In20  1  0.112302  0.750000  0.284700  1
  In  In21  1  0.388811  0.750000  0.783573  1
  In  In22  1  0.889844  0.250000  0.716359  1
  In  In23  1  0.611809  0.250000  0.216362  1
  In  In24  1  0.873719  0.545085  0.404255  1
  In  In25  1  0.624621  0.954903  0.903420  1
  In  In26  1  0.127149  0.045196  0.596017  1
  In  In27  1  0.373580  0.454655  0.095933  1
  In  In28  1  0.127149  0.454804  0.596017  1
  In  In29  1  0.373580  0.045345  0.095933  1
  In  In30  1  0.873719  0.954915  0.404255  1
  In  In31  1  0.624621  0.545097  0.903420  1
