# generated using pymatgen
data_Rb2TcP2Pd
_symmetry_space_group_name_H-M   'P 1'
_cell_length_a   4.04227100
_cell_length_b   4.04227100
_cell_length_c   11.54648400
_cell_angle_alpha   90.00000000
_cell_angle_beta   90.00000000
_cell_angle_gamma   90.00000000
_symmetry_Int_Tables_number   1
_chemical_formula_structural   Rb2TcP2Pd
_chemical_formula_sum   'Rb2 Tc1 P2 Pd1'
_cell_volume   188.66902709
_cell_formula_units_Z   1
loop_
 _symmetry_equiv_pos_site_id
 _symmetry_equiv_pos_as_xyz
  1  'x, y, z'
loop_
 _atom_site_type_symbol
 _atom_site_label
 _atom_site_symmetry_multiplicity
 _atom_site_fract_x
 _atom_site_fract_y
 _atom_site_fract_z
 _atom_site_occupancy
  Rb  Rb0  1  0.000000  0.500000  0.284667  1
  Rb  Rb1  1  0.500000  0.000000  0.715333  1
  Tc  Tc2  1  0.000000  0.000000  0.000000  1
  P  P3  1  0.000000  0.500000  0.889358  1
  P  P4  1  0.500000  0.000000  0.110642  1
  Pd  Pd5  1  0.500000  0.500000  0.000000  1
