# generated using pymatgen
data_LaTa3(FeH6)2
_symmetry_space_group_name_H-M   'P 1'
_cell_length_a   6.08820800
_cell_length_b   6.08820681
_cell_length_c   4.55230200
_cell_angle_alpha   90.00000000
_cell_angle_beta   90.00000000
_cell_angle_gamma   119.99999557
_symmetry_Int_Tables_number   1
_chemical_formula_structural   LaTa3(FeH6)2
_chemical_formula_sum   'La1 Ta3 Fe2 H12'
_cell_volume   146.13040732
_cell_formula_units_Z   1
loop_
 _symmetry_equiv_pos_site_id
 _symmetry_equiv_pos_as_xyz
  1  'x, y, z'
loop_
 _atom_site_type_symbol
 _atom_site_label
 _atom_site_symmetry_multiplicity
 _atom_site_fract_x
 _atom_site_fract_y
 _atom_site_fract_z
 _atom_site_occupancy
  La  La0  1  0.000000  0.000000  0.000000  1
  Ta  Ta1  1  0.500000  0.000000  0.500000  1
  Ta  Ta2  1  0.000000  0.500000  0.500000  1
  Ta  Ta3  1  0.500000  0.500000  0.500000  1
  Fe  Fe4  1  0.666667  0.333333  0.000000  1
  Fe  Fe5  1  0.333333  0.666667  0.000000  1
  H  H6  1  0.794887  0.589775  0.757002  1
  H  H7  1  0.205113  0.410225  0.242998  1
  H  H8  1  0.205113  0.794887  0.242998  1
  H  H9  1  0.794887  0.205113  0.242998  1
  H  H10  1  0.589775  0.794887  0.242998  1
  H  H11  1  0.410225  0.205113  0.242998  1
  H  H12  1  0.410225  0.205113  0.757002  1
  H  H13  1  0.205113  0.410225  0.757002  1
  H  H14  1  0.794887  0.205113  0.757002  1
  H  H15  1  0.589775  0.794887  0.757002  1
  H  H16  1  0.794887  0.589775  0.242998  1
  H  H17  1  0.205113  0.794887  0.757002  1
