# generated using pymatgen
data_Ca12ZnCu12Si11
_symmetry_space_group_name_H-M   'P 1'
_cell_length_a   4.29159300
_cell_length_b   7.36199373
_cell_length_c   21.20871964
_cell_angle_alpha   89.92920303
_cell_angle_beta   90.00000000
_cell_angle_gamma   90.00000000
_symmetry_Int_Tables_number   1
_chemical_formula_structural   Ca12ZnCu12Si11
_chemical_formula_sum   'Ca12 Zn1 Cu12 Si11'
_cell_volume   670.08221451
_cell_formula_units_Z   1
loop_
 _symmetry_equiv_pos_site_id
 _symmetry_equiv_pos_as_xyz
  1  'x, y, z'
loop_
 _atom_site_type_symbol
 _atom_site_label
 _atom_site_symmetry_multiplicity
 _atom_site_fract_x
 _atom_site_fract_y
 _atom_site_fract_z
 _atom_site_occupancy
  Ca  Ca0  1  0.250000  0.701917  0.004433  1
  Ca  Ca1  1  0.750000  0.292838  0.999716  1
  Ca  Ca2  1  0.750000  0.207996  0.497421  1
  Ca  Ca3  1  0.250000  0.791558  0.501464  1
  Ca  Ca4  1  0.250000  0.797614  0.167256  1
  Ca  Ca5  1  0.750000  0.203662  0.832277  1
  Ca  Ca6  1  0.750000  0.298821  0.333772  1
  Ca  Ca7  1  0.250000  0.699867  0.665165  1
  Ca  Ca8  1  0.250000  0.700803  0.333249  1
  Ca  Ca9  1  0.750000  0.302878  0.665125  1
  Ca  Ca10  1  0.750000  0.200123  0.167608  1
  Ca  Ca11  1  0.250000  0.801012  0.830881  1
  Zn  Zn12  1  0.250000  0.415487  0.894518  1
  Cu  Cu13  1  0.250000  0.412056  0.099522  1
  Cu  Cu14  1  0.750000  0.602747  0.902745  1
  Cu  Cu15  1  0.750000  0.913733  0.401725  1
  Cu  Cu16  1  0.250000  0.086373  0.597425  1
  Cu  Cu17  1  0.250000  0.412870  0.234938  1
  Cu  Cu18  1  0.750000  0.582789  0.766527  1
  Cu  Cu19  1  0.750000  0.913656  0.266221  1
  Cu  Cu20  1  0.250000  0.090016  0.732915  1
  Cu  Cu21  1  0.250000  0.420483  0.438532  1
  Cu  Cu22  1  0.750000  0.579588  0.560558  1
  Cu  Cu23  1  0.750000  0.918507  0.062096  1
  Cu  Cu24  1  0.250000  0.067624  0.943844  1
  Si  Si25  1  0.250000  0.090327  0.067950  1
  Si  Si26  1  0.750000  0.913813  0.934498  1
  Si  Si27  1  0.750000  0.591184  0.432457  1
  Si  Si28  1  0.250000  0.410547  0.564107  1
  Si  Si29  1  0.250000  0.079756  0.273776  1
  Si  Si30  1  0.750000  0.919862  0.725266  1
  Si  Si31  1  0.750000  0.579440  0.226767  1
  Si  Si32  1  0.250000  0.416397  0.768821  1
  Si  Si33  1  0.250000  0.083536  0.394515  1
  Si  Si34  1  0.750000  0.918306  0.605488  1
  Si  Si35  1  0.750000  0.581817  0.106424  1
