# generated using pymatgen
data_Dy3Ho(ZnGa)4
_symmetry_space_group_name_H-M   'P 1'
_cell_length_a   4.43087200
_cell_length_b   7.60659394
_cell_length_c   7.18460928
_cell_angle_alpha   89.98731827
_cell_angle_beta   90.00000000
_cell_angle_gamma   90.00000000
_symmetry_Int_Tables_number   1
_chemical_formula_structural   Dy3Ho(ZnGa)4
_chemical_formula_sum   'Dy3 Ho1 Zn4 Ga4'
_cell_volume   242.14894544
_cell_formula_units_Z   1
loop_
 _symmetry_equiv_pos_site_id
 _symmetry_equiv_pos_as_xyz
  1  'x, y, z'
loop_
 _atom_site_type_symbol
 _atom_site_label
 _atom_site_symmetry_multiplicity
 _atom_site_fract_x
 _atom_site_fract_y
 _atom_site_fract_z
 _atom_site_occupancy
  Dy  Dy0  1  0.250000  0.277117  0.499213  1
  Dy  Dy1  1  0.250000  0.222471  0.999233  1
  Dy  Dy2  1  0.750000  0.723027  0.500789  1
  Ho  Ho3  1  0.750000  0.776875  0.000847  1
  Zn  Zn4  1  0.250000  0.915036  0.295348  1
  Zn  Zn5  1  0.250000  0.585131  0.797053  1
  Zn  Zn6  1  0.750000  0.084617  0.705710  1
  Zn  Zn7  1  0.750000  0.415507  0.204446  1
  Ga  Ga8  1  0.250000  0.914523  0.718628  1
  Ga  Ga9  1  0.250000  0.585629  0.217386  1
  Ga  Ga10  1  0.750000  0.085008  0.280302  1
  Ga  Ga11  1  0.750000  0.415060  0.781048  1
