# generated using pymatgen
data_HoLuMn6P7Ir6
_symmetry_space_group_name_H-M   'P 1'
_cell_length_a   9.41608559
_cell_length_b   9.41418513
_cell_length_c   3.81802800
_cell_angle_alpha   90.00000000
_cell_angle_beta   90.00000000
_cell_angle_gamma   119.99978473
_symmetry_Int_Tables_number   1
_chemical_formula_structural   HoLuMn6P7Ir6
_chemical_formula_sum   'Ho1 Lu1 Mn6 P7 Ir6'
_cell_volume   293.10539644
_cell_formula_units_Z   1
loop_
 _symmetry_equiv_pos_site_id
 _symmetry_equiv_pos_as_xyz
  1  'x, y, z'
loop_
 _atom_site_type_symbol
 _atom_site_label
 _atom_site_symmetry_multiplicity
 _atom_site_fract_x
 _atom_site_fract_y
 _atom_site_fract_z
 _atom_site_occupancy
  Ho  Ho0  1  0.666673  0.333335  0.000000  1
  Lu  Lu1  1  0.999904  0.999842  0.500000  1
  Mn  Mn2  1  0.491947  0.937789  0.000000  1
  Mn  Mn3  1  0.062799  0.554517  0.000000  1
  Mn  Mn4  1  0.445302  0.508216  0.000000  1
  Mn  Mn5  1  0.549695  0.764833  0.500000  1
  Mn  Mn6  1  0.235284  0.784837  0.500000  1
  Mn  Mn7  1  0.215087  0.450021  0.500000  1
  P  P8  1  0.453060  0.063745  0.500000  1
  P  P9  1  0.936437  0.389314  0.500000  1
  P  P10  1  0.610622  0.547097  0.500000  1
  P  P11  1  0.744258  0.966771  0.000000  1
  P  P12  1  0.033053  0.777362  0.000000  1
  P  P13  1  0.222486  0.255596  0.000000  1
  P  P14  1  0.333527  0.666997  0.000000  1
  Ir  Ir15  1  0.761766  0.734328  0.000000  1
  Ir  Ir16  1  0.265331  0.027380  0.000000  1
  Ir  Ir17  1  0.972567  0.238021  0.000000  1
  Ir  Ir18  1  0.721239  0.110330  0.500000  1
  Ir  Ir19  1  0.889724  0.610753  0.500000  1
  Ir  Ir20  1  0.389237  0.278917  0.500000  1
