# generated using pymatgen
data_Tb8Ti(PdPt7)3
_symmetry_space_group_name_H-M   'P 1'
_cell_length_a   8.43892800
_cell_length_b   8.44686100
_cell_length_c   8.44817100
_cell_angle_alpha   90.00000000
_cell_angle_beta   90.00000000
_cell_angle_gamma   90.00000000
_symmetry_Int_Tables_number   1
_chemical_formula_structural   Tb8Ti(PdPt7)3
_chemical_formula_sum   'Tb8 Ti1 Pd3 Pt21'
_cell_volume   602.20634215
_cell_formula_units_Z   1
loop_
 _symmetry_equiv_pos_site_id
 _symmetry_equiv_pos_as_xyz
  1  'x, y, z'
loop_
 _atom_site_type_symbol
 _atom_site_label
 _atom_site_symmetry_multiplicity
 _atom_site_fract_x
 _atom_site_fract_y
 _atom_site_fract_z
 _atom_site_occupancy
  Tb  Tb0  1  0.251069  0.251231  0.251610  1
  Tb  Tb1  1  0.748403  0.748803  0.748312  1
  Tb  Tb2  1  0.748931  0.748769  0.251610  1
  Tb  Tb3  1  0.748403  0.251197  0.748312  1
  Tb  Tb4  1  0.251597  0.251197  0.748312  1
  Tb  Tb5  1  0.251069  0.748769  0.251610  1
  Tb  Tb6  1  0.251597  0.748803  0.748312  1
  Tb  Tb7  1  0.748931  0.251231  0.251610  1
  Ti  Ti8  1  0.000000  0.000000  0.000882  1
  Pd  Pd9  1  0.000000  0.500000  0.735954  1
  Pd  Pd10  1  0.500000  0.500000  0.254891  1
  Pd  Pd11  1  0.500000  0.500000  0.744801  1
  Pt  Pt12  1  0.264138  0.500000  0.999809  1
  Pt  Pt13  1  0.735862  0.500000  0.999809  1
  Pt  Pt14  1  0.000000  0.264695  0.500269  1
  Pt  Pt15  1  0.500000  0.264761  0.000055  1
  Pt  Pt16  1  0.000000  0.735305  0.500269  1
  Pt  Pt17  1  0.500000  0.735239  0.000055  1
  Pt  Pt18  1  0.500000  0.000000  0.264135  1
  Pt  Pt19  1  0.264315  0.000000  0.499922  1
  Pt  Pt20  1  0.500000  0.000000  0.735850  1
  Pt  Pt21  1  0.735685  0.000000  0.499922  1
  Pt  Pt22  1  0.000000  0.500000  0.264069  1
  Pt  Pt23  1  0.254445  0.500000  0.499775  1
  Pt  Pt24  1  0.745555  0.500000  0.499775  1
  Pt  Pt25  1  0.500000  0.255182  0.499982  1
  Pt  Pt26  1  0.500000  0.744818  0.499982  1
  Pt  Pt27  1  0.301293  0.000000  0.999903  1
  Pt  Pt28  1  0.698707  0.000000  0.999903  1
  Pt  Pt29  1  0.000000  0.301119  0.999793  1
  Pt  Pt30  1  0.000000  0.698881  0.999793  1
  Pt  Pt31  1  0.000000  0.000000  0.300871  1
  Pt  Pt32  1  0.000000  0.000000  0.699842  1
