# generated using pymatgen
data_Sm2TmTeAs2
_symmetry_space_group_name_H-M   'P 1'
_cell_length_a   4.23144200
_cell_length_b   10.52140636
_cell_length_c   7.30200017
_cell_angle_alpha   89.81110377
_cell_angle_beta   90.00000000
_cell_angle_gamma   90.00000000
_symmetry_Int_Tables_number   1
_chemical_formula_structural   Sm2TmTeAs2
_chemical_formula_sum   'Sm4 Tm2 Te2 As4'
_cell_volume   325.08854370
_cell_formula_units_Z   2
loop_
 _symmetry_equiv_pos_site_id
 _symmetry_equiv_pos_as_xyz
  1  'x, y, z'
loop_
 _atom_site_type_symbol
 _atom_site_label
 _atom_site_symmetry_multiplicity
 _atom_site_fract_x
 _atom_site_fract_y
 _atom_site_fract_z
 _atom_site_occupancy
  Sm  Sm0  1  0.250000  0.801521  0.918887  1
  Sm  Sm1  1  0.750000  0.198479  0.081113  1
  Sm  Sm2  1  0.750000  0.803188  0.417573  1
  Sm  Sm3  1  0.250000  0.196812  0.582427  1
  Tm  Tm4  1  0.250000  0.500121  0.251993  1
  Tm  Tm5  1  0.750000  0.499879  0.748007  1
  Te  Te6  1  0.750000  0.999628  0.751197  1
  Te  Te7  1  0.250000  0.000372  0.248803  1
  As  As8  1  0.250000  0.651998  0.584211  1
  As  As9  1  0.750000  0.348002  0.415789  1
  As  As10  1  0.750000  0.650790  0.084636  1
  As  As11  1  0.250000  0.349210  0.915364  1
