# generated using pymatgen
data_DyTh2(InIr)3
_symmetry_space_group_name_H-M   'P 1'
_cell_length_a   7.72566183
_cell_length_b   7.62730348
_cell_length_c   3.95845400
_cell_angle_alpha   90.00000000
_cell_angle_beta   90.00000000
_cell_angle_gamma   119.57973069
_symmetry_Int_Tables_number   1
_chemical_formula_structural   DyTh2(InIr)3
_chemical_formula_sum   'Dy1 Th2 In3 Ir3'
_cell_volume   202.85542178
_cell_formula_units_Z   1
loop_
 _symmetry_equiv_pos_site_id
 _symmetry_equiv_pos_as_xyz
  1  'x, y, z'
loop_
 _atom_site_type_symbol
 _atom_site_label
 _atom_site_symmetry_multiplicity
 _atom_site_fract_x
 _atom_site_fract_y
 _atom_site_fract_z
 _atom_site_occupancy
  Dy  Dy0  1  0.000000  0.406620  0.000000  1
  Th  Th1  1  0.587545  0.588523  0.000000  1
  Th  Th2  1  0.412455  0.000978  0.000000  1
  In  In3  1  0.000000  0.734874  0.500000  1
  In  In4  1  0.241393  0.253688  0.500000  1
  In  In5  1  0.758607  0.012295  0.500000  1
  Ir  Ir6  1  0.000000  0.991943  0.000000  1
  Ir  Ir7  1  0.650287  0.330683  0.500000  1
  Ir  Ir8  1  0.349713  0.680397  0.500000  1
