# generated using pymatgen
data_Li3Er4Si6Pt
_symmetry_space_group_name_H-M   'P 1'
_cell_length_a   9.16507904
_cell_length_b   9.16508003
_cell_length_c   6.66808100
_cell_angle_alpha   90.39066118
_cell_angle_beta   89.60933878
_cell_angle_gamma   153.44950054
_symmetry_Int_Tables_number   1
_chemical_formula_structural   Li3Er4Si6Pt
_chemical_formula_sum   'Li3 Er4 Si6 Pt1'
_cell_volume   250.35542905
_cell_formula_units_Z   1
loop_
 _symmetry_equiv_pos_site_id
 _symmetry_equiv_pos_as_xyz
  1  'x, y, z'
loop_
 _atom_site_type_symbol
 _atom_site_label
 _atom_site_symmetry_multiplicity
 _atom_site_fract_x
 _atom_site_fract_y
 _atom_site_fract_z
 _atom_site_occupancy
  Li  Li0  1  0.190763  0.809237  0.440014  1
  Li  Li1  1  0.190365  0.809635  0.059604  1
  Li  Li2  1  0.812358  0.187642  0.938759  1
  Er  Er3  1  0.549834  0.450166  0.253747  1
  Er  Er4  1  0.446997  0.553003  0.750277  1
  Er  Er5  1  0.343991  0.656009  0.248534  1
  Er  Er6  1  0.655884  0.344116  0.744817  1
  Si  Si7  1  0.941056  0.058944  0.074350  1
  Si  Si8  1  0.060417  0.939583  0.930264  1
  Si  Si9  1  0.058807  0.941193  0.574072  1
  Si  Si10  1  0.937700  0.062300  0.430856  1
  Si  Si11  1  0.721386  0.278614  0.254619  1
  Si  Si12  1  0.281065  0.718935  0.741902  1
  Pt  Pt13  1  0.809372  0.190628  0.558182  1
