# generated using pymatgen
data_LiBiF36
_symmetry_space_group_name_H-M   'P 1'
_cell_length_a   6.96297090
_cell_length_b   9.87834248
_cell_length_c   10.86843200
_cell_angle_alpha   90.88321665
_cell_angle_beta   100.15638569
_cell_angle_gamma   73.70234779
_symmetry_Int_Tables_number   1
_chemical_formula_structural   LiBiF36
_chemical_formula_sum   'Li1 Bi1 F36'
_cell_volume   705.81697782
_cell_formula_units_Z   1
loop_
 _symmetry_equiv_pos_site_id
 _symmetry_equiv_pos_as_xyz
  1  'x, y, z'
loop_
 _atom_site_type_symbol
 _atom_site_label
 _atom_site_symmetry_multiplicity
 _atom_site_fract_x
 _atom_site_fract_y
 _atom_site_fract_z
 _atom_site_occupancy
  Li  Li0  1  0.553402  0.903034  0.872676  1
  Bi  Bi1  1  0.298828  0.164103  0.150796  1
  F  F2  1  0.357164  0.432719  0.898502  1
  F  F3  1  0.697861  0.638946  0.101611  1
  F  F4  1  0.312062  0.220072  0.577072  1
  F  F5  1  0.698657  0.685672  0.395642  1
  F  F6  1  0.920425  0.182088  0.838931  1
  F  F7  1  0.104086  0.740776  0.238359  1
  F  F8  1  0.749492  0.973712  0.972979  1
  F  F9  1  0.373106  0.083512  0.985571  1
  F  F10  1  0.877026  0.591556  0.822189  1
  F  F11  1  0.198624  0.357874  0.067374  1
  F  F12  1  0.469341  0.461345  0.808936  1
  F  F13  1  0.512844  0.620011  0.127445  1
  F  F14  1  0.704130  0.708303  0.766801  1
  F  F15  1  0.237724  0.251297  0.313294  1
  F  F16  1  0.737718  0.997960  0.527401  1
  F  F17  1  0.293564  0.919594  0.498519  1
  F  F18  1  0.267217  0.230293  0.700373  1
  F  F19  1  0.703337  0.814075  0.339313  1
  F  F20  1  0.789911  0.067334  0.639530  1
  F  F21  1  0.207521  0.949525  0.367694  1
  F  F22  1  0.960612  0.879966  0.943158  1
  F  F23  1  0.101501  0.049341  0.140981  1
  F  F24  1  0.893767  0.326381  0.805386  1
  F  F25  1  0.126916  0.616919  0.166259  1
  F  F26  1  0.209898  0.762649  0.919748  1
  F  F27  1  0.780034  0.339552  0.069816  1
  F  F28  1  0.433578  0.896612  0.710040  1
  F  F29  1  0.587437  0.070607  0.234864  1
  F  F30  1  0.027641  0.748563  0.580639  1
  F  F31  1  0.851520  0.246962  0.427464  1
  F  F32  1  0.140457  0.610069  0.628334  1
  F  F33  1  0.842744  0.386021  0.388480  1
  F  F34  1  0.309166  0.832012  0.814478  1
  F  F35  1  0.709841  0.245318  0.137641  1
  F  F36  1  0.484345  0.429024  0.532804  1
  F  F37  1  0.476503  0.566205  0.488901  1
