# generated using pymatgen
data_Zr10CuSn4Bi3
_symmetry_space_group_name_H-M   'P 1'
_cell_length_a   8.82166902
_cell_length_b   8.80031746
_cell_length_c   5.99900412
_cell_angle_alpha   90.07010718
_cell_angle_beta   89.96503188
_cell_angle_gamma   119.91996878
_symmetry_Int_Tables_number   1
_chemical_formula_structural   Zr10CuSn4Bi3
_chemical_formula_sum   'Zr10 Cu1 Sn4 Bi3'
_cell_volume   403.65304830
_cell_formula_units_Z   1
loop_
 _symmetry_equiv_pos_site_id
 _symmetry_equiv_pos_as_xyz
  1  'x, y, z'
loop_
 _atom_site_type_symbol
 _atom_site_label
 _atom_site_symmetry_multiplicity
 _atom_site_fract_x
 _atom_site_fract_y
 _atom_site_fract_z
 _atom_site_occupancy
  Zr  Zr0  1  0.328264  0.664132  0.000000  1
  Zr  Zr1  1  0.667413  0.333706  0.500000  1
  Zr  Zr2  1  0.668322  0.334161  0.000000  1
  Zr  Zr3  1  0.327569  0.663785  0.500000  1
  Zr  Zr4  1  0.271279  0.999732  0.229616  1
  Zr  Zr5  1  0.271279  0.271547  0.770384  1
  Zr  Zr6  1  0.005491  0.727322  0.770013  1
  Zr  Zr7  1  0.005491  0.278169  0.229987  1
  Zr  Zr8  1  0.728078  0.722573  0.231625  1
  Zr  Zr9  1  0.728078  0.005505  0.768375  1
  Cu  Cu10  1  0.999930  0.999965  0.000000  1
  Sn  Sn11  1  0.999656  0.386809  0.745709  1
  Sn  Sn12  1  0.999656  0.612847  0.254291  1
  Sn  Sn13  1  0.386435  0.385693  0.253973  1
  Sn  Sn14  1  0.386435  0.000742  0.746027  1
  Bi  Bi15  1  0.999988  0.999994  0.500000  1
  Bi  Bi16  1  0.613318  0.999042  0.254914  1
  Bi  Bi17  1  0.613318  0.614276  0.745086  1
