# generated using pymatgen
data_Be7V(CoIr)4
_symmetry_space_group_name_H-M   'P 1'
_cell_length_a   5.51534801
_cell_length_b   3.89410600
_cell_length_c   7.73145301
_cell_angle_alpha   90.00000000
_cell_angle_beta   89.99503159
_cell_angle_gamma   90.00000000
_symmetry_Int_Tables_number   1
_chemical_formula_structural   Be7V(CoIr)4
_chemical_formula_sum   'Be7 V1 Co4 Ir4'
_cell_volume   166.05111976
_cell_formula_units_Z   1
loop_
 _symmetry_equiv_pos_site_id
 _symmetry_equiv_pos_as_xyz
  1  'x, y, z'
loop_
 _atom_site_type_symbol
 _atom_site_label
 _atom_site_symmetry_multiplicity
 _atom_site_fract_x
 _atom_site_fract_y
 _atom_site_fract_z
 _atom_site_occupancy
  Be  Be0  1  0.507049  0.749999  0.125268  1
  Be  Be1  1  0.000301  0.250000  0.373973  1
  Be  Be2  1  0.499821  0.250000  0.382131  1
  Be  Be3  1  0.487342  0.749999  0.625146  1
  Be  Be4  1  0.004756  0.749999  0.625194  1
  Be  Be5  1  0.499812  0.250000  0.867508  1
  Be  Be6  1  0.000168  0.250000  0.875719  1
  V  V7  1  0.999211  0.749999  0.125064  1
  Co  Co8  1  0.742422  0.250000  0.124962  1
  Co  Co9  1  0.254206  0.749999  0.376883  1
  Co  Co10  1  0.750233  0.250000  0.624923  1
  Co  Co11  1  0.254137  0.749999  0.873215  1
  Ir  Ir12  1  0.268160  0.250000  0.124875  1
  Ir  Ir13  1  0.742821  0.749999  0.383218  1
  Ir  Ir14  1  0.246892  0.250000  0.624889  1
  Ir  Ir15  1  0.742669  0.749999  0.867030  1
