# generated using pymatgen
data_Y8Ho2Hg3Ru
_symmetry_space_group_name_H-M   'P 1'
_cell_length_a   9.66620232
_cell_length_b   9.66696819
_cell_length_c   9.68385573
_cell_angle_alpha   90.05935425
_cell_angle_beta   89.94085815
_cell_angle_gamma   119.98779697
_symmetry_Int_Tables_number   1
_chemical_formula_structural   Y8Ho2Hg3Ru
_chemical_formula_sum   'Y16 Ho4 Hg6 Ru2'
_cell_volume   783.75115402
_cell_formula_units_Z   2
loop_
 _symmetry_equiv_pos_site_id
 _symmetry_equiv_pos_as_xyz
  1  'x, y, z'
loop_
 _atom_site_type_symbol
 _atom_site_label
 _atom_site_symmetry_multiplicity
 _atom_site_fract_x
 _atom_site_fract_y
 _atom_site_fract_z
 _atom_site_occupancy
  Y  Y0  1  0.999774  0.000221  0.499742  1
  Y  Y1  1  0.999981  0.000012  0.999999  1
  Y  Y2  1  0.790580  0.580721  0.559948  1
  Y  Y3  1  0.419316  0.209471  0.559952  1
  Y  Y4  1  0.790397  0.209593  0.939474  1
  Y  Y5  1  0.790419  0.580678  0.939732  1
  Y  Y6  1  0.419351  0.209623  0.939731  1
  Y  Y7  1  0.209671  0.790332  0.060471  1
  Y  Y8  1  0.209558  0.419373  0.060495  1
  Y  Y9  1  0.580592  0.790394  0.060494  1
  Y  Y10  1  0.540959  0.459078  0.250405  1
  Y  Y11  1  0.541233  0.082117  0.250672  1
  Y  Y12  1  0.917922  0.458815  0.250681  1
  Y  Y13  1  0.458587  0.541394  0.749422  1
  Y  Y14  1  0.458851  0.917508  0.749232  1
  Y  Y15  1  0.082446  0.541099  0.749223  1
  Ho  Ho16  1  0.210334  0.789682  0.439440  1
  Ho  Ho17  1  0.210037  0.420607  0.439517  1
  Ho  Ho18  1  0.579358  0.789927  0.439529  1
  Ho  Ho19  1  0.789990  0.209998  0.560494  1
  Hg  Hg20  1  0.881406  0.118660  0.250091  1
  Hg  Hg21  1  0.881527  0.762708  0.250024  1
  Hg  Hg22  1  0.237269  0.118511  0.250024  1
  Hg  Hg23  1  0.118622  0.881306  0.749861  1
  Hg  Hg24  1  0.118432  0.237349  0.749913  1
  Hg  Hg25  1  0.762664  0.881521  0.749913  1
  Ru  Ru26  1  0.333382  0.666600  0.252533  1
  Ru  Ru27  1  0.667341  0.332700  0.748988  1
