# generated using pymatgen
data_CaTbTm2(B6Os)2
_symmetry_space_group_name_H-M   'P 1'
_cell_length_a   3.63254900
_cell_length_b   9.13082112
_cell_length_c   11.54230507
_cell_angle_alpha   89.82195913
_cell_angle_beta   90.00000000
_cell_angle_gamma   90.00000000
_symmetry_Int_Tables_number   1
_chemical_formula_structural   CaTbTm2(B6Os)2
_chemical_formula_sum   'Ca2 Tb2 Tm4 B24 Os4'
_cell_volume   382.83511676
_cell_formula_units_Z   2
loop_
 _symmetry_equiv_pos_site_id
 _symmetry_equiv_pos_as_xyz
  1  'x, y, z'
loop_
 _atom_site_type_symbol
 _atom_site_label
 _atom_site_symmetry_multiplicity
 _atom_site_fract_x
 _atom_site_fract_y
 _atom_site_fract_z
 _atom_site_occupancy
  Ca  Ca0  1  0.000000  0.323267  0.414780  1
  Ca  Ca1  1  0.000000  0.676733  0.585220  1
  Tb  Tb2  1  0.000000  0.821799  0.086338  1
  Tb  Tb3  1  0.000000  0.178201  0.913662  1
  Tm  Tm4  1  0.000000  0.942297  0.370321  1
  Tm  Tm5  1  0.000000  0.057703  0.629680  1
  Tm  Tm6  1  0.000000  0.442911  0.129896  1
  Tm  Tm7  1  0.000000  0.557089  0.870103  1
  B  B8  1  0.500000  0.554200  0.431867  1
  B  B9  1  0.500000  0.445800  0.568133  1
  B  B10  1  0.500000  0.053951  0.067030  1
  B  B11  1  0.500000  0.946049  0.932970  1
  B  B12  1  0.500000  0.748851  0.417131  1
  B  B13  1  0.500000  0.251149  0.582869  1
  B  B14  1  0.500000  0.249044  0.081431  1
  B  B15  1  0.500000  0.750956  0.918569  1
  B  B16  1  0.500000  0.791494  0.264654  1
  B  B17  1  0.500000  0.208506  0.735346  1
  B  B18  1  0.500000  0.290373  0.233658  1
  B  B19  1  0.500000  0.709626  0.766342  1
  B  B20  1  0.500000  0.630830  0.184814  1
  B  B21  1  0.500000  0.369170  0.815186  1
  B  B22  1  0.500000  0.130048  0.313636  1
  B  B23  1  0.500000  0.869952  0.686364  1
  B  B24  1  0.500000  0.982979  0.211972  1
  B  B25  1  0.500000  0.017021  0.788028  1
  B  B26  1  0.500000  0.483544  0.287170  1
  B  B27  1  0.500000  0.516456  0.712830  1
  B  B28  1  0.500000  0.601792  0.027954  1
  B  B29  1  0.500000  0.398208  0.972046  1
  B  B30  1  0.500000  0.098396  0.472851  1
  B  B31  1  0.500000  0.901604  0.527149  1
  Os  Os32  1  0.000000  0.640403  0.317852  1
  Os  Os33  1  0.000000  0.359597  0.682148  1
  Os  Os34  1  0.000000  0.137092  0.178122  1
  Os  Os35  1  0.000000  0.862908  0.821878  1
