# generated using pymatgen
data_LaYbEuPt2
_symmetry_space_group_name_H-M   'P 1'
_cell_length_a   7.72704773
_cell_length_b   7.72704740
_cell_length_c   7.72704800
_cell_angle_alpha   70.97688393
_cell_angle_beta   70.97689263
_cell_angle_gamma   70.97688926
_symmetry_Int_Tables_number   1
_chemical_formula_structural   LaYbEuPt2
_chemical_formula_sum   'La3 Yb3 Eu3 Pt6'
_cell_volume   399.69153783
_cell_formula_units_Z   3
loop_
 _symmetry_equiv_pos_site_id
 _symmetry_equiv_pos_as_xyz
  1  'x, y, z'
loop_
 _atom_site_type_symbol
 _atom_site_label
 _atom_site_symmetry_multiplicity
 _atom_site_fract_x
 _atom_site_fract_y
 _atom_site_fract_z
 _atom_site_occupancy
  La  La0  1  0.673388  0.395191  0.152248  1
  La  La1  1  0.152248  0.673388  0.395191  1
  La  La2  1  0.395191  0.152248  0.673388  1
  Yb  Yb3  1  0.998526  0.998526  0.998526  1
  Yb  Yb4  1  0.805703  0.805703  0.805703  1
  Yb  Yb5  1  0.196278  0.196278  0.196278  1
  Eu  Eu6  1  0.331220  0.602562  0.845643  1
  Eu  Eu7  1  0.845643  0.331220  0.602562  1
  Eu  Eu8  1  0.602562  0.845643  0.331220  1
  Pt  Pt9  1  0.164735  0.957796  0.586124  1
  Pt  Pt10  1  0.586124  0.164735  0.957796  1
  Pt  Pt11  1  0.957796  0.586124  0.164735  1
  Pt  Pt12  1  0.834120  0.044995  0.411471  1
  Pt  Pt13  1  0.411471  0.834120  0.044995  1
  Pt  Pt14  1  0.044995  0.411471  0.834120  1
