# generated using pymatgen
data_YbY(Si2Ni9)2
_symmetry_space_group_name_H-M   'P 1'
_cell_length_a   7.54412963
_cell_length_b   7.54425020
_cell_length_c   7.54371157
_cell_angle_alpha   99.54939243
_cell_angle_beta   99.56286398
_cell_angle_gamma   131.92161758
_symmetry_Int_Tables_number   1
_chemical_formula_structural   YbY(Si2Ni9)2
_chemical_formula_sum   'Yb1 Y1 Si4 Ni18'
_cell_volume   291.72865937
_cell_formula_units_Z   1
loop_
 _symmetry_equiv_pos_site_id
 _symmetry_equiv_pos_as_xyz
  1  'x, y, z'
loop_
 _atom_site_type_symbol
 _atom_site_label
 _atom_site_symmetry_multiplicity
 _atom_site_fract_x
 _atom_site_fract_y
 _atom_site_fract_z
 _atom_site_occupancy
  Yb  Yb0  1  0.500026  0.500081  0.000050  1
  Y  Y1  1  0.749984  0.249940  0.499970  1
  Si  Si2  1  0.624392  0.874617  0.749785  1
  Si  Si3  1  0.125378  0.375600  0.250215  1
  Si  Si4  1  0.125388  0.875165  0.749779  1
  Si  Si5  1  0.124836  0.874618  0.250220  1
  Ni  Ni6  1  0.250013  0.750023  0.500005  1
  Ni  Ni7  1  0.999989  0.999975  0.999996  1
  Ni  Ni8  1  0.686185  0.011985  0.079094  1
  Ni  Ni9  1  0.686131  0.607024  0.674200  1
  Ni  Ni10  1  0.262329  0.435537  0.579104  1
  Ni  Ni11  1  0.262418  0.683316  0.826852  1
  Ni  Ni12  1  0.932844  0.011978  0.325811  1
  Ni  Ni13  1  0.932783  0.607043  0.920865  1
  Ni  Ni14  1  0.856391  0.435496  0.173168  1
  Ni  Ni15  1  0.856456  0.683280  0.420917  1
  Ni  Ni16  1  0.564394  0.737559  0.420892  1
  Ni  Ni17  1  0.564504  0.143609  0.826825  1
  Ni  Ni18  1  0.988114  0.313877  0.920908  1
  Ni  Ni19  1  0.988028  0.067117  0.674170  1
  Ni  Ni20  1  0.316725  0.737573  0.173162  1
  Ni  Ni21  1  0.316800  0.143576  0.579125  1
  Ni  Ni22  1  0.392974  0.313874  0.325803  1
  Ni  Ni23  1  0.392919  0.067136  0.079082  1
