# generated using pymatgen
data_TbPr4(SiAs)2
_symmetry_space_group_name_H-M   'P 1'
_cell_length_a   8.53927348
_cell_length_b   8.53927349
_cell_length_c   7.95947900
_cell_angle_alpha   90.00000000
_cell_angle_beta   90.00000000
_cell_angle_gamma   124.98081460
_symmetry_Int_Tables_number   1
_chemical_formula_structural   TbPr4(SiAs)2
_chemical_formula_sum   'Tb2 Pr8 Si4 As4'
_cell_volume   475.54628844
_cell_formula_units_Z   2
loop_
 _symmetry_equiv_pos_site_id
 _symmetry_equiv_pos_as_xyz
  1  'x, y, z'
loop_
 _atom_site_type_symbol
 _atom_site_label
 _atom_site_symmetry_multiplicity
 _atom_site_fract_x
 _atom_site_fract_y
 _atom_site_fract_z
 _atom_site_occupancy
  Tb  Tb0  1  0.000000  0.000000  0.000000  1
  Tb  Tb1  1  0.500000  0.500000  0.500000  1
  Pr  Pr2  1  0.035392  0.310858  0.330925  1
  Pr  Pr3  1  0.964608  0.689142  0.669075  1
  Pr  Pr4  1  0.464608  0.189142  0.830925  1
  Pr  Pr5  1  0.810858  0.535392  0.169075  1
  Pr  Pr6  1  0.535392  0.810858  0.169075  1
  Pr  Pr7  1  0.189142  0.464608  0.830925  1
  Pr  Pr8  1  0.689142  0.964608  0.669075  1
  Pr  Pr9  1  0.310858  0.035392  0.330925  1
  Si  Si10  1  0.381810  0.381810  0.118564  1
  Si  Si11  1  0.618190  0.618190  0.881436  1
  Si  Si12  1  0.118190  0.118190  0.618564  1
  Si  Si13  1  0.881810  0.881810  0.381436  1
  As  As14  1  0.801951  0.198049  0.000000  1
  As  As15  1  0.198049  0.801951  0.000000  1
  As  As16  1  0.698049  0.301951  0.500000  1
  As  As17  1  0.301951  0.698049  0.500000  1
