# generated using pymatgen
data_Ca3Lu5(B6Os)4
_symmetry_space_group_name_H-M   'P 1'
_cell_length_a   3.60657500
_cell_length_b   9.09515293
_cell_length_c   11.49073418
_cell_angle_alpha   89.94808589
_cell_angle_beta   90.00000000
_cell_angle_gamma   90.00000000
_symmetry_Int_Tables_number   1
_chemical_formula_structural   Ca3Lu5(B6Os)4
_chemical_formula_sum   'Ca3 Lu5 B24 Os4'
_cell_volume   376.92294326
_cell_formula_units_Z   1
loop_
 _symmetry_equiv_pos_site_id
 _symmetry_equiv_pos_as_xyz
  1  'x, y, z'
loop_
 _atom_site_type_symbol
 _atom_site_label
 _atom_site_symmetry_multiplicity
 _atom_site_fract_x
 _atom_site_fract_y
 _atom_site_fract_z
 _atom_site_occupancy
  Ca  Ca0  1  0.000000  0.323641  0.414492  1
  Ca  Ca1  1  0.000000  0.676197  0.585348  1
  Ca  Ca2  1  0.000000  0.822437  0.085989  1
  Lu  Lu3  1  0.000000  0.176012  0.914675  1
  Lu  Lu4  1  0.000000  0.942404  0.367965  1
  Lu  Lu5  1  0.000000  0.057161  0.630584  1
  Lu  Lu6  1  0.000000  0.443624  0.130863  1
  Lu  Lu7  1  0.000000  0.557427  0.869444  1
  B  B8  1  0.500000  0.553502  0.432713  1
  B  B9  1  0.500000  0.445386  0.568564  1
  B  B10  1  0.500000  0.054906  0.065829  1
  B  B11  1  0.500000  0.946972  0.933142  1
  B  B12  1  0.500000  0.750261  0.417192  1
  B  B13  1  0.500000  0.249552  0.583338  1
  B  B14  1  0.500000  0.250297  0.080481  1
  B  B15  1  0.500000  0.750519  0.917758  1
  B  B16  1  0.500000  0.792159  0.264251  1
  B  B17  1  0.500000  0.206912  0.736997  1
  B  B18  1  0.500000  0.292364  0.233752  1
  B  B19  1  0.500000  0.708969  0.765654  1
  B  B20  1  0.500000  0.630474  0.185302  1
  B  B21  1  0.500000  0.368274  0.816601  1
  B  B22  1  0.500000  0.130821  0.313455  1
  B  B23  1  0.500000  0.870111  0.685280  1
  B  B24  1  0.500000  0.983022  0.211002  1
  B  B25  1  0.500000  0.018373  0.788469  1
  B  B26  1  0.500000  0.483248  0.287627  1
  B  B27  1  0.500000  0.515896  0.713296  1
  B  B28  1  0.500000  0.597847  0.026878  1
  B  B29  1  0.500000  0.399981  0.972599  1
  B  B30  1  0.500000  0.096188  0.473220  1
  B  B31  1  0.500000  0.903985  0.526054  1
  Os  Os32  1  0.000000  0.639642  0.319720  1
  Os  Os33  1  0.000000  0.358136  0.682811  1
  Os  Os34  1  0.000000  0.139752  0.178457  1
  Os  Os35  1  0.000000  0.863548  0.820199  1
