# generated using pymatgen
data_TbFeB4Os3
_symmetry_space_group_name_H-M   'P 1'
_cell_length_a   4.01029100
_cell_length_b   7.49874905
_cell_length_c   7.28760656
_cell_angle_alpha   87.78987916
_cell_angle_beta   90.00000000
_cell_angle_gamma   90.00000000
_symmetry_Int_Tables_number   1
_chemical_formula_structural   TbFeB4Os3
_chemical_formula_sum   'Tb2 Fe2 B8 Os6'
_cell_volume   218.99108870
_cell_formula_units_Z   2
loop_
 _symmetry_equiv_pos_site_id
 _symmetry_equiv_pos_as_xyz
  1  'x, y, z'
loop_
 _atom_site_type_symbol
 _atom_site_label
 _atom_site_symmetry_multiplicity
 _atom_site_fract_x
 _atom_site_fract_y
 _atom_site_fract_z
 _atom_site_occupancy
  Tb  Tb0  1  0.276164  0.250000  0.250000  1
  Tb  Tb1  1  0.846005  0.750000  0.750000  1
  Fe  Fe2  1  0.126798  0.377133  0.636082  1
  Fe  Fe3  1  0.126798  0.122867  0.863918  1
  B  B4  1  0.352928  0.925827  0.025582  1
  B  B5  1  0.352928  0.574173  0.474418  1
  B  B6  1  0.856629  0.529530  0.084737  1
  B  B7  1  0.856629  0.970470  0.415263  1
  B  B8  1  0.626925  0.088935  0.936256  1
  B  B9  1  0.626925  0.411065  0.563744  1
  B  B10  1  0.131048  0.451946  0.916012  1
  B  B11  1  0.131048  0.048054  0.583988  1
  Os  Os12  1  0.628278  0.131025  0.618904  1
  Os  Os13  1  0.628278  0.368975  0.881096  1
  Os  Os14  1  0.858579  0.596701  0.364155  1
  Os  Os15  1  0.858579  0.903299  0.135845  1
  Os  Os16  1  0.357732  0.853773  0.401703  1
  Os  Os17  1  0.357732  0.646227  0.098297  1
