# generated using pymatgen
data_DyEr7Sc12(GaSi3)4
_symmetry_space_group_name_H-M   'P 1'
_cell_length_a   7.10573036
_cell_length_b   7.38703722
_cell_length_c   14.11244325
_cell_angle_alpha   90.00743994
_cell_angle_beta   89.82669287
_cell_angle_gamma   90.15490329
_symmetry_Int_Tables_number   1
_chemical_formula_structural   DyEr7Sc12(GaSi3)4
_chemical_formula_sum   'Dy1 Er7 Sc12 Ga4 Si12'
_cell_volume   740.76020236
_cell_formula_units_Z   1
loop_
 _symmetry_equiv_pos_site_id
 _symmetry_equiv_pos_as_xyz
  1  'x, y, z'
loop_
 _atom_site_type_symbol
 _atom_site_label
 _atom_site_symmetry_multiplicity
 _atom_site_fract_x
 _atom_site_fract_y
 _atom_site_fract_z
 _atom_site_occupancy
  Dy  Dy0  1  0.013126  0.175063  0.096550  1
  Er  Er1  1  0.988530  0.824740  0.901996  1
  Er  Er2  1  0.487504  0.677586  0.901743  1
  Er  Er3  1  0.988647  0.827552  0.600674  1
  Er  Er4  1  0.510330  0.320724  0.096863  1
  Er  Er5  1  0.008764  0.174965  0.400073  1
  Er  Er6  1  0.510294  0.323840  0.400131  1
  Er  Er7  1  0.491358  0.676243  0.601086  1
  Sc  Sc8  1  0.163644  0.501024  0.751806  1
  Sc  Sc9  1  0.835823  0.498520  0.249826  1
  Sc  Sc10  1  0.335578  0.001763  0.248219  1
  Sc  Sc11  1  0.664193  0.998395  0.750249  1
  Sc  Sc12  1  0.334780  0.174430  0.628446  1
  Sc  Sc13  1  0.668119  0.826810  0.373312  1
  Sc  Sc14  1  0.169304  0.672996  0.372537  1
  Sc  Sc15  1  0.668092  0.826495  0.125377  1
  Sc  Sc16  1  0.829707  0.325045  0.627088  1
  Sc  Sc17  1  0.331061  0.175548  0.874637  1
  Sc  Sc18  1  0.829478  0.323715  0.874521  1
  Sc  Sc19  1  0.172740  0.674866  0.124196  1
  Ga  Ga20  1  0.163210  0.460809  0.539660  1
  Ga  Ga21  1  0.838125  0.538910  0.461959  1
  Ga  Ga22  1  0.337707  0.960717  0.462259  1
  Ga  Ga23  1  0.838351  0.538865  0.038285  1
  Si  Si24  1  0.033648  0.115460  0.751637  1
  Si  Si25  1  0.966607  0.884489  0.248693  1
  Si  Si26  1  0.466980  0.613198  0.248045  1
  Si  Si27  1  0.533910  0.386756  0.751716  1
  Si  Si28  1  0.286643  0.870838  0.751573  1
  Si  Si29  1  0.713792  0.129158  0.248223  1
  Si  Si30  1  0.213191  0.370458  0.248251  1
  Si  Si31  1  0.787628  0.630126  0.751994  1
  Si  Si32  1  0.659220  0.036624  0.539018  1
  Si  Si33  1  0.158925  0.463775  0.960733  1
  Si  Si34  1  0.657393  0.035871  0.961237  1
  Si  Si35  1  0.343598  0.963627  0.037387  1
