# generated using pymatgen
data_Ho3Er5(ReB6)4
_symmetry_space_group_name_H-M   'P 1'
_cell_length_a   3.66257000
_cell_length_b   9.13873200
_cell_length_c   11.51533300
_cell_angle_alpha   89.99950671
_cell_angle_beta   90.00000000
_cell_angle_gamma   90.00000000
_symmetry_Int_Tables_number   1
_chemical_formula_structural   Ho3Er5(ReB6)4
_chemical_formula_sum   'Ho3 Er5 Re4 B24'
_cell_volume   385.43253971
_cell_formula_units_Z   1
loop_
 _symmetry_equiv_pos_site_id
 _symmetry_equiv_pos_as_xyz
  1  'x, y, z'
loop_
 _atom_site_type_symbol
 _atom_site_label
 _atom_site_symmetry_multiplicity
 _atom_site_fract_x
 _atom_site_fract_y
 _atom_site_fract_z
 _atom_site_occupancy
  Ho  Ho0  1  0.000000  0.323407  0.413798  1
  Ho  Ho1  1  0.000000  0.676603  0.586240  1
  Ho  Ho2  1  0.000000  0.823412  0.086168  1
  Er  Er3  1  0.000000  0.176489  0.913807  1
  Er  Er4  1  0.000000  0.943348  0.370190  1
  Er  Er5  1  0.000000  0.056666  0.629857  1
  Er  Er6  1  0.000000  0.443314  0.129702  1
  Er  Er7  1  0.000000  0.556650  0.870248  1
  Re  Re8  1  0.000000  0.638923  0.320725  1
  Re  Re9  1  0.000000  0.361025  0.679376  1
  Re  Re10  1  0.000000  0.138888  0.179105  1
  Re  Re11  1  0.000000  0.861218  0.820808  1
  B  B12  1  0.500000  0.553215  0.433017  1
  B  B13  1  0.500000  0.446721  0.567046  1
  B  B14  1  0.500000  0.053314  0.066784  1
  B  B15  1  0.500000  0.946978  0.933040  1
  B  B16  1  0.500000  0.749641  0.418815  1
  B  B17  1  0.500000  0.250337  0.581294  1
  B  B18  1  0.500000  0.249590  0.080913  1
  B  B19  1  0.500000  0.750445  0.918795  1
  B  B20  1  0.500000  0.792571  0.265398  1
  B  B21  1  0.500000  0.207356  0.734796  1
  B  B22  1  0.500000  0.292517  0.234443  1
  B  B23  1  0.500000  0.707475  0.765449  1
  B  B24  1  0.500000  0.630762  0.185265  1
  B  B25  1  0.500000  0.369056  0.814885  1
  B  B26  1  0.500000  0.130779  0.314635  1
  B  B27  1  0.500000  0.869310  0.685369  1
  B  B28  1  0.500000  0.982038  0.212011  1
  B  B29  1  0.500000  0.018257  0.788054  1
  B  B30  1  0.500000  0.481962  0.287861  1
  B  B31  1  0.500000  0.517959  0.712172  1
  B  B32  1  0.500000  0.599681  0.027835  1
  B  B33  1  0.500000  0.400053  0.972049  1
  B  B34  1  0.500000  0.099640  0.472175  1
  B  B35  1  0.500000  0.900400  0.527876  1
