# generated using pymatgen
data_Hf8Ta7Nb5Si15Ge
_symmetry_space_group_name_H-M   'P 1'
_cell_length_a   6.66929116
_cell_length_b   6.85988005
_cell_length_c   13.08004307
_cell_angle_alpha   89.98822449
_cell_angle_beta   89.99668304
_cell_angle_gamma   90.01621362
_symmetry_Int_Tables_number   1
_chemical_formula_structural   Hf8Ta7Nb5Si15Ge
_chemical_formula_sum   'Hf8 Ta7 Nb5 Si15 Ge1'
_cell_volume   598.41896199
_cell_formula_units_Z   1
loop_
 _symmetry_equiv_pos_site_id
 _symmetry_equiv_pos_as_xyz
  1  'x, y, z'
loop_
 _atom_site_type_symbol
 _atom_site_label
 _atom_site_symmetry_multiplicity
 _atom_site_fract_x
 _atom_site_fract_y
 _atom_site_fract_z
 _atom_site_occupancy
  Hf  Hf0  1  0.496353  0.673601  0.594301  1
  Hf  Hf1  1  0.996222  0.826037  0.906343  1
  Hf  Hf2  1  0.501627  0.326504  0.092742  1
  Hf  Hf3  1  0.006523  0.170762  0.408731  1
  Hf  Hf4  1  0.501572  0.326639  0.407481  1
  Hf  Hf5  1  0.006931  0.170403  0.091035  1
  Hf  Hf6  1  0.496023  0.673367  0.906023  1
  Hf  Hf7  1  0.995956  0.826470  0.593676  1
  Ta  Ta8  1  0.662261  0.170883  0.623839  1
  Ta  Ta9  1  0.162237  0.329534  0.876184  1
  Ta  Ta10  1  0.336820  0.830191  0.123469  1
  Ta  Ta11  1  0.837105  0.498306  0.750016  1
  Ta  Ta12  1  0.337147  0.002439  0.749974  1
  Ta  Ta13  1  0.166029  0.503385  0.249859  1
  Ta  Ta14  1  0.660556  0.994457  0.249764  1
  Nb  Nb15  1  0.838016  0.672808  0.377101  1
  Nb  Nb16  1  0.336909  0.830350  0.376772  1
  Nb  Nb17  1  0.838074  0.672905  0.122804  1
  Nb  Nb18  1  0.662325  0.170668  0.876420  1
  Nb  Nb19  1  0.162482  0.329510  0.623571  1
  Si  Si20  1  0.671996  0.963579  0.461651  1
  Si  Si21  1  0.172434  0.537048  0.038564  1
  Si  Si22  1  0.327297  0.036696  0.960759  1
  Si  Si23  1  0.826881  0.463265  0.538734  1
  Si  Si24  1  0.327847  0.036652  0.539412  1
  Si  Si25  1  0.827317  0.463406  0.961119  1
  Si  Si26  1  0.671632  0.963834  0.038495  1
  Si  Si27  1  0.171957  0.536940  0.461223  1
  Si  Si28  1  0.461463  0.387834  0.750065  1
  Si  Si29  1  0.961250  0.113032  0.749913  1
  Si  Si30  1  0.537806  0.614678  0.250075  1
  Si  Si31  1  0.038301  0.887799  0.249984  1
  Si  Si32  1  0.703220  0.860790  0.749952  1
  Si  Si33  1  0.202564  0.639661  0.750053  1
  Si  Si34  1  0.297058  0.140229  0.249911  1
  Ge  Ge35  1  0.799809  0.355334  0.249986  1
