# generated using pymatgen
data_LuMgCo3P7Ru9
_symmetry_space_group_name_H-M   'P 1'
_cell_length_a   9.30419500
_cell_length_b   9.30419555
_cell_length_c   3.77859300
_cell_angle_alpha   90.00000000
_cell_angle_beta   90.00000000
_cell_angle_gamma   120.00000871
_symmetry_Int_Tables_number   1
_chemical_formula_structural   LuMgCo3P7Ru9
_chemical_formula_sum   'Lu1 Mg1 Co3 P7 Ru9'
_cell_volume   283.28158433
_cell_formula_units_Z   1
loop_
 _symmetry_equiv_pos_site_id
 _symmetry_equiv_pos_as_xyz
  1  'x, y, z'
loop_
 _atom_site_type_symbol
 _atom_site_label
 _atom_site_symmetry_multiplicity
 _atom_site_fract_x
 _atom_site_fract_y
 _atom_site_fract_z
 _atom_site_occupancy
  Lu  Lu0  1  0.333333  0.666667  0.000000  1
  Mg  Mg1  1  0.000000  0.000000  0.500000  1
  Co  Co2  1  0.937004  0.446001  0.000000  1
  Co  Co3  1  0.508996  0.062996  0.000000  1
  Co  Co4  1  0.553999  0.491004  0.000000  1
  P  P5  1  0.966518  0.222907  0.000000  1
  P  P6  1  0.256389  0.033482  0.000000  1
  P  P7  1  0.777093  0.743611  0.000000  1
  P  P8  1  0.067177  0.618912  0.500000  1
  P  P9  1  0.551734  0.932823  0.500000  1
  P  P10  1  0.381088  0.448266  0.500000  1
  P  P11  1  0.666667  0.333333  0.000000  1
  Ru  Ru12  1  0.733275  0.969556  0.000000  1
  Ru  Ru13  1  0.236282  0.266725  0.000000  1
  Ru  Ru14  1  0.030444  0.763718  0.000000  1
  Ru  Ru15  1  0.104891  0.388621  0.500000  1
  Ru  Ru16  1  0.283729  0.895109  0.500000  1
  Ru  Ru17  1  0.611379  0.716271  0.500000  1
  Ru  Ru18  1  0.752602  0.214887  0.500000  1
  Ru  Ru19  1  0.462285  0.247398  0.500000  1
  Ru  Ru20  1  0.785113  0.537715  0.500000  1
