# generated using pymatgen
data_Li4Ta5(MoN4)3
_symmetry_space_group_name_H-M   'P 1'
_cell_length_a   5.14247600
_cell_length_b   5.14227767
_cell_length_c   10.34925200
_cell_angle_alpha   90.00000000
_cell_angle_beta   90.00000000
_cell_angle_gamma   119.99873197
_symmetry_Int_Tables_number   1
_chemical_formula_structural   Li4Ta5(MoN4)3
_chemical_formula_sum   'Li4 Ta5 Mo3 N12'
_cell_volume   237.01342166
_cell_formula_units_Z   1
loop_
 _symmetry_equiv_pos_site_id
 _symmetry_equiv_pos_as_xyz
  1  'x, y, z'
loop_
 _atom_site_type_symbol
 _atom_site_label
 _atom_site_symmetry_multiplicity
 _atom_site_fract_x
 _atom_site_fract_y
 _atom_site_fract_z
 _atom_site_occupancy
  Li  Li0  1  0.333495  0.666403  0.000052  1
  Li  Li1  1  0.333495  0.666403  0.499948  1
  Li  Li2  1  0.666505  0.332907  0.499948  1
  Li  Li3  1  0.666505  0.332907  0.000052  1
  Ta  Ta4  1  0.000000  0.001233  0.497528  1
  Ta  Ta5  1  0.000000  0.001233  0.002472  1
  Ta  Ta6  1  0.655782  0.653959  0.250000  1
  Ta  Ta7  1  0.344218  0.998177  0.250000  1
  Ta  Ta8  1  0.000000  0.659657  0.750000  1
  Mo  Mo9  1  0.000000  0.344817  0.250000  1
  Mo  Mo10  1  0.659620  0.998741  0.750000  1
  Mo  Mo11  1  0.340380  0.339121  0.750000  1
  N  N12  1  0.673807  0.674554  0.624904  1
  N  N13  1  0.673807  0.674554  0.875096  1
  N  N14  1  0.325892  0.325764  0.123128  1
  N  N15  1  0.325892  0.325764  0.376872  1
  N  N16  1  0.326193  0.000747  0.875096  1
  N  N17  1  0.326193  0.000747  0.624904  1
  N  N18  1  0.000000  0.675507  0.376456  1
  N  N19  1  0.000000  0.675507  0.123544  1
  N  N20  1  0.674108  0.999872  0.123128  1
  N  N21  1  0.674108  0.999872  0.376872  1
  N  N22  1  0.000000  0.325777  0.875639  1
  N  N23  1  0.000000  0.325777  0.624361  1
