# generated using pymatgen
data_La5ScRuO12
_symmetry_space_group_name_H-M   'P 1'
_cell_length_a   7.20506679
_cell_length_b   7.20506711
_cell_length_c   7.78385615
_cell_angle_alpha   74.45554044
_cell_angle_beta   74.45553593
_cell_angle_gamma   50.56528284
_symmetry_Int_Tables_number   1
_chemical_formula_structural   La5ScRuO12
_chemical_formula_sum   'La5 Sc1 Ru1 O12'
_cell_volume   298.07136129
_cell_formula_units_Z   1
loop_
 _symmetry_equiv_pos_site_id
 _symmetry_equiv_pos_as_xyz
  1  'x, y, z'
loop_
 _atom_site_type_symbol
 _atom_site_label
 _atom_site_symmetry_multiplicity
 _atom_site_fract_x
 _atom_site_fract_y
 _atom_site_fract_z
 _atom_site_occupancy
  La  La0  1  0.310946  0.301436  0.357679  1
  La  La1  1  0.698564  0.689054  0.642321  1
  La  La2  1  0.688211  0.696961  0.165909  1
  La  La3  1  0.303039  0.311789  0.834091  1
  La  La4  1  0.008936  0.991064  0.500000  1
  Sc  Sc5  1  0.757528  0.242472  0.000000  1
  Ru  Ru6  1  0.242512  0.757488  0.000000  1
  O  O7  1  0.095829  0.596498  0.574029  1
  O  O8  1  0.020165  0.979096  0.176432  1
  O  O9  1  0.403502  0.904171  0.425971  1
  O  O10  1  0.485336  0.517009  0.174222  1
  O  O11  1  0.102556  0.589390  0.078349  1
  O  O12  1  0.908922  0.401344  0.420314  1
  O  O13  1  0.020904  0.979835  0.823568  1
  O  O14  1  0.598656  0.091077  0.579686  1
  O  O15  1  0.482991  0.514664  0.825778  1
  O  O16  1  0.564061  0.103266  0.080933  1
  O  O17  1  0.410610  0.897444  0.921651  1
  O  O18  1  0.896734  0.435939  0.919067  1
