# generated using pymatgen
data_La4Pa(BN3)2
_symmetry_space_group_name_H-M   'P 1'
_cell_length_a   6.49410847
_cell_length_b   6.49410776
_cell_length_c   8.85974766
_cell_angle_alpha   74.59430661
_cell_angle_beta   74.59430845
_cell_angle_gamma   32.57971992
_symmetry_Int_Tables_number   1
_chemical_formula_structural   La4Pa(BN3)2
_chemical_formula_sum   'La4 Pa1 B2 N6'
_cell_volume   193.33900612
_cell_formula_units_Z   1
loop_
 _symmetry_equiv_pos_site_id
 _symmetry_equiv_pos_as_xyz
  1  'x, y, z'
loop_
 _atom_site_type_symbol
 _atom_site_label
 _atom_site_symmetry_multiplicity
 _atom_site_fract_x
 _atom_site_fract_y
 _atom_site_fract_z
 _atom_site_occupancy
  La  La0  1  0.622831  0.622831  0.622360  1
  La  La1  1  0.311114  0.311114  0.814161  1
  La  La2  1  0.688886  0.688886  0.185839  1
  La  La3  1  0.377169  0.377169  0.377640  1
  Pa  Pa4  1  0.000000  0.000000  0.000000  1
  B  B5  1  0.054035  0.054035  0.408441  1
  B  B6  1  0.945965  0.945965  0.591559  1
  N  N7  1  0.026976  0.026976  0.251137  1
  N  N8  1  0.371256  0.371256  0.071781  1
  N  N9  1  0.825745  0.825745  0.594491  1
  N  N10  1  0.973024  0.973024  0.748863  1
  N  N11  1  0.628744  0.628744  0.928219  1
  N  N12  1  0.174255  0.174255  0.405509  1
