# generated using pymatgen
data_SrHo3Al18OsPd5
_symmetry_space_group_name_H-M   'P 1'
_cell_length_a   7.65015460
_cell_length_b   7.65270475
_cell_length_c   9.53113605
_cell_angle_alpha   90.01774163
_cell_angle_beta   90.09899147
_cell_angle_gamma   119.57911098
_symmetry_Int_Tables_number   1
_chemical_formula_structural   SrHo3Al18OsPd5
_chemical_formula_sum   'Sr1 Ho3 Al18 Os1 Pd5'
_cell_volume   485.27259461
_cell_formula_units_Z   1
loop_
 _symmetry_equiv_pos_site_id
 _symmetry_equiv_pos_as_xyz
  1  'x, y, z'
loop_
 _atom_site_type_symbol
 _atom_site_label
 _atom_site_symmetry_multiplicity
 _atom_site_fract_x
 _atom_site_fract_y
 _atom_site_fract_z
 _atom_site_occupancy
  Sr  Sr0  1  0.994785  0.670675  0.249612  1
  Ho  Ho1  1  0.004215  0.330345  0.750800  1
  Ho  Ho2  1  0.670415  0.996380  0.248746  1
  Ho  Ho3  1  0.329608  0.003458  0.751436  1
  Al  Al4  1  0.130433  0.137212  0.249034  1
  Al  Al5  1  0.869969  0.872833  0.750907  1
  Al  Al6  1  0.995726  0.332393  0.070902  1
  Al  Al7  1  0.994826  0.658708  0.921515  1
  Al  Al8  1  0.998850  0.665799  0.582147  1
  Al  Al9  1  0.337035  0.004493  0.425946  1
  Al  Al10  1  0.001545  0.332398  0.427507  1
  Al  Al11  1  0.665000  0.999981  0.578596  1
  Al  Al12  1  0.665889  0.003543  0.923202  1
  Al  Al13  1  0.341950  0.005969  0.071335  1
  Al  Al14  1  0.332899  0.333305  0.562839  1
  Al  Al15  1  0.662727  0.666049  0.447698  1
  Al  Al16  1  0.666030  0.661311  0.046223  1
  Al  Al17  1  0.336108  0.330875  0.943997  1
  Al  Al18  1  0.345863  0.548198  0.249158  1
  Al  Al19  1  0.659120  0.450656  0.753024  1
  Al  Al20  1  0.543598  0.333985  0.245165  1
  Al  Al21  1  0.454279  0.662636  0.750922  1
  Os  Os22  1  0.670169  0.325202  0.997201  1
  Pd  Pd23  1  0.328717  0.671361  0.997958  1
  Pd  Pd24  1  0.327988  0.671970  0.502100  1
  Pd  Pd25  1  0.670437  0.327135  0.502066  1
  Pd  Pd26  1  0.001369  0.001566  0.997941  1
  Pd  Pd27  1  0.000452  0.001565  0.502021  1
