# generated using pymatgen
data_Na2Yb3AgSb3
_symmetry_space_group_name_H-M   'P 1'
_cell_length_a   7.72835400
_cell_length_b   7.91588740
_cell_length_c   4.60871100
_cell_angle_alpha   90.00000000
_cell_angle_beta   90.00000000
_cell_angle_gamma   119.21935376
_symmetry_Int_Tables_number   1
_chemical_formula_structural   Na2Yb3AgSb3
_chemical_formula_sum   'Na2 Yb3 Ag1 Sb3'
_cell_volume   246.07049794
_cell_formula_units_Z   1
loop_
 _symmetry_equiv_pos_site_id
 _symmetry_equiv_pos_as_xyz
  1  'x, y, z'
loop_
 _atom_site_type_symbol
 _atom_site_label
 _atom_site_symmetry_multiplicity
 _atom_site_fract_x
 _atom_site_fract_y
 _atom_site_fract_z
 _atom_site_occupancy
  Na  Na0  1  0.004517  0.241665  0.499999  1
  Na  Na1  1  0.762852  0.758335  0.499999  1
  Yb  Yb2  1  0.549141  0.000000  0.000000  1
  Yb  Yb3  1  0.413143  0.408190  0.000000  1
  Yb  Yb4  1  0.004953  0.591809  0.000000  1
  Ag  Ag5  1  0.253466  0.000000  0.499999  1
  Sb  Sb6  1  0.021937  0.000000  0.000000  1
  Sb  Sb7  1  0.659820  0.329650  0.499999  1
  Sb  Sb8  1  0.330170  0.670350  0.499999  1
