# generated using pymatgen
data_Er5Tm3Re3B24Rh
_symmetry_space_group_name_H-M   'P 1'
_cell_length_a   3.64883700
_cell_length_b   9.11103732
_cell_length_c   11.48444000
_cell_angle_alpha   90.15751157
_cell_angle_beta   90.00000000
_cell_angle_gamma   90.00000000
_symmetry_Int_Tables_number   1
_chemical_formula_structural   Er5Tm3Re3B24Rh
_chemical_formula_sum   'Er5 Tm3 Re3 B24 Rh1'
_cell_volume   381.79520601
_cell_formula_units_Z   1
loop_
 _symmetry_equiv_pos_site_id
 _symmetry_equiv_pos_as_xyz
  1  'x, y, z'
loop_
 _atom_site_type_symbol
 _atom_site_label
 _atom_site_symmetry_multiplicity
 _atom_site_fract_x
 _atom_site_fract_y
 _atom_site_fract_z
 _atom_site_occupancy
  Er  Er0  1  0.000000  0.317823  0.415557  1
  Er  Er1  1  0.000000  0.678573  0.591368  1
  Er  Er2  1  0.000000  0.826911  0.081156  1
  Er  Er3  1  0.000000  0.177840  0.912663  1
  Er  Er4  1  0.000000  0.943280  0.370320  1
  Tm  Tm5  1  0.000000  0.055911  0.628976  1
  Tm  Tm6  1  0.000000  0.441406  0.128630  1
  Tm  Tm7  1  0.000000  0.556676  0.871739  1
  Re  Re8  1  0.000000  0.362432  0.677958  1
  Re  Re9  1  0.000000  0.138763  0.179973  1
  Re  Re10  1  0.000000  0.861473  0.820651  1
  B  B11  1  0.500000  0.553712  0.433959  1
  B  B12  1  0.500000  0.446703  0.566392  1
  B  B13  1  0.500000  0.053548  0.066245  1
  B  B14  1  0.500000  0.947349  0.932779  1
  B  B15  1  0.500000  0.749091  0.420497  1
  B  B16  1  0.500000  0.249868  0.580732  1
  B  B17  1  0.500000  0.250185  0.081012  1
  B  B18  1  0.500000  0.751104  0.919161  1
  B  B19  1  0.500000  0.791152  0.264753  1
  B  B20  1  0.500000  0.207949  0.734310  1
  B  B21  1  0.500000  0.292546  0.235426  1
  B  B22  1  0.500000  0.707669  0.765682  1
  B  B23  1  0.500000  0.631423  0.183581  1
  B  B24  1  0.500000  0.369761  0.814757  1
  B  B25  1  0.500000  0.130687  0.315287  1
  B  B26  1  0.500000  0.868799  0.684930  1
  B  B27  1  0.500000  0.982358  0.211898  1
  B  B28  1  0.500000  0.018094  0.786796  1
  B  B29  1  0.500000  0.482528  0.287778  1
  B  B30  1  0.500000  0.518805  0.712633  1
  B  B31  1  0.500000  0.603076  0.029115  1
  B  B32  1  0.500000  0.398405  0.972349  1
  B  B33  1  0.500000  0.101131  0.471585  1
  B  B34  1  0.500000  0.895587  0.528367  1
  Rh  Rh35  1  0.000000  0.637380  0.320985  1
