# generated using pymatgen
data_Ho6Tm6ZnCo4Pb
_symmetry_space_group_name_H-M   'P 1'
_cell_length_a   8.23994693
_cell_length_b   8.23994667
_cell_length_c   8.24435434
_cell_angle_alpha   112.09809765
_cell_angle_beta   109.30968262
_cell_angle_gamma   107.02294610
_symmetry_Int_Tables_number   1
_chemical_formula_structural   Ho6Tm6ZnCo4Pb
_chemical_formula_sum   'Ho6 Tm6 Zn1 Co4 Pb1'
_cell_volume   430.17908168
_cell_formula_units_Z   1
loop_
 _symmetry_equiv_pos_site_id
 _symmetry_equiv_pos_as_xyz
  1  'x, y, z'
loop_
 _atom_site_type_symbol
 _atom_site_label
 _atom_site_symmetry_multiplicity
 _atom_site_fract_x
 _atom_site_fract_y
 _atom_site_fract_z
 _atom_site_occupancy
  Ho  Ho0  1  0.429948  0.228075  0.200536  1
  Ho  Ho1  1  0.570052  0.771925  0.799464  1
  Ho  Ho2  1  0.027540  0.229413  0.799464  1
  Ho  Ho3  1  0.972460  0.770587  0.200536  1
  Ho  Ho4  1  0.180630  0.283234  0.463863  1
  Ho  Ho5  1  0.819370  0.716766  0.536137  1
  Tm  Tm6  1  0.180961  0.716969  0.897929  1
  Tm  Tm7  1  0.819039  0.283031  0.102071  1
  Tm  Tm8  1  0.323624  0.637106  0.312279  1
  Tm  Tm9  1  0.676376  0.362894  0.687721  1
  Tm  Tm10  1  0.324825  0.011345  0.687721  1
  Tm  Tm11  1  0.675175  0.988655  0.312279  1
  Zn  Zn12  1  0.000000  0.000000  0.000000  1
  Co  Co13  1  0.345721  0.999260  0.344981  1
  Co  Co14  1  0.654279  0.000740  0.655019  1
  Co  Co15  1  0.115144  0.615144  0.500000  1
  Co  Co16  1  0.884856  0.384856  0.500000  1
  Pb  Pb17  1  0.500000  0.500000  0.000000  1
