# generated using pymatgen
data_Dy4Y2VFeB14
_symmetry_space_group_name_H-M   'P 1'
_cell_length_a   8.09658794
_cell_length_b   8.09658913
_cell_length_c   9.34147200
_cell_angle_alpha   90.00000000
_cell_angle_beta   90.00000000
_cell_angle_gamma   155.51321338
_symmetry_Int_Tables_number   1
_chemical_formula_structural   Dy4Y2VFeB14
_chemical_formula_sum   'Dy4 Y2 V1 Fe1 B14'
_cell_volume   253.82042962
_cell_formula_units_Z   1
loop_
 _symmetry_equiv_pos_site_id
 _symmetry_equiv_pos_as_xyz
  1  'x, y, z'
loop_
 _atom_site_type_symbol
 _atom_site_label
 _atom_site_symmetry_multiplicity
 _atom_site_fract_x
 _atom_site_fract_y
 _atom_site_fract_z
 _atom_site_occupancy
  Dy  Dy0  1  0.893931  0.106069  0.441862  1
  Dy  Dy1  1  0.104956  0.895044  0.563212  1
  Dy  Dy2  1  0.893931  0.106069  0.058138  1
  Dy  Dy3  1  0.104956  0.895044  0.936788  1
  Y  Y4  1  0.243775  0.756225  0.250000  1
  Y  Y5  1  0.758325  0.241675  0.750000  1
  V  V6  1  0.052563  0.947437  0.250000  1
  Fe  Fe7  1  0.945521  0.054479  0.750000  1
  B  B8  1  0.727975  0.272025  0.468776  1
  B  B9  1  0.273307  0.726693  0.534853  1
  B  B10  1  0.727975  0.272025  0.031224  1
  B  B11  1  0.273307  0.726693  0.965147  1
  B  B12  1  0.632609  0.367391  0.148782  1
  B  B13  1  0.370844  0.629156  0.846832  1
  B  B14  1  0.632609  0.367391  0.351218  1
  B  B15  1  0.370844  0.629156  0.653168  1
  B  B16  1  0.520521  0.479479  0.093546  1
  B  B17  1  0.478072  0.521928  0.902294  1
  B  B18  1  0.520521  0.479479  0.406454  1
  B  B19  1  0.478072  0.521928  0.597706  1
  B  B20  1  0.457679  0.542321  0.250000  1
  B  B21  1  0.537706  0.462294  0.750000  1
