# generated using pymatgen
data_Ba(CaP)2
_symmetry_space_group_name_H-M   'P 1'
_cell_length_a   4.77901600
_cell_length_b   4.77901701
_cell_length_c   7.87478500
_cell_angle_alpha   90.00000000
_cell_angle_beta   90.00000000
_cell_angle_gamma   119.99997919
_symmetry_Int_Tables_number   1
_chemical_formula_structural   Ba(CaP)2
_chemical_formula_sum   'Ba1 Ca2 P2'
_cell_volume   155.75661082
_cell_formula_units_Z   1
loop_
 _symmetry_equiv_pos_site_id
 _symmetry_equiv_pos_as_xyz
  1  'x, y, z'
loop_
 _atom_site_type_symbol
 _atom_site_label
 _atom_site_symmetry_multiplicity
 _atom_site_fract_x
 _atom_site_fract_y
 _atom_site_fract_z
 _atom_site_occupancy
  Ba  Ba0  1  0.000000  0.000000  0.000000  1
  Ca  Ca1  1  0.333333  0.666667  0.637339  1
  Ca  Ca2  1  0.666667  0.333333  0.362661  1
  P  P3  1  0.666667  0.333333  0.740968  1
  P  P4  1  0.333333  0.666667  0.259032  1
