# generated using pymatgen
data_Zn2FeNi(BiO3)8
_symmetry_space_group_name_H-M   'P 1'
_cell_length_a   4.94208503
_cell_length_b   9.88859107
_cell_length_c   9.96044800
_cell_angle_alpha   90.00001159
_cell_angle_beta   90.00000000
_cell_angle_gamma   90.06394089
_symmetry_Int_Tables_number   1
_chemical_formula_structural   Zn2FeNi(BiO3)8
_chemical_formula_sum   'Zn2 Fe1 Ni1 Bi8 O24'
_cell_volume   486.76935884
_cell_formula_units_Z   1
loop_
 _symmetry_equiv_pos_site_id
 _symmetry_equiv_pos_as_xyz
  1  'x, y, z'
loop_
 _atom_site_type_symbol
 _atom_site_label
 _atom_site_symmetry_multiplicity
 _atom_site_fract_x
 _atom_site_fract_y
 _atom_site_fract_z
 _atom_site_occupancy
  Zn  Zn0  1  0.500049  0.750598  0.500000  1
  Zn  Zn1  1  0.000231  0.999892  0.999999  1
  Fe  Fe2  1  0.999891  0.499856  0.000000  1
  Ni  Ni3  1  0.499520  0.249972  0.500000  1
  Bi  Bi4  1  0.999891  0.000965  0.333507  1
  Bi  Bi5  1  0.000218  0.499005  0.333721  1
  Bi  Bi6  1  0.999891  0.000965  0.666493  1
  Bi  Bi7  1  0.000218  0.499005  0.666279  1
  Bi  Bi8  1  0.501862  0.249156  0.167691  1
  Bi  Bi9  1  0.497993  0.750865  0.167339  1
  Bi  Bi10  1  0.501862  0.249156  0.832309  1
  Bi  Bi11  1  0.497993  0.750864  0.832661  1
  O  O12  1  0.201033  0.399465  0.500000  1
  O  O13  1  0.197866  0.901044  0.500000  1
  O  O14  1  0.304438  0.152580  0.000000  1
  O  O15  1  0.295337  0.647364  0.000000  1
  O  O16  1  0.704249  0.352555  0.000000  1
  O  O17  1  0.696039  0.847407  0.000000  1
  O  O18  1  0.798910  0.100211  0.500000  1
  O  O19  1  0.802302  0.599194  0.500000  1
  O  O20  1  0.187964  0.405757  0.158389  1
  O  O21  1  0.190285  0.904752  0.163765  1
  O  O22  1  0.187964  0.405757  0.841611  1
  O  O23  1  0.190285  0.904752  0.836235  1
  O  O24  1  0.309017  0.156630  0.337274  1
  O  O25  1  0.309780  0.652321  0.334955  1
  O  O26  1  0.309017  0.156630  0.662726  1
  O  O27  1  0.309780  0.652321  0.665046  1
  O  O28  1  0.688211  0.346619  0.336630  1
  O  O29  1  0.693041  0.844366  0.335508  1
  O  O30  1  0.688211  0.346619  0.663370  1
  O  O31  1  0.693042  0.844366  0.664492  1
  O  O32  1  0.809942  0.095986  0.163380  1
  O  O33  1  0.811861  0.593508  0.158692  1
  O  O34  1  0.809942  0.095985  0.836620  1
  O  O35  1  0.811862  0.593509  0.841308  1
