# generated using pymatgen
data_ReIr7Ru
_symmetry_space_group_name_H-M   'P 1'
_cell_length_a   6.11690340
_cell_length_b   6.11690036
_cell_length_c   6.13227465
_cell_angle_alpha   95.72682841
_cell_angle_beta   95.72685738
_cell_angle_gamma   143.12315706
_symmetry_Int_Tables_number   1
_chemical_formula_structural   ReIr7Ru
_chemical_formula_sum   'Re1 Ir7 Ru1'
_cell_volume   130.65896523
_cell_formula_units_Z   1
loop_
 _symmetry_equiv_pos_site_id
 _symmetry_equiv_pos_as_xyz
  1  'x, y, z'
loop_
 _atom_site_type_symbol
 _atom_site_label
 _atom_site_symmetry_multiplicity
 _atom_site_fract_x
 _atom_site_fract_y
 _atom_site_fract_z
 _atom_site_occupancy
  Re  Re0  1  0.001539  0.998462  0.000003  1
  Ir  Ir1  1  0.335594  0.664398  0.999997  1
  Ir  Ir2  1  0.663280  0.662048  0.325330  1
  Ir  Ir3  1  0.329962  0.998595  0.328561  1
  Ir  Ir4  1  0.999149  0.331826  0.330968  1
  Ir  Ir5  1  0.668178  0.000852  0.669031  1
  Ir  Ir6  1  0.001402  0.670032  0.671437  1
  Ir  Ir7  1  0.337949  0.336721  0.674669  1
  Ru  Ru8  1  0.662945  0.337064  0.000003  1
