# generated using pymatgen
data_Dy3Er2Si10P2Ir19
_symmetry_space_group_name_H-M   'P 1'
_cell_length_a   12.83819113
_cell_length_b   12.83819202
_cell_length_c   3.95786300
_cell_angle_alpha   90.00000000
_cell_angle_beta   90.00000000
_cell_angle_gamma   120.14233273
_symmetry_Int_Tables_number   1
_chemical_formula_structural   Dy3Er2Si10P2Ir19
_chemical_formula_sum   'Dy3 Er2 Si10 P2 Ir19'
_cell_volume   564.12379963
_cell_formula_units_Z   1
loop_
 _symmetry_equiv_pos_site_id
 _symmetry_equiv_pos_as_xyz
  1  'x, y, z'
loop_
 _atom_site_type_symbol
 _atom_site_label
 _atom_site_symmetry_multiplicity
 _atom_site_fract_x
 _atom_site_fract_y
 _atom_site_fract_z
 _atom_site_occupancy
  Dy  Dy0  1  0.666572  0.333649  0.000000  1
  Dy  Dy1  1  0.333649  0.666572  0.000000  1
  Dy  Dy2  1  0.812835  0.812835  0.500000  1
  Er  Er3  1  0.186329  0.001217  0.500000  1
  Er  Er4  1  0.001217  0.186329  0.500000  1
  Si  Si5  1  0.686158  0.167387  0.500000  1
  Si  Si6  1  0.832247  0.518482  0.500000  1
  Si  Si7  1  0.480895  0.312820  0.500000  1
  Si  Si8  1  0.167387  0.686158  0.500000  1
  Si  Si9  1  0.518482  0.832247  0.500000  1
  Si  Si10  1  0.312820  0.480895  0.500000  1
  Si  Si11  1  0.633186  0.633186  0.000000  1
  Si  Si12  1  0.366894  0.000178  0.000000  1
  Si  Si13  1  0.000178  0.366894  0.000000  1
  Si  Si14  1  0.178656  0.178656  0.000000  1
  P  P15  1  0.820948  0.001087  0.000000  1
  P  P16  1  0.001087  0.820948  0.000000  1
  Ir  Ir17  1  0.806959  0.179941  0.000000  1
  Ir  Ir18  1  0.820563  0.627043  0.000000  1
  Ir  Ir19  1  0.375155  0.193516  0.000000  1
  Ir  Ir20  1  0.179941  0.806959  0.000000  1
  Ir  Ir21  1  0.627043  0.820563  0.000000  1
  Ir  Ir22  1  0.193516  0.375155  0.000000  1
  Ir  Ir23  1  0.447910  0.447910  0.000000  1
  Ir  Ir24  1  0.552372  0.999025  0.000000  1
  Ir  Ir25  1  0.999025  0.552372  0.000000  1
  Ir  Ir26  1  0.281429  0.281429  0.500000  1
  Ir  Ir27  1  0.721220  0.000419  0.500000  1
  Ir  Ir28  1  0.000419  0.721220  0.500000  1
  Ir  Ir29  1  0.872412  0.359465  0.500000  1
  Ir  Ir30  1  0.640434  0.513007  0.500000  1
  Ir  Ir31  1  0.486990  0.126083  0.500000  1
  Ir  Ir32  1  0.359465  0.872412  0.500000  1
  Ir  Ir33  1  0.513007  0.640434  0.500000  1
  Ir  Ir34  1  0.126083  0.486990  0.500000  1
  Ir  Ir35  1  0.996518  0.996518  0.000000  1
