# generated using pymatgen
data_Na4Mn2Si3O10
_symmetry_space_group_name_H-M   'P 1'
_cell_length_a   5.75485654
_cell_length_b   5.75485723
_cell_length_c   17.46144734
_cell_angle_alpha   82.51244363
_cell_angle_beta   82.51244302
_cell_angle_gamma   61.20942980
_symmetry_Int_Tables_number   1
_chemical_formula_structural   Na4Mn2Si3O10
_chemical_formula_sum   'Na8 Mn4 Si6 O20'
_cell_volume   500.96716482
_cell_formula_units_Z   2
loop_
 _symmetry_equiv_pos_site_id
 _symmetry_equiv_pos_as_xyz
  1  'x, y, z'
loop_
 _atom_site_type_symbol
 _atom_site_label
 _atom_site_symmetry_multiplicity
 _atom_site_fract_x
 _atom_site_fract_y
 _atom_site_fract_z
 _atom_site_occupancy
  Na  Na0  1  0.219322  0.431185  0.242440  1
  Na  Na1  1  0.431185  0.219322  0.742440  1
  Na  Na2  1  0.780678  0.568815  0.757560  1
  Na  Na3  1  0.682832  0.829060  0.937868  1
  Na  Na4  1  0.568815  0.780678  0.257560  1
  Na  Na5  1  0.170940  0.317168  0.562132  1
  Na  Na6  1  0.317168  0.170940  0.062132  1
  Na  Na7  1  0.829060  0.682832  0.437868  1
  Mn  Mn8  1  0.000299  0.808285  0.083139  1
  Mn  Mn9  1  0.808285  0.000299  0.583139  1
  Mn  Mn10  1  0.191715  0.999701  0.416861  1
  Mn  Mn11  1  0.999701  0.191715  0.916861  1
  Si  Si12  1  0.882789  0.117211  0.250000  1
  Si  Si13  1  0.327147  0.538037  0.900338  1
  Si  Si14  1  0.461963  0.672853  0.599662  1
  Si  Si15  1  0.672853  0.461963  0.099662  1
  Si  Si16  1  0.117211  0.882789  0.750000  1
  Si  Si17  1  0.538037  0.327147  0.400338  1
  O  O18  1  0.200773  0.612748  0.812287  1
  O  O19  1  0.080439  0.133701  0.792266  1
  O  O20  1  0.622907  0.517456  0.888195  1
  O  O21  1  0.517456  0.622907  0.388195  1
  O  O22  1  0.781896  0.111924  0.453367  1
  O  O23  1  0.746380  0.668455  0.571040  1
  O  O24  1  0.133701  0.080439  0.292266  1
  O  O25  1  0.387252  0.799227  0.687713  1
  O  O26  1  0.612748  0.200773  0.312287  1
  O  O27  1  0.111924  0.781896  0.953367  1
  O  O28  1  0.331545  0.253620  0.928960  1
  O  O29  1  0.799227  0.387252  0.187713  1
  O  O30  1  0.919561  0.866299  0.207734  1
  O  O31  1  0.253620  0.331545  0.428960  1
  O  O32  1  0.888076  0.218104  0.046633  1
  O  O33  1  0.668455  0.746380  0.071040  1
  O  O34  1  0.218104  0.888076  0.546633  1
  O  O35  1  0.866299  0.919561  0.707734  1
  O  O36  1  0.377093  0.482544  0.111805  1
  O  O37  1  0.482544  0.377093  0.611805  1
