# generated using pymatgen
data_Sm12FeRhI17
_symmetry_space_group_name_H-M   'P 1'
_cell_length_a   9.95998425
_cell_length_b   11.94798975
_cell_length_c   11.96990343
_cell_angle_alpha   93.55665490
_cell_angle_beta   104.83927995
_cell_angle_gamma   114.15049209
_symmetry_Int_Tables_number   1
_chemical_formula_structural   Sm12FeRhI17
_chemical_formula_sum   'Sm12 Fe1 Rh1 I17'
_cell_volume   1233.73955079
_cell_formula_units_Z   1
loop_
 _symmetry_equiv_pos_site_id
 _symmetry_equiv_pos_as_xyz
  1  'x, y, z'
loop_
 _atom_site_type_symbol
 _atom_site_label
 _atom_site_symmetry_multiplicity
 _atom_site_fract_x
 _atom_site_fract_y
 _atom_site_fract_z
 _atom_site_occupancy
  Sm  Sm0  1  0.049460  0.501507  0.317560  1
  Sm  Sm1  1  0.986883  0.809608  0.581155  1
  Sm  Sm2  1  0.652778  0.241108  0.282097  1
  Sm  Sm3  1  0.011371  0.194944  0.411578  1
  Sm  Sm4  1  0.225064  0.670609  0.990131  1
  Sm  Sm5  1  0.258312  0.986324  0.891443  1
  Sm  Sm6  1  0.355384  0.759748  0.715249  1
  Sm  Sm7  1  0.943850  0.489581  0.678060  1
  Sm  Sm8  1  0.748692  0.023345  0.112923  1
  Sm  Sm9  1  0.142972  0.285422  0.151022  1
  Sm  Sm10  1  0.778808  0.326095  0.016827  1
  Sm  Sm11  1  0.848206  0.712817  0.850825  1
  Fe  Fe12  1  0.896003  0.261761  0.213901  1
  Rh  Rh13  1  0.103997  0.738419  0.785805  1
  I  I14  1  0.785532  0.527633  0.419394  1
  I  I15  1  0.645903  0.420638  0.762481  1
  I  I16  1  0.845331  0.898494  0.329062  1
  I  I17  1  0.326182  0.213503  0.367303  1
  I  I18  1  0.153223  0.101870  0.673220  1
  I  I19  1  0.585194  0.051182  0.845560  1
  I  I20  1  0.761433  0.189269  0.539429  1
  I  I21  1  0.552437  0.712112  0.954381  1
  I  I22  1  0.354481  0.579137  0.238177  1
  I  I23  1  0.214284  0.472840  0.580987  1
  I  I24  1  0.054927  0.369775  0.898321  1
  I  I25  1  0.448311  0.287422  0.045278  1
  I  I26  1  0.999541  0.999321  0.999269  1
  I  I27  1  0.238394  0.810254  0.460648  1
  I  I28  1  0.415245  0.948049  0.154307  1
  I  I29  1  0.671794  0.786814  0.632101  1
  I  I30  1  0.946009  0.630398  0.101511  1
