# generated using pymatgen
data_LaU3(PRh)4
_symmetry_space_group_name_H-M   'P 1'
_cell_length_a   4.15153900
_cell_length_b   4.15153818
_cell_length_c   15.10052200
_cell_angle_alpha   90.00000000
_cell_angle_beta   90.00000000
_cell_angle_gamma   120.00001452
_symmetry_Int_Tables_number   1
_chemical_formula_structural   LaU3(PRh)4
_chemical_formula_sum   'La1 U3 P4 Rh4'
_cell_volume   225.39313625
_cell_formula_units_Z   1
loop_
 _symmetry_equiv_pos_site_id
 _symmetry_equiv_pos_as_xyz
  1  'x, y, z'
loop_
 _atom_site_type_symbol
 _atom_site_label
 _atom_site_symmetry_multiplicity
 _atom_site_fract_x
 _atom_site_fract_y
 _atom_site_fract_z
 _atom_site_occupancy
  La  La0  1  0.000000  0.000000  0.500000  1
  U  U1  1  0.000000  0.000000  0.244365  1
  U  U2  1  0.000000  0.000000  0.755635  1
  U  U3  1  0.000000  0.000000  0.000000  1
  P  P4  1  0.333333  0.666667  0.628357  1
  P  P5  1  0.666667  0.333333  0.371643  1
  P  P6  1  0.666667  0.333333  0.112707  1
  P  P7  1  0.333333  0.666667  0.887293  1
  Rh  Rh8  1  0.333333  0.666667  0.134309  1
  Rh  Rh9  1  0.666667  0.333333  0.865691  1
  Rh  Rh10  1  0.666667  0.333333  0.652152  1
  Rh  Rh11  1  0.333333  0.666667  0.347848  1
