# generated using pymatgen
data_Sc4Ga2B4Ir9Os
_symmetry_space_group_name_H-M   'P 1'
_cell_length_a   3.03201600
_cell_length_b   9.46447963
_cell_length_c   9.46448023
_cell_angle_alpha   90.40739760
_cell_angle_beta   90.00000000
_cell_angle_gamma   90.00000000
_symmetry_Int_Tables_number   1
_chemical_formula_structural   Sc4Ga2B4Ir9Os
_chemical_formula_sum   'Sc4 Ga2 B4 Ir9 Os1'
_cell_volume   271.59015273
_cell_formula_units_Z   1
loop_
 _symmetry_equiv_pos_site_id
 _symmetry_equiv_pos_as_xyz
  1  'x, y, z'
loop_
 _atom_site_type_symbol
 _atom_site_label
 _atom_site_symmetry_multiplicity
 _atom_site_fract_x
 _atom_site_fract_y
 _atom_site_fract_z
 _atom_site_occupancy
  Sc  Sc0  1  0.000000  0.174105  0.674105  1
  Sc  Sc1  1  0.000000  0.825895  0.325895  1
  Sc  Sc2  1  0.000000  0.322429  0.177571  1
  Sc  Sc3  1  0.000000  0.677571  0.822429  1
  Ga  Ga4  1  0.000000  0.000000  0.000000  1
  Ga  Ga5  1  0.000000  0.500000  0.500000  1
  B  B6  1  0.000000  0.625531  0.125531  1
  B  B7  1  0.000000  0.374469  0.874469  1
  B  B8  1  0.000000  0.878550  0.621450  1
  B  B9  1  0.000000  0.121450  0.378550  1
  Ir  Ir10  1  0.500000  0.070518  0.215402  1
  Ir  Ir11  1  0.500000  0.929482  0.784598  1
  Ir  Ir12  1  0.500000  0.783031  0.069627  1
  Ir  Ir13  1  0.500000  0.430373  0.716969  1
  Ir  Ir14  1  0.500000  0.216969  0.930373  1
  Ir  Ir15  1  0.500000  0.569627  0.283031  1
  Ir  Ir16  1  0.500000  0.715402  0.570518  1
  Ir  Ir17  1  0.500000  0.284598  0.429482  1
  Ir  Ir18  1  0.500000  0.500000  0.000000  1
  Os  Os19  1  0.500000  0.000000  0.500000  1
