# generated using pymatgen
data_Yb9CdO10
_symmetry_space_group_name_H-M   'P 1'
_cell_length_a   8.87356981
_cell_length_b   8.87357010
_cell_length_c   5.81055772
_cell_angle_alpha   83.73390993
_cell_angle_beta   83.73391848
_cell_angle_gamma   141.77419711
_symmetry_Int_Tables_number   1
_chemical_formula_structural   Yb9CdO10
_chemical_formula_sum   'Yb9 Cd1 O10'
_cell_volume   266.90758997
_cell_formula_units_Z   1
loop_
 _symmetry_equiv_pos_site_id
 _symmetry_equiv_pos_as_xyz
  1  'x, y, z'
loop_
 _atom_site_type_symbol
 _atom_site_label
 _atom_site_symmetry_multiplicity
 _atom_site_fract_x
 _atom_site_fract_y
 _atom_site_fract_z
 _atom_site_occupancy
  Yb  Yb0  1  0.300597  0.699403  0.500000  1
  Yb  Yb1  1  0.599339  0.400661  0.000000  1
  Yb  Yb2  1  0.099555  0.900445  0.500000  1
  Yb  Yb3  1  0.400661  0.599339  0.000000  1
  Yb  Yb4  1  0.201065  0.798935  0.000000  1
  Yb  Yb5  1  0.699403  0.300597  0.500000  1
  Yb  Yb6  1  0.900445  0.099555  0.500000  1
  Yb  Yb7  1  0.798935  0.201065  0.000000  1
  Yb  Yb8  1  0.000000  0.000000  0.000000  1
  Cd  Cd9  1  0.500000  0.500000  0.500000  1
  O  O10  1  0.347703  0.143301  0.754670  1
  O  O11  1  0.550105  0.949092  0.749442  1
  O  O12  1  0.949092  0.550105  0.749442  1
  O  O13  1  0.143301  0.347703  0.754670  1
  O  O14  1  0.449895  0.050908  0.250558  1
  O  O15  1  0.244707  0.244707  0.244692  1
  O  O16  1  0.755293  0.755293  0.755308  1
  O  O17  1  0.856699  0.652297  0.245330  1
  O  O18  1  0.050908  0.449895  0.250558  1
  O  O19  1  0.652297  0.856699  0.245330  1
