# generated using pymatgen
data_Nd11In9PtAu3
_symmetry_space_group_name_H-M   'P 1'
_cell_length_a   13.65926460
_cell_length_b   13.64475583
_cell_length_c   3.82949200
_cell_angle_alpha   90.00000000
_cell_angle_beta   90.00000000
_cell_angle_gamma   111.41813659
_symmetry_Int_Tables_number   1
_chemical_formula_structural   Nd11In9PtAu3
_chemical_formula_sum   'Nd11 In9 Pt1 Au3'
_cell_volume   664.44046033
_cell_formula_units_Z   1
loop_
 _symmetry_equiv_pos_site_id
 _symmetry_equiv_pos_as_xyz
  1  'x, y, z'
loop_
 _atom_site_type_symbol
 _atom_site_label
 _atom_site_symmetry_multiplicity
 _atom_site_fract_x
 _atom_site_fract_y
 _atom_site_fract_z
 _atom_site_occupancy
  Nd  Nd0  1  0.064453  0.414947  0.000000  1
  Nd  Nd1  1  0.935211  0.585512  0.000000  1
  Nd  Nd2  1  0.413810  0.062242  0.000000  1
  Nd  Nd3  1  0.583118  0.929725  0.000000  1
  Nd  Nd4  1  0.629984  0.371181  0.000000  1
  Nd  Nd5  1  0.378624  0.634588  0.000000  1
  Nd  Nd6  1  0.838356  0.159696  0.000000  1
  Nd  Nd7  1  0.162157  0.837433  0.000000  1
  Nd  Nd8  1  0.999902  0.999695  0.000000  1
  Nd  Nd9  1  0.306194  0.306843  0.000000  1
  Nd  Nd10  1  0.688690  0.697296  0.000000  1
  In  In11  1  0.840462  0.366428  0.500000  1
  In  In12  1  0.161513  0.632652  0.500000  1
  In  In13  1  0.366799  0.838442  0.500000  1
  In  In14  1  0.632174  0.158162  0.500000  1
  In  In15  1  0.071475  0.216285  0.500000  1
  In  In16  1  0.926461  0.783632  0.500000  1
  In  In17  1  0.216029  0.071148  0.500000  1
  In  In18  1  0.782629  0.926584  0.500000  1
  In  In19  1  0.500439  0.501918  0.500000  1
  Pt  Pt20  1  0.550277  0.753935  0.500000  1
  Au  Au21  1  0.249346  0.452248  0.500000  1
  Au  Au22  1  0.751650  0.552131  0.500000  1
  Au  Au23  1  0.450245  0.247274  0.500000  1
