# generated using pymatgen
data_SrSm(Sn2Pt)2
_symmetry_space_group_name_H-M   'P 1'
_cell_length_a   9.20287276
_cell_length_b   9.20287279
_cell_length_c   9.58178300
_cell_angle_alpha   90.00000000
_cell_angle_beta   90.00000000
_cell_angle_gamma   150.30044297
_symmetry_Int_Tables_number   1
_chemical_formula_structural   SrSm(Sn2Pt)2
_chemical_formula_sum   'Sr2 Sm2 Sn8 Pt4'
_cell_volume   402.06355815
_cell_formula_units_Z   2
loop_
 _symmetry_equiv_pos_site_id
 _symmetry_equiv_pos_as_xyz
  1  'x, y, z'
loop_
 _atom_site_type_symbol
 _atom_site_label
 _atom_site_symmetry_multiplicity
 _atom_site_fract_x
 _atom_site_fract_y
 _atom_site_fract_z
 _atom_site_occupancy
  Sr  Sr0  1  0.500000  0.500000  0.500000  1
  Sr  Sr1  1  0.500000  0.500000  0.000000  1
  Sm  Sm2  1  0.298236  0.701764  0.250000  1
  Sm  Sm3  1  0.701764  0.298236  0.750000  1
  Sn  Sn4  1  0.911673  0.088327  0.750000  1
  Sn  Sn5  1  0.925091  0.074909  0.250000  1
  Sn  Sn6  1  0.088327  0.911673  0.250000  1
  Sn  Sn7  1  0.074909  0.925091  0.750000  1
  Sn  Sn8  1  0.698865  0.301135  0.406972  1
  Sn  Sn9  1  0.301135  0.698865  0.593028  1
  Sn  Sn10  1  0.301135  0.698865  0.906972  1
  Sn  Sn11  1  0.698865  0.301135  0.093028  1
  Pt  Pt12  1  0.151757  0.848243  0.507655  1
  Pt  Pt13  1  0.848243  0.151757  0.007655  1
  Pt  Pt14  1  0.151757  0.848243  0.992345  1
  Pt  Pt15  1  0.848243  0.151757  0.492345  1
