# generated using pymatgen
data_MgSc5Co2(BIr2)4
_symmetry_space_group_name_H-M   'P 1'
_cell_length_a   3.07319700
_cell_length_b   9.41356000
_cell_length_c   9.41356000
_cell_angle_alpha   90.00000000
_cell_angle_beta   90.00000000
_cell_angle_gamma   90.00000000
_symmetry_Int_Tables_number   1
_chemical_formula_structural   MgSc5Co2(BIr2)4
_chemical_formula_sum   'Mg1 Sc5 Co2 B4 Ir8'
_cell_volume   272.33169596
_cell_formula_units_Z   1
loop_
 _symmetry_equiv_pos_site_id
 _symmetry_equiv_pos_as_xyz
  1  'x, y, z'
loop_
 _atom_site_type_symbol
 _atom_site_label
 _atom_site_symmetry_multiplicity
 _atom_site_fract_x
 _atom_site_fract_y
 _atom_site_fract_z
 _atom_site_occupancy
  Mg  Mg0  1  0.000000  0.000000  0.000000  1
  Sc  Sc1  1  0.000000  0.174629  0.677903  1
  Sc  Sc2  1  0.000000  0.825371  0.322097  1
  Sc  Sc3  1  0.000000  0.322097  0.174629  1
  Sc  Sc4  1  0.000000  0.677903  0.825371  1
  Sc  Sc5  1  0.000000  0.500000  0.500000  1
  Co  Co6  1  0.500000  0.000000  0.500000  1
  Co  Co7  1  0.500000  0.500000  0.000000  1
  B  B8  1  0.000000  0.614782  0.108941  1
  B  B9  1  0.000000  0.385218  0.891059  1
  B  B10  1  0.000000  0.891059  0.614782  1
  B  B11  1  0.000000  0.108941  0.385218  1
  Ir  Ir12  1  0.500000  0.063282  0.226805  1
  Ir  Ir13  1  0.500000  0.936718  0.773195  1
  Ir  Ir14  1  0.500000  0.773195  0.063282  1
  Ir  Ir15  1  0.500000  0.435803  0.729430  1
  Ir  Ir16  1  0.500000  0.226805  0.936718  1
  Ir  Ir17  1  0.500000  0.564197  0.270570  1
  Ir  Ir18  1  0.500000  0.729430  0.564197  1
  Ir  Ir19  1  0.500000  0.270570  0.435803  1
