# generated using pymatgen
data_Tb2Er5Co2Sn23Ru4
_symmetry_space_group_name_H-M   'P 1'
_cell_length_a   9.77373543
_cell_length_b   9.78621887
_cell_length_c   10.06975256
_cell_angle_alpha   90.00000243
_cell_angle_beta   89.96256670
_cell_angle_gamma   120.04226251
_symmetry_Int_Tables_number   1
_chemical_formula_structural   Tb2Er5Co2Sn23Ru4
_chemical_formula_sum   'Tb2 Er5 Co2 Sn23 Ru4'
_cell_volume   833.75740078
_cell_formula_units_Z   1
loop_
 _symmetry_equiv_pos_site_id
 _symmetry_equiv_pos_as_xyz
  1  'x, y, z'
loop_
 _atom_site_type_symbol
 _atom_site_label
 _atom_site_symmetry_multiplicity
 _atom_site_fract_x
 _atom_site_fract_y
 _atom_site_fract_z
 _atom_site_occupancy
  Tb  Tb0  1  0.000791  0.000395  0.000605  1
  Tb  Tb1  1  0.963894  0.481948  0.695186  1
  Er  Er2  1  0.484162  0.518496  0.305437  1
  Er  Er3  1  0.516160  0.481957  0.694456  1
  Er  Er4  1  0.484162  0.965666  0.305437  1
  Er  Er5  1  0.516160  0.034203  0.694456  1
  Er  Er6  1  0.033424  0.516712  0.304025  1
  Co  Co7  1  0.340174  0.170087  0.199143  1
  Co  Co8  1  0.659160  0.829581  0.801057  1
  Sn  Sn9  1  0.349736  0.002410  0.003370  1
  Sn  Sn10  1  0.650501  0.997460  0.996765  1
  Sn  Sn11  1  0.000093  0.349630  0.999883  1
  Sn  Sn12  1  0.000093  0.650463  0.999883  1
  Sn  Sn13  1  0.650501  0.653041  0.996765  1
  Sn  Sn14  1  0.349736  0.347326  0.003370  1
  Sn  Sn15  1  0.336171  0.668086  0.818448  1
  Sn  Sn16  1  0.663900  0.331950  0.181687  1
  Sn  Sn17  1  0.000532  0.000266  0.500000  1
  Sn  Sn18  1  0.779888  0.218548  0.459794  1
  Sn  Sn19  1  0.220440  0.781458  0.539359  1
  Sn  Sn20  1  0.779888  0.561339  0.459794  1
  Sn  Sn21  1  0.220440  0.438983  0.539359  1
  Sn  Sn22  1  0.436478  0.218239  0.453765  1
  Sn  Sn23  1  0.564337  0.782168  0.545978  1
  Sn  Sn24  1  0.332875  0.666438  0.125775  1
  Sn  Sn25  1  0.664123  0.332061  0.875618  1
  Sn  Sn26  1  0.122835  0.887212  0.272496  1
  Sn  Sn27  1  0.877292  0.111784  0.728072  1
  Sn  Sn28  1  0.122835  0.235622  0.272496  1
  Sn  Sn29  1  0.877292  0.765508  0.728072  1
  Sn  Sn30  1  0.760635  0.880317  0.274378  1
  Sn  Sn31  1  0.240136  0.120068  0.725286  1
  Ru  Ru32  1  0.830388  0.168631  0.200517  1
  Ru  Ru33  1  0.170191  0.832175  0.799375  1
  Ru  Ru34  1  0.830388  0.661757  0.200517  1
  Ru  Ru35  1  0.170191  0.338016  0.799375  1
