# generated using pymatgen
data_La10GaSi4Pb
_symmetry_space_group_name_H-M   'P 1'
_cell_length_a   7.93491183
_cell_length_b   7.93491137
_cell_length_c   9.29506700
_cell_angle_alpha   115.26685319
_cell_angle_beta   115.26685163
_cell_angle_gamma   89.99999514
_symmetry_Int_Tables_number   1
_chemical_formula_structural   La10GaSi4Pb
_chemical_formula_sum   'La10 Ga1 Si4 Pb1'
_cell_volume   466.59161558
_cell_formula_units_Z   1
loop_
 _symmetry_equiv_pos_site_id
 _symmetry_equiv_pos_as_xyz
  1  'x, y, z'
loop_
 _atom_site_type_symbol
 _atom_site_label
 _atom_site_symmetry_multiplicity
 _atom_site_fract_x
 _atom_site_fract_y
 _atom_site_fract_z
 _atom_site_occupancy
  La  La0  1  0.518695  0.518695  0.037391  1
  La  La1  1  0.981305  0.981305  0.962609  1
  La  La2  1  0.970292  0.822959  0.279508  1
  La  La3  1  0.309215  0.456548  0.279508  1
  La  La4  1  0.822959  0.309215  0.279508  1
  La  La5  1  0.456548  0.970292  0.279508  1
  La  La6  1  0.043452  0.190785  0.720492  1
  La  La7  1  0.677041  0.529708  0.720492  1
  La  La8  1  0.190785  0.677041  0.720492  1
  La  La9  1  0.529708  0.043452  0.720492  1
  Ga  Ga10  1  0.250000  0.250000  0.500000  1
  Si  Si11  1  0.613959  0.886041  0.000000  1
  Si  Si12  1  0.386041  0.113959  0.000000  1
  Si  Si13  1  0.886041  0.386041  0.000000  1
  Si  Si14  1  0.113959  0.613959  0.000000  1
  Pb  Pb15  1  0.750000  0.750000  0.500000  1
