# generated using pymatgen
data_Sm7Th(Sc3Pt4)4
_symmetry_space_group_name_H-M   'P 1'
_cell_length_a   7.52533109
_cell_length_b   7.45112671
_cell_length_c   13.78727617
_cell_angle_alpha   89.89291804
_cell_angle_beta   89.95309088
_cell_angle_gamma   90.04010991
_symmetry_Int_Tables_number   1
_chemical_formula_structural   Sm7Th(Sc3Pt4)4
_chemical_formula_sum   'Sm7 Th1 Sc12 Pt16'
_cell_volume   773.08104583
_cell_formula_units_Z   1
loop_
 _symmetry_equiv_pos_site_id
 _symmetry_equiv_pos_as_xyz
  1  'x, y, z'
loop_
 _atom_site_type_symbol
 _atom_site_label
 _atom_site_symmetry_multiplicity
 _atom_site_fract_x
 _atom_site_fract_y
 _atom_site_fract_z
 _atom_site_occupancy
  Sm  Sm0  1  0.989918  0.825928  0.902508  1
  Sm  Sm1  1  0.489915  0.673460  0.902870  1
  Sm  Sm2  1  0.989551  0.826264  0.596741  1
  Sm  Sm3  1  0.510234  0.326790  0.097049  1
  Sm  Sm4  1  0.010503  0.173771  0.403306  1
  Sm  Sm5  1  0.510262  0.326009  0.403480  1
  Sm  Sm6  1  0.489650  0.673703  0.596917  1
  Th  Th7  1  0.011587  0.174911  0.097562  1
  Sc  Sc8  1  0.164639  0.496724  0.749799  1
  Sc  Sc9  1  0.834276  0.504215  0.250553  1
  Sc  Sc10  1  0.337092  0.995954  0.250523  1
  Sc  Sc11  1  0.664549  0.003170  0.749902  1
  Sc  Sc12  1  0.332181  0.164318  0.624294  1
  Sc  Sc13  1  0.667257  0.835597  0.375993  1
  Sc  Sc14  1  0.168133  0.664201  0.376083  1
  Sc  Sc15  1  0.666829  0.834842  0.124370  1
  Sc  Sc16  1  0.832419  0.335751  0.624140  1
  Sc  Sc17  1  0.332716  0.163852  0.875687  1
  Sc  Sc18  1  0.831471  0.336366  0.874865  1
  Sc  Sc19  1  0.167934  0.664189  0.124171  1
  Pt  Pt20  1  0.032390  0.132637  0.749959  1
  Pt  Pt21  1  0.967766  0.868056  0.249420  1
  Pt  Pt22  1  0.467188  0.632530  0.250139  1
  Pt  Pt23  1  0.532280  0.367282  0.749855  1
  Pt  Pt24  1  0.293069  0.861315  0.749983  1
  Pt  Pt25  1  0.707825  0.139789  0.249604  1
  Pt  Pt26  1  0.205957  0.360411  0.249007  1
  Pt  Pt27  1  0.793098  0.638716  0.749924  1
  Pt  Pt28  1  0.167959  0.456023  0.544814  1
  Pt  Pt29  1  0.831918  0.544359  0.455000  1
  Pt  Pt30  1  0.332026  0.956066  0.455042  1
  Pt  Pt31  1  0.832405  0.542907  0.045169  1
  Pt  Pt32  1  0.667730  0.043963  0.544992  1
  Pt  Pt33  1  0.167527  0.454059  0.955629  1
  Pt  Pt34  1  0.669687  0.044228  0.955754  1
  Pt  Pt35  1  0.330062  0.957639  0.044899  1
