# generated using pymatgen
data_Dy3Er3Al24CuRu7
_symmetry_space_group_name_H-M   'P 1'
_cell_length_a   8.80588300
_cell_length_b   8.80576941
_cell_length_c   9.52582505
_cell_angle_alpha   89.88202947
_cell_angle_beta   90.00000000
_cell_angle_gamma   120.00042294
_symmetry_Int_Tables_number   1
_chemical_formula_structural   Dy3Er3Al24CuRu7
_chemical_formula_sum   'Dy3 Er3 Al24 Cu1 Ru7'
_cell_volume   639.69119719
_cell_formula_units_Z   1
loop_
 _symmetry_equiv_pos_site_id
 _symmetry_equiv_pos_as_xyz
  1  'x, y, z'
loop_
 _atom_site_type_symbol
 _atom_site_label
 _atom_site_symmetry_multiplicity
 _atom_site_fract_x
 _atom_site_fract_y
 _atom_site_fract_z
 _atom_site_occupancy
  Dy  Dy0  1  0.808377  0.192456  0.749710  1
  Dy  Dy1  1  0.805753  0.611506  0.752334  1
  Dy  Dy2  1  0.384080  0.192456  0.749710  1
  Er  Er3  1  0.192057  0.806497  0.250062  1
  Er  Er4  1  0.195106  0.390211  0.247698  1
  Er  Er5  1  0.614439  0.806497  0.250062  1
  Al  Al6  1  0.561603  0.439776  0.250553  1
  Al  Al7  1  0.560947  0.121895  0.249740  1
  Al  Al8  1  0.878172  0.439776  0.250553  1
  Al  Al9  1  0.437994  0.560561  0.749362  1
  Al  Al10  1  0.438541  0.877081  0.750867  1
  Al  Al11  1  0.122567  0.560561  0.749362  1
  Al  Al12  1  0.324304  0.167584  0.420138  1
  Al  Al13  1  0.843279  0.167584  0.420138  1
  Al  Al14  1  0.836932  0.673865  0.421300  1
  Al  Al15  1  0.675180  0.832297  0.578348  1
  Al  Al16  1  0.157117  0.832297  0.578348  1
  Al  Al17  1  0.163377  0.326752  0.577109  1
  Al  Al18  1  0.673656  0.837287  0.924623  1
  Al  Al19  1  0.163631  0.837287  0.924623  1
  Al  Al20  1  0.163236  0.326473  0.922704  1
  Al  Al21  1  0.325804  0.162276  0.076847  1
  Al  Al22  1  0.836471  0.162276  0.076847  1
  Al  Al23  1  0.836943  0.673885  0.078768  1
  Al  Al24  1  0.668103  0.336206  0.518298  1
  Al  Al25  1  0.332221  0.664443  0.479784  1
  Al  Al26  1  0.333837  0.667673  0.019336  1
  Al  Al27  1  0.666081  0.332162  0.982154  1
  Al  Al28  1  0.999428  0.998858  0.249716  1
  Al  Al29  1  0.000585  0.001170  0.750217  1
  Cu  Cu30  1  0.500110  0.000219  0.500193  1
  Ru  Ru31  1  0.999987  0.999974  0.499960  1
  Ru  Ru32  1  0.999969  0.999939  0.999974  1
  Ru  Ru33  1  0.499721  0.500316  0.499378  1
  Ru  Ru34  1  0.000595  0.500316  0.499378  1
  Ru  Ru35  1  0.499651  0.500115  0.000556  1
  Ru  Ru36  1  0.499679  0.999359  0.000689  1
  Ru  Ru37  1  0.000465  0.500115  0.000556  1
