# generated using pymatgen
data_Ce5Dy3(AlRh)8
_symmetry_space_group_name_H-M   'P 1'
_cell_length_a   4.20144700
_cell_length_b   7.05501270
_cell_length_c   15.87960371
_cell_angle_alpha   89.59836846
_cell_angle_beta   90.00000000
_cell_angle_gamma   90.00000000
_symmetry_Int_Tables_number   1
_chemical_formula_structural   Ce5Dy3(AlRh)8
_chemical_formula_sum   'Ce5 Dy3 Al8 Rh8'
_cell_volume   470.67992900
_cell_formula_units_Z   1
loop_
 _symmetry_equiv_pos_site_id
 _symmetry_equiv_pos_as_xyz
  1  'x, y, z'
loop_
 _atom_site_type_symbol
 _atom_site_label
 _atom_site_symmetry_multiplicity
 _atom_site_fract_x
 _atom_site_fract_y
 _atom_site_fract_z
 _atom_site_occupancy
  Ce  Ce0  1  0.750000  0.343506  0.059803  1
  Ce  Ce1  1  0.250000  0.028989  0.779542  1
  Ce  Ce2  1  0.750000  0.972540  0.220862  1
  Ce  Ce3  1  0.250000  0.527616  0.719926  1
  Ce  Ce4  1  0.750000  0.473901  0.280098  1
  Dy  Dy5  1  0.250000  0.156455  0.558892  1
  Dy  Dy6  1  0.750000  0.844508  0.440899  1
  Dy  Dy7  1  0.250000  0.657076  0.939327  1
  Al  Al8  1  0.250000  0.140246  0.352756  1
  Al  Al9  1  0.750000  0.860322  0.647337  1
  Al  Al10  1  0.250000  0.642813  0.149620  1
  Al  Al11  1  0.750000  0.359118  0.851878  1
  Al  Al12  1  0.250000  0.999474  0.061795  1
  Al  Al13  1  0.750000  0.991676  0.938827  1
  Al  Al14  1  0.250000  0.508357  0.438740  1
  Al  Al15  1  0.750000  0.491721  0.560557  1
  Rh  Rh16  1  0.750000  0.276200  0.426765  1
  Rh  Rh17  1  0.250000  0.724278  0.572087  1
  Rh  Rh18  1  0.750000  0.772309  0.072772  1
  Rh  Rh19  1  0.250000  0.224550  0.929191  1
  Rh  Rh20  1  0.750000  0.740795  0.815710  1
  Rh  Rh21  1  0.250000  0.260427  0.181512  1
  Rh  Rh22  1  0.750000  0.240303  0.686058  1
  Rh  Rh23  1  0.250000  0.762818  0.315047  1
