# generated using pymatgen
data_DyYSc3Si7Pt9
_symmetry_space_group_name_H-M   'P 1'
_cell_length_a   10.05612100
_cell_length_b   10.05612053
_cell_length_c   3.97839500
_cell_angle_alpha   90.00000000
_cell_angle_beta   90.00000000
_cell_angle_gamma   119.99999824
_symmetry_Int_Tables_number   1
_chemical_formula_structural   DyYSc3Si7Pt9
_chemical_formula_sum   'Dy1 Y1 Sc3 Si7 Pt9'
_cell_volume   348.41713105
_cell_formula_units_Z   1
loop_
 _symmetry_equiv_pos_site_id
 _symmetry_equiv_pos_as_xyz
  1  'x, y, z'
loop_
 _atom_site_type_symbol
 _atom_site_label
 _atom_site_symmetry_multiplicity
 _atom_site_fract_x
 _atom_site_fract_y
 _atom_site_fract_z
 _atom_site_occupancy
  Dy  Dy0  1  0.333333  0.666667  0.500000  1
  Y  Y1  1  0.000000  0.000000  0.000000  1
  Sc  Sc2  1  0.895122  0.456505  0.500000  1
  Sc  Sc3  1  0.561383  0.104878  0.500000  1
  Sc  Sc4  1  0.543495  0.438617  0.500000  1
  Si  Si5  1  0.245487  0.194564  0.500000  1
  Si  Si6  1  0.805436  0.050924  0.500000  1
  Si  Si7  1  0.949076  0.754513  0.500000  1
  Si  Si8  1  0.556805  0.647263  0.000000  1
  Si  Si9  1  0.352737  0.909540  0.000000  1
  Si  Si10  1  0.090460  0.443195  0.000000  1
  Si  Si11  1  0.666667  0.333333  0.000000  1
  Pt  Pt12  1  0.218922  0.935827  0.500000  1
  Pt  Pt13  1  0.064173  0.283095  0.500000  1
  Pt  Pt14  1  0.716905  0.781078  0.500000  1
  Pt  Pt15  1  0.314528  0.413562  0.000000  1
  Pt  Pt16  1  0.586438  0.900966  0.000000  1
  Pt  Pt17  1  0.099034  0.685472  0.000000  1
  Pt  Pt18  1  0.383734  0.171684  0.000000  1
  Pt  Pt19  1  0.828316  0.212051  0.000000  1
  Pt  Pt20  1  0.787949  0.616266  0.000000  1
