# generated using pymatgen
data_NdPa3TlInRh4
_symmetry_space_group_name_H-M   'P 1'
_cell_length_a   7.80234293
_cell_length_b   7.78514409
_cell_length_c   3.62309400
_cell_angle_alpha   90.00000000
_cell_angle_beta   90.00000000
_cell_angle_gamma   92.61750553
_symmetry_Int_Tables_number   1
_chemical_formula_structural   NdPa3TlInRh4
_chemical_formula_sum   'Nd1 Pa3 Tl1 In1 Rh4'
_cell_volume   219.84568186
_cell_formula_units_Z   1
loop_
 _symmetry_equiv_pos_site_id
 _symmetry_equiv_pos_as_xyz
  1  'x, y, z'
loop_
 _atom_site_type_symbol
 _atom_site_label
 _atom_site_symmetry_multiplicity
 _atom_site_fract_x
 _atom_site_fract_y
 _atom_site_fract_z
 _atom_site_occupancy
  Nd  Nd0  1  0.168422  0.326911  0.500000  1
  Pa  Pa1  1  0.674495  0.166943  0.500000  1
  Pa  Pa2  1  0.324063  0.835128  0.500000  1
  Pa  Pa3  1  0.832254  0.673788  0.500000  1
  Tl  Tl4  1  0.492600  0.501550  0.000000  1
  In  In5  1  0.000012  0.005536  0.000000  1
  Rh  Rh6  1  0.388185  0.103915  0.000000  1
  Rh  Rh7  1  0.122205  0.656401  0.000000  1
  Rh  Rh8  1  0.848544  0.369175  0.000000  1
  Rh  Rh9  1  0.649219  0.860653  0.000000  1
