# generated using pymatgen
data_Dy2Tm3V3(P3Ir4)4
_symmetry_space_group_name_H-M   'P 1'
_cell_length_a   12.66008700
_cell_length_b   12.66015488
_cell_length_c   3.94752500
_cell_angle_alpha   90.00000000
_cell_angle_beta   90.00000000
_cell_angle_gamma   120.00017419
_symmetry_Int_Tables_number   1
_chemical_formula_structural   Dy2Tm3V3(P3Ir4)4
_chemical_formula_sum   'Dy2 Tm3 V3 P12 Ir16'
_cell_volume   547.93679800
_cell_formula_units_Z   1
loop_
 _symmetry_equiv_pos_site_id
 _symmetry_equiv_pos_as_xyz
  1  'x, y, z'
loop_
 _atom_site_type_symbol
 _atom_site_label
 _atom_site_symmetry_multiplicity
 _atom_site_fract_x
 _atom_site_fract_y
 _atom_site_fract_z
 _atom_site_occupancy
  Dy  Dy0  1  0.188493  0.188501  0.000000  1
  Dy  Dy1  1  0.811507  0.000008  0.000000  1
  Tm  Tm2  1  0.333329  0.666649  0.500000  1
  Tm  Tm3  1  0.666671  0.333319  0.500000  1
  Tm  Tm4  1  0.000000  0.811471  0.000000  1
  V  V5  1  0.000000  0.451155  0.500000  1
  V  V6  1  0.549079  0.549053  0.500000  1
  V  V7  1  0.450921  0.999974  0.500000  1
  P  P8  1  0.000000  0.636374  0.500000  1
  P  P9  1  0.364046  0.364065  0.500000  1
  P  P10  1  0.635954  0.000019  0.500000  1
  P  P11  1  0.516366  0.683755  0.000000  1
  P  P12  1  0.316315  0.832537  0.000000  1
  P  P13  1  0.167404  0.483727  0.000000  1
  P  P14  1  0.483634  0.167390  0.000000  1
  P  P15  1  0.683685  0.516223  0.000000  1
  P  P16  1  0.832596  0.316324  0.000000  1
  P  P17  1  0.000000  0.177035  0.500000  1
  P  P18  1  0.823059  0.822716  0.500000  1
  P  P19  1  0.176941  0.999657  0.500000  1
  Ir  Ir20  1  0.508749  0.866630  0.000000  1
  Ir  Ir21  1  0.133421  0.642239  0.000000  1
  Ir  Ir22  1  0.357911  0.491309  0.000000  1
  Ir  Ir23  1  0.491251  0.357880  0.000000  1
  Ir  Ir24  1  0.866579  0.508817  0.000000  1
  Ir  Ir25  1  0.642089  0.133397  0.000000  1
  Ir  Ir26  1  0.000000  0.285333  0.000000  1
  Ir  Ir27  1  0.715006  0.714753  0.000000  1
  Ir  Ir28  1  0.284994  0.999747  0.000000  1
  Ir  Ir29  1  0.625056  0.803803  0.500000  1
  Ir  Ir30  1  0.195162  0.821070  0.500000  1
  Ir  Ir31  1  0.178791  0.374957  0.500000  1
  Ir  Ir32  1  0.374944  0.178747  0.500000  1
  Ir  Ir33  1  0.804838  0.625907  0.500000  1
  Ir  Ir34  1  0.821209  0.196166  0.500000  1
  Ir  Ir35  1  0.000000  0.999295  0.500000  1
