# generated using pymatgen
data_Sr3PrPt6O19
_symmetry_space_group_name_H-M   'P 1'
_cell_length_a   8.05961992
_cell_length_b   8.05962010
_cell_length_c   8.05989700
_cell_angle_alpha   109.47191407
_cell_angle_beta   109.47191453
_cell_angle_gamma   109.47052203
_symmetry_Int_Tables_number   1
_chemical_formula_structural   Sr3PrPt6O19
_chemical_formula_sum   'Sr3 Pr1 Pt6 O19'
_cell_volume   403.02598020
_cell_formula_units_Z   1
loop_
 _symmetry_equiv_pos_site_id
 _symmetry_equiv_pos_as_xyz
  1  'x, y, z'
loop_
 _atom_site_type_symbol
 _atom_site_label
 _atom_site_symmetry_multiplicity
 _atom_site_fract_x
 _atom_site_fract_y
 _atom_site_fract_z
 _atom_site_occupancy
  Sr  Sr0  1  0.694464  0.693404  0.695567  1
  Sr  Sr1  1  0.306596  0.001060  0.002163  1
  Sr  Sr2  1  0.998940  0.305536  0.001103  1
  Pr  Pr3  1  0.000000  0.000000  0.305181  1
  Pt  Pt4  1  0.340798  0.840520  0.499180  1
  Pt  Pt5  1  0.661279  0.160582  0.499867  1
  Pt  Pt6  1  0.839418  0.500697  0.339286  1
  Pt  Pt7  1  0.159480  0.500278  0.658660  1
  Pt  Pt8  1  0.499303  0.338721  0.838588  1
  Pt  Pt9  1  0.499722  0.659202  0.158382  1
  O  O10  1  0.649804  0.648685  0.001636  1
  O  O11  1  0.352134  0.352219  0.998358  1
  O  O12  1  0.647781  0.999915  0.646138  1
  O  O13  1  0.351315  0.001119  0.352951  1
  O  O14  1  0.000085  0.647866  0.646223  1
  O  O15  1  0.998881  0.350196  0.351832  1
  O  O16  1  0.000000  0.000000  0.028291  1
  O  O17  1  0.341918  0.618797  0.299034  1
  O  O18  1  0.662804  0.959514  0.275094  1
  O  O19  1  0.682582  0.380664  0.723522  1
  O  O20  1  0.619336  0.301917  0.342858  1
  O  O21  1  0.311883  0.040147  0.693985  1
  O  O22  1  0.959853  0.271736  0.653838  1
  O  O23  1  0.381203  0.723121  0.680238  1
  O  O24  1  0.040486  0.703290  0.315579  1
  O  O25  1  0.296710  0.337196  0.612289  1
  O  O26  1  0.728263  0.688117  0.382101  1
  O  O27  1  0.698083  0.317418  0.040941  1
  O  O28  1  0.276878  0.658082  0.957116  1
