# generated using pymatgen
data_Yb16YPa3Pt16
_symmetry_space_group_name_H-M   'P 1'
_cell_length_a   7.52375990
_cell_length_b   7.61274485
_cell_length_c   14.57555751
_cell_angle_alpha   90.11999801
_cell_angle_beta   90.08873358
_cell_angle_gamma   90.09784416
_symmetry_Int_Tables_number   1
_chemical_formula_structural   Yb16YPa3Pt16
_chemical_formula_sum   'Yb16 Y1 Pa3 Pt16'
_cell_volume   834.83234745
_cell_formula_units_Z   1
loop_
 _symmetry_equiv_pos_site_id
 _symmetry_equiv_pos_as_xyz
  1  'x, y, z'
loop_
 _atom_site_type_symbol
 _atom_site_label
 _atom_site_symmetry_multiplicity
 _atom_site_fract_x
 _atom_site_fract_y
 _atom_site_fract_z
 _atom_site_occupancy
  Yb  Yb0  1  0.351684  0.833653  0.379225  1
  Yb  Yb1  1  0.853723  0.664964  0.120541  1
  Yb  Yb2  1  0.645409  0.166001  0.880201  1
  Yb  Yb3  1  0.146459  0.331197  0.620818  1
  Yb  Yb4  1  0.490157  0.672784  0.593117  1
  Yb  Yb5  1  0.989613  0.824735  0.906021  1
  Yb  Yb6  1  0.510851  0.325612  0.096412  1
  Yb  Yb7  1  0.008166  0.181347  0.404479  1
  Yb  Yb8  1  0.506022  0.319260  0.404126  1
  Yb  Yb9  1  0.999609  0.183516  0.097062  1
  Yb  Yb10  1  0.498698  0.684116  0.904475  1
  Yb  Yb11  1  0.997515  0.813201  0.593198  1
  Yb  Yb12  1  0.807397  0.511739  0.749176  1
  Yb  Yb13  1  0.306863  0.985728  0.750705  1
  Yb  Yb14  1  0.186652  0.489318  0.250932  1
  Yb  Yb15  1  0.694884  0.008952  0.252002  1
  Y  Y16  1  0.852688  0.659185  0.376687  1
  Pa  Pa17  1  0.649804  0.153419  0.624305  1
  Pa  Pa18  1  0.150402  0.345358  0.876377  1
  Pa  Pa19  1  0.348111  0.846222  0.123813  1
  Pt  Pt20  1  0.700677  0.964663  0.465054  1
  Pt  Pt21  1  0.206380  0.548649  0.036110  1
  Pt  Pt22  1  0.291662  0.051775  0.964019  1
  Pt  Pt23  1  0.797613  0.443248  0.542172  1
  Pt  Pt24  1  0.333669  0.035225  0.546737  1
  Pt  Pt25  1  0.837711  0.461819  0.953930  1
  Pt  Pt26  1  0.660564  0.959170  0.045149  1
  Pt  Pt27  1  0.174664  0.531599  0.456199  1
  Pt  Pt28  1  0.448067  0.369022  0.744026  1
  Pt  Pt29  1  0.948945  0.129460  0.758000  1
  Pt  Pt30  1  0.545839  0.628387  0.240276  1
  Pt  Pt31  1  0.060446  0.876685  0.248584  1
  Pt  Pt32  1  0.681877  0.871479  0.742179  1
  Pt  Pt33  1  0.180305  0.626496  0.757684  1
  Pt  Pt34  1  0.327978  0.133451  0.244096  1
  Pt  Pt35  1  0.808895  0.368568  0.252114  1
