# generated using pymatgen
data_Fe7Ni(SeO3)8
_symmetry_space_group_name_H-M   'P 1'
_cell_length_a   9.53980350
_cell_length_b   9.53980387
_cell_length_c   15.30138800
_cell_angle_alpha   72.67401803
_cell_angle_beta   72.67401735
_cell_angle_gamma   64.59910450
_symmetry_Int_Tables_number   1
_chemical_formula_structural   Fe7Ni(SeO3)8
_chemical_formula_sum   'Fe14 Ni2 Se16 O48'
_cell_volume   1177.26620028
_cell_formula_units_Z   2
loop_
 _symmetry_equiv_pos_site_id
 _symmetry_equiv_pos_as_xyz
  1  'x, y, z'
loop_
 _atom_site_type_symbol
 _atom_site_label
 _atom_site_symmetry_multiplicity
 _atom_site_fract_x
 _atom_site_fract_y
 _atom_site_fract_z
 _atom_site_occupancy
  Fe  Fe0  1  0.049520  0.814663  0.532166  1
  Fe  Fe1  1  0.588604  0.878156  0.582949  1
  Fe  Fe2  1  0.676258  0.873538  0.240867  1
  Fe  Fe3  1  0.631462  0.888448  0.908486  1
  Fe  Fe4  1  0.322097  0.127527  0.757520  1
  Fe  Fe5  1  0.891709  0.630953  0.407656  1
  Fe  Fe6  1  0.873349  0.674797  0.743797  1
  Fe  Fe7  1  0.120457  0.410944  0.919230  1
  Fe  Fe8  1  0.186669  0.951129  0.969188  1
  Fe  Fe9  1  0.410790  0.122688  0.415608  1
  Fe  Fe10  1  0.111505  0.369792  0.591726  1
  Fe  Fe11  1  0.946662  0.187740  0.466004  1
  Fe  Fe12  1  0.370884  0.104852  0.092538  1
  Fe  Fe13  1  0.129195  0.323210  0.255050  1
  Ni  Ni14  1  0.877399  0.592094  0.083635  1
  Ni  Ni15  1  0.815508  0.049334  0.032995  1
  Se  Se16  1  0.796401  0.032390  0.362712  1
  Se  Se17  1  0.286556  0.941106  0.347109  1
  Se  Se18  1  0.712003  0.059753  0.653148  1
  Se  Se19  1  0.241110  0.511158  0.394981  1
  Se  Se20  1  0.200811  0.970131  0.635838  1
  Se  Se21  1  0.963677  0.206196  0.135950  1
  Se  Se22  1  0.056294  0.712423  0.150499  1
  Se  Se23  1  0.480080  0.712275  0.817531  1
  Se  Se24  1  0.762248  0.489370  0.603621  1
  Se  Se25  1  0.287397  0.520273  0.684044  1
  Se  Se26  1  0.029799  0.797294  0.868773  1
  Se  Se27  1  0.936534  0.286074  0.851434  1
  Se  Se28  1  0.714056  0.482550  0.315347  1
  Se  Se29  1  0.513508  0.236607  0.898615  1
  Se  Se30  1  0.494681  0.754250  0.103616  1
  Se  Se31  1  0.521658  0.287505  0.178632  1
  O  O32  1  0.940490  0.470077  0.846660  1
  O  O33  1  0.282344  0.487883  0.800232  1
  O  O34  1  0.184905  0.134078  0.377410  1
  O  O35  1  0.676507  0.709266  0.026867  1
  O  O36  1  0.713996  0.672645  0.527437  1
  O  O37  1  0.883068  0.498714  0.665565  1
  O  O38  1  0.636095  0.024739  0.451463  1
  O  O39  1  0.393369  0.910590  0.021842  1
  O  O40  1  0.131093  0.183386  0.880634  1
  O  O41  1  0.612230  0.079257  0.980987  1
  O  O42  1  0.329179  0.284268  0.973573  1
  O  O43  1  0.503748  0.116814  0.836155  1
  O  O44  1  0.138270  0.153190  0.173821  1
  O  O45  1  0.969234  0.369240  0.048779  1
  O  O46  1  0.359885  0.250153  0.175376  1
  O  O47  1  0.050243  0.018372  0.578064  1
  O  O48  1  0.919420  0.391007  0.521615  1
  O  O49  1  0.895981  0.332756  0.334084  1
  O  O50  1  0.021671  0.636210  0.957023  1
  O  O51  1  0.511482  0.715130  0.701632  1
  O  O52  1  0.493015  0.282777  0.294511  1
  O  O53  1  0.119329  0.502155  0.333595  1
  O  O54  1  0.361942  0.978022  0.547847  1
  O  O55  1  0.103869  0.667690  0.666939  1
  O  O56  1  0.947638  0.986064  0.419500  1
  O  O57  1  0.722980  0.516265  0.198297  1
  O  O58  1  0.642049  0.748264  0.822330  1
  O  O59  1  0.528306  0.056229  0.656628  1
  O  O60  1  0.729322  0.198244  0.555298  1
  O  O61  1  0.332098  0.895469  0.834165  1
  O  O62  1  0.085691  0.609824  0.477508  1
  O  O63  1  0.800830  0.267964  0.950993  1
  O  O64  1  0.670573  0.104303  0.160852  1
  O  O65  1  0.846448  0.860182  0.323135  1
  O  O66  1  0.748144  0.642667  0.323343  1
  O  O67  1  0.151238  0.141574  0.676185  1
  O  O68  1  0.861132  0.846368  0.826156  1
  O  O69  1  0.253424  0.358404  0.677169  1
  O  O70  1  0.471320  0.943307  0.342889  1
  O  O71  1  0.816570  0.868302  0.620642  1
  O  O72  1  0.981035  0.951381  0.924262  1
  O  O73  1  0.499143  0.877694  0.165949  1
  O  O74  1  0.863534  0.813341  0.117611  1
  O  O75  1  0.195552  0.730542  0.053124  1
  O  O76  1  0.289687  0.328282  0.471036  1
  O  O77  1  0.008494  0.055129  0.078542  1
  O  O78  1  0.056009  0.527459  0.154587  1
  O  O79  1  0.268536  0.805103  0.446425  1
