# generated using pymatgen
data_CeScFe14(SiC)3
_symmetry_space_group_name_H-M   'P 1'
_cell_length_a   6.41664123
_cell_length_b   6.41664202
_cell_length_c   6.41664201
_cell_angle_alpha   83.27777257
_cell_angle_beta   83.27776425
_cell_angle_gamma   83.27776680
_symmetry_Int_Tables_number   1
_chemical_formula_structural   CeScFe14(SiC)3
_chemical_formula_sum   'Ce1 Sc1 Fe14 Si3 C3'
_cell_volume   259.13961646
_cell_formula_units_Z   1
loop_
 _symmetry_equiv_pos_site_id
 _symmetry_equiv_pos_as_xyz
  1  'x, y, z'
loop_
 _atom_site_type_symbol
 _atom_site_label
 _atom_site_symmetry_multiplicity
 _atom_site_fract_x
 _atom_site_fract_y
 _atom_site_fract_z
 _atom_site_occupancy
  Ce  Ce0  1  0.349414  0.349414  0.349414  1
  Sc  Sc1  1  0.655013  0.655013  0.655013  1
  Fe  Fe2  1  0.285329  0.716834  0.997176  1
  Fe  Fe3  1  0.716834  0.997176  0.285329  1
  Fe  Fe4  1  0.997176  0.285329  0.716834  1
  Fe  Fe5  1  0.285329  0.997176  0.716834  1
  Fe  Fe6  1  0.997176  0.716834  0.285329  1
  Fe  Fe7  1  0.716834  0.285329  0.997176  1
  Fe  Fe8  1  0.342269  0.342269  0.859036  1
  Fe  Fe9  1  0.342269  0.859036  0.342269  1
  Fe  Fe10  1  0.859036  0.342269  0.342269  1
  Fe  Fe11  1  0.659550  0.659550  0.135153  1
  Fe  Fe12  1  0.659550  0.135153  0.659550  1
  Fe  Fe13  1  0.135153  0.659550  0.659550  1
  Fe  Fe14  1  0.902197  0.902197  0.902197  1
  Fe  Fe15  1  0.097149  0.097149  0.097149  1
  Si  Si16  1  0.001889  0.001889  0.499390  1
  Si  Si17  1  0.001889  0.499390  0.001889  1
  Si  Si18  1  0.499390  0.001889  0.001889  1
  C  C19  1  0.506487  0.506487  0.983579  1
  C  C20  1  0.506487  0.983579  0.506487  1
  C  C21  1  0.983579  0.506487  0.506487  1
