# generated using pymatgen
data_Pr3GaSn3Ir2
_symmetry_space_group_name_H-M   'P 1'
_cell_length_a   7.54913000
_cell_length_b   7.54913006
_cell_length_c   4.29432900
_cell_angle_alpha   90.00000000
_cell_angle_beta   90.00000000
_cell_angle_gamma   119.99999099
_symmetry_Int_Tables_number   1
_chemical_formula_structural   Pr3GaSn3Ir2
_chemical_formula_sum   'Pr3 Ga1 Sn3 Ir2'
_cell_volume   211.94335105
_cell_formula_units_Z   1
loop_
 _symmetry_equiv_pos_site_id
 _symmetry_equiv_pos_as_xyz
  1  'x, y, z'
loop_
 _atom_site_type_symbol
 _atom_site_label
 _atom_site_symmetry_multiplicity
 _atom_site_fract_x
 _atom_site_fract_y
 _atom_site_fract_z
 _atom_site_occupancy
  Pr  Pr0  1  0.596276  0.009025  0.000000  1
  Pr  Pr1  1  0.990975  0.587251  0.000000  1
  Pr  Pr2  1  0.412749  0.403724  0.000000  1
  Ga  Ga3  1  0.333333  0.666667  0.500000  1
  Sn  Sn4  1  0.252401  0.008292  0.500000  1
  Sn  Sn5  1  0.991708  0.244110  0.500000  1
  Sn  Sn6  1  0.755890  0.747599  0.500000  1
  Ir  Ir7  1  0.666667  0.333333  0.500000  1
  Ir  Ir8  1  0.000000  0.000000  0.000000  1
