# generated using pymatgen
data_Dy2Y3MoP12(Ir8Pd)2
_symmetry_space_group_name_H-M   'P 1'
_cell_length_a   12.68745000
_cell_length_b   12.68744999
_cell_length_c   3.99472800
_cell_angle_alpha   90.00000000
_cell_angle_beta   90.00000000
_cell_angle_gamma   120.00000002
_symmetry_Int_Tables_number   1
_chemical_formula_structural   Dy2Y3MoP12(Ir8Pd)2
_chemical_formula_sum   'Dy2 Y3 Mo1 P12 Ir16 Pd2'
_cell_volume   556.88629817
_cell_formula_units_Z   1
loop_
 _symmetry_equiv_pos_site_id
 _symmetry_equiv_pos_as_xyz
  1  'x, y, z'
loop_
 _atom_site_type_symbol
 _atom_site_label
 _atom_site_symmetry_multiplicity
 _atom_site_fract_x
 _atom_site_fract_y
 _atom_site_fract_z
 _atom_site_occupancy
  Dy  Dy0  1  0.335196  0.669872  0.500000  1
  Dy  Dy1  1  0.665326  0.330128  0.500000  1
  Y  Y2  1  0.002673  0.814593  0.000000  1
  Y  Y3  1  0.188080  0.185407  0.000000  1
  Y  Y4  1  0.813949  0.000000  0.000000  1
  Mo  Mo5  1  0.450975  0.000000  0.500000  1
  P  P6  1  0.999519  0.641071  0.500000  1
  P  P7  1  0.358448  0.358929  0.500000  1
  P  P8  1  0.636387  0.000000  0.500000  1
  P  P9  1  0.516403  0.688968  0.000000  1
  P  P10  1  0.317523  0.833878  0.000000  1
  P  P11  1  0.173427  0.484381  0.000000  1
  P  P12  1  0.483645  0.166122  0.000000  1
  P  P13  1  0.689047  0.515619  0.000000  1
  P  P14  1  0.827435  0.311032  0.000000  1
  P  P15  1  0.999068  0.179768  0.500000  1
  P  P16  1  0.819300  0.820232  0.500000  1
  P  P17  1  0.174500  0.000000  0.500000  1
  Ir  Ir18  1  0.510863  0.870724  0.000000  1
  Ir  Ir19  1  0.140279  0.645820  0.000000  1
  Ir  Ir20  1  0.359462  0.491114  0.000000  1
  Ir  Ir21  1  0.494459  0.354180  0.000000  1
  Ir  Ir22  1  0.868349  0.508886  0.000000  1
  Ir  Ir23  1  0.640140  0.129276  0.000000  1
  Ir  Ir24  1  0.999812  0.282832  0.000000  1
  Ir  Ir25  1  0.716980  0.717168  0.000000  1
  Ir  Ir26  1  0.286625  0.000000  0.000000  1
  Ir  Ir27  1  0.624812  0.805766  0.500000  1
  Ir  Ir28  1  0.192819  0.822394  0.500000  1
  Ir  Ir29  1  0.180414  0.375446  0.500000  1
  Ir  Ir30  1  0.370423  0.177606  0.500000  1
  Ir  Ir31  1  0.804967  0.624554  0.500000  1
  Ir  Ir32  1  0.819045  0.194234  0.500000  1
  Ir  Ir33  1  0.996016  0.000000  0.500000  1
  Pd  Pd34  1  0.001661  0.459686  0.500000  1
  Pd  Pd35  1  0.541975  0.540314  0.500000  1
