# generated using pymatgen
data_HoTm6Fe3Co3Sn23
_symmetry_space_group_name_H-M   'P 1'
_cell_length_a   9.66007500
_cell_length_b   9.66007394
_cell_length_c   9.96100400
_cell_angle_alpha   90.00000000
_cell_angle_beta   90.00000000
_cell_angle_gamma   119.99999334
_symmetry_Int_Tables_number   1
_chemical_formula_structural   HoTm6Fe3Co3Sn23
_chemical_formula_sum   'Ho1 Tm6 Fe3 Co3 Sn23'
_cell_volume   804.99785733
_cell_formula_units_Z   1
loop_
 _symmetry_equiv_pos_site_id
 _symmetry_equiv_pos_as_xyz
  1  'x, y, z'
loop_
 _atom_site_type_symbol
 _atom_site_label
 _atom_site_symmetry_multiplicity
 _atom_site_fract_x
 _atom_site_fract_y
 _atom_site_fract_z
 _atom_site_occupancy
  Ho  Ho0  1  0.000000  0.000000  0.995460  1
  Tm  Tm1  1  0.518205  0.481795  0.695464  1
  Tm  Tm2  1  0.518205  0.036411  0.695464  1
  Tm  Tm3  1  0.963589  0.481795  0.695464  1
  Tm  Tm4  1  0.038938  0.519469  0.305880  1
  Tm  Tm5  1  0.480531  0.961062  0.305880  1
  Tm  Tm6  1  0.480531  0.519469  0.305880  1
  Fe  Fe7  1  0.167941  0.832059  0.801865  1
  Fe  Fe8  1  0.167941  0.335882  0.801865  1
  Fe  Fe9  1  0.664118  0.832059  0.801865  1
  Co  Co10  1  0.338119  0.169060  0.197316  1
  Co  Co11  1  0.830940  0.661881  0.197316  1
  Co  Co12  1  0.830940  0.169060  0.197316  1
  Sn  Sn13  1  0.666667  0.333333  0.181843  1
  Sn  Sn14  1  0.666667  0.333333  0.878089  1
  Sn  Sn15  1  0.333333  0.666667  0.122792  1
  Sn  Sn16  1  0.345869  0.346652  0.999607  1
  Sn  Sn17  1  0.000783  0.654131  0.999607  1
  Sn  Sn18  1  0.653348  0.999217  0.999607  1
  Sn  Sn19  1  0.653348  0.654131  0.999607  1
  Sn  Sn20  1  0.333333  0.666667  0.817512  1
  Sn  Sn21  1  0.435921  0.217961  0.453022  1
  Sn  Sn22  1  0.217787  0.782213  0.547312  1
  Sn  Sn23  1  0.217787  0.435574  0.547312  1
  Sn  Sn24  1  0.564426  0.782213  0.547312  1
  Sn  Sn25  1  0.118171  0.881829  0.272182  1
  Sn  Sn26  1  0.782039  0.564079  0.453022  1
  Sn  Sn27  1  0.782039  0.217961  0.453022  1
  Sn  Sn28  1  0.345869  0.999217  0.999607  1
  Sn  Sn29  1  0.118171  0.236343  0.272182  1
  Sn  Sn30  1  0.763657  0.881829  0.272182  1
  Sn  Sn31  1  0.235242  0.117621  0.729566  1
  Sn  Sn32  1  0.882379  0.764758  0.729566  1
  Sn  Sn33  1  0.882379  0.117621  0.729566  1
  Sn  Sn34  1  0.000000  0.000000  0.498840  1
  Sn  Sn35  1  0.000783  0.346652  0.999607  1
