# generated using pymatgen
data_Li8Tb8Sn5Bi3
_symmetry_space_group_name_H-M   'P 1'
_cell_length_a   9.51464908
_cell_length_b   9.51521857
_cell_length_c   7.26802206
_cell_angle_alpha   90.00328342
_cell_angle_beta   89.99758063
_cell_angle_gamma   119.99691589
_symmetry_Int_Tables_number   1
_chemical_formula_structural   Li8Tb8Sn5Bi3
_chemical_formula_sum   'Li8 Tb8 Sn5 Bi3'
_cell_volume   569.86489965
_cell_formula_units_Z   1
loop_
 _symmetry_equiv_pos_site_id
 _symmetry_equiv_pos_as_xyz
  1  'x, y, z'
loop_
 _atom_site_type_symbol
 _atom_site_label
 _atom_site_symmetry_multiplicity
 _atom_site_fract_x
 _atom_site_fract_y
 _atom_site_fract_z
 _atom_site_occupancy
  Li  Li0  1  0.167107  0.334082  0.279318  1
  Li  Li1  1  0.167132  0.832916  0.279690  1
  Li  Li2  1  0.665869  0.832899  0.279433  1
  Li  Li3  1  0.831665  0.663296  0.787077  1
  Li  Li4  1  0.831644  0.168350  0.787715  1
  Li  Li5  1  0.336760  0.168445  0.787266  1
  Li  Li6  1  0.333313  0.666575  0.672939  1
  Li  Li7  1  0.666470  0.333426  0.179934  1
  Tb  Tb8  1  0.514244  0.028179  0.489122  1
  Tb  Tb9  1  0.513905  0.486013  0.488909  1
  Tb  Tb10  1  0.971900  0.485784  0.489046  1
  Tb  Tb11  1  0.491350  0.982687  0.999652  1
  Tb  Tb12  1  0.491210  0.508797  0.999583  1
  Tb  Tb13  1  0.017365  0.508683  0.999661  1
  Tb  Tb14  1  0.999970  0.000001  0.493080  1
  Tb  Tb15  1  0.000048  0.999969  0.008312  1
  Sn  Sn16  1  0.833411  0.666720  0.233170  1
  Sn  Sn17  1  0.833434  0.166574  0.233154  1
  Sn  Sn18  1  0.333254  0.166557  0.233191  1
  Sn  Sn19  1  0.333286  0.666649  0.258864  1
  Sn  Sn20  1  0.666700  0.333403  0.760378  1
  Bi  Bi21  1  0.166546  0.333300  0.734144  1
  Bi  Bi22  1  0.166833  0.833298  0.734189  1
  Bi  Bi23  1  0.666582  0.833397  0.734145  1
