# generated using pymatgen
data_Ti8Al15Pt4Rh3
_symmetry_space_group_name_H-M   'P 1'
_cell_length_a   8.67130269
_cell_length_b   8.66602060
_cell_length_c   8.68845057
_cell_angle_alpha   120.05781097
_cell_angle_beta   119.88181180
_cell_angle_gamma   90.05596977
_symmetry_Int_Tables_number   1
_chemical_formula_structural   Ti8Al15Pt4Rh3
_chemical_formula_sum   'Ti8 Al15 Pt4 Rh3'
_cell_volume   461.86427068
_cell_formula_units_Z   1
loop_
 _symmetry_equiv_pos_site_id
 _symmetry_equiv_pos_as_xyz
  1  'x, y, z'
loop_
 _atom_site_type_symbol
 _atom_site_label
 _atom_site_symmetry_multiplicity
 _atom_site_fract_x
 _atom_site_fract_y
 _atom_site_fract_z
 _atom_site_occupancy
  Ti  Ti0  1  0.789240  0.290844  0.077169  1
  Ti  Ti1  1  0.214540  0.290049  0.501861  1
  Ti  Ti2  1  0.210760  0.711105  0.500652  1
  Ti  Ti3  1  0.213386  0.712376  0.922013  1
  Ti  Ti4  1  0.790339  0.713635  0.499922  1
  Ti  Ti5  1  0.785470  0.285501  0.499879  1
  Ti  Ti6  1  0.379291  0.121537  0.741243  1
  Ti  Ti7  1  0.374772  0.637284  0.255764  1
  Al  Al8  1  0.998143  0.497561  0.499504  1
  Al  Al9  1  0.152010  0.342475  0.185550  1
  Al  Al10  1  0.154584  0.969136  0.813841  1
  Al  Al11  1  0.151851  0.344821  0.810469  1
  Al  Al12  1  0.534345  0.344301  0.190143  1
  Al  Al13  1  0.848291  0.655614  0.812441  1
  Al  Al14  1  0.847679  0.036536  0.189465  1
  Al  Al15  1  0.845790  0.653806  0.185896  1
  Al  Al16  1  0.468151  0.655252  0.811469  1
  Al  Al17  1  0.374376  0.118407  0.257564  1
  Al  Al18  1  0.861800  0.123077  0.746024  1
  Al  Al19  1  0.621227  0.879009  0.259081  1
  Al  Al20  1  0.625305  0.363165  0.744298  1
  Al  Al21  1  0.626309  0.880956  0.743944  1
  Al  Al22  1  0.135680  0.876869  0.253066  1
  Pt  Pt23  1  0.998748  0.998784  0.498717  1
  Pt  Pt24  1  0.500004  0.998999  0.000172  1
  Pt  Pt25  1  0.499802  0.500460  0.000355  1
  Pt  Pt26  1  0.499391  0.499906  0.499932  1
  Rh  Rh27  1  0.999837  0.499753  0.000132  1
  Rh  Rh28  1  0.000489  0.000198  0.999724  1
  Rh  Rh29  1  0.498387  0.998582  0.499711  1
