# generated using pymatgen
data_NdInSb2(SeO3)8
_symmetry_space_group_name_H-M   'P 1'
_cell_length_a   8.50174660
_cell_length_b   8.71017547
_cell_length_c   8.51584772
_cell_angle_alpha   90.09575204
_cell_angle_beta   89.68866194
_cell_angle_gamma   90.08153969
_symmetry_Int_Tables_number   1
_chemical_formula_structural   NdInSb2(SeO3)8
_chemical_formula_sum   'Nd1 In1 Sb2 Se8 O24'
_cell_volume   630.60221994
_cell_formula_units_Z   1
loop_
 _symmetry_equiv_pos_site_id
 _symmetry_equiv_pos_as_xyz
  1  'x, y, z'
loop_
 _atom_site_type_symbol
 _atom_site_label
 _atom_site_symmetry_multiplicity
 _atom_site_fract_x
 _atom_site_fract_y
 _atom_site_fract_z
 _atom_site_occupancy
  Nd  Nd0  1  0.000000  0.500000  0.000000  1
  In  In1  1  0.500000  0.500000  0.500000  1
  Sb  Sb2  1  0.000000  0.000000  0.500000  1
  Sb  Sb3  1  0.500000  0.000000  0.000000  1
  Se  Se4  1  0.362979  0.683331  0.182582  1
  Se  Se5  1  0.824152  0.312797  0.361341  1
  Se  Se6  1  0.682539  0.831559  0.680791  1
  Se  Se7  1  0.193446  0.141675  0.812418  1
  Se  Se8  1  0.637021  0.316669  0.817418  1
  Se  Se9  1  0.175848  0.687203  0.638659  1
  Se  Se10  1  0.317461  0.168441  0.319209  1
  Se  Se11  1  0.806554  0.858325  0.187582  1
  O  O12  1  0.258291  0.571477  0.060182  1
  O  O13  1  0.745231  0.438160  0.495246  1
  O  O14  1  0.768030  0.969049  0.551585  1
  O  O15  1  0.268150  0.001397  0.945480  1
  O  O16  1  0.551876  0.965681  0.769055  1
  O  O17  1  0.501174  0.559542  0.254782  1
  O  O18  1  0.950388  0.423365  0.258567  1
  O  O19  1  0.052051  0.012062  0.731542  1
  O  O20  1  0.966579  0.225919  0.494185  1
  O  O21  1  0.558089  0.746046  0.555642  1
  O  O22  1  0.495648  0.774660  0.039228  1
  O  O23  1  0.080058  0.245214  0.932710  1
  O  O24  1  0.741709  0.428523  0.939818  1
  O  O25  1  0.254769  0.561840  0.504754  1
  O  O26  1  0.231970  0.030951  0.448415  1
  O  O27  1  0.731850  0.998603  0.054520  1
  O  O28  1  0.448124  0.034319  0.230945  1
  O  O29  1  0.498826  0.440458  0.745218  1
  O  O30  1  0.049612  0.576635  0.741433  1
  O  O31  1  0.947949  0.987938  0.268458  1
  O  O32  1  0.033421  0.774081  0.505815  1
  O  O33  1  0.441911  0.253954  0.444358  1
  O  O34  1  0.504352  0.225340  0.960772  1
  O  O35  1  0.919942  0.754786  0.067290  1
