# generated using pymatgen
data_KSm(SO4)2
_symmetry_space_group_name_H-M   'P 1'
_cell_length_a   4.83219778
_cell_length_b   4.83219747
_cell_length_c   8.95623520
_cell_angle_alpha   101.97255844
_cell_angle_beta   101.97254424
_cell_angle_gamma   64.51404694
_symmetry_Int_Tables_number   1
_chemical_formula_structural   KSm(SO4)2
_chemical_formula_sum   'K1 Sm1 S2 O8'
_cell_volume   183.01124407
_cell_formula_units_Z   1
loop_
 _symmetry_equiv_pos_site_id
 _symmetry_equiv_pos_as_xyz
  1  'x, y, z'
loop_
 _atom_site_type_symbol
 _atom_site_label
 _atom_site_symmetry_multiplicity
 _atom_site_fract_x
 _atom_site_fract_y
 _atom_site_fract_z
 _atom_site_occupancy
  K  K0  1  0.020367  0.979633  0.000000  1
  Sm  Sm1  1  0.508567  0.491433  0.500000  1
  S  S2  1  0.739309  0.742077  0.274659  1
  S  S3  1  0.257923  0.260691  0.725340  1
  O  O4  1  0.845173  0.606134  0.125097  1
  O  O5  1  0.435410  0.733083  0.280316  1
  O  O6  1  0.706469  0.069840  0.311806  1
  O  O7  1  0.960851  0.565127  0.403905  1
  O  O8  1  0.434873  0.039149  0.596095  1
  O  O9  1  0.930160  0.293531  0.688194  1
  O  O10  1  0.266917  0.564589  0.719683  1
  O  O11  1  0.393866  0.154827  0.874903  1
