# generated using pymatgen
data_Sm8Sc12Si15Au
_symmetry_space_group_name_H-M   'P 1'
_cell_length_a   7.20495635
_cell_length_b   7.45667142
_cell_length_c   14.19858107
_cell_angle_alpha   89.94050008
_cell_angle_beta   89.70805783
_cell_angle_gamma   90.17123191
_symmetry_Int_Tables_number   1
_chemical_formula_structural   Sm8Sc12Si15Au
_chemical_formula_sum   'Sm8 Sc12 Si15 Au1'
_cell_volume   762.80492277
_cell_formula_units_Z   1
loop_
 _symmetry_equiv_pos_site_id
 _symmetry_equiv_pos_as_xyz
  1  'x, y, z'
loop_
 _atom_site_type_symbol
 _atom_site_label
 _atom_site_symmetry_multiplicity
 _atom_site_fract_x
 _atom_site_fract_y
 _atom_site_fract_z
 _atom_site_occupancy
  Sm  Sm0  1  0.012915  0.174226  0.098030  1
  Sm  Sm1  1  0.986617  0.826320  0.902933  1
  Sm  Sm2  1  0.486404  0.674931  0.902750  1
  Sm  Sm3  1  0.987810  0.829816  0.597903  1
  Sm  Sm4  1  0.512788  0.325445  0.097119  1
  Sm  Sm5  1  0.010552  0.173036  0.399473  1
  Sm  Sm6  1  0.511625  0.325853  0.400055  1
  Sm  Sm7  1  0.491036  0.675362  0.599924  1
  Sc  Sc8  1  0.161896  0.499049  0.751206  1
  Sc  Sc9  1  0.838366  0.500218  0.250699  1
  Sc  Sc10  1  0.338783  0.998852  0.249063  1
  Sc  Sc11  1  0.663606  0.998126  0.751179  1
  Sc  Sc12  1  0.338434  0.175414  0.626103  1
  Sc  Sc13  1  0.667487  0.823823  0.373889  1
  Sc  Sc14  1  0.169008  0.673623  0.373540  1
  Sc  Sc15  1  0.671106  0.824353  0.124806  1
  Sc  Sc16  1  0.827001  0.325626  0.625141  1
  Sc  Sc17  1  0.328143  0.174836  0.875800  1
  Sc  Sc18  1  0.829575  0.322639  0.875861  1
  Sc  Sc19  1  0.169861  0.676527  0.124872  1
  Si  Si20  1  0.035347  0.123456  0.750584  1
  Si  Si21  1  0.966024  0.879308  0.249520  1
  Si  Si22  1  0.465983  0.620590  0.248491  1
  Si  Si23  1  0.535679  0.380349  0.752286  1
  Si  Si24  1  0.285144  0.878688  0.750677  1
  Si  Si25  1  0.712204  0.122891  0.248832  1
  Si  Si26  1  0.214162  0.376573  0.248438  1
  Si  Si27  1  0.787895  0.622261  0.752234  1
  Si  Si28  1  0.838004  0.539455  0.458805  1
  Si  Si29  1  0.344329  0.961939  0.460258  1
  Si  Si30  1  0.846836  0.536346  0.039088  1
  Si  Si31  1  0.654423  0.037165  0.538115  1
  Si  Si32  1  0.152551  0.463439  0.961184  1
  Si  Si33  1  0.653499  0.035852  0.960459  1
  Si  Si34  1  0.345883  0.963429  0.039483  1
  Au  Au35  1  0.159021  0.460187  0.541202  1
