# generated using pymatgen
data_NaLu(Si7Ir3)2
_symmetry_space_group_name_H-M   'P 1'
_cell_length_a   8.00037028
_cell_length_b   8.00037092
_cell_length_c   8.00037076
_cell_angle_alpha   56.89299004
_cell_angle_beta   56.89298747
_cell_angle_gamma   56.89298724
_symmetry_Int_Tables_number   1
_chemical_formula_structural   NaLu(Si7Ir3)2
_chemical_formula_sum   'Na1 Lu1 Si14 Ir6'
_cell_volume   336.13506366
_cell_formula_units_Z   1
loop_
 _symmetry_equiv_pos_site_id
 _symmetry_equiv_pos_as_xyz
  1  'x, y, z'
loop_
 _atom_site_type_symbol
 _atom_site_label
 _atom_site_symmetry_multiplicity
 _atom_site_fract_x
 _atom_site_fract_y
 _atom_site_fract_z
 _atom_site_occupancy
  Na  Na0  1  0.000000  0.000000  0.000000  1
  Lu  Lu1  1  0.500000  0.500000  0.500000  1
  Si  Si2  1  0.749815  0.749815  0.749815  1
  Si  Si3  1  0.250185  0.250185  0.250185  1
  Si  Si4  1  0.852309  0.064844  0.675431  1
  Si  Si5  1  0.675431  0.852309  0.064844  1
  Si  Si6  1  0.064844  0.675431  0.852309  1
  Si  Si7  1  0.652093  0.828333  0.432808  1
  Si  Si8  1  0.432808  0.652093  0.828333  1
  Si  Si9  1  0.828333  0.432808  0.652093  1
  Si  Si10  1  0.171667  0.567192  0.347907  1
  Si  Si11  1  0.567192  0.347907  0.171667  1
  Si  Si12  1  0.347907  0.171667  0.567192  1
  Si  Si13  1  0.935156  0.324569  0.147691  1
  Si  Si14  1  0.324569  0.147691  0.935156  1
  Si  Si15  1  0.147691  0.935156  0.324569  1
  Ir  Ir16  1  0.075479  0.432381  0.745792  1
  Ir  Ir17  1  0.254208  0.924521  0.567619  1
  Ir  Ir18  1  0.567619  0.254208  0.924521  1
  Ir  Ir19  1  0.924521  0.567619  0.254208  1
  Ir  Ir20  1  0.432381  0.745792  0.075479  1
  Ir  Ir21  1  0.745792  0.075479  0.432381  1
