# generated using pymatgen
data_Tb2NbOs3
_symmetry_space_group_name_H-M   'P 1'
_cell_length_a   5.57766400
_cell_length_b   5.57766424
_cell_length_c   8.52823100
_cell_angle_alpha   90.00000000
_cell_angle_beta   90.00000000
_cell_angle_gamma   119.99999855
_symmetry_Int_Tables_number   1
_chemical_formula_structural   Tb2NbOs3
_chemical_formula_sum   'Tb4 Nb2 Os6'
_cell_volume   229.77052144
_cell_formula_units_Z   2
loop_
 _symmetry_equiv_pos_site_id
 _symmetry_equiv_pos_as_xyz
  1  'x, y, z'
loop_
 _atom_site_type_symbol
 _atom_site_label
 _atom_site_symmetry_multiplicity
 _atom_site_fract_x
 _atom_site_fract_y
 _atom_site_fract_z
 _atom_site_occupancy
  Tb  Tb0  1  0.333333  0.666667  0.433030  1
  Tb  Tb1  1  0.666667  0.333333  0.566970  1
  Tb  Tb2  1  0.666667  0.333333  0.933030  1
  Tb  Tb3  1  0.333333  0.666667  0.066970  1
  Nb  Nb4  1  0.000000  0.000000  0.500000  1
  Nb  Nb5  1  0.000000  0.000000  0.000000  1
  Os  Os6  1  0.826355  0.173645  0.250000  1
  Os  Os7  1  0.826355  0.652711  0.250000  1
  Os  Os8  1  0.347289  0.173645  0.250000  1
  Os  Os9  1  0.173645  0.826355  0.750000  1
  Os  Os10  1  0.173645  0.347289  0.750000  1
  Os  Os11  1  0.652711  0.826355  0.750000  1
