# generated using pymatgen
data_Dy3LuNb2(B2Ru5)2
_symmetry_space_group_name_H-M   'P 1'
_cell_length_a   9.66991807
_cell_length_b   9.66991807
_cell_length_c   3.12847400
_cell_angle_alpha   90.00000000
_cell_angle_beta   90.00000000
_cell_angle_gamma   90.31728069
_symmetry_Int_Tables_number   1
_chemical_formula_structural   Dy3LuNb2(B2Ru5)2
_chemical_formula_sum   'Dy3 Lu1 Nb2 B4 Ru10'
_cell_volume   292.53071977
_cell_formula_units_Z   1
loop_
 _symmetry_equiv_pos_site_id
 _symmetry_equiv_pos_as_xyz
  1  'x, y, z'
loop_
 _atom_site_type_symbol
 _atom_site_label
 _atom_site_symmetry_multiplicity
 _atom_site_fract_x
 _atom_site_fract_y
 _atom_site_fract_z
 _atom_site_occupancy
  Dy  Dy0  1  0.825242  0.674713  0.000000  1
  Dy  Dy1  1  0.174713  0.325242  0.000000  1
  Dy  Dy2  1  0.325971  0.825971  0.000000  1
  Lu  Lu3  1  0.674779  0.174779  0.000000  1
  Nb  Nb4  1  0.500120  0.499509  0.000000  1
  Nb  Nb5  1  0.999509  0.000120  0.000000  1
  B  B6  1  0.620660  0.880362  0.000000  1
  B  B7  1  0.380362  0.120660  0.000000  1
  B  B8  1  0.120047  0.620047  0.000000  1
  B  B9  1  0.878470  0.378470  0.000000  1
  Ru  Ru10  1  0.570987  0.718375  0.500000  1
  Ru  Ru11  1  0.431297  0.281670  0.500000  1
  Ru  Ru12  1  0.071823  0.782083  0.500000  1
  Ru  Ru13  1  0.925866  0.217018  0.500000  1
  Ru  Ru14  1  0.282083  0.571823  0.500000  1
  Ru  Ru15  1  0.717018  0.425866  0.500000  1
  Ru  Ru16  1  0.218375  0.070987  0.500000  1
  Ru  Ru17  1  0.781670  0.931297  0.500000  1
  Ru  Ru18  1  0.501817  0.001817  0.500000  1
  Ru  Ru19  1  0.999190  0.499190  0.500000  1
