# generated using pymatgen
data_Tb6Er4BiPb5
_symmetry_space_group_name_H-M   'P 1'
_cell_length_a   9.08926139
_cell_length_b   9.08926208
_cell_length_c   6.55171500
_cell_angle_alpha   90.00000000
_cell_angle_beta   90.00000000
_cell_angle_gamma   119.96630084
_symmetry_Int_Tables_number   1
_chemical_formula_structural   Tb6Er4BiPb5
_chemical_formula_sum   'Tb6 Er4 Bi1 Pb5'
_cell_volume   468.91078735
_cell_formula_units_Z   1
loop_
 _symmetry_equiv_pos_site_id
 _symmetry_equiv_pos_as_xyz
  1  'x, y, z'
loop_
 _atom_site_type_symbol
 _atom_site_label
 _atom_site_symmetry_multiplicity
 _atom_site_fract_x
 _atom_site_fract_y
 _atom_site_fract_z
 _atom_site_occupancy
  Tb  Tb0  1  0.762173  0.762173  0.750000  1
  Tb  Tb1  1  0.237775  0.996944  0.750000  1
  Tb  Tb2  1  0.996944  0.237775  0.750000  1
  Tb  Tb3  1  0.239090  0.239090  0.250000  1
  Tb  Tb4  1  0.761039  0.000596  0.250000  1
  Tb  Tb5  1  0.000596  0.761039  0.250000  1
  Er  Er6  1  0.668233  0.332870  0.999604  1
  Er  Er7  1  0.332870  0.668233  0.999604  1
  Er  Er8  1  0.332870  0.668233  0.500396  1
  Er  Er9  1  0.668233  0.332870  0.500396  1
  Bi  Bi10  1  0.394433  0.394433  0.750000  1
  Pb  Pb11  1  0.604768  0.999852  0.750000  1
  Pb  Pb12  1  0.999852  0.604768  0.750000  1
  Pb  Pb13  1  0.605576  0.605576  0.250000  1
  Pb  Pb14  1  0.394936  0.000613  0.250000  1
  Pb  Pb15  1  0.000613  0.394936  0.250000  1
