# generated using pymatgen
data_Ba10TlSi4P
_symmetry_space_group_name_H-M   'P 1'
_cell_length_a   8.56229500
_cell_length_b   10.51998145
_cell_length_c   8.56229500
_cell_angle_alpha   114.01362976
_cell_angle_beta   90.00000000
_cell_angle_gamma   114.01362976
_symmetry_Int_Tables_number   1
_chemical_formula_structural   Ba10TlSi4P
_chemical_formula_sum   'Ba10 Tl1 Si4 P1'
_cell_volume   630.71912578
_cell_formula_units_Z   1
loop_
 _symmetry_equiv_pos_site_id
 _symmetry_equiv_pos_as_xyz
  1  'x, y, z'
loop_
 _atom_site_type_symbol
 _atom_site_label
 _atom_site_symmetry_multiplicity
 _atom_site_fract_x
 _atom_site_fract_y
 _atom_site_fract_z
 _atom_site_occupancy
  Ba  Ba0  1  0.972597  0.945193  0.972597  1
  Ba  Ba1  1  0.527403  0.054807  0.527403  1
  Ba  Ba2  1  0.523184  0.721151  0.664453  1
  Ba  Ba3  1  0.197969  0.721151  0.056699  1
  Ba  Ba4  1  0.664453  0.721151  0.197969  1
  Ba  Ba5  1  0.056699  0.721151  0.523184  1
  Ba  Ba6  1  0.443301  0.278849  0.302031  1
  Ba  Ba7  1  0.835547  0.278849  0.976816  1
  Ba  Ba8  1  0.302031  0.278849  0.835547  1
  Ba  Ba9  1  0.976816  0.278849  0.443301  1
  Tl  Tl10  1  0.750000  0.500000  0.750000  1
  Si  Si11  1  0.898491  0.000000  0.601509  1
  Si  Si12  1  0.101509  0.000000  0.398491  1
  Si  Si13  1  0.601509  0.000000  0.101509  1
  Si  Si14  1  0.398491  0.000000  0.898491  1
  P  P15  1  0.250000  0.500000  0.250000  1
