# generated using pymatgen
data_Sm2Y3ErCoI10
_symmetry_space_group_name_H-M   'P 1'
_cell_length_a   7.73756732
_cell_length_b   9.72861663
_cell_length_c   9.69666165
_cell_angle_alpha   106.90230254
_cell_angle_beta   96.48058866
_cell_angle_gamma   104.92622782
_symmetry_Int_Tables_number   1
_chemical_formula_structural   Sm2Y3ErCoI10
_chemical_formula_sum   'Sm2 Y3 Er1 Co1 I10'
_cell_volume   660.76546430
_cell_formula_units_Z   1
loop_
 _symmetry_equiv_pos_site_id
 _symmetry_equiv_pos_as_xyz
  1  'x, y, z'
loop_
 _atom_site_type_symbol
 _atom_site_label
 _atom_site_symmetry_multiplicity
 _atom_site_fract_x
 _atom_site_fract_y
 _atom_site_fract_z
 _atom_site_occupancy
  Sm  Sm0  1  0.888558  0.958524  0.229420  1
  Sm  Sm1  1  0.111376  0.040646  0.770254  1
  Y  Y2  1  0.969676  0.282629  0.084492  1
  Y  Y3  1  0.656531  0.877124  0.836675  1
  Y  Y4  1  0.343660  0.122167  0.163230  1
  Er  Er5  1  0.029540  0.720036  0.916006  1
  Co  Co6  1  0.999983  0.999234  0.999748  1
  I  I7  1  0.651550  0.550341  0.729258  1
  I  I8  1  0.350767  0.449833  0.271582  1
  I  I9  1  0.738787  0.911879  0.540214  1
  I  I10  1  0.261073  0.088152  0.459793  1
  I  I11  1  0.085079  0.375248  0.820818  1
  I  I12  1  0.915277  0.625480  0.178069  1
  I  I13  1  0.451231  0.815234  0.091674  1
  I  I14  1  0.547805  0.184277  0.907679  1
  I  I15  1  0.222876  0.740693  0.656475  1
  I  I16  1  0.776230  0.258506  0.344613  1
