# generated using pymatgen
data_Y4Co16Si3Tc4P9
_symmetry_space_group_name_H-M   'P 1'
_cell_length_a   3.72323400
_cell_length_b   10.40886266
_cell_length_c   11.85027319
_cell_angle_alpha   90.09620330
_cell_angle_beta   90.00000000
_cell_angle_gamma   90.00000000
_symmetry_Int_Tables_number   1
_chemical_formula_structural   Y4Co16Si3Tc4P9
_chemical_formula_sum   'Y4 Co16 Si3 Tc4 P9'
_cell_volume   459.25232141
_cell_formula_units_Z   1
loop_
 _symmetry_equiv_pos_site_id
 _symmetry_equiv_pos_as_xyz
  1  'x, y, z'
loop_
 _atom_site_type_symbol
 _atom_site_label
 _atom_site_symmetry_multiplicity
 _atom_site_fract_x
 _atom_site_fract_y
 _atom_site_fract_z
 _atom_site_occupancy
  Y  Y0  1  0.250000  0.915698  0.201214  1
  Y  Y1  1  0.750000  0.084398  0.798571  1
  Y  Y2  1  0.750000  0.414884  0.296265  1
  Y  Y3  1  0.250000  0.584433  0.702749  1
  Co  Co4  1  0.250000  0.093435  0.989584  1
  Co  Co5  1  0.750000  0.907166  0.010652  1
  Co  Co6  1  0.750000  0.592948  0.510832  1
  Co  Co7  1  0.250000  0.406622  0.488652  1
  Co  Co8  1  0.250000  0.285645  0.677066  1
  Co  Co9  1  0.750000  0.714041  0.322176  1
  Co  Co10  1  0.750000  0.785158  0.822781  1
  Co  Co11  1  0.250000  0.221344  0.176061  1
  Co  Co12  1  0.250000  0.611787  0.201306  1
  Co  Co13  1  0.750000  0.385288  0.798967  1
  Co  Co14  1  0.750000  0.116735  0.297247  1
  Co  Co15  1  0.250000  0.884465  0.701415  1
  Co  Co16  1  0.250000  0.034813  0.430379  1
  Co  Co17  1  0.750000  0.965092  0.568504  1
  Co  Co18  1  0.750000  0.533229  0.071053  1
  Co  Co19  1  0.250000  0.463150  0.935544  1
  Si  Si20  1  0.250000  0.082583  0.613609  1
  Si  Si21  1  0.750000  0.917419  0.385569  1
  Si  Si22  1  0.750000  0.582530  0.887386  1
  Tc  Tc23  1  0.250000  0.790965  0.488377  1
  Tc  Tc24  1  0.750000  0.208701  0.510780  1
  Tc  Tc25  1  0.750000  0.288780  0.010652  1
  Tc  Tc26  1  0.250000  0.710227  0.989112  1
  P  P27  1  0.250000  0.419191  0.114406  1
  P  P28  1  0.250000  0.228541  0.365501  1
  P  P29  1  0.750000  0.771717  0.634575  1
  P  P30  1  0.750000  0.728370  0.134357  1
  P  P31  1  0.250000  0.271955  0.864827  1
  P  P32  1  0.250000  0.902281  0.890782  1
  P  P33  1  0.750000  0.097197  0.108647  1
  P  P34  1  0.750000  0.402145  0.609089  1
  P  P35  1  0.250000  0.597068  0.391315  1
