# generated using pymatgen
data_Nd3B(CCl)2
_symmetry_space_group_name_H-M   'P 1'
_cell_length_a   14.51446600
_cell_length_b   3.86116100
_cell_length_c   11.30742700
_cell_angle_alpha   90.00000000
_cell_angle_beta   90.00000000
_cell_angle_gamma   90.00000000
_symmetry_Int_Tables_number   1
_chemical_formula_structural   Nd3B(CCl)2
_chemical_formula_sum   'Nd12 B4 C8 Cl8'
_cell_volume   633.69862668
_cell_formula_units_Z   4
loop_
 _symmetry_equiv_pos_site_id
 _symmetry_equiv_pos_as_xyz
  1  'x, y, z'
loop_
 _atom_site_type_symbol
 _atom_site_label
 _atom_site_symmetry_multiplicity
 _atom_site_fract_x
 _atom_site_fract_y
 _atom_site_fract_z
 _atom_site_occupancy
  Nd  Nd0  1  0.334066  0.250001  0.699644  1
  Nd  Nd1  1  0.165934  0.750000  0.199644  1
  Nd  Nd2  1  0.834067  0.250001  0.800355  1
  Nd  Nd3  1  0.665933  0.750000  0.300356  1
  Nd  Nd4  1  0.134127  0.250001  0.878011  1
  Nd  Nd5  1  0.365873  0.750000  0.378012  1
  Nd  Nd6  1  0.634127  0.250001  0.621989  1
  Nd  Nd7  1  0.865873  0.750000  0.121989  1
  Nd  Nd8  1  0.343127  0.250001  0.052013  1
  Nd  Nd9  1  0.156873  0.750000  0.552013  1
  Nd  Nd10  1  0.843128  0.250001  0.447987  1
  Nd  Nd11  1  0.656872  0.750000  0.947987  1
  B  B12  1  0.256651  0.750000  0.874645  1
  B  B13  1  0.243349  0.250001  0.374646  1
  B  B14  1  0.756651  0.750000  0.625354  1
  B  B15  1  0.743349  0.250001  0.125355  1
  C  C16  1  0.275885  0.250001  0.250263  1
  C  C17  1  0.224115  0.750000  0.750263  1
  C  C18  1  0.775885  0.250001  0.249737  1
  C  C19  1  0.724115  0.750000  0.749736  1
  C  C20  1  0.267779  0.250001  0.501787  1
  C  C21  1  0.232221  0.750000  0.001788  1
  C  C22  1  0.767779  0.250001  0.998212  1
  C  C23  1  0.732221  0.750000  0.498213  1
  Cl  Cl24  1  0.009996  0.250001  0.635006  1
  Cl  Cl25  1  0.490004  0.750000  0.135005  1
  Cl  Cl26  1  0.509996  0.250001  0.864995  1
  Cl  Cl27  1  0.990004  0.750000  0.364995  1
  Cl  Cl28  1  0.025651  0.250001  0.113976  1
  Cl  Cl29  1  0.474350  0.750000  0.613977  1
  Cl  Cl30  1  0.525651  0.250001  0.386024  1
  Cl  Cl31  1  0.974349  0.750000  0.886023  1
