# generated using pymatgen
data_Nb8CuIrS16
_symmetry_space_group_name_H-M   'P 1'
_cell_length_a   6.71085200
_cell_length_b   6.71085223
_cell_length_c   12.15599100
_cell_angle_alpha   90.00000000
_cell_angle_beta   90.00000000
_cell_angle_gamma   120.00000873
_symmetry_Int_Tables_number   1
_chemical_formula_structural   Nb8CuIrS16
_chemical_formula_sum   'Nb8 Cu1 Ir1 S16'
_cell_volume   474.10692658
_cell_formula_units_Z   1
loop_
 _symmetry_equiv_pos_site_id
 _symmetry_equiv_pos_as_xyz
  1  'x, y, z'
loop_
 _atom_site_type_symbol
 _atom_site_label
 _atom_site_symmetry_multiplicity
 _atom_site_fract_x
 _atom_site_fract_y
 _atom_site_fract_z
 _atom_site_occupancy
  Nb  Nb0  1  0.000000  0.000000  0.249036  1
  Nb  Nb1  1  0.000000  0.000000  0.750964  1
  Nb  Nb2  1  0.493090  0.986180  0.755445  1
  Nb  Nb3  1  0.013820  0.506910  0.755445  1
  Nb  Nb4  1  0.493090  0.506910  0.755445  1
  Nb  Nb5  1  0.506910  0.013820  0.244555  1
  Nb  Nb6  1  0.986180  0.493090  0.244555  1
  Nb  Nb7  1  0.506910  0.493090  0.244555  1
  Cu  Cu8  1  0.000000  0.000000  0.500000  1
  Ir  Ir9  1  0.000000  0.000000  0.000000  1
  S  S10  1  0.333333  0.666667  0.889228  1
  S  S11  1  0.666667  0.333333  0.110772  1
  S  S12  1  0.666667  0.333333  0.376930  1
  S  S13  1  0.333333  0.666667  0.623070  1
  S  S14  1  0.834513  0.669025  0.881732  1
  S  S15  1  0.330975  0.165487  0.881732  1
  S  S16  1  0.834513  0.165487  0.881732  1
  S  S17  1  0.165487  0.330975  0.118268  1
  S  S18  1  0.669025  0.834513  0.118268  1
  S  S19  1  0.165487  0.834513  0.118268  1
  S  S20  1  0.169428  0.338855  0.373943  1
  S  S21  1  0.661145  0.830572  0.373943  1
  S  S22  1  0.169428  0.830572  0.373943  1
  S  S23  1  0.830572  0.661145  0.626057  1
  S  S24  1  0.338855  0.169428  0.626057  1
  S  S25  1  0.830572  0.169428  0.626057  1
