# generated using pymatgen
data_Ba4As3PIr4
_symmetry_space_group_name_H-M   'P 1'
_cell_length_a   6.72046952
_cell_length_b   6.72046952
_cell_length_c   6.72046952
_cell_angle_alpha   89.96797352
_cell_angle_beta   89.96797352
_cell_angle_gamma   89.96797352
_symmetry_Int_Tables_number   1
_chemical_formula_structural   Ba4As3PIr4
_chemical_formula_sum   'Ba4 As3 P1 Ir4'
_cell_volume   303.52791921
_cell_formula_units_Z   1
loop_
 _symmetry_equiv_pos_site_id
 _symmetry_equiv_pos_as_xyz
  1  'x, y, z'
loop_
 _atom_site_type_symbol
 _atom_site_label
 _atom_site_symmetry_multiplicity
 _atom_site_fract_x
 _atom_site_fract_y
 _atom_site_fract_z
 _atom_site_occupancy
  Ba  Ba0  1  0.630424  0.372515  0.870301  1
  Ba  Ba1  1  0.372515  0.870301  0.630424  1
  Ba  Ba2  1  0.128654  0.128654  0.128654  1
  Ba  Ba3  1  0.870301  0.630424  0.372515  1
  As  As4  1  0.153723  0.343292  0.660088  1
  As  As5  1  0.660088  0.153723  0.343292  1
  As  As6  1  0.343292  0.660088  0.153723  1
  P  P7  1  0.845720  0.845720  0.845720  1
  Ir  Ir8  1  0.606100  0.903808  0.080740  1
  Ir  Ir9  1  0.080740  0.606100  0.903808  1
  Ir  Ir10  1  0.404635  0.404635  0.404635  1
  Ir  Ir11  1  0.903808  0.080740  0.606100  1
