# generated using pymatgen
data_Ca3Nd(RuO3)8
_symmetry_space_group_name_H-M   'P 1'
_cell_length_a   5.33660797
_cell_length_b   7.38542400
_cell_length_c   11.00815901
_cell_angle_alpha   90.00000000
_cell_angle_beta   90.06924645
_cell_angle_gamma   90.00000000
_symmetry_Int_Tables_number   1
_chemical_formula_structural   Ca3Nd(RuO3)8
_chemical_formula_sum   'Ca3 Nd1 Ru8 O24'
_cell_volume   433.86549385
_cell_formula_units_Z   1
loop_
 _symmetry_equiv_pos_site_id
 _symmetry_equiv_pos_as_xyz
  1  'x, y, z'
loop_
 _atom_site_type_symbol
 _atom_site_label
 _atom_site_symmetry_multiplicity
 _atom_site_fract_x
 _atom_site_fract_y
 _atom_site_fract_z
 _atom_site_occupancy
  Ca  Ca0  1  0.956170  0.250000  0.457117  1
  Ca  Ca1  1  0.542209  0.250000  0.953881  1
  Ca  Ca2  1  0.043289  0.750000  0.543454  1
  Nd  Nd3  1  0.458519  0.750000  0.046267  1
  Ru  Ru4  1  0.557435  0.499572  0.640626  1
  Ru  Ru5  1  0.057274  0.498705  0.857671  1
  Ru  Ru6  1  0.441156  0.000687  0.361104  1
  Ru  Ru7  1  0.942377  0.004356  0.141277  1
  Ru  Ru8  1  0.057274  0.001295  0.857671  1
  Ru  Ru9  1  0.557435  0.000428  0.640626  1
  Ru  Ru10  1  0.942377  0.495644  0.141277  1
  Ru  Ru11  1  0.441156  0.499313  0.361104  1
  O  O12  1  0.674943  0.250000  0.627166  1
  O  O13  1  0.176560  0.750000  0.873163  1
  O  O14  1  0.327548  0.750000  0.373962  1
  O  O15  1  0.826416  0.250000  0.126850  1
  O  O16  1  0.443419  0.750000  0.645657  1
  O  O17  1  0.942427  0.250000  0.853386  1
  O  O18  1  0.558354  0.250000  0.354690  1
  O  O19  1  0.057782  0.750000  0.146735  1
  O  O20  1  0.134912  0.435713  0.281897  1
  O  O21  1  0.631197  0.565371  0.216873  1
  O  O22  1  0.866097  0.934611  0.717737  1
  O  O23  1  0.365541  0.065920  0.781502  1
  O  O24  1  0.772968  0.959864  0.977185  1
  O  O25  1  0.274004  0.041536  0.523105  1
  O  O26  1  0.229139  0.459647  0.022113  1
  O  O27  1  0.724082  0.541454  0.477746  1
  O  O28  1  0.229139  0.040353  0.022113  1
  O  O29  1  0.724082  0.958546  0.477746  1
  O  O30  1  0.772968  0.540136  0.977185  1
  O  O31  1  0.274004  0.458464  0.523105  1
  O  O32  1  0.631197  0.934629  0.216873  1
  O  O33  1  0.134912  0.064287  0.281897  1
  O  O34  1  0.365541  0.434080  0.781502  1
  O  O35  1  0.866097  0.565389  0.717737  1
