# generated using pymatgen
data_V3NiGeN
_symmetry_space_group_name_H-M   'P 1'
_cell_length_a   6.48374900
_cell_length_b   6.48374900
_cell_length_c   6.48374900
_cell_angle_alpha   90.00000000
_cell_angle_beta   90.00000000
_cell_angle_gamma   90.00000000
_symmetry_Int_Tables_number   1
_chemical_formula_structural   V3NiGeN
_chemical_formula_sum   'V12 Ni4 Ge4 N4'
_cell_volume   272.57033131
_cell_formula_units_Z   4
loop_
 _symmetry_equiv_pos_site_id
 _symmetry_equiv_pos_as_xyz
  1  'x, y, z'
loop_
 _atom_site_type_symbol
 _atom_site_label
 _atom_site_symmetry_multiplicity
 _atom_site_fract_x
 _atom_site_fract_y
 _atom_site_fract_z
 _atom_site_occupancy
  V  V0  1  0.789052  0.959175  0.375769  1
  V  V1  1  0.710948  0.040825  0.875769  1
  V  V2  1  0.210948  0.459175  0.124231  1
  V  V3  1  0.289052  0.540825  0.624231  1
  V  V4  1  0.959175  0.375769  0.789052  1
  V  V5  1  0.040825  0.875769  0.710948  1
  V  V6  1  0.459175  0.124231  0.210948  1
  V  V7  1  0.540825  0.624231  0.289052  1
  V  V8  1  0.375769  0.789052  0.959175  1
  V  V9  1  0.875769  0.710948  0.040825  1
  V  V10  1  0.124231  0.210948  0.459175  1
  V  V11  1  0.624231  0.289052  0.540825  1
  Ni  Ni12  1  0.178072  0.821928  0.321928  1
  Ni  Ni13  1  0.321928  0.178072  0.821928  1
  Ni  Ni14  1  0.821928  0.321928  0.178072  1
  Ni  Ni15  1  0.678072  0.678072  0.678072  1
  Ge  Ge16  1  0.573752  0.426248  0.926248  1
  Ge  Ge17  1  0.426248  0.926248  0.573752  1
  Ge  Ge18  1  0.926248  0.573752  0.426248  1
  Ge  Ge19  1  0.073752  0.073752  0.073752  1
  N  N20  1  0.876358  0.123642  0.623642  1
  N  N21  1  0.623642  0.876358  0.123642  1
  N  N22  1  0.123642  0.623642  0.876358  1
  N  N23  1  0.376358  0.376358  0.376358  1
