# generated using pymatgen
data_Pr6Ga7Si4Ge
_symmetry_space_group_name_H-M   'P 1'
_cell_length_a   4.24749567
_cell_length_b   4.29739590
_cell_length_c   21.99365052
_cell_angle_alpha   84.39347064
_cell_angle_beta   84.45877496
_cell_angle_gamma   89.99999188
_symmetry_Int_Tables_number   1
_chemical_formula_structural   Pr6Ga7Si4Ge
_chemical_formula_sum   'Pr6 Ga7 Si4 Ge1'
_cell_volume   397.64834475
_cell_formula_units_Z   1
loop_
 _symmetry_equiv_pos_site_id
 _symmetry_equiv_pos_as_xyz
  1  'x, y, z'
loop_
 _atom_site_type_symbol
 _atom_site_label
 _atom_site_symmetry_multiplicity
 _atom_site_fract_x
 _atom_site_fract_y
 _atom_site_fract_z
 _atom_site_occupancy
  Pr  Pr0  1  0.958334  0.708334  0.083330  1
  Pr  Pr1  1  0.291321  0.041321  0.417359  1
  Pr  Pr2  1  0.623814  0.373814  0.752371  1
  Pr  Pr3  1  0.375726  0.625726  0.248547  1
  Pr  Pr4  1  0.709250  0.959250  0.581498  1
  Pr  Pr5  1  0.041044  0.291044  0.917912  1
  Ga  Ga6  1  0.153075  0.903075  0.693849  1
  Ga  Ga7  1  0.430901  0.180901  0.138198  1
  Ga  Ga8  1  0.763514  0.513514  0.472973  1
  Ga  Ga9  1  0.096922  0.846922  0.806156  1
  Ga  Ga10  1  0.848343  0.098343  0.303314  1
  Ga  Ga11  1  0.180572  0.430572  0.638858  1
  Ga  Ga12  1  0.513286  0.763286  0.973430  1
  Si  Si13  1  0.903479  0.153479  0.193043  1
  Si  Si14  1  0.235761  0.485761  0.528479  1
  Si  Si15  1  0.568528  0.818528  0.862941  1
  Si  Si16  1  0.486270  0.236270  0.027459  1
  Ge  Ge17  1  0.819859  0.569859  0.360283  1
