# generated using pymatgen
data_ErP4N7
_symmetry_space_group_name_H-M   'P 1'
_cell_length_a   4.96445238
_cell_length_b   7.43371347
_cell_length_c   8.53953855
_cell_angle_alpha   74.19333274
_cell_angle_beta   106.65544854
_cell_angle_gamma   97.08990977
_symmetry_Int_Tables_number   1
_chemical_formula_structural   ErP4N7
_chemical_formula_sum   'Er2 P8 N14'
_cell_volume   290.15538707
_cell_formula_units_Z   2
loop_
 _symmetry_equiv_pos_site_id
 _symmetry_equiv_pos_as_xyz
  1  'x, y, z'
loop_
 _atom_site_type_symbol
 _atom_site_label
 _atom_site_symmetry_multiplicity
 _atom_site_fract_x
 _atom_site_fract_y
 _atom_site_fract_z
 _atom_site_occupancy
  Er  Er0  1  0.347169  0.797007  0.207032  1
  Er  Er1  1  0.652826  0.203004  0.792962  1
  P  P2  1  0.313125  0.274905  0.076914  1
  P  P3  1  0.864664  0.124062  0.237696  1
  P  P4  1  0.734497  0.493027  0.252047  1
  P  P5  1  0.014415  0.247160  0.565612  1
  P  P6  1  0.985583  0.752839  0.434387  1
  P  P7  1  0.265499  0.506972  0.747952  1
  P  P8  1  0.135338  0.875937  0.762305  1
  P  P9  1  0.686878  0.725095  0.923088  1
  N  N10  1  0.593470  0.175698  0.071568  1
  N  N11  1  0.881884  0.650318  0.116796  1
  N  N12  1  0.134766  0.098436  0.173760  1
  N  N13  1  0.411398  0.443495  0.169334  1
  N  N14  1  0.920913  0.296741  0.339988  1
  N  N15  1  0.778011  0.933836  0.362429  1
  N  N16  1  0.726591  0.588479  0.399323  1
  N  N17  1  0.273401  0.411520  0.600675  1
  N  N18  1  0.221989  0.066161  0.637572  1
  N  N19  1  0.079082  0.703260  0.660013  1
  N  N20  1  0.588603  0.556504  0.830664  1
  N  N21  1  0.865243  0.901564  0.826244  1
  N  N22  1  0.118117  0.349679  0.883205  1
  N  N23  1  0.406535  0.824298  0.928432  1
