# generated using pymatgen
data_RbAsPIr2
_symmetry_space_group_name_H-M   'P 1'
_cell_length_a   7.53288641
_cell_length_b   7.53288649
_cell_length_c   7.53288652
_cell_angle_alpha   149.09773071
_cell_angle_beta   149.09773486
_cell_angle_gamma   44.26747157
_symmetry_Int_Tables_number   1
_chemical_formula_structural   RbAsPIr2
_chemical_formula_sum   'Rb1 As1 P1 Ir2'
_cell_volume   112.41419419
_cell_formula_units_Z   1
loop_
 _symmetry_equiv_pos_site_id
 _symmetry_equiv_pos_as_xyz
  1  'x, y, z'
loop_
 _atom_site_type_symbol
 _atom_site_label
 _atom_site_symmetry_multiplicity
 _atom_site_fract_x
 _atom_site_fract_y
 _atom_site_fract_z
 _atom_site_occupancy
  Rb  Rb0  1  0.005117  0.005117  0.000000  1
  As  As1  1  0.349197  0.349197  0.000000  1
  P  P2  1  0.657063  0.657063  0.000000  1
  Ir  Ir3  1  0.744311  0.244311  0.500000  1
  Ir  Ir4  1  0.244311  0.744311  0.500000  1
