# generated using pymatgen
data_PuHBr2
_symmetry_space_group_name_H-M   'P 1'
_cell_length_a   3.92346500
_cell_length_b   3.92346494
_cell_length_c   14.77488400
_cell_angle_alpha   90.00000000
_cell_angle_beta   90.00000000
_cell_angle_gamma   120.00000896
_symmetry_Int_Tables_number   1
_chemical_formula_structural   PuHBr2
_chemical_formula_sum   'Pu2 H2 Br4'
_cell_volume   196.96734501
_cell_formula_units_Z   2
loop_
 _symmetry_equiv_pos_site_id
 _symmetry_equiv_pos_as_xyz
  1  'x, y, z'
loop_
 _atom_site_type_symbol
 _atom_site_label
 _atom_site_symmetry_multiplicity
 _atom_site_fract_x
 _atom_site_fract_y
 _atom_site_fract_z
 _atom_site_occupancy
  Pu  Pu0  1  0.000000  0.000000  0.250000  1
  Pu  Pu1  1  0.000000  0.000000  0.750000  1
  H  H2  1  0.333333  0.666667  0.750000  1
  H  H3  1  0.666667  0.333333  0.250000  1
  Br  Br4  1  0.333333  0.666667  0.118237  1
  Br  Br5  1  0.666667  0.333333  0.881763  1
  Br  Br6  1  0.666667  0.333333  0.618237  1
  Br  Br7  1  0.333333  0.666667  0.381763  1
