# generated using pymatgen
data_Ho8Al3Si8Pb
_symmetry_space_group_name_H-M   'P 1'
_cell_length_a   5.60062374
_cell_length_b   5.60062418
_cell_length_c   19.69722501
_cell_angle_alpha   81.62762842
_cell_angle_beta   81.62762746
_cell_angle_gamma   42.96371634
_symmetry_Int_Tables_number   1
_chemical_formula_structural   Ho8Al3Si8Pb
_chemical_formula_sum   'Ho8 Al3 Si8 Pb1'
_cell_volume   415.89446125
_cell_formula_units_Z   1
loop_
 _symmetry_equiv_pos_site_id
 _symmetry_equiv_pos_as_xyz
  1  'x, y, z'
loop_
 _atom_site_type_symbol
 _atom_site_label
 _atom_site_symmetry_multiplicity
 _atom_site_fract_x
 _atom_site_fract_y
 _atom_site_fract_z
 _atom_site_occupancy
  Ho  Ho0  1  0.460388  0.460388  0.673968  1
  Ho  Ho1  1  0.706176  0.706176  0.923792  1
  Ho  Ho2  1  0.976945  0.976945  0.183688  1
  Ho  Ho3  1  0.217977  0.217977  0.428640  1
  Ho  Ho4  1  0.782023  0.782023  0.571360  1
  Ho  Ho5  1  0.023055  0.023055  0.816312  1
  Ho  Ho6  1  0.293824  0.293824  0.076208  1
  Ho  Ho7  1  0.539612  0.539612  0.326032  1
  Al  Al8  1  0.257974  0.257974  0.255743  1
  Al  Al9  1  0.500000  0.500000  0.500000  1
  Al  Al10  1  0.742026  0.742026  0.744257  1
  Si  Si11  1  0.170157  0.170157  0.673645  1
  Si  Si12  1  0.409514  0.409514  0.915369  1
  Si  Si13  1  0.692607  0.692607  0.184999  1
  Si  Si14  1  0.929025  0.929025  0.428983  1
  Si  Si15  1  0.070975  0.070975  0.571017  1
  Si  Si16  1  0.307393  0.307393  0.815001  1
  Si  Si17  1  0.590486  0.590486  0.084631  1
  Si  Si18  1  0.829843  0.829843  0.326355  1
  Pb  Pb19  1  0.000000  0.000000  0.000000  1
