# generated using pymatgen
data_Tb3Dy2(In2Pd)2
_symmetry_space_group_name_H-M   'P 1'
_cell_length_a   8.13017600
_cell_length_b   18.36132000
_cell_length_c   3.65801200
_cell_angle_alpha   90.00000000
_cell_angle_beta   90.00000000
_cell_angle_gamma   90.00000000
_symmetry_Int_Tables_number   1
_chemical_formula_structural   Tb3Dy2(In2Pd)2
_chemical_formula_sum   'Tb6 Dy4 In8 Pd4'
_cell_volume   546.07082313
_cell_formula_units_Z   2
loop_
 _symmetry_equiv_pos_site_id
 _symmetry_equiv_pos_as_xyz
  1  'x, y, z'
loop_
 _atom_site_type_symbol
 _atom_site_label
 _atom_site_symmetry_multiplicity
 _atom_site_fract_x
 _atom_site_fract_y
 _atom_site_fract_z
 _atom_site_occupancy
  Tb  Tb0  1  0.500000  0.500000  0.000000  1
  Tb  Tb1  1  0.000000  0.000000  0.000000  1
  Tb  Tb2  1  0.617511  0.083116  0.000000  1
  Tb  Tb3  1  0.382489  0.916884  0.000000  1
  Tb  Tb4  1  0.882489  0.583116  0.000000  1
  Tb  Tb5  1  0.117511  0.416884  0.000000  1
  Dy  Dy6  1  0.744255  0.279216  0.000000  1
  Dy  Dy7  1  0.255745  0.720784  0.000000  1
  Dy  Dy8  1  0.755745  0.779216  0.000000  1
  Dy  Dy9  1  0.244255  0.220784  0.000000  1
  In  In10  1  0.710875  0.930373  0.500000  1
  In  In11  1  0.289125  0.069627  0.500000  1
  In  In12  1  0.789125  0.430373  0.500000  1
  In  In13  1  0.210875  0.569627  0.500000  1
  In  In14  1  0.575758  0.649341  0.500000  1
  In  In15  1  0.424242  0.350659  0.500000  1
  In  In16  1  0.924242  0.149341  0.500000  1
  In  In17  1  0.075758  0.850659  0.500000  1
  Pd  Pd18  1  0.525990  0.195943  0.500000  1
  Pd  Pd19  1  0.474010  0.804057  0.500000  1
  Pd  Pd20  1  0.974010  0.695943  0.500000  1
  Pd  Pd21  1  0.025990  0.304057  0.500000  1
