# generated using pymatgen
data_Y2Lu8In8PtRh3
_symmetry_space_group_name_H-M   'P 1'
_cell_length_a   3.56692300
_cell_length_b   7.98766733
_cell_length_c   18.07381886
_cell_angle_alpha   90.06528122
_cell_angle_beta   90.00000000
_cell_angle_gamma   90.00000000
_symmetry_Int_Tables_number   1
_chemical_formula_structural   Y2Lu8In8PtRh3
_chemical_formula_sum   'Y2 Lu8 In8 Pt1 Rh3'
_cell_volume   514.94796561
_cell_formula_units_Z   1
loop_
 _symmetry_equiv_pos_site_id
 _symmetry_equiv_pos_as_xyz
  1  'x, y, z'
loop_
 _atom_site_type_symbol
 _atom_site_label
 _atom_site_symmetry_multiplicity
 _atom_site_fract_x
 _atom_site_fract_y
 _atom_site_fract_z
 _atom_site_occupancy
  Y  Y0  1  0.000000  0.999573  0.999997  1
  Y  Y1  1  0.000000  0.500497  0.500154  1
  Lu  Lu2  1  0.000000  0.115852  0.412240  1
  Lu  Lu3  1  0.000000  0.883388  0.588094  1
  Lu  Lu4  1  0.000000  0.383588  0.911804  1
  Lu  Lu5  1  0.000000  0.617560  0.086664  1
  Lu  Lu6  1  0.000000  0.241436  0.221319  1
  Lu  Lu7  1  0.000000  0.755409  0.778879  1
  Lu  Lu8  1  0.000000  0.255586  0.721207  1
  Lu  Lu9  1  0.000000  0.747565  0.279219  1
  In  In10  1  0.500000  0.422124  0.351244  1
  In  In11  1  0.500000  0.575247  0.650361  1
  In  In12  1  0.500000  0.075875  0.849691  1
  In  In13  1  0.500000  0.926625  0.150073  1
  In  In14  1  0.500000  0.294941  0.066136  1
  In  In15  1  0.500000  0.703411  0.932569  1
  In  In16  1  0.500000  0.203477  0.567198  1
  In  In17  1  0.500000  0.796739  0.432440  1
  Pt  Pt18  1  0.500000  0.525133  0.196467  1
  Rh  Rh19  1  0.500000  0.024945  0.304285  1
  Rh  Rh20  1  0.500000  0.975827  0.695788  1
  Rh  Rh21  1  0.500000  0.475201  0.804171  1
