# generated using pymatgen
data_Tb11ErInCo4Ru
_symmetry_space_group_name_H-M   'P 1'
_cell_length_a   8.32217552
_cell_length_b   8.31668448
_cell_length_c   8.31668540
_cell_angle_alpha   111.04959297
_cell_angle_beta   110.55821325
_cell_angle_gamma   106.81260765
_symmetry_Int_Tables_number   1
_chemical_formula_structural   Tb11ErInCo4Ru
_chemical_formula_sum   'Tb11 Er1 In1 Co4 Ru1'
_cell_volume   442.53910498
_cell_formula_units_Z   1
loop_
 _symmetry_equiv_pos_site_id
 _symmetry_equiv_pos_as_xyz
  1  'x, y, z'
loop_
 _atom_site_type_symbol
 _atom_site_label
 _atom_site_symmetry_multiplicity
 _atom_site_fract_x
 _atom_site_fract_y
 _atom_site_fract_z
 _atom_site_occupancy
  Tb  Tb0  1  0.183434  0.285967  0.469849  1
  Tb  Tb1  1  0.815825  0.712622  0.528018  1
  Tb  Tb2  1  0.183434  0.713586  0.897468  1
  Tb  Tb3  1  0.815825  0.287807  0.103203  1
  Tb  Tb4  1  0.313915  0.621129  0.305511  1
  Tb  Tb5  1  0.686504  0.380060  0.695126  1
  Tb  Tb6  1  0.313915  0.008404  0.692787  1
  Tb  Tb7  1  0.686504  0.991378  0.306444  1
  Tb  Tb8  1  0.408100  0.215124  0.192976  1
  Tb  Tb9  1  0.592750  0.784598  0.808152  1
  Tb  Tb10  1  0.023519  0.215723  0.807796  1
  Er  Er11  1  0.977400  0.784480  0.192920  1
  In  In12  1  0.501522  0.500464  0.001058  1
  Co  Co13  1  0.109689  0.611334  0.498355  1
  Co  Co14  1  0.888690  0.388643  0.500048  1
  Co  Co15  1  0.375482  0.999387  0.376095  1
  Co  Co16  1  0.623080  0.000315  0.622765  1
  Ru  Ru17  1  0.000412  0.998981  0.001431  1
