# generated using pymatgen
data_Y2Ho5Er(Si3Rh)4
_symmetry_space_group_name_H-M   'P 1'
_cell_length_a   8.16009801
_cell_length_b   8.16009772
_cell_length_c   7.87400800
_cell_angle_alpha   90.00000000
_cell_angle_beta   90.00000000
_cell_angle_gamma   119.99524533
_symmetry_Int_Tables_number   1
_chemical_formula_structural   Y2Ho5Er(Si3Rh)4
_chemical_formula_sum   'Y2 Ho5 Er1 Si12 Rh4'
_cell_volume   454.08590724
_cell_formula_units_Z   1
loop_
 _symmetry_equiv_pos_site_id
 _symmetry_equiv_pos_as_xyz
  1  'x, y, z'
loop_
 _atom_site_type_symbol
 _atom_site_label
 _atom_site_symmetry_multiplicity
 _atom_site_fract_x
 _atom_site_fract_y
 _atom_site_fract_z
 _atom_site_occupancy
  Y  Y0  1  0.000007  0.999993  0.250000  1
  Y  Y1  1  0.999990  0.000010  0.750000  1
  Ho  Ho2  1  0.508962  0.017954  0.250000  1
  Ho  Ho3  1  0.982046  0.491038  0.250000  1
  Ho  Ho4  1  0.491045  0.508955  0.750000  1
  Ho  Ho5  1  0.491049  0.982087  0.750000  1
  Ho  Ho6  1  0.017913  0.508951  0.750000  1
  Er  Er7  1  0.508942  0.491058  0.250000  1
  Si  Si8  1  0.167072  0.832928  0.499525  1
  Si  Si9  1  0.167110  0.334166  0.499512  1
  Si  Si10  1  0.665834  0.832890  0.499512  1
  Si  Si11  1  0.832918  0.167082  0.500467  1
  Si  Si12  1  0.832862  0.665801  0.500420  1
  Si  Si13  1  0.334199  0.167138  0.500420  1
  Si  Si14  1  0.832918  0.167082  0.999533  1
  Si  Si15  1  0.832862  0.665801  0.999580  1
  Si  Si16  1  0.334199  0.167138  0.999580  1
  Si  Si17  1  0.167072  0.832928  0.000475  1
  Si  Si18  1  0.167110  0.334166  0.000488  1
  Si  Si19  1  0.665834  0.832890  0.000488  1
  Rh  Rh20  1  0.333390  0.666610  0.466321  1
  Rh  Rh21  1  0.666637  0.333363  0.533590  1
  Rh  Rh22  1  0.666637  0.333363  0.966410  1
  Rh  Rh23  1  0.333390  0.666610  0.033679  1
