# generated using pymatgen
data_Yb2TlIr4PbO14
_symmetry_space_group_name_H-M   'P 1'
_cell_length_a   7.35520470
_cell_length_b   7.22837326
_cell_length_c   7.29682883
_cell_angle_alpha   59.33904760
_cell_angle_beta   59.73500589
_cell_angle_gamma   59.41786128
_symmetry_Int_Tables_number   1
_chemical_formula_structural   Yb2TlIr4PbO14
_chemical_formula_sum   'Yb2 Tl1 Ir4 Pb1 O14'
_cell_volume   271.17450464
_cell_formula_units_Z   1
loop_
 _symmetry_equiv_pos_site_id
 _symmetry_equiv_pos_as_xyz
  1  'x, y, z'
loop_
 _atom_site_type_symbol
 _atom_site_label
 _atom_site_symmetry_multiplicity
 _atom_site_fract_x
 _atom_site_fract_y
 _atom_site_fract_z
 _atom_site_occupancy
  Yb  Yb0  1  0.625000  0.125000  0.125000  1
  Yb  Yb1  1  0.125000  0.125000  0.125000  1
  Tl  Tl2  1  0.125000  0.625000  0.125000  1
  Ir  Ir3  1  0.125000  0.625000  0.625000  1
  Ir  Ir4  1  0.625000  0.125000  0.625000  1
  Ir  Ir5  1  0.625000  0.625000  0.125000  1
  Ir  Ir6  1  0.625000  0.625000  0.625000  1
  Pb  Pb7  1  0.125000  0.125000  0.625000  1
  O  O8  1  0.704308  0.697863  0.299767  1
  O  O9  1  0.296297  0.295401  0.697977  1
  O  O10  1  0.710325  0.295401  0.697977  1
  O  O11  1  0.298063  0.697863  0.299767  1
  O  O12  1  0.296828  0.707734  0.698610  1
  O  O13  1  0.706060  0.292864  0.295016  1
  O  O14  1  0.545692  0.552137  0.950233  1
  O  O15  1  0.953703  0.954599  0.552023  1
  O  O16  1  0.539675  0.954599  0.552023  1
  O  O17  1  0.951937  0.552137  0.950233  1
  O  O18  1  0.953172  0.542266  0.551390  1
  O  O19  1  0.543940  0.957136  0.954984  1
  O  O20  1  0.248099  0.257913  0.245888  1
  O  O21  1  0.001901  0.992087  0.004112  1
