# generated using pymatgen
data_Lu4Ga3SnRu4
_symmetry_space_group_name_H-M   'P 1'
_cell_length_a   4.52671900
_cell_length_b   7.08142498
_cell_length_c   7.19851351
_cell_angle_alpha   88.77184127
_cell_angle_beta   90.00000000
_cell_angle_gamma   90.00000000
_symmetry_Int_Tables_number   1
_chemical_formula_structural   Lu4Ga3SnRu4
_chemical_formula_sum   'Lu4 Ga3 Sn1 Ru4'
_cell_volume   230.69981029
_cell_formula_units_Z   1
loop_
 _symmetry_equiv_pos_site_id
 _symmetry_equiv_pos_as_xyz
  1  'x, y, z'
loop_
 _atom_site_type_symbol
 _atom_site_label
 _atom_site_symmetry_multiplicity
 _atom_site_fract_x
 _atom_site_fract_y
 _atom_site_fract_z
 _atom_site_occupancy
  Lu  Lu0  1  0.250000  0.494650  0.702849  1
  Lu  Lu1  1  0.750000  0.017737  0.194163  1
  Lu  Lu2  1  0.750000  0.521345  0.295647  1
  Lu  Lu3  1  0.250000  0.975401  0.807329  1
  Ga  Ga4  1  0.750000  0.703823  0.897758  1
  Ga  Ga5  1  0.250000  0.797211  0.393453  1
  Ga  Ga6  1  0.250000  0.298927  0.101064  1
  Sn  Sn7  1  0.750000  0.204064  0.608922  1
  Ru  Ru8  1  0.750000  0.827207  0.561157  1
  Ru  Ru9  1  0.750000  0.345545  0.947795  1
  Ru  Ru10  1  0.250000  0.661345  0.062488  1
  Ru  Ru11  1  0.250000  0.152744  0.427373  1
