# generated using pymatgen
data_Nb6Si6Tc5Mo
_symmetry_space_group_name_H-M   'P 1'
_cell_length_a   7.59351490
_cell_length_b   7.60279680
_cell_length_c   7.60279605
_cell_angle_alpha   126.87056952
_cell_angle_beta   126.05605099
_cell_angle_gamma   79.15825407
_symmetry_Int_Tables_number   1
_chemical_formula_structural   Nb6Si6Tc5Mo
_chemical_formula_sum   'Nb6 Si6 Tc5 Mo1'
_cell_volume   274.47315703
_cell_formula_units_Z   1
loop_
 _symmetry_equiv_pos_site_id
 _symmetry_equiv_pos_as_xyz
  1  'x, y, z'
loop_
 _atom_site_type_symbol
 _atom_site_label
 _atom_site_symmetry_multiplicity
 _atom_site_fract_x
 _atom_site_fract_y
 _atom_site_fract_z
 _atom_site_occupancy
  Nb  Nb0  1  0.554215  0.096766  0.040661  1
  Nb  Nb1  1  0.445785  0.486446  0.542551  1
  Nb  Nb2  1  0.957298  0.497091  0.037702  1
  Nb  Nb3  1  0.042702  0.080403  0.539793  1
  Nb  Nb4  1  0.752390  0.909547  0.655146  1
  Nb  Nb5  1  0.247610  0.902755  0.157157  1
  Si  Si6  1  0.770423  0.527572  0.258332  1
  Si  Si7  1  0.229577  0.487909  0.757149  1
  Si  Si8  1  0.334549  0.822544  0.495310  1
  Si  Si9  1  0.665451  0.160762  0.487996  1
  Si  Si10  1  0.828571  0.825621  0.990208  1
  Si  Si11  1  0.171429  0.161638  0.997050  1
  Tc  Tc12  1  0.000000  0.245157  0.245157  1
  Tc  Tc13  1  0.154500  0.749542  0.650334  1
  Tc  Tc14  1  0.845500  0.495832  0.595040  1
  Tc  Tc15  1  0.598019  0.751642  0.094790  1
  Tc  Tc16  1  0.401981  0.496770  0.153623  1
  Mo  Mo17  1  0.500000  0.244202  0.744202  1
