# generated using pymatgen
data_Y4Tm(In2Rh)2
_symmetry_space_group_name_H-M   'P 1'
_cell_length_a   3.61644200
_cell_length_b   7.98013862
_cell_length_c   18.26390500
_cell_angle_alpha   90.03650209
_cell_angle_beta   90.00000000
_cell_angle_gamma   90.00000000
_symmetry_Int_Tables_number   1
_chemical_formula_structural   Y4Tm(In2Rh)2
_chemical_formula_sum   'Y8 Tm2 In8 Rh4'
_cell_volume   527.09086684
_cell_formula_units_Z   2
loop_
 _symmetry_equiv_pos_site_id
 _symmetry_equiv_pos_as_xyz
  1  'x, y, z'
loop_
 _atom_site_type_symbol
 _atom_site_label
 _atom_site_symmetry_multiplicity
 _atom_site_fract_x
 _atom_site_fract_y
 _atom_site_fract_z
 _atom_site_occupancy
  Y  Y0  1  0.000000  0.500000  0.500000  1
  Y  Y1  1  0.000000  0.000000  0.000000  1
  Y  Y2  1  0.000000  0.746073  0.279197  1
  Y  Y3  1  0.000000  0.253927  0.720803  1
  Y  Y4  1  0.000000  0.753741  0.778400  1
  Y  Y5  1  0.000000  0.246259  0.221600  1
  Y  Y6  1  0.000000  0.617744  0.088184  1
  Y  Y7  1  0.000000  0.382256  0.911816  1
  Tm  Tm8  1  0.000000  0.882935  0.588730  1
  Tm  Tm9  1  0.000000  0.117065  0.411270  1
  In  In10  1  0.500000  0.707400  0.931528  1
  In  In11  1  0.500000  0.292600  0.068472  1
  In  In12  1  0.500000  0.795549  0.433001  1
  In  In13  1  0.500000  0.204451  0.566999  1
  In  In14  1  0.500000  0.573182  0.649659  1
  In  In15  1  0.500000  0.426818  0.350341  1
  In  In16  1  0.500000  0.929300  0.150982  1
  In  In17  1  0.500000  0.070700  0.849018  1
  Rh  Rh18  1  0.500000  0.523258  0.195539  1
  Rh  Rh19  1  0.500000  0.476742  0.804461  1
  Rh  Rh20  1  0.500000  0.975302  0.693260  1
  Rh  Rh21  1  0.500000  0.024698  0.306740  1
