# generated using pymatgen
data_Dy5FeCo5
_symmetry_space_group_name_H-M   'P 1'
_cell_length_a   5.45201731
_cell_length_b   5.45201739
_cell_length_c   20.46963400
_cell_angle_alpha   90.05279771
_cell_angle_beta   89.94720229
_cell_angle_gamma   137.19022482
_symmetry_Int_Tables_number   1
_chemical_formula_structural   Dy5FeCo5
_chemical_formula_sum   'Dy10 Fe2 Co10'
_cell_volume   413.48167753
_cell_formula_units_Z   2
loop_
 _symmetry_equiv_pos_site_id
 _symmetry_equiv_pos_as_xyz
  1  'x, y, z'
loop_
 _atom_site_type_symbol
 _atom_site_label
 _atom_site_symmetry_multiplicity
 _atom_site_fract_x
 _atom_site_fract_y
 _atom_site_fract_z
 _atom_site_occupancy
  Dy  Dy0  1  0.285516  0.714484  0.065245  1
  Dy  Dy1  1  0.005511  0.994489  0.844524  1
  Dy  Dy2  1  0.714438  0.285562  0.564874  1
  Dy  Dy3  1  0.281056  0.718944  0.250065  1
  Dy  Dy4  1  0.718733  0.281267  0.749956  1
  Dy  Dy5  1  0.994788  0.005212  0.344478  1
  Dy  Dy6  1  0.005267  0.994733  0.655390  1
  Dy  Dy7  1  0.714616  0.285384  0.935046  1
  Dy  Dy8  1  0.994680  0.005320  0.155647  1
  Dy  Dy9  1  0.285213  0.714787  0.434853  1
  Fe  Fe10  1  0.999931  0.000069  0.499815  1
  Fe  Fe11  1  0.000205  0.999795  0.000088  1
  Co  Co12  1  0.304448  0.695552  0.653024  1
  Co  Co13  1  0.571806  0.428194  0.444602  1
  Co  Co14  1  0.421106  0.578894  0.750016  1
  Co  Co15  1  0.428157  0.571843  0.944555  1
  Co  Co16  1  0.578506  0.421494  0.250033  1
  Co  Co17  1  0.428215  0.571785  0.555156  1
  Co  Co18  1  0.695641  0.304359  0.346865  1
  Co  Co19  1  0.695399  0.304601  0.153079  1
  Co  Co20  1  0.571952  0.428048  0.055614  1
  Co  Co21  1  0.304815  0.695185  0.847072  1
