# generated using pymatgen
data_SrPr3Nd3CoI12
_symmetry_space_group_name_H-M   'P 1'
_cell_length_a   9.98192422
_cell_length_b   10.09817421
_cell_length_c   10.08020908
_cell_angle_alpha   106.28928375
_cell_angle_beta   106.52573819
_cell_angle_gamma   106.20893960
_symmetry_Int_Tables_number   1
_chemical_formula_structural   SrPr3Nd3CoI12
_chemical_formula_sum   'Sr1 Pr3 Nd3 Co1 I12'
_cell_volume   860.94538539
_cell_formula_units_Z   1
loop_
 _symmetry_equiv_pos_site_id
 _symmetry_equiv_pos_as_xyz
  1  'x, y, z'
loop_
 _atom_site_type_symbol
 _atom_site_label
 _atom_site_symmetry_multiplicity
 _atom_site_fract_x
 _atom_site_fract_y
 _atom_site_fract_z
 _atom_site_occupancy
  Sr  Sr0  1  0.499970  0.500051  0.499922  1
  Pr  Pr1  1  0.285972  0.019912  0.091572  1
  Pr  Pr2  1  0.903304  0.699018  0.979549  1
  Pr  Pr3  1  0.714181  0.980386  0.908447  1
  Nd  Nd4  1  0.979742  0.904090  0.699978  1
  Nd  Nd5  1  0.020488  0.096685  0.300222  1
  Nd  Nd6  1  0.096308  0.299313  0.020542  1
  Co  Co7  1  0.000157  0.000381  0.000151  1
  I  I8  1  0.545000  0.628482  0.855410  1
  I  I9  1  0.453020  0.371387  0.143633  1
  I  I10  1  0.321635  0.926525  0.774409  1
  I  I11  1  0.371619  0.143539  0.452676  1
  I  I12  1  0.927112  0.776585  0.323191  1
  I  I13  1  0.678383  0.073506  0.225602  1
  I  I14  1  0.073252  0.224567  0.678738  1
  I  I15  1  0.773769  0.321433  0.926014  1
  I  I16  1  0.227910  0.677832  0.074359  1
  I  I17  1  0.858934  0.548987  0.628952  1
  I  I18  1  0.140890  0.450794  0.369249  1
  I  I19  1  0.628356  0.856526  0.547383  1
