# generated using pymatgen
data_TbYb3B16Os3W
_symmetry_space_group_name_H-M   'P 1'
_cell_length_a   3.54643300
_cell_length_b   5.99459896
_cell_length_c   11.59273715
_cell_angle_alpha   89.91717933
_cell_angle_beta   90.00000000
_cell_angle_gamma   90.00000000
_symmetry_Int_Tables_number   1
_chemical_formula_structural   TbYb3B16Os3W
_chemical_formula_sum   'Tb1 Yb3 B16 Os3 W1'
_cell_volume   246.45488360
_cell_formula_units_Z   1
loop_
 _symmetry_equiv_pos_site_id
 _symmetry_equiv_pos_as_xyz
  1  'x, y, z'
loop_
 _atom_site_type_symbol
 _atom_site_label
 _atom_site_symmetry_multiplicity
 _atom_site_fract_x
 _atom_site_fract_y
 _atom_site_fract_z
 _atom_site_occupancy
  Tb  Tb0  1  0.000000  0.128588  0.646705  1
  Yb  Yb1  1  0.000000  0.869154  0.351285  1
  Yb  Yb2  1  0.000000  0.629200  0.847885  1
  Yb  Yb3  1  0.000000  0.373853  0.153147  1
  B  B4  1  0.500000  0.475924  0.690088  1
  B  B5  1  0.500000  0.527101  0.308933  1
  B  B6  1  0.500000  0.972658  0.806851  1
  B  B7  1  0.500000  0.021587  0.193568  1
  B  B8  1  0.500000  0.290959  0.813117  1
  B  B9  1  0.500000  0.715020  0.185443  1
  B  B10  1  0.500000  0.783775  0.684077  1
  B  B11  1  0.500000  0.213941  0.314099  1
  B  B12  1  0.500000  0.369078  0.970329  1
  B  B13  1  0.500000  0.635531  0.033930  1
  B  B14  1  0.500000  0.862357  0.529063  1
  B  B15  1  0.500000  0.136761  0.468978  1
  B  B16  1  0.500000  0.388872  0.545637  1
  B  B17  1  0.500000  0.613634  0.451794  1
  B  B18  1  0.500000  0.880412  0.954616  1
  B  B19  1  0.500000  0.112275  0.050918  1
  Os  Os20  1  0.000000  0.869557  0.085603  1
  Os  Os21  1  0.000000  0.639701  0.589302  1
  Os  Os22  1  0.000000  0.357478  0.408671  1
  W  W23  1  0.000000  0.132590  0.915961  1
