# generated using pymatgen
data_TmInCu3Ir
_symmetry_space_group_name_H-M   'P 1'
_cell_length_a   5.21226825
_cell_length_b   5.21226782
_cell_length_c   5.21226841
_cell_angle_alpha   58.41557354
_cell_angle_beta   58.41557688
_cell_angle_gamma   58.41557743
_symmetry_Int_Tables_number   1
_chemical_formula_structural   TmInCu3Ir
_chemical_formula_sum   'Tm1 In1 Cu3 Ir1'
_cell_volume   96.49929904
_cell_formula_units_Z   1
loop_
 _symmetry_equiv_pos_site_id
 _symmetry_equiv_pos_as_xyz
  1  'x, y, z'
loop_
 _atom_site_type_symbol
 _atom_site_label
 _atom_site_symmetry_multiplicity
 _atom_site_fract_x
 _atom_site_fract_y
 _atom_site_fract_z
 _atom_site_occupancy
  Tm  Tm0  1  0.251795  0.251795  0.251795  1
  In  In1  1  0.997050  0.997050  0.997050  1
  Cu  Cu2  1  0.624279  0.624279  0.125988  1
  Cu  Cu3  1  0.624279  0.125988  0.624279  1
  Cu  Cu4  1  0.125988  0.624279  0.624279  1
  Ir  Ir5  1  0.626610  0.626610  0.626610  1
