# generated using pymatgen
data_Ca5(B5Ir7)2
_symmetry_space_group_name_H-M   'P 1'
_cell_length_a   15.30836907
_cell_length_b   14.77579911
_cell_length_c   5.63478331
_cell_angle_alpha   84.57988348
_cell_angle_beta   73.92393329
_cell_angle_gamma   21.49618735
_symmetry_Int_Tables_number   1
_chemical_formula_structural   Ca5(B5Ir7)2
_chemical_formula_sum   'Ca5 B10 Ir14'
_cell_volume   397.66997600
_cell_formula_units_Z   1
loop_
 _symmetry_equiv_pos_site_id
 _symmetry_equiv_pos_as_xyz
  1  'x, y, z'
loop_
 _atom_site_type_symbol
 _atom_site_label
 _atom_site_symmetry_multiplicity
 _atom_site_fract_x
 _atom_site_fract_y
 _atom_site_fract_z
 _atom_site_occupancy
  Ca  Ca0  1  0.708955  0.708955  0.291045  1
  Ca  Ca1  1  0.291045  0.291045  0.708955  1
  Ca  Ca2  1  0.603745  0.603745  0.396255  1
  Ca  Ca3  1  0.396255  0.396255  0.603745  1
  Ca  Ca4  1  0.500000  0.500000  0.500000  1
  B  B5  1  0.047833  0.360922  0.639078  1
  B  B6  1  0.952167  0.639078  0.360922  1
  B  B7  1  0.639078  0.952167  0.047833  1
  B  B8  1  0.360922  0.047833  0.952167  1
  B  B9  1  0.933354  0.270511  0.729489  1
  B  B10  1  0.066646  0.729489  0.270511  1
  B  B11  1  0.729489  0.066646  0.933354  1
  B  B12  1  0.270511  0.933354  0.066646  1
  B  B13  1  0.833877  0.166123  0.833877  1
  B  B14  1  0.166123  0.833877  0.166123  1
  Ir  Ir15  1  0.750000  0.750000  0.750000  1
  Ir  Ir16  1  0.250000  0.250000  0.250000  1
  Ir  Ir17  1  0.651946  0.651946  0.848054  1
  Ir  Ir18  1  0.848054  0.848054  0.651946  1
  Ir  Ir19  1  0.348054  0.348054  0.151946  1
  Ir  Ir20  1  0.151946  0.151946  0.348054  1
  Ir  Ir21  1  0.550795  0.550795  0.949205  1
  Ir  Ir22  1  0.949205  0.949205  0.550795  1
  Ir  Ir23  1  0.449205  0.449205  0.050795  1
  Ir  Ir24  1  0.050795  0.050795  0.449205  1
  Ir  Ir25  1  0.847445  0.847445  0.152555  1
  Ir  Ir26  1  0.152555  0.152555  0.847445  1
  Ir  Ir27  1  0.949024  0.949024  0.050976  1
  Ir  Ir28  1  0.050976  0.050976  0.949024  1
