# generated using pymatgen
data_Nd3Er(Ir2O7)2
_symmetry_space_group_name_H-M   'P 1'
_cell_length_a   7.37377571
_cell_length_b   7.37377615
_cell_length_c   7.33445784
_cell_angle_alpha   59.82251031
_cell_angle_beta   59.82250652
_cell_angle_gamma   59.99999853
_symmetry_Int_Tables_number   1
_chemical_formula_structural   Nd3Er(Ir2O7)2
_chemical_formula_sum   'Nd3 Er1 Ir4 O14'
_cell_volume   281.23058049
_cell_formula_units_Z   1
loop_
 _symmetry_equiv_pos_site_id
 _symmetry_equiv_pos_as_xyz
  1  'x, y, z'
loop_
 _atom_site_type_symbol
 _atom_site_label
 _atom_site_symmetry_multiplicity
 _atom_site_fract_x
 _atom_site_fract_y
 _atom_site_fract_z
 _atom_site_occupancy
  Nd  Nd0  1  0.625000  0.125000  0.125000  1
  Nd  Nd1  1  0.125000  0.625000  0.125000  1
  Nd  Nd2  1  0.125000  0.125000  0.125000  1
  Er  Er3  1  0.125000  0.125000  0.625000  1
  Ir  Ir4  1  0.125000  0.625000  0.625000  1
  Ir  Ir5  1  0.625000  0.125000  0.625000  1
  Ir  Ir6  1  0.625000  0.625000  0.125000  1
  Ir  Ir7  1  0.625000  0.625000  0.625000  1
  O  O8  1  0.708736  0.708736  0.291608  1
  O  O9  1  0.291253  0.291253  0.700639  1
  O  O10  1  0.716856  0.291253  0.700639  1
  O  O11  1  0.290920  0.708736  0.291608  1
  O  O12  1  0.291253  0.716856  0.700639  1
  O  O13  1  0.708736  0.290920  0.291608  1
  O  O14  1  0.541264  0.541264  0.958392  1
  O  O15  1  0.958747  0.958747  0.549361  1
  O  O16  1  0.533144  0.958747  0.549361  1
  O  O17  1  0.959080  0.541264  0.958392  1
  O  O18  1  0.958747  0.533144  0.549361  1
  O  O19  1  0.541264  0.959080  0.958392  1
  O  O20  1  0.245652  0.245652  0.263044  1
  O  O21  1  0.004348  0.004348  0.986956  1
