# generated using pymatgen
data_Tb4Er2Al24Os7Pt
_symmetry_space_group_name_H-M   'P 1'
_cell_length_a   8.83867500
_cell_length_b   8.83867407
_cell_length_c   9.55512251
_cell_angle_alpha   89.65237060
_cell_angle_beta   90.34762757
_cell_angle_gamma   119.95065467
_symmetry_Int_Tables_number   1
_chemical_formula_structural   Tb4Er2Al24Os7Pt
_chemical_formula_sum   'Tb4 Er2 Al24 Os7 Pt1'
_cell_volume   646.76460540
_cell_formula_units_Z   1
loop_
 _symmetry_equiv_pos_site_id
 _symmetry_equiv_pos_as_xyz
  1  'x, y, z'
loop_
 _atom_site_type_symbol
 _atom_site_label
 _atom_site_symmetry_multiplicity
 _atom_site_fract_x
 _atom_site_fract_y
 _atom_site_fract_z
 _atom_site_occupancy
  Tb  Tb0  1  0.190418  0.386245  0.251200  1
  Tb  Tb1  1  0.809582  0.613755  0.748800  1
  Tb  Tb2  1  0.613755  0.809582  0.251200  1
  Tb  Tb3  1  0.386245  0.190418  0.748800  1
  Er  Er4  1  0.195279  0.804721  0.251443  1
  Er  Er5  1  0.804721  0.195279  0.748557  1
  Al  Al6  1  0.331431  0.668569  0.019926  1
  Al  Al7  1  0.668569  0.331431  0.980074  1
  Al  Al8  1  0.666708  0.333292  0.516888  1
  Al  Al9  1  0.333292  0.666708  0.483112  1
  Al  Al10  1  0.163417  0.325640  0.577390  1
  Al  Al11  1  0.836583  0.674360  0.422610  1
  Al  Al12  1  0.674360  0.836583  0.577390  1
  Al  Al13  1  0.842290  0.675402  0.077526  1
  Al  Al14  1  0.325640  0.163417  0.422610  1
  Al  Al15  1  0.157710  0.324598  0.922474  1
  Al  Al16  1  0.163525  0.836475  0.574955  1
  Al  Al17  1  0.324598  0.157710  0.077526  1
  Al  Al18  1  0.836475  0.163525  0.425045  1
  Al  Al19  1  0.675402  0.842290  0.922474  1
  Al  Al20  1  0.836820  0.163180  0.075030  1
  Al  Al21  1  0.163180  0.836820  0.924970  1
  Al  Al22  1  0.559826  0.122001  0.249004  1
  Al  Al23  1  0.440174  0.877999  0.750996  1
  Al  Al24  1  0.877999  0.440174  0.249004  1
  Al  Al25  1  0.122001  0.559826  0.750996  1
  Al  Al26  1  0.562024  0.437976  0.251889  1
  Al  Al27  1  0.437976  0.562024  0.748111  1
  Al  Al28  1  0.000152  0.999848  0.250132  1
  Al  Al29  1  0.999848  0.000152  0.749868  1
  Os  Os30  1  0.500000  0.000000  0.000000  1
  Os  Os31  1  0.000000  0.500000  0.000000  1
  Os  Os32  1  0.500000  0.000000  0.500000  1
  Os  Os33  1  0.000000  0.500000  0.500000  1
  Os  Os34  1  0.500000  0.500000  0.500000  1
  Os  Os35  1  0.000000  0.000000  0.000000  1
  Os  Os36  1  0.000000  0.000000  0.500000  1
  Pt  Pt37  1  0.500000  0.500000  0.000000  1
