# generated using pymatgen
data_Tm12TlNi4Os
_symmetry_space_group_name_H-M   'P 1'
_cell_length_a   8.19961198
_cell_length_b   8.19961300
_cell_length_c   8.19961200
_cell_angle_alpha   111.53667524
_cell_angle_beta   110.10285619
_cell_angle_gamma   106.80986834
_symmetry_Int_Tables_number   1
_chemical_formula_structural   Tm12TlNi4Os
_chemical_formula_sum   'Tm12 Tl1 Ni4 Os1'
_cell_volume   423.63068069
_cell_formula_units_Z   1
loop_
 _symmetry_equiv_pos_site_id
 _symmetry_equiv_pos_as_xyz
  1  'x, y, z'
loop_
 _atom_site_type_symbol
 _atom_site_label
 _atom_site_symmetry_multiplicity
 _atom_site_fract_x
 _atom_site_fract_y
 _atom_site_fract_z
 _atom_site_occupancy
  Tm  Tm0  1  0.413992  0.222744  0.191247  1
  Tm  Tm1  1  0.586008  0.777256  0.808753  1
  Tm  Tm2  1  0.031498  0.222744  0.808753  1
  Tm  Tm3  1  0.968502  0.777256  0.191247  1
  Tm  Tm4  1  0.179767  0.279263  0.459030  1
  Tm  Tm5  1  0.820233  0.720737  0.540970  1
  Tm  Tm6  1  0.179767  0.720737  0.900504  1
  Tm  Tm7  1  0.820233  0.279263  0.099496  1
  Tm  Tm8  1  0.321607  0.626571  0.304964  1
  Tm  Tm9  1  0.678393  0.373429  0.695036  1
  Tm  Tm10  1  0.321607  0.016641  0.695036  1
  Tm  Tm11  1  0.678393  0.983359  0.304964  1
  Tl  Tl12  1  0.500000  0.500000  0.000000  1
  Ni  Ni13  1  0.359490  0.000000  0.359490  1
  Ni  Ni14  1  0.640510  0.000000  0.640510  1
  Ni  Ni15  1  0.120025  0.620025  0.500000  1
  Ni  Ni16  1  0.879975  0.379975  0.500000  1
  Os  Os17  1  0.000000  0.000000  0.000000  1
