# generated using pymatgen
data_ErLu19(SnPb)8
_symmetry_space_group_name_H-M   'P 1'
_cell_length_a   8.00959366
_cell_length_b   8.05754010
_cell_length_c   15.28599118
_cell_angle_alpha   90.00912751
_cell_angle_beta   89.95598566
_cell_angle_gamma   89.98431839
_symmetry_Int_Tables_number   1
_chemical_formula_structural   ErLu19(SnPb)8
_chemical_formula_sum   'Er1 Lu19 Sn8 Pb8'
_cell_volume   986.52118222
_cell_formula_units_Z   1
loop_
 _symmetry_equiv_pos_site_id
 _symmetry_equiv_pos_as_xyz
  1  'x, y, z'
loop_
 _atom_site_type_symbol
 _atom_site_label
 _atom_site_symmetry_multiplicity
 _atom_site_fract_x
 _atom_site_fract_y
 _atom_site_fract_z
 _atom_site_occupancy
  Er  Er0  1  0.035417  0.176623  0.897744  1
  Lu  Lu1  1  0.378570  0.839602  0.876571  1
  Lu  Lu2  1  0.878495  0.660323  0.623354  1
  Lu  Lu3  1  0.621460  0.160253  0.376600  1
  Lu  Lu4  1  0.121601  0.339847  0.123558  1
  Lu  Lu5  1  0.621646  0.160197  0.123429  1
  Lu  Lu6  1  0.121485  0.339712  0.376589  1
  Lu  Lu7  1  0.378573  0.839664  0.623400  1
  Lu  Lu8  1  0.878486  0.660351  0.876565  1
  Lu  Lu9  1  0.535713  0.323567  0.897521  1
  Lu  Lu10  1  0.035809  0.176526  0.602544  1
  Lu  Lu11  1  0.464231  0.676456  0.397531  1
  Lu  Lu12  1  0.964300  0.823519  0.102508  1
  Lu  Lu13  1  0.464326  0.676545  0.102455  1
  Lu  Lu14  1  0.964218  0.823537  0.397523  1
  Lu  Lu15  1  0.535799  0.323592  0.602415  1
  Lu  Lu16  1  0.208978  0.504370  0.749902  1
  Lu  Lu17  1  0.708698  0.995597  0.749867  1
  Lu  Lu18  1  0.791123  0.495694  0.250038  1
  Lu  Lu19  1  0.291160  0.004281  0.250025  1
  Sn  Sn20  1  0.573748  0.623140  0.749981  1
  Sn  Sn21  1  0.073783  0.876577  0.749958  1
  Sn  Sn22  1  0.426245  0.376882  0.249981  1
  Sn  Sn23  1  0.926250  0.123170  0.250021  1
  Sn  Sn24  1  0.344710  0.150272  0.749847  1
  Sn  Sn25  1  0.843853  0.350271  0.749544  1
  Sn  Sn26  1  0.655585  0.849678  0.249979  1
  Sn  Sn27  1  0.155577  0.650347  0.250011  1
  Pb  Pb28  1  0.282276  0.033033  0.041622  1
  Pb  Pb29  1  0.781793  0.466575  0.458748  1
  Pb  Pb30  1  0.718212  0.966618  0.541252  1
  Pb  Pb31  1  0.218562  0.533932  0.958856  1
  Pb  Pb32  1  0.717354  0.965855  0.958885  1
  Pb  Pb33  1  0.218249  0.533426  0.541232  1
  Pb  Pb34  1  0.281813  0.033479  0.458766  1
  Pb  Pb35  1  0.781901  0.466491  0.041176  1
