# generated using pymatgen
data_Rb2BiIr3S8
_symmetry_space_group_name_H-M   'P 1'
_cell_length_a   6.34257900
_cell_length_b   7.33491995
_cell_length_c   16.20052500
_cell_angle_alpha   89.82313466
_cell_angle_beta   90.00000000
_cell_angle_gamma   90.00000000
_symmetry_Int_Tables_number   1
_chemical_formula_structural   Rb2BiIr3S8
_chemical_formula_sum   'Rb4 Bi2 Ir6 S16'
_cell_volume   753.68224270
_cell_formula_units_Z   2
loop_
 _symmetry_equiv_pos_site_id
 _symmetry_equiv_pos_as_xyz
  1  'x, y, z'
loop_
 _atom_site_type_symbol
 _atom_site_label
 _atom_site_symmetry_multiplicity
 _atom_site_fract_x
 _atom_site_fract_y
 _atom_site_fract_z
 _atom_site_occupancy
  Rb  Rb0  1  0.351853  0.000000  0.000000  1
  Rb  Rb1  1  0.648147  0.500000  0.500000  1
  Rb  Rb2  1  0.028906  0.000000  0.500000  1
  Rb  Rb3  1  0.971094  0.500000  0.000000  1
  Bi  Bi4  1  0.500000  0.250000  0.250000  1
  Bi  Bi5  1  0.500000  0.750000  0.750000  1
  Ir  Ir6  1  0.000511  0.997133  0.250267  1
  Ir  Ir7  1  0.000511  0.002867  0.749733  1
  Ir  Ir8  1  0.999489  0.502867  0.249733  1
  Ir  Ir9  1  0.999489  0.497133  0.750267  1
  Ir  Ir10  1  0.500000  0.750000  0.250000  1
  Ir  Ir11  1  0.500000  0.250000  0.750000  1
  S  S12  1  0.868873  0.250892  0.330498  1
  S  S13  1  0.868873  0.749108  0.669502  1
  S  S14  1  0.166428  0.750968  0.175829  1
  S  S15  1  0.166428  0.249032  0.824171  1
  S  S16  1  0.131127  0.249108  0.169502  1
  S  S17  1  0.131127  0.750892  0.830498  1
  S  S18  1  0.833572  0.749032  0.324171  1
  S  S19  1  0.833572  0.250968  0.675829  1
  S  S20  1  0.684985  0.974431  0.170610  1
  S  S21  1  0.684985  0.025569  0.829390  1
  S  S22  1  0.315015  0.525569  0.329390  1
  S  S23  1  0.315015  0.474431  0.670610  1
  S  S24  1  0.317317  0.973198  0.328845  1
  S  S25  1  0.317317  0.026802  0.671155  1
  S  S26  1  0.682683  0.526802  0.171155  1
  S  S27  1  0.682683  0.473198  0.828845  1
