# generated using pymatgen
data_Pm2(MoO4)3
_symmetry_space_group_name_H-M   'P 1'
_cell_length_a   7.06495675
_cell_length_b   7.06495625
_cell_length_c   11.63104854
_cell_angle_alpha   79.29589702
_cell_angle_beta   79.29589851
_cell_angle_gamma   112.68824012
_symmetry_Int_Tables_number   1
_chemical_formula_structural   Pm2(MoO4)3
_chemical_formula_sum   'Pm4 Mo6 O24'
_cell_volume   504.64688565
_cell_formula_units_Z   2
loop_
 _symmetry_equiv_pos_site_id
 _symmetry_equiv_pos_as_xyz
  1  'x, y, z'
loop_
 _atom_site_type_symbol
 _atom_site_label
 _atom_site_symmetry_multiplicity
 _atom_site_fract_x
 _atom_site_fract_y
 _atom_site_fract_z
 _atom_site_occupancy
  Pm  Pm0  1  0.195960  0.451390  0.592578  1
  Pm  Pm1  1  0.804040  0.548610  0.407422  1
  Pm  Pm2  1  0.548610  0.804040  0.907422  1
  Pm  Pm3  1  0.451390  0.195960  0.092578  1
  Mo  Mo4  1  0.011162  0.298852  0.950829  1
  Mo  Mo5  1  0.988838  0.701148  0.049171  1
  Mo  Mo6  1  0.701148  0.988838  0.549171  1
  Mo  Mo7  1  0.298852  0.011162  0.450829  1
  Mo  Mo8  1  0.618755  0.381245  0.750000  1
  Mo  Mo9  1  0.381245  0.618755  0.250000  1
  O  O10  1  0.552195  0.469453  0.610769  1
  O  O11  1  0.447805  0.530547  0.389231  1
  O  O12  1  0.530547  0.447805  0.889231  1
  O  O13  1  0.469453  0.552195  0.110769  1
  O  O14  1  0.511984  0.099085  0.781983  1
  O  O15  1  0.488016  0.900915  0.218017  1
  O  O16  1  0.900915  0.488016  0.718017  1
  O  O17  1  0.099085  0.511984  0.281983  1
  O  O18  1  0.726662  0.125320  0.961993  1
  O  O19  1  0.273338  0.874680  0.038007  1
  O  O20  1  0.874680  0.273338  0.538007  1
  O  O21  1  0.125320  0.726662  0.461993  1
  O  O22  1  0.401234  0.824810  0.575463  1
  O  O23  1  0.598766  0.175190  0.424537  1
  O  O24  1  0.175190  0.598766  0.924537  1
  O  O25  1  0.824810  0.401234  0.075463  1
  O  O26  1  0.146163  0.297046  0.803669  1
  O  O27  1  0.853837  0.702954  0.196331  1
  O  O28  1  0.702954  0.853837  0.696331  1
  O  O29  1  0.297046  0.146163  0.303669  1
  O  O30  1  0.894753  0.824382  0.942032  1
  O  O31  1  0.105247  0.175618  0.057968  1
  O  O32  1  0.175618  0.105247  0.557968  1
  O  O33  1  0.824382  0.894753  0.442032  1
