# generated using pymatgen
data_Y5Er8Th3Mg2(InIr2)2
_symmetry_space_group_name_H-M   'P 1'
_cell_length_a   9.72447599
_cell_length_b   9.74263498
_cell_length_c   9.74980008
_cell_angle_alpha   59.97541306
_cell_angle_beta   59.90005299
_cell_angle_gamma   60.05305730
_symmetry_Int_Tables_number   1
_chemical_formula_structural   Y5Er8Th3Mg2(InIr2)2
_chemical_formula_sum   'Y5 Er8 Th3 Mg2 In2 Ir4'
_cell_volume   652.81046038
_cell_formula_units_Z   1
loop_
 _symmetry_equiv_pos_site_id
 _symmetry_equiv_pos_as_xyz
  1  'x, y, z'
loop_
 _atom_site_type_symbol
 _atom_site_label
 _atom_site_symmetry_multiplicity
 _atom_site_fract_x
 _atom_site_fract_y
 _atom_site_fract_z
 _atom_site_occupancy
  Y  Y0  1  0.813473  0.187482  0.185708  1
  Y  Y1  1  0.813911  0.187093  0.813414  1
  Y  Y2  1  0.187034  0.814123  0.185092  1
  Y  Y3  1  0.812988  0.814414  0.186184  1
  Y  Y4  1  0.187508  0.186193  0.812930  1
  Er  Er5  1  0.201506  0.600738  0.599054  1
  Er  Er6  1  0.061608  0.438479  0.439871  1
  Er  Er7  1  0.437141  0.062261  0.062949  1
  Er  Er8  1  0.436971  0.062112  0.437949  1
  Er  Er9  1  0.061734  0.438737  0.059922  1
  Er  Er10  1  0.435768  0.436274  0.063886  1
  Er  Er11  1  0.060871  0.057525  0.441103  1
  Er  Er12  1  0.187042  0.814024  0.813152  1
  Th  Th13  1  0.594705  0.598339  0.598826  1
  Th  Th14  1  0.595036  0.598199  0.208194  1
  Th  Th15  1  0.596752  0.203749  0.599792  1
  Mg  Mg16  1  0.830531  0.513803  0.827826  1
  Mg  Mg17  1  0.512047  0.829223  0.829248  1
  In  In18  1  0.835456  0.831738  0.833769  1
  In  In19  1  0.835038  0.831776  0.499354  1
  Ir  Ir20  1  0.393336  0.389032  0.392737  1
  Ir  Ir21  1  0.393237  0.389329  0.824746  1
  Ir  Ir22  1  0.394486  0.823942  0.390944  1
  Ir  Ir23  1  0.821822  0.391421  0.393352  1
