# generated using pymatgen
data_Tm12Mn2CoPb2
_symmetry_space_group_name_H-M   'P 1'
_cell_length_a   8.30258283
_cell_length_b   8.30295647
_cell_length_c   8.30258400
_cell_angle_alpha   108.65447557
_cell_angle_beta   108.49457731
_cell_angle_gamma   111.27804049
_symmetry_Int_Tables_number   1
_chemical_formula_structural   Tm12Mn2CoPb2
_chemical_formula_sum   'Tm12 Mn2 Co1 Pb2'
_cell_volume   440.27208097
_cell_formula_units_Z   1
loop_
 _symmetry_equiv_pos_site_id
 _symmetry_equiv_pos_as_xyz
  1  'x, y, z'
loop_
 _atom_site_type_symbol
 _atom_site_label
 _atom_site_symmetry_multiplicity
 _atom_site_fract_x
 _atom_site_fract_y
 _atom_site_fract_z
 _atom_site_occupancy
  Tm  Tm0  1  0.191706  0.425349  0.233643  1
  Tm  Tm1  1  0.808294  0.574651  0.766357  1
  Tm  Tm2  1  0.191707  0.958066  0.766359  1
  Tm  Tm3  1  0.958153  0.191689  0.766461  1
  Tm  Tm4  1  0.808293  0.041934  0.233641  1
  Tm  Tm5  1  0.041847  0.808311  0.233539  1
  Tm  Tm6  1  0.425229  0.191689  0.233538  1
  Tm  Tm7  1  0.574771  0.808311  0.766462  1
  Tm  Tm8  1  0.308485  0.308492  0.616973  1
  Tm  Tm9  1  0.691515  0.691508  0.383027  1
  Tm  Tm10  1  0.691519  0.308492  0.000007  1
  Tm  Tm11  1  0.308481  0.691508  0.999993  1
  Mn  Mn12  1  0.387380  0.387394  0.000015  1
  Mn  Mn13  1  0.612620  0.612606  0.999985  1
  Co  Co14  1  0.000000  0.000000  0.000000  1
  Pb  Pb15  1  0.000000  0.500000  0.500000  1
  Pb  Pb16  1  0.500000  0.000000  0.500000  1
