# generated using pymatgen
data_Er7Tm3(PPb3)2
_symmetry_space_group_name_H-M   'P 1'
_cell_length_a   9.06438700
_cell_length_b   9.06438589
_cell_length_c   6.72820100
_cell_angle_alpha   90.00000000
_cell_angle_beta   90.00000000
_cell_angle_gamma   119.99999309
_symmetry_Int_Tables_number   1
_chemical_formula_structural   Er7Tm3(PPb3)2
_chemical_formula_sum   'Er7 Tm3 P2 Pb6'
_cell_volume   478.74741791
_cell_formula_units_Z   1
loop_
 _symmetry_equiv_pos_site_id
 _symmetry_equiv_pos_as_xyz
  1  'x, y, z'
loop_
 _atom_site_type_symbol
 _atom_site_label
 _atom_site_symmetry_multiplicity
 _atom_site_fract_x
 _atom_site_fract_y
 _atom_site_fract_z
 _atom_site_occupancy
  Er  Er0  1  0.762081  0.762066  0.249973  1
  Er  Er1  1  0.237934  0.000015  0.249973  1
  Er  Er2  1  0.999985  0.237919  0.249973  1
  Er  Er3  1  0.237934  0.237919  0.750027  1
  Er  Er4  1  0.762081  0.000015  0.750027  1
  Er  Er5  1  0.999985  0.762066  0.750027  1
  Er  Er6  1  0.666667  0.333333  0.500000  1
  Tm  Tm7  1  0.333333  0.666667  0.500000  1
  Tm  Tm8  1  0.333333  0.666667  0.000000  1
  Tm  Tm9  1  0.666667  0.333333  0.000000  1
  P  P10  1  0.000000  0.000000  0.500000  1
  P  P11  1  0.000000  0.000000  0.000000  1
  Pb  Pb12  1  0.399884  0.399955  0.249956  1
  Pb  Pb13  1  0.600045  0.999929  0.249956  1
  Pb  Pb14  1  0.000071  0.600116  0.249956  1
  Pb  Pb15  1  0.600045  0.600116  0.750044  1
  Pb  Pb16  1  0.399884  0.999929  0.750044  1
  Pb  Pb17  1  0.000071  0.399955  0.750044  1
