# generated using pymatgen
data_Tm6Al6GeAu5
_symmetry_space_group_name_H-M   'P 1'
_cell_length_a   7.08155300
_cell_length_b   7.08155293
_cell_length_c   8.41129500
_cell_angle_alpha   90.00000000
_cell_angle_beta   90.00000000
_cell_angle_gamma   119.99999567
_symmetry_Int_Tables_number   1
_chemical_formula_structural   Tm6Al6GeAu5
_chemical_formula_sum   'Tm6 Al6 Ge1 Au5'
_cell_volume   365.30072203
_cell_formula_units_Z   1
loop_
 _symmetry_equiv_pos_site_id
 _symmetry_equiv_pos_as_xyz
  1  'x, y, z'
loop_
 _atom_site_type_symbol
 _atom_site_label
 _atom_site_symmetry_multiplicity
 _atom_site_fract_x
 _atom_site_fract_y
 _atom_site_fract_z
 _atom_site_occupancy
  Tm  Tm0  1  0.583123  0.001277  0.747574  1
  Tm  Tm1  1  0.998723  0.581846  0.747574  1
  Tm  Tm2  1  0.418154  0.416877  0.747574  1
  Tm  Tm3  1  0.998225  0.581666  0.252383  1
  Tm  Tm4  1  0.583441  0.001775  0.252383  1
  Tm  Tm5  1  0.418334  0.416559  0.252383  1
  Al  Al6  1  0.752157  0.761799  0.000004  1
  Al  Al7  1  0.238201  0.990358  0.000004  1
  Al  Al8  1  0.009642  0.247843  0.000004  1
  Al  Al9  1  0.759425  0.759038  0.500020  1
  Al  Al10  1  0.240962  0.000386  0.500020  1
  Al  Al11  1  0.999614  0.240575  0.500020  1
  Ge  Ge12  1  0.666667  0.333333  0.999804  1
  Au  Au13  1  0.000000  0.000000  0.753612  1
  Au  Au14  1  0.000000  0.000000  0.246433  1
  Au  Au15  1  0.666667  0.333333  0.500348  1
  Au  Au16  1  0.333333  0.666667  0.499524  1
  Au  Au17  1  0.333333  0.666667  0.000332  1
