# generated using pymatgen
data_Ho5Tm11(ZnRh)4
_symmetry_space_group_name_H-M   'P 1'
_cell_length_a   9.38317780
_cell_length_b   9.38647015
_cell_length_c   9.38646909
_cell_angle_alpha   60.01488477
_cell_angle_beta   59.96366942
_cell_angle_gamma   59.96367464
_symmetry_Int_Tables_number   1
_chemical_formula_structural   Ho5Tm11(ZnRh)4
_chemical_formula_sum   'Ho5 Tm11 Zn4 Rh4'
_cell_volume   584.31844324
_cell_formula_units_Z   1
loop_
 _symmetry_equiv_pos_site_id
 _symmetry_equiv_pos_as_xyz
  1  'x, y, z'
loop_
 _atom_site_type_symbol
 _atom_site_label
 _atom_site_symmetry_multiplicity
 _atom_site_fract_x
 _atom_site_fract_y
 _atom_site_fract_z
 _atom_site_occupancy
  Ho  Ho0  1  0.064581  0.064641  0.435386  1
  Ho  Ho1  1  0.435976  0.064127  0.435756  1
  Ho  Ho2  1  0.064581  0.435386  0.064641  1
  Ho  Ho3  1  0.063054  0.645842  0.645842  1
  Ho  Ho4  1  0.435976  0.435756  0.064127  1
  Tm  Tm5  1  0.645885  0.063099  0.645229  1
  Tm  Tm6  1  0.190338  0.809807  0.190062  1
  Tm  Tm7  1  0.190338  0.190062  0.809807  1
  Tm  Tm8  1  0.809277  0.809402  0.190665  1
  Tm  Tm9  1  0.437550  0.062593  0.062593  1
  Tm  Tm10  1  0.809526  0.190394  0.190394  1
  Tm  Tm11  1  0.063107  0.436888  0.436888  1
  Tm  Tm12  1  0.809277  0.190665  0.809402  1
  Tm  Tm13  1  0.190055  0.810086  0.810086  1
  Tm  Tm14  1  0.645885  0.645229  0.063099  1
  Tm  Tm15  1  0.645338  0.645783  0.645783  1
  Zn  Zn16  1  0.420772  0.420181  0.420181  1
  Zn  Zn17  1  0.738557  0.420660  0.420660  1
  Zn  Zn18  1  0.421446  0.738862  0.419536  1
  Zn  Zn19  1  0.421446  0.419536  0.738862  1
  Rh  Rh20  1  0.855432  0.856247  0.430840  1
  Rh  Rh21  1  0.854213  0.857494  0.857494  1
  Rh  Rh22  1  0.431956  0.856419  0.856419  1
  Rh  Rh23  1  0.855432  0.430840  0.856247  1
