# generated using pymatgen
data_Ca2V3Ni9As7
_symmetry_space_group_name_H-M   'P 1'
_cell_length_a   9.54305300
_cell_length_b   9.54305247
_cell_length_c   3.80873600
_cell_angle_alpha   90.00000000
_cell_angle_beta   90.00000000
_cell_angle_gamma   119.99999838
_symmetry_Int_Tables_number   1
_chemical_formula_structural   Ca2V3Ni9As7
_chemical_formula_sum   'Ca2 V3 Ni9 As7'
_cell_volume   300.39047454
_cell_formula_units_Z   1
loop_
 _symmetry_equiv_pos_site_id
 _symmetry_equiv_pos_as_xyz
  1  'x, y, z'
loop_
 _atom_site_type_symbol
 _atom_site_label
 _atom_site_symmetry_multiplicity
 _atom_site_fract_x
 _atom_site_fract_y
 _atom_site_fract_z
 _atom_site_occupancy
  Ca  Ca0  1  0.333333  0.666667  0.000000  1
  Ca  Ca1  1  0.666667  0.333333  0.500000  1
  V  V2  1  0.216575  0.115894  0.500000  1
  V  V3  1  0.884106  0.100683  0.500000  1
  V  V4  1  0.899317  0.783425  0.500000  1
  Ni  Ni5  1  0.125148  0.279357  0.000000  1
  Ni  Ni6  1  0.720643  0.845792  0.000000  1
  Ni  Ni7  1  0.154208  0.874852  0.000000  1
  Ni  Ni8  1  0.430094  0.371199  0.000000  1
  Ni  Ni9  1  0.628801  0.058895  0.000000  1
  Ni  Ni10  1  0.941105  0.569906  0.000000  1
  Ni  Ni11  1  0.052941  0.432149  0.500000  1
  Ni  Ni12  1  0.567851  0.620792  0.500000  1
  Ni  Ni13  1  0.379208  0.947059  0.500000  1
  As  As14  1  0.293577  0.406180  0.500000  1
  As  As15  1  0.593820  0.887397  0.500000  1
  As  As16  1  0.112603  0.706423  0.500000  1
  As  As17  1  0.408728  0.114350  0.000000  1
  As  As18  1  0.885650  0.294378  0.000000  1
  As  As19  1  0.705622  0.591272  0.000000  1
  As  As20  1  0.000000  0.000000  0.000000  1
