# generated using pymatgen
data_Pr12Ru(PtCl4)3
_symmetry_space_group_name_H-M   'P 1'
_cell_length_a   10.35369994
_cell_length_b   10.35370118
_cell_length_c   10.35370113
_cell_angle_alpha   109.22774325
_cell_angle_beta   109.22773999
_cell_angle_gamma   109.22774419
_symmetry_Int_Tables_number   1
_chemical_formula_structural   Pr12Ru(PtCl4)3
_chemical_formula_sum   'Pr12 Ru1 Pt3 Cl12'
_cell_volume   862.02332547
_cell_formula_units_Z   1
loop_
 _symmetry_equiv_pos_site_id
 _symmetry_equiv_pos_as_xyz
  1  'x, y, z'
loop_
 _atom_site_type_symbol
 _atom_site_label
 _atom_site_symmetry_multiplicity
 _atom_site_fract_x
 _atom_site_fract_y
 _atom_site_fract_z
 _atom_site_occupancy
  Pr  Pr0  1  0.259815  0.750000  0.240185  1
  Pr  Pr1  1  0.489078  0.750000  0.010922  1
  Pr  Pr2  1  0.242219  0.477716  0.483939  1
  Pr  Pr3  1  0.016061  0.022284  0.257781  1
  Pr  Pr4  1  0.240185  0.259815  0.750000  1
  Pr  Pr5  1  0.010922  0.489078  0.750000  1
  Pr  Pr6  1  0.483939  0.242219  0.477716  1
  Pr  Pr7  1  0.257781  0.016061  0.022284  1
  Pr  Pr8  1  0.750000  0.240185  0.259815  1
  Pr  Pr9  1  0.750000  0.010922  0.489078  1
  Pr  Pr10  1  0.477716  0.483939  0.242219  1
  Pr  Pr11  1  0.022284  0.257781  0.016061  1
  Ru  Ru12  1  0.250000  0.250000  0.250000  1
  Pt  Pt13  1  0.498932  0.001068  0.250000  1
  Pt  Pt14  1  0.250000  0.498932  0.001068  1
  Pt  Pt15  1  0.001068  0.250000  0.498932  1
  Cl  Cl16  1  0.250000  0.000080  0.499920  1
  Cl  Cl17  1  0.496011  0.499394  0.749583  1
  Cl  Cl18  1  0.250000  0.745953  0.754047  1
  Cl  Cl19  1  0.003989  0.750417  0.000606  1
  Cl  Cl20  1  0.000080  0.499920  0.250000  1
  Cl  Cl21  1  0.750417  0.000606  0.003989  1
  Cl  Cl22  1  0.745953  0.754047  0.250000  1
  Cl  Cl23  1  0.499394  0.749583  0.496011  1
  Cl  Cl24  1  0.499920  0.250000  0.000080  1
  Cl  Cl25  1  0.749583  0.496011  0.499394  1
  Cl  Cl26  1  0.754047  0.250000  0.745953  1
  Cl  Cl27  1  0.000606  0.003989  0.750417  1
