# generated using pymatgen
data_EuHo6NiI12
_symmetry_space_group_name_H-M   'P 1'
_cell_length_a   9.75400146
_cell_length_b   9.75400119
_cell_length_c   9.75400144
_cell_angle_alpha   106.58590263
_cell_angle_beta   106.58589605
_cell_angle_gamma   106.58590487
_symmetry_Int_Tables_number   1
_chemical_formula_structural   EuHo6NiI12
_chemical_formula_sum   'Eu1 Ho6 Ni1 I12'
_cell_volume   781.41396228
_cell_formula_units_Z   1
loop_
 _symmetry_equiv_pos_site_id
 _symmetry_equiv_pos_as_xyz
  1  'x, y, z'
loop_
 _atom_site_type_symbol
 _atom_site_label
 _atom_site_symmetry_multiplicity
 _atom_site_fract_x
 _atom_site_fract_y
 _atom_site_fract_z
 _atom_site_occupancy
  Eu  Eu0  1  0.500000  0.500000  0.500000  1
  Ho  Ho1  1  0.906784  0.976969  0.709694  1
  Ho  Ho2  1  0.709694  0.906784  0.976969  1
  Ho  Ho3  1  0.976969  0.709694  0.906784  1
  Ho  Ho4  1  0.093216  0.023031  0.290306  1
  Ho  Ho5  1  0.290306  0.093216  0.023031  1
  Ho  Ho6  1  0.023031  0.290306  0.093216  1
  Ni  Ni7  1  0.000000  0.000000  0.000000  1
  I  I8  1  0.926231  0.321845  0.777117  1
  I  I9  1  0.777117  0.926231  0.321845  1
  I  I10  1  0.321845  0.777117  0.926231  1
  I  I11  1  0.073769  0.678155  0.222883  1
  I  I12  1  0.222883  0.073769  0.678155  1
  I  I13  1  0.678155  0.222883  0.073769  1
  I  I14  1  0.547439  0.859705  0.626435  1
  I  I15  1  0.626435  0.547439  0.859705  1
  I  I16  1  0.859705  0.626435  0.547439  1
  I  I17  1  0.452561  0.140295  0.373565  1
  I  I18  1  0.373565  0.452561  0.140295  1
  I  I19  1  0.140295  0.373565  0.452561  1
