# generated using pymatgen
data_Y3Er(TiIr)4
_symmetry_space_group_name_H-M   'P 1'
_cell_length_a   4.40736000
_cell_length_b   6.95981248
_cell_length_c   8.09690900
_cell_angle_alpha   90.77244236
_cell_angle_beta   90.00000000
_cell_angle_gamma   90.00000000
_symmetry_Int_Tables_number   1
_chemical_formula_structural   Y3Er(TiIr)4
_chemical_formula_sum   'Y3 Er1 Ti4 Ir4'
_cell_volume   248.34524772
_cell_formula_units_Z   1
loop_
 _symmetry_equiv_pos_site_id
 _symmetry_equiv_pos_as_xyz
  1  'x, y, z'
loop_
 _atom_site_type_symbol
 _atom_site_label
 _atom_site_symmetry_multiplicity
 _atom_site_fract_x
 _atom_site_fract_y
 _atom_site_fract_z
 _atom_site_occupancy
  Y  Y0  1  0.250000  0.486151  0.182961  1
  Y  Y1  1  0.750000  0.014469  0.683369  1
  Y  Y2  1  0.750000  0.516607  0.817756  1
  Er  Er3  1  0.250000  0.983292  0.317675  1
  Ti  Ti4  1  0.250000  0.359733  0.567226  1
  Ti  Ti5  1  0.250000  0.862881  0.932990  1
  Ti  Ti6  1  0.750000  0.635757  0.431980  1
  Ti  Ti7  1  0.750000  0.141304  0.068860  1
  Ir  Ir8  1  0.250000  0.219899  0.907667  1
  Ir  Ir9  1  0.250000  0.718382  0.588995  1
  Ir  Ir10  1  0.750000  0.784687  0.092650  1
  Ir  Ir11  1  0.750000  0.276839  0.407872  1
