# generated using pymatgen
data_Sr3Ga3Si2RhO14
_symmetry_space_group_name_H-M   'P 1'
_cell_length_a   8.35243200
_cell_length_b   8.35243311
_cell_length_c   5.14283900
_cell_angle_alpha   90.00000000
_cell_angle_beta   90.00000000
_cell_angle_gamma   120.00000352
_symmetry_Int_Tables_number   1
_chemical_formula_structural   Sr3Ga3Si2RhO14
_chemical_formula_sum   'Sr3 Ga3 Si2 Rh1 O14'
_cell_volume   310.71305411
_cell_formula_units_Z   1
loop_
 _symmetry_equiv_pos_site_id
 _symmetry_equiv_pos_as_xyz
  1  'x, y, z'
loop_
 _atom_site_type_symbol
 _atom_site_label
 _atom_site_symmetry_multiplicity
 _atom_site_fract_x
 _atom_site_fract_y
 _atom_site_fract_z
 _atom_site_occupancy
  Sr  Sr0  1  0.425639  0.000000  0.000000  1
  Sr  Sr1  1  0.574361  0.574361  0.000000  1
  Sr  Sr2  1  0.000000  0.425639  0.000000  1
  Ga  Ga3  1  0.749955  0.000000  0.500000  1
  Ga  Ga4  1  0.250045  0.250045  0.500000  1
  Ga  Ga5  1  0.000000  0.749955  0.500000  1
  Si  Si6  1  0.666667  0.333333  0.533784  1
  Si  Si7  1  0.333333  0.666667  0.466216  1
  Rh  Rh8  1  0.000000  0.000000  0.000000  1
  O  O9  1  0.666667  0.333333  0.220117  1
  O  O10  1  0.333333  0.666667  0.779883  1
  O  O11  1  0.165496  0.691183  0.332354  1
  O  O12  1  0.525687  0.834504  0.332354  1
  O  O13  1  0.308817  0.474313  0.332354  1
  O  O14  1  0.834504  0.525687  0.667646  1
  O  O15  1  0.691183  0.165496  0.667646  1
  O  O16  1  0.474313  0.308817  0.667646  1
  O  O17  1  0.128519  0.909440  0.769034  1
  O  O18  1  0.780920  0.871481  0.769034  1
  O  O19  1  0.090560  0.219080  0.769034  1
  O  O20  1  0.871481  0.780920  0.230966  1
  O  O21  1  0.909440  0.128519  0.230966  1
  O  O22  1  0.219080  0.090560  0.230966  1
