# generated using pymatgen
data_Hf6Ta4Al12FeCo6
_symmetry_space_group_name_H-M   'P 1'
_cell_length_a   8.58093725
_cell_length_b   8.58108807
_cell_length_c   8.58033416
_cell_angle_alpha   59.99841642
_cell_angle_beta   59.99915077
_cell_angle_gamma   60.00024775
_symmetry_Int_Tables_number   1
_chemical_formula_structural   Hf6Ta4Al12FeCo6
_chemical_formula_sum   'Hf6 Ta4 Al12 Fe1 Co6'
_cell_volume   446.74440002
_cell_formula_units_Z   1
loop_
 _symmetry_equiv_pos_site_id
 _symmetry_equiv_pos_as_xyz
  1  'x, y, z'
loop_
 _atom_site_type_symbol
 _atom_site_label
 _atom_site_symmetry_multiplicity
 _atom_site_fract_x
 _atom_site_fract_y
 _atom_site_fract_z
 _atom_site_occupancy
  Hf  Hf0  1  0.689736  0.689628  0.310325  1
  Hf  Hf1  1  0.310387  0.689568  0.310429  1
  Hf  Hf2  1  0.689783  0.310244  0.310247  1
  Hf  Hf3  1  0.310289  0.310342  0.689681  1
  Hf  Hf4  1  0.689630  0.310413  0.689565  1
  Hf  Hf5  1  0.310213  0.689755  0.689790  1
  Ta  Ta6  1  0.881431  0.881357  0.355843  1
  Ta  Ta7  1  0.881364  0.355885  0.881331  1
  Ta  Ta8  1  0.355825  0.881372  0.881448  1
  Ta  Ta9  1  0.881334  0.881412  0.881363  1
  Al  Al10  1  0.120717  0.120579  0.638051  1
  Al  Al11  1  0.120685  0.638021  0.120616  1
  Al  Al12  1  0.638063  0.120639  0.120714  1
  Al  Al13  1  0.120622  0.120680  0.120693  1
  Al  Al14  1  0.663232  0.663024  0.010547  1
  Al  Al15  1  0.663108  0.010597  0.662971  1
  Al  Al16  1  0.010598  0.663202  0.663243  1
  Al  Al17  1  0.662891  0.663342  0.663134  1
  Al  Al18  1  0.335000  0.335124  0.994849  1
  Al  Al19  1  0.335104  0.994743  0.335186  1
  Al  Al20  1  0.994765  0.335021  0.334996  1
  Al  Al21  1  0.335288  0.334951  0.335098  1
  Fe  Fe22  1  0.000007  0.000009  0.999993  1
  Co  Co23  1  0.995792  0.995779  0.504216  1
  Co  Co24  1  0.504145  0.995827  0.504159  1
  Co  Co25  1  0.995671  0.504313  0.504314  1
  Co  Co26  1  0.504215  0.504222  0.995742  1
  Co  Co27  1  0.995828  0.504198  0.995775  1
  Co  Co28  1  0.504279  0.995752  0.995679  1
