# generated using pymatgen
data_Zr6As2CO
_symmetry_space_group_name_H-M   'P 1'
_cell_length_a   5.89058575
_cell_length_b   5.89058569
_cell_length_c   8.66247267
_cell_angle_alpha   90.59330365
_cell_angle_beta   89.40669507
_cell_angle_gamma   145.19678382
_symmetry_Int_Tables_number   1
_chemical_formula_structural   Zr6As2CO
_chemical_formula_sum   'Zr6 As2 C1 O1'
_cell_volume   171.54834681
_cell_formula_units_Z   1
loop_
 _symmetry_equiv_pos_site_id
 _symmetry_equiv_pos_as_xyz
  1  'x, y, z'
loop_
 _atom_site_type_symbol
 _atom_site_label
 _atom_site_symmetry_multiplicity
 _atom_site_fract_x
 _atom_site_fract_y
 _atom_site_fract_z
 _atom_site_occupancy
  Zr  Zr0  1  0.863458  0.136539  0.052905  1
  Zr  Zr1  1  0.559636  0.440362  0.250432  1
  Zr  Zr2  1  0.868187  0.131810  0.444100  1
  Zr  Zr3  1  0.131810  0.868187  0.555900  1
  Zr  Zr4  1  0.440362  0.559636  0.749568  1
  Zr  Zr5  1  0.136539  0.863458  0.947095  1
  As  As6  1  0.246730  0.753267  0.249565  1
  As  As7  1  0.753267  0.246730  0.750435  1
  C  C8  1  0.499999  0.499999  0.500001  1
  O  O9  1  0.499999  0.499999  0.000000  1
