# generated using pymatgen
data_Tb2DyPa(ZnRh)4
_symmetry_space_group_name_H-M   'P 1'
_cell_length_a   3.89589100
_cell_length_b   7.10241331
_cell_length_c   8.32370310
_cell_angle_alpha   90.80986674
_cell_angle_beta   90.00000000
_cell_angle_gamma   90.00000000
_symmetry_Int_Tables_number   1
_chemical_formula_structural   Tb2DyPa(ZnRh)4
_chemical_formula_sum   'Tb2 Dy1 Pa1 Zn4 Rh4'
_cell_volume   230.29575553
_cell_formula_units_Z   1
loop_
 _symmetry_equiv_pos_site_id
 _symmetry_equiv_pos_as_xyz
  1  'x, y, z'
loop_
 _atom_site_type_symbol
 _atom_site_label
 _atom_site_symmetry_multiplicity
 _atom_site_fract_x
 _atom_site_fract_y
 _atom_site_fract_z
 _atom_site_occupancy
  Tb  Tb0  1  0.250000  0.050711  0.320324  1
  Tb  Tb1  1  0.750000  0.942688  0.687586  1
  Dy  Dy2  1  0.750000  0.444402  0.808477  1
  Pa  Pa3  1  0.250000  0.552247  0.178472  1
  Zn  Zn4  1  0.250000  0.129551  0.935720  1
  Zn  Zn5  1  0.750000  0.894214  0.063476  1
  Zn  Zn6  1  0.250000  0.621927  0.562335  1
  Zn  Zn7  1  0.750000  0.367268  0.441896  1
  Rh  Rh8  1  0.750000  0.737726  0.355614  1
  Rh  Rh9  1  0.250000  0.237365  0.625871  1
  Rh  Rh10  1  0.750000  0.282492  0.128109  1
  Rh  Rh11  1  0.250000  0.739410  0.892120  1
