# generated using pymatgen
data_Sm3SnBRh6
_symmetry_space_group_name_H-M   'P 1'
_cell_length_a   5.89485700
_cell_length_b   5.89485596
_cell_length_c   13.86479900
_cell_angle_alpha   90.00000000
_cell_angle_beta   90.00000000
_cell_angle_gamma   120.00000023
_symmetry_Int_Tables_number   1
_chemical_formula_structural   Sm3SnBRh6
_chemical_formula_sum   'Sm6 Sn2 B2 Rh12'
_cell_volume   417.24455742
_cell_formula_units_Z   2
loop_
 _symmetry_equiv_pos_site_id
 _symmetry_equiv_pos_as_xyz
  1  'x, y, z'
loop_
 _atom_site_type_symbol
 _atom_site_label
 _atom_site_symmetry_multiplicity
 _atom_site_fract_x
 _atom_site_fract_y
 _atom_site_fract_z
 _atom_site_occupancy
  Sm  Sm0  1  0.000000  0.000000  0.750000  1
  Sm  Sm1  1  0.000000  0.000000  0.250000  1
  Sm  Sm2  1  0.333333  0.666667  0.408822  1
  Sm  Sm3  1  0.666667  0.333333  0.908822  1
  Sm  Sm4  1  0.666667  0.333333  0.591178  1
  Sm  Sm5  1  0.333333  0.666667  0.091178  1
  Sn  Sn6  1  0.333333  0.666667  0.750000  1
  Sn  Sn7  1  0.666667  0.333333  0.250000  1
  B  B8  1  0.000000  0.000000  0.500000  1
  B  B9  1  0.000000  0.000000  0.000000  1
  Rh  Rh10  1  0.343325  0.171663  0.414004  1
  Rh  Rh11  1  0.828337  0.171663  0.414004  1
  Rh  Rh12  1  0.828337  0.656675  0.414004  1
  Rh  Rh13  1  0.171663  0.343325  0.914004  1
  Rh  Rh14  1  0.656675  0.828337  0.585996  1
  Rh  Rh15  1  0.656675  0.828337  0.914004  1
  Rh  Rh16  1  0.343325  0.171663  0.085996  1
  Rh  Rh17  1  0.171663  0.343325  0.585996  1
  Rh  Rh18  1  0.171663  0.828337  0.585996  1
  Rh  Rh19  1  0.828337  0.171663  0.085996  1
  Rh  Rh20  1  0.828337  0.656675  0.085996  1
  Rh  Rh21  1  0.171663  0.828337  0.914004  1
