# generated using pymatgen
data_SmYV2F14
_symmetry_space_group_name_H-M   'P 1'
_cell_length_a   5.57114004
_cell_length_b   8.91655599
_cell_length_c   11.90527812
_cell_angle_alpha   63.29217992
_cell_angle_beta   89.93058990
_cell_angle_gamma   89.97725964
_symmetry_Int_Tables_number   1
_chemical_formula_structural   SmYV2F14
_chemical_formula_sum   'Sm2 Y2 V4 F28'
_cell_volume   528.30249187
_cell_formula_units_Z   2
loop_
 _symmetry_equiv_pos_site_id
 _symmetry_equiv_pos_as_xyz
  1  'x, y, z'
loop_
 _atom_site_type_symbol
 _atom_site_label
 _atom_site_symmetry_multiplicity
 _atom_site_fract_x
 _atom_site_fract_y
 _atom_site_fract_z
 _atom_site_occupancy
  Sm  Sm0  1  0.258190  0.808310  0.270301  1
  Sm  Sm1  1  0.741810  0.191690  0.729699  1
  Y  Y2  1  0.758433  0.195360  0.228917  1
  Y  Y3  1  0.241567  0.804640  0.771083  1
  V  V4  1  0.754061  0.725193  0.044326  1
  V  V5  1  0.245939  0.274807  0.955674  1
  V  V6  1  0.254143  0.272380  0.453446  1
  V  V7  1  0.745857  0.727620  0.546554  1
  F  F8  1  0.948596  0.705802  0.426886  1
  F  F9  1  0.051404  0.294198  0.573114  1
  F  F10  1  0.450657  0.294472  0.075394  1
  F  F11  1  0.549343  0.705528  0.924606  1
  F  F12  1  0.483408  0.730908  0.138771  1
  F  F13  1  0.516592  0.269092  0.861229  1
  F  F14  1  0.981726  0.267681  0.358569  1
  F  F15  1  0.018274  0.732319  0.641431  1
  F  F16  1  0.954378  0.745876  0.166734  1
  F  F17  1  0.045622  0.254124  0.833266  1
  F  F18  1  0.458680  0.251636  0.331222  1
  F  F19  1  0.541320  0.748364  0.668778  1
  F  F20  1  0.766239  0.494466  0.136930  1
  F  F21  1  0.233761  0.505534  0.863070  1
  F  F22  1  0.265802  0.503125  0.361701  1
  F  F23  1  0.734198  0.496875  0.638299  1
  F  F24  1  0.965418  0.285680  0.045574  1
  F  F25  1  0.034582  0.714320  0.954426  1
  F  F26  1  0.467860  0.714057  0.457451  1
  F  F27  1  0.532140  0.285943  0.542549  1
  F  F28  1  0.742795  0.954873  0.455766  1
  F  F29  1  0.257205  0.045127  0.544234  1
  F  F30  1  0.243169  0.046082  0.045263  1
  F  F31  1  0.756831  0.953918  0.954737  1
  F  F32  1  0.582865  0.977211  0.231020  1
  F  F33  1  0.417135  0.022789  0.768980  1
  F  F34  1  0.074217  0.031064  0.268508  1
  F  F35  1  0.925783  0.968936  0.731492  1
