# generated using pymatgen
data_Yb7ThBi6
_symmetry_space_group_name_H-M   'P 1'
_cell_length_a   8.30350982
_cell_length_b   8.39862227
_cell_length_c   8.39862123
_cell_angle_alpha   109.69949007
_cell_angle_beta   109.24197486
_cell_angle_gamma   109.24197513
_symmetry_Int_Tables_number   1
_chemical_formula_structural   Yb7ThBi6
_chemical_formula_sum   'Yb7 Th1 Bi6'
_cell_volume   452.14397658
_cell_formula_units_Z   1
loop_
 _symmetry_equiv_pos_site_id
 _symmetry_equiv_pos_as_xyz
  1  'x, y, z'
loop_
 _atom_site_type_symbol
 _atom_site_label
 _atom_site_symmetry_multiplicity
 _atom_site_fract_x
 _atom_site_fract_y
 _atom_site_fract_z
 _atom_site_occupancy
  Yb  Yb0  1  0.645982  0.500000  0.000000  1
  Yb  Yb1  1  0.500299  0.000252  0.649101  1
  Yb  Yb2  1  0.358274  0.353965  0.359611  1
  Yb  Yb3  1  0.504309  0.005645  0.146035  1
  Yb  Yb4  1  0.000047  0.648849  0.499748  1
  Yb  Yb5  1  0.851198  0.850899  0.851151  1
  Yb  Yb6  1  0.998664  0.140389  0.494355  1
  Th  Th7  1  0.145143  0.500000  0.000000  1
  Bi  Bi8  1  0.371459  0.624091  0.754494  1
  Bi  Bi9  1  0.879085  0.251506  0.125458  1
  Bi  Bi10  1  0.616965  0.745506  0.369598  1
  Bi  Bi11  1  0.127579  0.873951  0.248494  1
  Bi  Bi12  1  0.247368  0.130402  0.875909  1
  Bi  Bi13  1  0.753628  0.374542  0.626049  1
