# generated using pymatgen
data_Sc8Ti10ReSi16W
_symmetry_space_group_name_H-M   'P 1'
_cell_length_a   6.64082330
_cell_length_b   6.79410962
_cell_length_c   12.96714400
_cell_angle_alpha   90.00000000
_cell_angle_beta   90.00000000
_cell_angle_gamma   90.00368529
_symmetry_Int_Tables_number   1
_chemical_formula_structural   Sc8Ti10ReSi16W
_chemical_formula_sum   'Sc8 Ti10 Re1 Si16 W1'
_cell_volume   585.05784526
_cell_formula_units_Z   1
loop_
 _symmetry_equiv_pos_site_id
 _symmetry_equiv_pos_as_xyz
  1  'x, y, z'
loop_
 _atom_site_type_symbol
 _atom_site_label
 _atom_site_symmetry_multiplicity
 _atom_site_fract_x
 _atom_site_fract_y
 _atom_site_fract_z
 _atom_site_occupancy
  Sc  Sc0  1  0.502644  0.673556  0.594983  1
  Sc  Sc1  1  0.001865  0.825052  0.904154  1
  Sc  Sc2  1  0.497714  0.324859  0.095695  1
  Sc  Sc3  1  0.995919  0.173774  0.404981  1
  Sc  Sc4  1  0.497714  0.324859  0.404305  1
  Sc  Sc5  1  0.995919  0.173774  0.095019  1
  Sc  Sc6  1  0.502644  0.673556  0.905017  1
  Sc  Sc7  1  0.001865  0.825052  0.595846  1
  Ti  Ti8  1  0.667953  0.173677  0.626393  1
  Ti  Ti9  1  0.165071  0.328527  0.872940  1
  Ti  Ti10  1  0.336393  0.827680  0.126788  1
  Ti  Ti11  1  0.832468  0.674735  0.374027  1
  Ti  Ti12  1  0.336393  0.827680  0.373212  1
  Ti  Ti13  1  0.832468  0.674735  0.125973  1
  Ti  Ti14  1  0.667953  0.173677  0.873607  1
  Ti  Ti15  1  0.165071  0.328527  0.627060  1
  Ti  Ti16  1  0.340578  0.007199  0.750000  1
  Ti  Ti17  1  0.159378  0.507238  0.250000  1
  Re  Re18  1  0.841004  0.491012  0.750000  1
  Si  Si19  1  0.663785  0.965869  0.458833  1
  Si  Si20  1  0.165524  0.535493  0.039608  1
  Si  Si21  1  0.334214  0.035297  0.959925  1
  Si  Si22  1  0.835829  0.465296  0.542393  1
  Si  Si23  1  0.334214  0.035297  0.540075  1
  Si  Si24  1  0.835829  0.465296  0.957607  1
  Si  Si25  1  0.663785  0.965869  0.041167  1
  Si  Si26  1  0.165524  0.535493  0.460392  1
  Si  Si27  1  0.467205  0.384002  0.750000  1
  Si  Si28  1  0.965689  0.115273  0.750000  1
  Si  Si29  1  0.534808  0.615377  0.250000  1
  Si  Si30  1  0.035587  0.882926  0.250000  1
  Si  Si31  1  0.704962  0.860025  0.750000  1
  Si  Si32  1  0.204171  0.637658  0.750000  1
  Si  Si33  1  0.293785  0.137830  0.250000  1
  Si  Si34  1  0.794216  0.362404  0.250000  1
  W  W35  1  0.659859  0.991423  0.250000  1
