# generated using pymatgen
data_Ce3Cd3IrAu2
_symmetry_space_group_name_H-M   'P 1'
_cell_length_a   7.91308000
_cell_length_b   7.91307974
_cell_length_c   3.91516300
_cell_angle_alpha   90.00000000
_cell_angle_beta   90.00000000
_cell_angle_gamma   120.00000833
_symmetry_Int_Tables_number   1
_chemical_formula_structural   Ce3Cd3IrAu2
_chemical_formula_sum   'Ce3 Cd3 Ir1 Au2'
_cell_volume   212.31053339
_cell_formula_units_Z   1
loop_
 _symmetry_equiv_pos_site_id
 _symmetry_equiv_pos_as_xyz
  1  'x, y, z'
loop_
 _atom_site_type_symbol
 _atom_site_label
 _atom_site_symmetry_multiplicity
 _atom_site_fract_x
 _atom_site_fract_y
 _atom_site_fract_z
 _atom_site_occupancy
  Ce  Ce0  1  0.577670  0.601701  0.000000  1
  Ce  Ce1  1  0.398299  0.975969  0.000000  1
  Ce  Ce2  1  0.024031  0.422330  0.000000  1
  Cd  Cd3  1  0.995071  0.736719  0.500000  1
  Cd  Cd4  1  0.263281  0.258351  0.500000  1
  Cd  Cd5  1  0.741649  0.004929  0.500000  1
  Ir  Ir6  1  0.333333  0.666667  0.500000  1
  Au  Au7  1  0.000000  0.000000  0.000000  1
  Au  Au8  1  0.666667  0.333333  0.500000  1
