# generated using pymatgen
data_KPaCl4O
_symmetry_space_group_name_H-M   'P 1'
_cell_length_a   7.46526639
_cell_length_b   7.46526672
_cell_length_c   7.76254002
_cell_angle_alpha   106.89160363
_cell_angle_beta   106.89160391
_cell_angle_gamma   32.59922724
_symmetry_Int_Tables_number   1
_chemical_formula_structural   KPaCl4O
_chemical_formula_sum   'K1 Pa1 Cl4 O1'
_cell_volume   222.13507294
_cell_formula_units_Z   1
loop_
 _symmetry_equiv_pos_site_id
 _symmetry_equiv_pos_as_xyz
  1  'x, y, z'
loop_
 _atom_site_type_symbol
 _atom_site_label
 _atom_site_symmetry_multiplicity
 _atom_site_fract_x
 _atom_site_fract_y
 _atom_site_fract_z
 _atom_site_occupancy
  K  K0  1  0.997424  0.002576  0.000000  1
  Pa  Pa1  1  0.501113  0.498886  0.500000  1
  Cl  Cl2  1  0.369544  0.369387  0.181155  1
  Cl  Cl3  1  0.628668  0.628709  0.323199  1
  Cl  Cl4  1  0.371291  0.371331  0.676802  1
  Cl  Cl5  1  0.630613  0.630456  0.818845  1
  O  O6  1  0.000656  0.999344  0.500000  1
