# generated using pymatgen
data_Ti8Al14SiIr4Ru3
_symmetry_space_group_name_H-M   'P 1'
_cell_length_a   8.63551882
_cell_length_b   8.63166613
_cell_length_c   8.64853052
_cell_angle_alpha   120.08816095
_cell_angle_beta   120.00377131
_cell_angle_gamma   89.96172027
_symmetry_Int_Tables_number   1
_chemical_formula_structural   Ti8Al14SiIr4Ru3
_chemical_formula_sum   'Ti8 Al14 Si1 Ir4 Ru3'
_cell_volume   455.35614822
_cell_formula_units_Z   1
loop_
 _symmetry_equiv_pos_site_id
 _symmetry_equiv_pos_as_xyz
  1  'x, y, z'
loop_
 _atom_site_type_symbol
 _atom_site_label
 _atom_site_symmetry_multiplicity
 _atom_site_fract_x
 _atom_site_fract_y
 _atom_site_fract_z
 _atom_site_occupancy
  Ti  Ti0  1  0.798580  0.296251  0.088340  1
  Ti  Ti1  1  0.208717  0.296121  0.498206  1
  Ti  Ti2  1  0.202501  0.702483  0.500022  1
  Ti  Ti3  1  0.208472  0.709977  0.911363  1
  Ti  Ti4  1  0.798252  0.710706  0.502147  1
  Ti  Ti5  1  0.789509  0.289287  0.499641  1
  Ti  Ti6  1  0.379143  0.120218  0.740261  1
  Ti  Ti7  1  0.376012  0.638577  0.257351  1
  Al  Al8  1  0.155452  0.339420  0.181302  1
  Al  Al9  1  0.156123  0.974121  0.818010  1
  Al  Al10  1  0.151756  0.345046  0.809667  1
  Al  Al11  1  0.535375  0.344547  0.191562  1
  Al  Al12  1  0.845606  0.657311  0.814908  1
  Al  Al13  1  0.844539  0.030562  0.186621  1
  Al  Al14  1  0.842401  0.656540  0.183144  1
  Al  Al15  1  0.473767  0.657178  0.816127  1
  Al  Al16  1  0.378885  0.119374  0.259720  1
  Al  Al17  1  0.859854  0.120646  0.740851  1
  Al  Al18  1  0.620167  0.879230  0.259291  1
  Al  Al19  1  0.621604  0.361025  0.741585  1
  Al  Al20  1  0.622873  0.879919  0.742337  1
  Al  Al21  1  0.137487  0.878540  0.256661  1
  Si  Si22  1  0.996504  0.496476  0.499889  1
  Ir  Ir23  1  0.001486  0.000022  0.501481  1
  Ir  Ir24  1  0.498678  0.999956  0.998051  1
  Ir  Ir25  1  0.497609  0.497519  0.999690  1
  Ir  Ir26  1  0.498695  0.500026  0.498800  1
  Ru  Ru27  1  0.002050  0.500492  0.002163  1
  Ru  Ru28  1  0.000195  0.000623  0.000437  1
  Ru  Ru29  1  0.497708  0.997803  0.500373  1
