# generated using pymatgen
data_ZrPbI6
_symmetry_space_group_name_H-M   'P 1'
_cell_length_a   8.59764169
_cell_length_b   8.59764136
_cell_length_c   8.59764300
_cell_angle_alpha   54.49927763
_cell_angle_beta   54.49927101
_cell_angle_gamma   54.49927259
_symmetry_Int_Tables_number   1
_chemical_formula_structural   ZrPbI6
_chemical_formula_sum   'Zr1 Pb1 I6'
_cell_volume   391.75940240
_cell_formula_units_Z   1
loop_
 _symmetry_equiv_pos_site_id
 _symmetry_equiv_pos_as_xyz
  1  'x, y, z'
loop_
 _atom_site_type_symbol
 _atom_site_label
 _atom_site_symmetry_multiplicity
 _atom_site_fract_x
 _atom_site_fract_y
 _atom_site_fract_z
 _atom_site_occupancy
  Zr  Zr0  1  0.666825  0.666825  0.666825  1
  Pb  Pb1  1  0.333460  0.333460  0.333460  1
  I  I2  1  0.043874  0.450852  0.738796  1
  I  I3  1  0.297328  0.889675  0.579188  1
  I  I4  1  0.450852  0.738796  0.043874  1
  I  I5  1  0.579188  0.297328  0.889675  1
  I  I6  1  0.738796  0.043874  0.450852  1
  I  I7  1  0.889675  0.579188  0.297328  1
