# generated using pymatgen
data_Zr5Ti3Co16(SiP5)2
_symmetry_space_group_name_H-M   'P 1'
_cell_length_a   12.00222106
_cell_length_b   11.98512276
_cell_length_c   3.62443400
_cell_angle_alpha   90.00000000
_cell_angle_beta   90.00000000
_cell_angle_gamma   119.95288561
_symmetry_Int_Tables_number   1
_chemical_formula_structural   Zr5Ti3Co16(SiP5)2
_chemical_formula_sum   'Zr5 Ti3 Co16 Si2 P10'
_cell_volume   451.73207011
_cell_formula_units_Z   1
loop_
 _symmetry_equiv_pos_site_id
 _symmetry_equiv_pos_as_xyz
  1  'x, y, z'
loop_
 _atom_site_type_symbol
 _atom_site_label
 _atom_site_symmetry_multiplicity
 _atom_site_fract_x
 _atom_site_fract_y
 _atom_site_fract_z
 _atom_site_occupancy
  Zr  Zr0  1  0.666353  0.333725  0.000000  1
  Zr  Zr1  1  0.333647  0.667373  0.000000  1
  Zr  Zr2  1  0.822420  0.822117  0.500000  1
  Zr  Zr3  1  0.177580  0.999697  0.500000  1
  Zr  Zr4  1  0.000000  0.179409  0.500000  1
  Ti  Ti5  1  0.440241  0.440900  0.000000  1
  Ti  Ti6  1  0.559759  0.000659  0.000000  1
  Ti  Ti7  1  0.000000  0.556325  0.000000  1
  Co  Co8  1  0.195877  0.373855  0.000000  1
  Co  Co9  1  0.174322  0.799238  0.000000  1
  Co  Co10  1  0.825678  0.624916  0.000000  1
  Co  Co11  1  0.804123  0.177978  0.000000  1
  Co  Co12  1  0.374200  0.199990  0.000000  1
  Co  Co13  1  0.126194  0.480632  0.500000  1
  Co  Co14  1  0.355246  0.872206  0.500000  1
  Co  Co15  1  0.516639  0.644667  0.500000  1
  Co  Co16  1  0.644754  0.516961  0.500000  1
  Co  Co17  1  0.873806  0.354439  0.500000  1
  Co  Co18  1  0.483361  0.128029  0.500000  1
  Co  Co19  1  0.000000  0.000493  0.000000  1
  Co  Co20  1  0.719114  0.001710  0.500000  1
  Co  Co21  1  0.000000  0.717354  0.500000  1
  Co  Co22  1  0.625800  0.825789  0.000000  1
  Co  Co23  1  0.280886  0.282596  0.500000  1
  Si  Si24  1  0.647618  0.647215  0.000000  1
  Si  Si25  1  0.352382  0.999597  0.000000  1
  P  P26  1  0.000000  0.352557  0.000000  1
  P  P27  1  0.482212  0.313280  0.500000  1
  P  P28  1  0.686590  0.169587  0.500000  1
  P  P29  1  0.830675  0.517096  0.500000  1
  P  P30  1  0.517788  0.831069  0.500000  1
  P  P31  1  0.169325  0.686421  0.500000  1
  P  P32  1  0.823809  0.999551  0.000000  1
  P  P33  1  0.000000  0.823826  0.000000  1
  P  P34  1  0.313410  0.482998  0.500000  1
  P  P35  1  0.176191  0.175742  0.000000  1
