# generated using pymatgen
data_Sr20P13
_symmetry_space_group_name_H-M   'P 1'
_cell_length_a   8.10394519
_cell_length_b   8.10394562
_cell_length_c   40.58949900
_cell_angle_alpha   109.35914797
_cell_angle_beta   109.35914904
_cell_angle_gamma   109.62613805
_symmetry_Int_Tables_number   1
_chemical_formula_structural   Sr20P13
_chemical_formula_sum   'Sr40 P26'
_cell_volume   2053.77536229
_cell_formula_units_Z   2
loop_
 _symmetry_equiv_pos_site_id
 _symmetry_equiv_pos_as_xyz
  1  'x, y, z'
loop_
 _atom_site_type_symbol
 _atom_site_label
 _atom_site_symmetry_multiplicity
 _atom_site_fract_x
 _atom_site_fract_y
 _atom_site_fract_z
 _atom_site_occupancy
  Sr  Sr0  1  0.003454  0.885598  0.899077  1
  Sr  Sr1  1  0.008020  0.390176  0.900894  1
  Sr  Sr2  1  0.483356  0.008688  0.970345  1
  Sr  Sr3  1  0.989647  0.869506  0.696611  1
  Sr  Sr4  1  0.131525  0.156740  0.829622  1
  Sr  Sr5  1  0.990028  0.334542  0.694089  1
  Sr  Sr6  1  0.373847  0.482720  0.799455  1
  Sr  Sr7  1  0.986099  0.845023  0.498821  1
  Sr  Sr8  1  0.630099  0.623048  0.921066  1
  Sr  Sr9  1  0.524704  0.017675  0.878908  1
  Sr  Sr10  1  0.131287  0.120189  0.623856  1
  Sr  Sr11  1  0.985381  0.376599  0.500536  1
  Sr  Sr12  1  0.364103  0.519684  0.605952  1
  Sr  Sr13  1  0.514504  0.999964  0.770735  1
  Sr  Sr14  1  0.982720  0.873847  0.299455  1
  Sr  Sr15  1  0.604655  0.614994  0.723138  1
  Sr  Sr16  1  0.851036  0.492010  0.801160  1
  Sr  Sr17  1  0.500970  0.012014  0.676155  1
  Sr  Sr18  1  0.992010  0.351036  0.301160  1
  Sr  Sr19  1  0.123048  0.130099  0.421066  1
  Sr  Sr20  1  0.385598  0.503454  0.399077  1
  Sr  Sr21  1  0.499321  0.988952  0.576886  1
  Sr  Sr22  1  0.646434  0.661023  0.529279  1
  Sr  Sr23  1  0.886568  0.506682  0.603421  1
  Sr  Sr24  1  0.508688  0.983356  0.470345  1
  Sr  Sr25  1  0.114994  0.104655  0.223138  1
  Sr  Sr26  1  0.006682  0.386568  0.103421  1
  Sr  Sr27  1  0.369506  0.489647  0.196611  1
  Sr  Sr28  1  0.517675  0.024704  0.378908  1
  Sr  Sr29  1  0.656740  0.631525  0.329622  1
  Sr  Sr30  1  0.890176  0.508020  0.400894  1
  Sr  Sr31  1  0.499964  0.014504  0.270735  1
  Sr  Sr32  1  0.161023  0.146434  0.029279  1
  Sr  Sr33  1  0.345023  0.486099  0.998821  1
  Sr  Sr34  1  0.512014  0.000970  0.176155  1
  Sr  Sr35  1  0.620189  0.631287  0.123856  1
  Sr  Sr36  1  0.834542  0.490028  0.194089  1
  Sr  Sr37  1  0.488952  0.999321  0.076886  1
  Sr  Sr38  1  0.019684  0.864103  0.105952  1
  Sr  Sr39  1  0.876599  0.485381  0.000536  1
  P  P40  1  0.135420  0.752904  0.977735  1
  P  P41  1  0.247112  0.633661  0.872860  1
  P  P42  1  0.382845  0.269404  0.927122  1
  P  P43  1  0.249358  0.635214  0.678429  1
  P  P44  1  0.124519  0.747870  0.575619  1
  P  P45  1  0.606855  0.344082  0.846819  1
  P  P46  1  0.369814  0.246437  0.724390  1
  P  P47  1  0.746628  0.864200  0.822251  1
  P  P48  1  0.872734  0.110022  0.953190  1
  P  P49  1  0.252904  0.635420  0.477735  1
  P  P50  1  0.133661  0.747112  0.372860  1
  P  P51  1  0.743105  0.857130  0.621571  1
  P  P52  1  0.630463  0.380452  0.650010  1
  P  P53  1  0.886895  0.137425  0.751023  1
  P  P54  1  0.135214  0.749358  0.178429  1
  P  P55  1  0.769404  0.882845  0.427122  1
  P  P56  1  0.364200  0.246628  0.322251  1
  P  P57  1  0.610022  0.372734  0.453190  1
  P  P58  1  0.882579  0.132000  0.548972  1
  P  P59  1  0.247870  0.624519  0.075619  1
  P  P60  1  0.746437  0.869814  0.224390  1
  P  P61  1  0.357130  0.243105  0.121571  1
  P  P62  1  0.637425  0.386895  0.251023  1
  P  P63  1  0.844082  0.106855  0.346819  1
  P  P64  1  0.632000  0.382579  0.048972  1
  P  P65  1  0.880452  0.130463  0.150010  1
