# generated using pymatgen
data_Y12Ga4Si4IrRh7
_symmetry_space_group_name_H-M   'P 1'
_cell_length_a   5.55209738
_cell_length_b   7.98198006
_cell_length_c   13.22483529
_cell_angle_alpha   89.95398550
_cell_angle_beta   90.02135305
_cell_angle_gamma   90.03689739
_symmetry_Int_Tables_number   1
_chemical_formula_structural   Y12Ga4Si4IrRh7
_chemical_formula_sum   'Y12 Ga4 Si4 Ir1 Rh7'
_cell_volume   586.08111183
_cell_formula_units_Z   1
loop_
 _symmetry_equiv_pos_site_id
 _symmetry_equiv_pos_as_xyz
  1  'x, y, z'
loop_
 _atom_site_type_symbol
 _atom_site_label
 _atom_site_symmetry_multiplicity
 _atom_site_fract_x
 _atom_site_fract_y
 _atom_site_fract_z
 _atom_site_occupancy
  Y  Y0  1  0.147168  0.601623  0.103170  1
  Y  Y1  1  0.148093  0.898139  0.896852  1
  Y  Y2  1  0.852070  0.102065  0.396928  1
  Y  Y3  1  0.852118  0.398323  0.602830  1
  Y  Y4  1  0.852277  0.398010  0.897257  1
  Y  Y5  1  0.851729  0.103178  0.102995  1
  Y  Y6  1  0.147732  0.897840  0.603022  1
  Y  Y7  1  0.147863  0.601816  0.397077  1
  Y  Y8  1  0.365422  0.244189  0.249630  1
  Y  Y9  1  0.364522  0.256679  0.750133  1
  Y  Y10  1  0.634585  0.742716  0.249562  1
  Y  Y11  1  0.635133  0.756845  0.749948  1
  Ga  Ga12  1  0.366865  0.249842  0.999919  1
  Ga  Ga13  1  0.633566  0.750043  0.500028  1
  Ga  Ga14  1  0.633635  0.750004  0.000176  1
  Ga  Ga15  1  0.366247  0.250067  0.499915  1
  Si  Si16  1  0.861971  0.389104  0.250246  1
  Si  Si17  1  0.862516  0.111020  0.750096  1
  Si  Si18  1  0.137681  0.888961  0.250113  1
  Si  Si19  1  0.137537  0.611264  0.749961  1
  Ir  Ir20  1  0.646438  0.468772  0.095411  1
  Rh  Rh21  1  0.645002  0.029114  0.904756  1
  Rh  Rh22  1  0.354907  0.969826  0.405058  1
  Rh  Rh23  1  0.355102  0.530108  0.595110  1
  Rh  Rh24  1  0.355144  0.530696  0.904659  1
  Rh  Rh25  1  0.354266  0.969987  0.095059  1
  Rh  Rh26  1  0.644997  0.030186  0.595101  1
  Rh  Rh27  1  0.645414  0.469582  0.404985  1
