# generated using pymatgen
data_Pr2Nd6Zn(Si4Rh)3
_symmetry_space_group_name_H-M   'P 1'
_cell_length_a   8.25153100
_cell_length_b   8.25153035
_cell_length_c   8.51252900
_cell_angle_alpha   90.00000000
_cell_angle_beta   90.00000000
_cell_angle_gamma   119.99999861
_symmetry_Int_Tables_number   1
_chemical_formula_structural   Pr2Nd6Zn(Si4Rh)3
_chemical_formula_sum   'Pr2 Nd6 Zn1 Si12 Rh3'
_cell_volume   501.94748092
_cell_formula_units_Z   1
loop_
 _symmetry_equiv_pos_site_id
 _symmetry_equiv_pos_as_xyz
  1  'x, y, z'
loop_
 _atom_site_type_symbol
 _atom_site_label
 _atom_site_symmetry_multiplicity
 _atom_site_fract_x
 _atom_site_fract_y
 _atom_site_fract_z
 _atom_site_occupancy
  Pr  Pr0  1  0.000000  0.000000  0.749057  1
  Pr  Pr1  1  0.000000  0.000000  0.251164  1
  Nd  Nd2  1  0.497069  0.502931  0.745887  1
  Nd  Nd3  1  0.497069  0.994139  0.745887  1
  Nd  Nd4  1  0.005861  0.502931  0.745887  1
  Nd  Nd5  1  0.499134  0.500866  0.254014  1
  Nd  Nd6  1  0.001733  0.500866  0.254014  1
  Nd  Nd7  1  0.499134  0.998267  0.254014  1
  Zn  Zn8  1  0.666667  0.333333  0.995951  1
  Si  Si9  1  0.836348  0.163652  0.999796  1
  Si  Si10  1  0.836348  0.672696  0.999796  1
  Si  Si11  1  0.327304  0.163652  0.999796  1
  Si  Si12  1  0.832541  0.167459  0.500892  1
  Si  Si13  1  0.832541  0.665083  0.500892  1
  Si  Si14  1  0.334917  0.167459  0.500892  1
  Si  Si15  1  0.166993  0.833007  0.499266  1
  Si  Si16  1  0.666013  0.833007  0.499266  1
  Si  Si17  1  0.166993  0.333987  0.499266  1
  Si  Si18  1  0.168592  0.831408  0.000596  1
  Si  Si19  1  0.662817  0.831408  0.000596  1
  Si  Si20  1  0.168592  0.337183  0.000596  1
  Rh  Rh21  1  0.666667  0.333333  0.503167  1
  Rh  Rh22  1  0.333333  0.666667  0.496734  1
  Rh  Rh23  1  0.333333  0.666667  0.002571  1
