# generated using pymatgen
data_Gd3Al12Fe3Ni
_symmetry_space_group_name_H-M   'P 1'
_cell_length_a   8.74810100
_cell_length_b   8.76731228
_cell_length_c   9.37955500
_cell_angle_alpha   89.69579346
_cell_angle_beta   90.00000000
_cell_angle_gamma   119.92754461
_symmetry_Int_Tables_number   1
_chemical_formula_structural   Gd3Al12Fe3Ni
_chemical_formula_sum   'Gd6 Al24 Fe6 Ni2'
_cell_volume   623.44995728
_cell_formula_units_Z   2
loop_
 _symmetry_equiv_pos_site_id
 _symmetry_equiv_pos_as_xyz
  1  'x, y, z'
loop_
 _atom_site_type_symbol
 _atom_site_label
 _atom_site_symmetry_multiplicity
 _atom_site_fract_x
 _atom_site_fract_y
 _atom_site_fract_z
 _atom_site_occupancy
  Gd  Gd0  1  0.804678  0.191396  0.748176  1
  Gd  Gd1  1  0.195322  0.808604  0.251824  1
  Gd  Gd2  1  0.386717  0.191396  0.748176  1
  Gd  Gd3  1  0.613283  0.808604  0.251824  1
  Gd  Gd4  1  0.807601  0.615203  0.748288  1
  Gd  Gd5  1  0.192399  0.384797  0.251712  1
  Al  Al6  1  0.664709  0.329416  0.991064  1
  Al  Al7  1  0.335291  0.670584  0.008936  1
  Al  Al8  1  0.333068  0.666136  0.489895  1
  Al  Al9  1  0.666932  0.333864  0.510105  1
  Al  Al10  1  0.838410  0.161804  0.426045  1
  Al  Al11  1  0.161590  0.838196  0.573955  1
  Al  Al12  1  0.323394  0.161804  0.426045  1
  Al  Al13  1  0.164241  0.842993  0.924632  1
  Al  Al14  1  0.676606  0.838196  0.573955  1
  Al  Al15  1  0.835759  0.157007  0.075368  1
  Al  Al16  1  0.838902  0.677802  0.425714  1
  Al  Al17  1  0.678751  0.842993  0.924632  1
  Al  Al18  1  0.161098  0.322198  0.574286  1
  Al  Al19  1  0.321249  0.157007  0.075368  1
  Al  Al20  1  0.159936  0.319873  0.924082  1
  Al  Al21  1  0.840064  0.680127  0.075918  1
  Al  Al22  1  0.440000  0.559424  0.748457  1
  Al  Al23  1  0.560000  0.440576  0.251543  1
  Al  Al24  1  0.119424  0.559424  0.748457  1
  Al  Al25  1  0.880576  0.440576  0.251543  1
  Al  Al26  1  0.440263  0.880526  0.751172  1
  Al  Al27  1  0.559737  0.119474  0.248828  1
  Al  Al28  1  0.999750  0.999501  0.749582  1
  Al  Al29  1  0.000250  0.000499  0.250418  1
  Fe  Fe30  1  0.500000  0.500000  0.500000  1
  Fe  Fe31  1  0.500000  0.000000  0.000000  1
  Fe  Fe32  1  0.000000  0.500000  0.500000  1
  Fe  Fe33  1  0.500000  0.000000  0.500000  1
  Fe  Fe34  1  0.000000  0.000000  0.000000  1
  Fe  Fe35  1  0.000000  0.000000  0.500000  1
  Ni  Ni36  1  0.500000  0.500000  0.000000  1
  Ni  Ni37  1  0.000000  0.500000  0.000000  1
