# generated using pymatgen
data_Tm4LuPt9
_symmetry_space_group_name_H-M   'P 1'
_cell_length_a   9.67637900
_cell_length_b   9.67637900
_cell_length_c   5.73165700
_cell_angle_alpha   90.00000000
_cell_angle_beta   90.00000000
_cell_angle_gamma   90.00000000
_symmetry_Int_Tables_number   1
_chemical_formula_structural   Tm4LuPt9
_chemical_formula_sum   'Tm8 Lu2 Pt18'
_cell_volume   536.66828820
_cell_formula_units_Z   2
loop_
 _symmetry_equiv_pos_site_id
 _symmetry_equiv_pos_as_xyz
  1  'x, y, z'
loop_
 _atom_site_type_symbol
 _atom_site_label
 _atom_site_symmetry_multiplicity
 _atom_site_fract_x
 _atom_site_fract_y
 _atom_site_fract_z
 _atom_site_occupancy
  Tm  Tm0  1  0.452157  0.810160  0.000000  1
  Tm  Tm1  1  0.547843  0.189840  0.000000  1
  Tm  Tm2  1  0.189840  0.547843  0.000000  1
  Tm  Tm3  1  0.810160  0.452157  0.000000  1
  Tm  Tm4  1  0.310160  0.047843  0.500000  1
  Tm  Tm5  1  0.689840  0.952157  0.500000  1
  Tm  Tm6  1  0.952157  0.689840  0.500000  1
  Tm  Tm7  1  0.047843  0.310160  0.500000  1
  Lu  Lu8  1  0.500000  0.500000  0.500000  1
  Lu  Lu9  1  0.000000  0.000000  0.000000  1
  Pt  Pt10  1  0.190817  0.809183  0.250353  1
  Pt  Pt11  1  0.809183  0.190817  0.749647  1
  Pt  Pt12  1  0.809183  0.190817  0.250353  1
  Pt  Pt13  1  0.190817  0.809183  0.749647  1
  Pt  Pt14  1  0.440794  0.781328  0.500000  1
  Pt  Pt15  1  0.559206  0.218672  0.500000  1
  Pt  Pt16  1  0.218672  0.559206  0.500000  1
  Pt  Pt17  1  0.781328  0.440794  0.500000  1
  Pt  Pt18  1  0.309183  0.309183  0.249647  1
  Pt  Pt19  1  0.690817  0.690817  0.750353  1
  Pt  Pt20  1  0.690817  0.690817  0.249647  1
  Pt  Pt21  1  0.309183  0.309183  0.750353  1
  Pt  Pt22  1  0.281328  0.059206  0.000000  1
  Pt  Pt23  1  0.718672  0.940794  0.000000  1
  Pt  Pt24  1  0.940794  0.718672  0.000000  1
  Pt  Pt25  1  0.059206  0.281328  0.000000  1
  Pt  Pt26  1  0.000000  0.000000  0.500000  1
  Pt  Pt27  1  0.500000  0.500000  0.000000  1
