# generated using pymatgen
data_YLu3B12MoRh
_symmetry_space_group_name_H-M   'P 1'
_cell_length_a   3.62183900
_cell_length_b   9.11045051
_cell_length_c   11.51646111
_cell_angle_alpha   90.39837911
_cell_angle_beta   90.00000000
_cell_angle_gamma   90.00000000
_symmetry_Int_Tables_number   1
_chemical_formula_structural   YLu3B12MoRh
_chemical_formula_sum   'Y2 Lu6 B24 Mo2 Rh2'
_cell_volume   379.99470189
_cell_formula_units_Z   2
loop_
 _symmetry_equiv_pos_site_id
 _symmetry_equiv_pos_as_xyz
  1  'x, y, z'
loop_
 _atom_site_type_symbol
 _atom_site_label
 _atom_site_symmetry_multiplicity
 _atom_site_fract_x
 _atom_site_fract_y
 _atom_site_fract_z
 _atom_site_occupancy
  Y  Y0  1  0.500000  0.318979  0.412310  1
  Y  Y1  1  0.500000  0.681021  0.587690  1
  Lu  Lu2  1  0.500000  0.175156  0.917412  1
  Lu  Lu3  1  0.500000  0.824844  0.082588  1
  Lu  Lu4  1  0.500000  0.443295  0.126255  1
  Lu  Lu5  1  0.500000  0.556705  0.873745  1
  Lu  Lu6  1  0.500000  0.054652  0.628829  1
  Lu  Lu7  1  0.500000  0.945348  0.371171  1
  B  B8  1  0.000000  0.102745  0.473045  1
  B  B9  1  0.000000  0.897255  0.526955  1
  B  B10  1  0.000000  0.396121  0.970701  1
  B  B11  1  0.000000  0.603879  0.029299  1
  B  B12  1  0.000000  0.131166  0.317379  1
  B  B13  1  0.000000  0.868834  0.682621  1
  B  B14  1  0.000000  0.368314  0.817385  1
  B  B15  1  0.000000  0.631686  0.182615  1
  B  B16  1  0.000000  0.051806  0.065315  1
  B  B17  1  0.000000  0.948194  0.934685  1
  B  B18  1  0.000000  0.445276  0.566316  1
  B  B19  1  0.000000  0.554724  0.433684  1
  B  B20  1  0.000000  0.483891  0.286952  1
  B  B21  1  0.000000  0.516109  0.713048  1
  B  B22  1  0.000000  0.021430  0.786961  1
  B  B23  1  0.000000  0.978570  0.213039  1
  B  B24  1  0.000000  0.251197  0.078487  1
  B  B25  1  0.000000  0.748803  0.921513  1
  B  B26  1  0.000000  0.248834  0.580454  1
  B  B27  1  0.000000  0.751166  0.419546  1
  B  B28  1  0.000000  0.296166  0.235605  1
  B  B29  1  0.000000  0.703834  0.764395  1
  B  B30  1  0.000000  0.207858  0.735905  1
  B  B31  1  0.000000  0.792142  0.264095  1
  Mo  Mo32  1  0.500000  0.139246  0.180848  1
  Mo  Mo33  1  0.500000  0.860754  0.819152  1
  Rh  Rh34  1  0.500000  0.359928  0.679943  1
  Rh  Rh35  1  0.500000  0.640072  0.320057  1
