# generated using pymatgen
data_CaDy(SiRh2)2
_symmetry_space_group_name_H-M   'P 1'
_cell_length_a   5.59489300
_cell_length_b   5.59489321
_cell_length_c   14.96710100
_cell_angle_alpha   90.00000000
_cell_angle_beta   90.00000000
_cell_angle_gamma   119.99999285
_symmetry_Int_Tables_number   1
_chemical_formula_structural   CaDy(SiRh2)2
_chemical_formula_sum   'Ca3 Dy3 Si6 Rh12'
_cell_volume   405.74384373
_cell_formula_units_Z   3
loop_
 _symmetry_equiv_pos_site_id
 _symmetry_equiv_pos_as_xyz
  1  'x, y, z'
loop_
 _atom_site_type_symbol
 _atom_site_label
 _atom_site_symmetry_multiplicity
 _atom_site_fract_x
 _atom_site_fract_y
 _atom_site_fract_z
 _atom_site_occupancy
  Ca  Ca0  1  0.666667  0.333333  0.958866  1
  Ca  Ca1  1  0.666667  0.333333  0.753497  1
  Ca  Ca2  1  0.333333  0.666667  0.249518  1
  Dy  Dy3  1  0.666667  0.333333  0.542261  1
  Dy  Dy4  1  0.333333  0.666667  0.038683  1
  Dy  Dy5  1  0.333333  0.666667  0.459364  1
  Si  Si6  1  0.666667  0.333333  0.250258  1
  Si  Si7  1  0.000000  0.000000  0.499907  1
  Si  Si8  1  0.000000  0.000000  0.250216  1
  Si  Si9  1  0.000000  0.000000  0.748998  1
  Si  Si10  1  0.333333  0.666667  0.749353  1
  Si  Si11  1  0.000000  0.000000  0.999854  1
  Rh  Rh12  1  0.166417  0.332832  0.868946  1
  Rh  Rh13  1  0.166826  0.333652  0.629341  1
  Rh  Rh14  1  0.667168  0.833583  0.868946  1
  Rh  Rh15  1  0.333613  0.166807  0.370461  1
  Rh  Rh16  1  0.833193  0.666387  0.370461  1
  Rh  Rh17  1  0.833193  0.166807  0.370461  1
  Rh  Rh18  1  0.833838  0.166162  0.130994  1
  Rh  Rh19  1  0.332324  0.166162  0.130994  1
  Rh  Rh20  1  0.666348  0.833174  0.629341  1
  Rh  Rh21  1  0.166826  0.833174  0.629341  1
  Rh  Rh22  1  0.833838  0.667676  0.130994  1
  Rh  Rh23  1  0.166417  0.833583  0.868946  1
