# generated using pymatgen
data_Th4Ga21Cu5
_symmetry_space_group_name_H-M   'P 1'
_cell_length_a   6.11532700
_cell_length_b   6.11532700
_cell_length_c   15.32427800
_cell_angle_alpha   90.00000000
_cell_angle_beta   90.00000000
_cell_angle_gamma   90.00000000
_symmetry_Int_Tables_number   1
_chemical_formula_structural   Th4Ga21Cu5
_chemical_formula_sum   'Th4 Ga21 Cu5'
_cell_volume   573.08546186
_cell_formula_units_Z   1
loop_
 _symmetry_equiv_pos_site_id
 _symmetry_equiv_pos_as_xyz
  1  'x, y, z'
loop_
 _atom_site_type_symbol
 _atom_site_label
 _atom_site_symmetry_multiplicity
 _atom_site_fract_x
 _atom_site_fract_y
 _atom_site_fract_z
 _atom_site_occupancy
  Th  Th0  1  0.000000  0.500000  0.755632  1
  Th  Th1  1  0.500000  0.000000  0.755632  1
  Th  Th2  1  0.000000  0.500000  0.243994  1
  Th  Th3  1  0.500000  0.000000  0.243994  1
  Ga  Ga4  1  0.667540  0.175774  0.428668  1
  Ga  Ga5  1  0.679478  0.823043  0.571456  1
  Ga  Ga6  1  0.176957  0.679478  0.571456  1
  Ga  Ga7  1  0.823043  0.320522  0.571456  1
  Ga  Ga8  1  0.000000  0.000000  0.176498  1
  Ga  Ga9  1  0.500000  0.500000  0.333158  1
  Ga  Ga10  1  0.500000  0.500000  0.667895  1
  Ga  Ga11  1  0.000000  0.000000  0.668789  1
  Ga  Ga12  1  0.000000  0.000000  0.338952  1
  Ga  Ga13  1  0.249502  0.751047  0.911362  1
  Ga  Ga14  1  0.248953  0.249502  0.911362  1
  Ga  Ga15  1  0.751047  0.750498  0.911362  1
  Ga  Ga16  1  0.261152  0.260543  0.085748  1
  Ga  Ga17  1  0.738848  0.739457  0.085748  1
  Ga  Ga18  1  0.750498  0.248953  0.911362  1
  Ga  Ga19  1  0.739457  0.261152  0.085748  1
  Ga  Ga20  1  0.260543  0.738848  0.085748  1
  Ga  Ga21  1  0.332460  0.824226  0.428668  1
  Ga  Ga22  1  0.175774  0.332460  0.428668  1
  Ga  Ga23  1  0.824226  0.667540  0.428668  1
  Ga  Ga24  1  0.320522  0.176957  0.571456  1
  Cu  Cu25  1  0.500000  0.500000  0.179015  1
  Cu  Cu26  1  0.500000  0.500000  0.823289  1
  Cu  Cu27  1  0.000000  0.000000  0.823246  1
  Cu  Cu28  1  0.500000  0.000000  0.000486  1
  Cu  Cu29  1  0.000000  0.500000  0.000486  1
