# generated using pymatgen
data_Ta4H3
_symmetry_space_group_name_H-M   'P 1'
_cell_length_a   2.96785023
_cell_length_b   5.75128741
_cell_length_c   5.68197849
_cell_angle_alpha   62.93001175
_cell_angle_beta   80.43506898
_cell_angle_gamma   101.29597495
_symmetry_Int_Tables_number   1
_chemical_formula_structural   Ta4H3
_chemical_formula_sum   'Ta4 H3'
_cell_volume   80.98727145
_cell_formula_units_Z   1
loop_
 _symmetry_equiv_pos_site_id
 _symmetry_equiv_pos_as_xyz
  1  'x, y, z'
loop_
 _atom_site_type_symbol
 _atom_site_label
 _atom_site_symmetry_multiplicity
 _atom_site_fract_x
 _atom_site_fract_y
 _atom_site_fract_z
 _atom_site_occupancy
  Ta  Ta0  1  0.515833  0.102921  0.256267  1
  Ta  Ta1  1  0.024575  0.112751  0.749158  1
  Ta  Ta2  1  0.020486  0.614081  0.257657  1
  Ta  Ta3  1  0.525146  0.617195  0.739771  1
  H  H4  1  0.652236  0.234638  0.499568  1
  H  H5  1  0.890574  0.488828  0.001907  1
  H  H6  1  0.397955  0.986555  0.999740  1
