# generated using pymatgen
data_Dy2Tm3Lu3Au4
_symmetry_space_group_name_H-M   'P 1'
_cell_length_a   4.85612400
_cell_length_b   7.08856740
_cell_length_c   8.82949658
_cell_angle_alpha   90.07742213
_cell_angle_beta   90.00000000
_cell_angle_gamma   90.00000000
_symmetry_Int_Tables_number   1
_chemical_formula_structural   Dy2Tm3Lu3Au4
_chemical_formula_sum   'Dy2 Tm3 Lu3 Au4'
_cell_volume   303.93715008
_cell_formula_units_Z   1
loop_
 _symmetry_equiv_pos_site_id
 _symmetry_equiv_pos_as_xyz
  1  'x, y, z'
loop_
 _atom_site_type_symbol
 _atom_site_label
 _atom_site_symmetry_multiplicity
 _atom_site_fract_x
 _atom_site_fract_y
 _atom_site_fract_z
 _atom_site_occupancy
  Dy  Dy0  1  0.250000  0.483720  0.175824  1
  Dy  Dy1  1  0.250000  0.985168  0.324161  1
  Tm  Tm2  1  0.750000  0.647826  0.422089  1
  Tm  Tm3  1  0.750000  0.516190  0.822470  1
  Tm  Tm4  1  0.750000  0.016053  0.677921  1
  Lu  Lu5  1  0.250000  0.852169  0.921755  1
  Lu  Lu6  1  0.250000  0.352254  0.579011  1
  Lu  Lu7  1  0.750000  0.148144  0.076577  1
  Au  Au8  1  0.250000  0.253613  0.896585  1
  Au  Au9  1  0.250000  0.753801  0.604979  1
  Au  Au10  1  0.750000  0.746706  0.098313  1
  Au  Au11  1  0.750000  0.244355  0.400315  1
