# generated using pymatgen
data_Er4Tm6Sn5Bi
_symmetry_space_group_name_H-M   'P 1'
_cell_length_a   8.89025600
_cell_length_b   8.89865383
_cell_length_c   6.44714700
_cell_angle_alpha   90.00000000
_cell_angle_beta   90.00000000
_cell_angle_gamma   119.96878692
_symmetry_Int_Tables_number   1
_chemical_formula_structural   Er4Tm6Sn5Bi
_chemical_formula_sum   'Er4 Tm6 Sn5 Bi1'
_cell_volume   441.84840723
_cell_formula_units_Z   1
loop_
 _symmetry_equiv_pos_site_id
 _symmetry_equiv_pos_as_xyz
  1  'x, y, z'
loop_
 _atom_site_type_symbol
 _atom_site_label
 _atom_site_symmetry_multiplicity
 _atom_site_fract_x
 _atom_site_fract_y
 _atom_site_fract_z
 _atom_site_occupancy
  Er  Er0  1  0.993503  0.757620  0.750000  1
  Er  Er1  1  0.765100  0.000000  0.750000  1
  Er  Er2  1  0.235883  0.242380  0.750000  1
  Er  Er3  1  0.237482  0.000000  0.250000  1
  Tm  Tm4  1  0.000599  0.238842  0.250000  1
  Tm  Tm5  1  0.761757  0.761158  0.250000  1
  Tm  Tm6  1  0.332818  0.662192  0.498168  1
  Tm  Tm7  1  0.670627  0.337808  0.001832  1
  Tm  Tm8  1  0.670627  0.337808  0.498168  1
  Tm  Tm9  1  0.332818  0.662192  0.001832  1
  Sn  Sn10  1  0.395523  0.393308  0.250000  1
  Sn  Sn11  1  0.002216  0.606692  0.250000  1
  Sn  Sn12  1  0.999139  0.395846  0.750000  1
  Sn  Sn13  1  0.603293  0.604154  0.750000  1
  Sn  Sn14  1  0.605601  0.000000  0.250000  1
  Bi  Bi15  1  0.393013  0.000000  0.750000  1
