# generated using pymatgen
data_ThCo(NiP)2
_symmetry_space_group_name_H-M   'P 1'
_cell_length_a   3.88618800
_cell_length_b   10.54167100
_cell_length_c   12.52559700
_cell_angle_alpha   90.00000000
_cell_angle_beta   90.00000000
_cell_angle_gamma   90.00000000
_symmetry_Int_Tables_number   1
_chemical_formula_structural   ThCo(NiP)2
_chemical_formula_sum   'Th6 Co6 Ni12 P12'
_cell_volume   513.13507188
_cell_formula_units_Z   6
loop_
 _symmetry_equiv_pos_site_id
 _symmetry_equiv_pos_as_xyz
  1  'x, y, z'
loop_
 _atom_site_type_symbol
 _atom_site_label
 _atom_site_symmetry_multiplicity
 _atom_site_fract_x
 _atom_site_fract_y
 _atom_site_fract_z
 _atom_site_occupancy
  Th  Th0  1  0.000000  0.500000  0.516763  1
  Th  Th1  1  0.500000  0.000000  0.483237  1
  Th  Th2  1  0.500000  0.811134  0.205480  1
  Th  Th3  1  0.500000  0.188866  0.205480  1
  Th  Th4  1  0.000000  0.688866  0.794520  1
  Th  Th5  1  0.000000  0.311134  0.794520  1
  Co  Co6  1  0.000000  0.500000  0.978733  1
  Co  Co7  1  0.500000  0.000000  0.021267  1
  Co  Co8  1  0.500000  0.334181  0.994318  1
  Co  Co9  1  0.500000  0.665819  0.994318  1
  Co  Co10  1  0.000000  0.165819  0.005682  1
  Co  Co11  1  0.000000  0.834181  0.005682  1
  Ni  Ni12  1  0.500000  0.303839  0.426148  1
  Ni  Ni13  1  0.500000  0.696161  0.426148  1
  Ni  Ni14  1  0.000000  0.196161  0.573852  1
  Ni  Ni15  1  0.000000  0.803839  0.573852  1
  Ni  Ni16  1  0.500000  0.880144  0.715761  1
  Ni  Ni17  1  0.500000  0.119856  0.715761  1
  Ni  Ni18  1  0.000000  0.619856  0.284239  1
  Ni  Ni19  1  0.000000  0.380144  0.284239  1
  Ni  Ni20  1  0.500000  0.500000  0.152386  1
  Ni  Ni21  1  0.000000  0.000000  0.847614  1
  Ni  Ni22  1  0.500000  0.500000  0.700779  1
  Ni  Ni23  1  0.000000  0.000000  0.299221  1
  P  P24  1  0.500000  0.308796  0.611483  1
  P  P25  1  0.500000  0.691204  0.611483  1
  P  P26  1  0.000000  0.191204  0.388517  1
  P  P27  1  0.000000  0.808796  0.388517  1
  P  P28  1  0.500000  0.500000  0.881875  1
  P  P29  1  0.000000  0.000000  0.118125  1
  P  P30  1  0.500000  0.850668  0.902539  1
  P  P31  1  0.500000  0.149332  0.902539  1
  P  P32  1  0.000000  0.649332  0.097461  1
  P  P33  1  0.000000  0.350668  0.097461  1
  P  P34  1  0.500000  0.500000  0.332619  1
  P  P35  1  0.000000  0.000000  0.667381  1
