# generated using pymatgen
data_SmEr5(BiO7)2
_symmetry_space_group_name_H-M   'P 1'
_cell_length_a   6.55330848
_cell_length_b   6.53205544
_cell_length_c   7.66428327
_cell_angle_alpha   106.91583310
_cell_angle_beta   89.76289831
_cell_angle_gamma   99.02574829
_symmetry_Int_Tables_number   1
_chemical_formula_structural   SmEr5(BiO7)2
_chemical_formula_sum   'Sm1 Er5 Bi2 O14'
_cell_volume   309.70084681
_cell_formula_units_Z   1
loop_
 _symmetry_equiv_pos_site_id
 _symmetry_equiv_pos_as_xyz
  1  'x, y, z'
loop_
 _atom_site_type_symbol
 _atom_site_label
 _atom_site_symmetry_multiplicity
 _atom_site_fract_x
 _atom_site_fract_y
 _atom_site_fract_z
 _atom_site_occupancy
  Sm  Sm0  1  0.261306  0.520743  0.384849  1
  Er  Er1  1  0.464057  0.005762  0.251151  1
  Er  Er2  1  0.537969  0.994014  0.748701  1
  Er  Er3  1  0.274749  0.538924  0.883272  1
  Er  Er4  1  0.726732  0.462186  0.115464  1
  Er  Er5  1  0.729617  0.472617  0.613809  1
  Bi  Bi6  1  0.998775  0.000704  0.500823  1
  Bi  Bi7  1  0.999718  0.999148  0.999433  1
  O  O8  1  0.451404  0.651286  0.161855  1
  O  O9  1  0.553797  0.349283  0.832606  1
  O  O10  1  0.303052  0.921504  0.950699  1
  O  O11  1  0.697015  0.079158  0.048296  1
  O  O12  1  0.300317  0.927916  0.514461  1
  O  O13  1  0.698751  0.076288  0.488214  1
  O  O14  1  0.550923  0.361037  0.344026  1
  O  O15  1  0.459026  0.638003  0.660475  1
  O  O16  1  0.926262  0.664259  0.960753  1
  O  O17  1  0.075449  0.335339  0.039807  1
  O  O18  1  0.067651  0.352667  0.624046  1
  O  O19  1  0.923034  0.651895  0.377432  1
  O  O20  1  0.871625  0.899664  0.724550  1
  O  O21  1  0.128769  0.097603  0.275278  1
