# generated using pymatgen
data_Hf9CrRe3Ir
_symmetry_space_group_name_H-M   'P 1'
_cell_length_a   8.63960900
_cell_length_b   8.63960799
_cell_length_c   8.42812300
_cell_angle_alpha   90.00000000
_cell_angle_beta   90.00000000
_cell_angle_gamma   120.00000002
_symmetry_Int_Tables_number   1
_chemical_formula_structural   Hf9CrRe3Ir
_chemical_formula_sum   'Hf18 Cr2 Re6 Ir2'
_cell_volume   544.81571044
_cell_formula_units_Z   2
loop_
 _symmetry_equiv_pos_site_id
 _symmetry_equiv_pos_as_xyz
  1  'x, y, z'
loop_
 _atom_site_type_symbol
 _atom_site_label
 _atom_site_symmetry_multiplicity
 _atom_site_fract_x
 _atom_site_fract_y
 _atom_site_fract_z
 _atom_site_occupancy
  Hf  Hf0  1  0.194408  0.805592  0.446198  1
  Hf  Hf1  1  0.194408  0.388816  0.446198  1
  Hf  Hf2  1  0.611184  0.805592  0.446198  1
  Hf  Hf3  1  0.805592  0.194408  0.553802  1
  Hf  Hf4  1  0.805592  0.611184  0.553802  1
  Hf  Hf5  1  0.388816  0.194408  0.553802  1
  Hf  Hf6  1  0.805592  0.194408  0.946198  1
  Hf  Hf7  1  0.805592  0.611184  0.946198  1
  Hf  Hf8  1  0.388816  0.194408  0.946198  1
  Hf  Hf9  1  0.194408  0.805592  0.053802  1
  Hf  Hf10  1  0.194408  0.388816  0.053802  1
  Hf  Hf11  1  0.611184  0.805592  0.053802  1
  Hf  Hf12  1  0.541496  0.458504  0.250000  1
  Hf  Hf13  1  0.541496  0.082992  0.250000  1
  Hf  Hf14  1  0.917008  0.458504  0.250000  1
  Hf  Hf15  1  0.458504  0.541496  0.750000  1
  Hf  Hf16  1  0.458504  0.917008  0.750000  1
  Hf  Hf17  1  0.082992  0.541496  0.750000  1
  Cr  Cr18  1  0.000000  0.000000  0.500000  1
  Cr  Cr19  1  0.000000  0.000000  0.000000  1
  Re  Re20  1  0.892011  0.107989  0.250000  1
  Re  Re21  1  0.892011  0.784024  0.250000  1
  Re  Re22  1  0.215976  0.107989  0.250000  1
  Re  Re23  1  0.107989  0.892011  0.750000  1
  Re  Re24  1  0.107989  0.215976  0.750000  1
  Re  Re25  1  0.784024  0.892011  0.750000  1
  Ir  Ir26  1  0.333333  0.666667  0.250000  1
  Ir  Ir27  1  0.666667  0.333333  0.750000  1
