# generated using pymatgen
data_Dy16Cd4CuRu3
_symmetry_space_group_name_H-M   'P 1'
_cell_length_a   9.63860883
_cell_length_b   9.66201587
_cell_length_c   9.66201521
_cell_angle_alpha   59.75446727
_cell_angle_beta   59.59714258
_cell_angle_gamma   59.59714097
_symmetry_Int_Tables_number   1
_chemical_formula_structural   Dy16Cd4CuRu3
_chemical_formula_sum   'Dy16 Cd4 Cu1 Ru3'
_cell_volume   631.19108994
_cell_formula_units_Z   1
loop_
 _symmetry_equiv_pos_site_id
 _symmetry_equiv_pos_as_xyz
  1  'x, y, z'
loop_
 _atom_site_type_symbol
 _atom_site_label
 _atom_site_symmetry_multiplicity
 _atom_site_fract_x
 _atom_site_fract_y
 _atom_site_fract_z
 _atom_site_occupancy
  Dy  Dy0  1  0.346173  0.350001  0.350001  1
  Dy  Dy1  1  0.346401  0.351438  0.954176  1
  Dy  Dy2  1  0.346401  0.954176  0.351438  1
  Dy  Dy3  1  0.960645  0.345982  0.345982  1
  Dy  Dy4  1  0.815276  0.188668  0.188668  1
  Dy  Dy5  1  0.184849  0.811583  0.811583  1
  Dy  Dy6  1  0.187497  0.811005  0.188521  1
  Dy  Dy7  1  0.816251  0.189034  0.804851  1
  Dy  Dy8  1  0.187497  0.188521  0.811005  1
  Dy  Dy9  1  0.816251  0.804851  0.189034  1
  Dy  Dy10  1  0.937312  0.562187  0.562187  1
  Dy  Dy11  1  0.557205  0.937591  0.937591  1
  Dy  Dy12  1  0.557304  0.938403  0.568113  1
  Dy  Dy13  1  0.937417  0.562020  0.939255  1
  Dy  Dy14  1  0.557304  0.568113  0.938403  1
  Dy  Dy15  1  0.937417  0.939255  0.562020  1
  Cd  Cd16  1  0.579818  0.580161  0.580161  1
  Cd  Cd17  1  0.580843  0.579528  0.258002  1
  Cd  Cd18  1  0.580843  0.258002  0.579528  1
  Cd  Cd19  1  0.255403  0.581208  0.581208  1
  Cu  Cu20  1  0.574782  0.142322  0.142322  1
  Ru  Ru21  1  0.146111  0.138304  0.138304  1
  Ru  Ru22  1  0.145502  0.141184  0.576458  1
  Ru  Ru23  1  0.145502  0.576458  0.141184  1
