# generated using pymatgen
data_Hf2Mg2As6Ru7
_symmetry_space_group_name_H-M   'P 1'
_cell_length_a   7.00124095
_cell_length_b   7.10133690
_cell_length_c   7.10133703
_cell_angle_alpha   109.99800366
_cell_angle_beta   109.49412766
_cell_angle_gamma   109.49410908
_symmetry_Int_Tables_number   1
_chemical_formula_structural   Hf2Mg2As6Ru7
_chemical_formula_sum   'Hf2 Mg2 As6 Ru7'
_cell_volume   269.84706977
_cell_formula_units_Z   1
loop_
 _symmetry_equiv_pos_site_id
 _symmetry_equiv_pos_as_xyz
  1  'x, y, z'
loop_
 _atom_site_type_symbol
 _atom_site_label
 _atom_site_symmetry_multiplicity
 _atom_site_fract_x
 _atom_site_fract_y
 _atom_site_fract_z
 _atom_site_occupancy
  Hf  Hf0  1  0.500000  0.000000  0.000000  1
  Hf  Hf1  1  0.500000  0.500000  0.500000  1
  Mg  Mg2  1  0.000000  0.000000  0.500000  1
  Mg  Mg3  1  0.000000  0.500000  0.000000  1
  As  As4  1  0.305442  0.994893  0.310549  1
  As  As5  1  0.000000  0.310294  0.310294  1
  As  As6  1  0.000000  0.689706  0.689706  1
  As  As7  1  0.305442  0.310549  0.994893  1
  As  As8  1  0.694558  0.689451  0.005107  1
  As  As9  1  0.694558  0.005107  0.689451  1
  Ru  Ru10  1  0.749794  0.499449  0.250345  1
  Ru  Ru11  1  0.500000  0.750000  0.250000  1
  Ru  Ru12  1  0.500000  0.250000  0.750000  1
  Ru  Ru13  1  0.749794  0.250345  0.499449  1
  Ru  Ru14  1  0.250206  0.749655  0.500551  1
  Ru  Ru15  1  0.250206  0.500551  0.749655  1
  Ru  Ru16  1  0.000000  0.000000  0.000000  1
