# generated using pymatgen
data_LiSc12(Si4Os)3
_symmetry_space_group_name_H-M   'P 1'
_cell_length_a   4.01823800
_cell_length_b   10.33810375
_cell_length_c   11.72543968
_cell_angle_alpha   90.05461513
_cell_angle_beta   90.00000000
_cell_angle_gamma   90.00000000
_symmetry_Int_Tables_number   1
_chemical_formula_structural   LiSc12(Si4Os)3
_chemical_formula_sum   'Li1 Sc12 Si12 Os3'
_cell_volume   487.08581528
_cell_formula_units_Z   1
loop_
 _symmetry_equiv_pos_site_id
 _symmetry_equiv_pos_as_xyz
  1  'x, y, z'
loop_
 _atom_site_type_symbol
 _atom_site_label
 _atom_site_symmetry_multiplicity
 _atom_site_fract_x
 _atom_site_fract_y
 _atom_site_fract_z
 _atom_site_occupancy
  Li  Li0  1  0.750000  0.886548  0.823020  1
  Sc  Sc1  1  0.250000  0.878786  0.024661  1
  Sc  Sc2  1  0.250000  0.623774  0.517105  1
  Sc  Sc3  1  0.750000  0.126875  0.982245  1
  Sc  Sc4  1  0.750000  0.378213  0.479698  1
  Sc  Sc5  1  0.250000  0.922182  0.599982  1
  Sc  Sc6  1  0.250000  0.578308  0.105363  1
  Sc  Sc7  1  0.750000  0.078434  0.393677  1
  Sc  Sc8  1  0.750000  0.422011  0.897167  1
  Sc  Sc9  1  0.250000  0.656578  0.798944  1
  Sc  Sc10  1  0.250000  0.841814  0.298064  1
  Sc  Sc11  1  0.750000  0.339568  0.202893  1
  Sc  Sc12  1  0.750000  0.164890  0.700688  1
  Si  Si13  1  0.250000  0.022925  0.824960  1
  Si  Si14  1  0.250000  0.484246  0.321921  1
  Si  Si15  1  0.750000  0.984291  0.173405  1
  Si  Si16  1  0.750000  0.513909  0.677599  1
  Si  Si17  1  0.250000  0.253634  0.842906  1
  Si  Si18  1  0.250000  0.248357  0.343111  1
  Si  Si19  1  0.750000  0.748106  0.158893  1
  Si  Si20  1  0.750000  0.749363  0.651813  1
  Si  Si21  1  0.250000  0.196536  0.544713  1
  Si  Si22  1  0.250000  0.305328  0.047355  1
  Si  Si23  1  0.750000  0.803613  0.451528  1
  Si  Si24  1  0.750000  0.683510  0.959856  1
  Os  Os25  1  0.250000  0.389933  0.677081  1
  Os  Os26  1  0.250000  0.110108  0.178539  1
  Os  Os27  1  0.750000  0.608160  0.322813  1
