# generated using pymatgen
data_Sr10RuW3N14
_symmetry_space_group_name_H-M   'P 1'
_cell_length_a   6.48047970
_cell_length_b   9.38341484
_cell_length_c   9.42073921
_cell_angle_alpha   115.60665709
_cell_angle_beta   97.36573242
_cell_angle_gamma   88.96624832
_symmetry_Int_Tables_number   1
_chemical_formula_structural   Sr10RuW3N14
_chemical_formula_sum   'Sr10 Ru1 W3 N14'
_cell_volume   511.89007901
_cell_formula_units_Z   1
loop_
 _symmetry_equiv_pos_site_id
 _symmetry_equiv_pos_as_xyz
  1  'x, y, z'
loop_
 _atom_site_type_symbol
 _atom_site_label
 _atom_site_symmetry_multiplicity
 _atom_site_fract_x
 _atom_site_fract_y
 _atom_site_fract_z
 _atom_site_occupancy
  Sr  Sr0  1  0.845163  0.597461  0.320999  1
  Sr  Sr1  1  0.265267  0.987368  0.557996  1
  Sr  Sr2  1  0.692154  0.407327  0.840851  1
  Sr  Sr3  1  0.292454  0.586583  0.143678  1
  Sr  Sr4  1  0.399452  0.792689  0.924197  1
  Sr  Sr5  1  0.604626  0.209642  0.083519  1
  Sr  Sr6  1  0.153898  0.401265  0.675003  1
  Sr  Sr7  1  0.902848  0.849259  0.760490  1
  Sr  Sr8  1  0.121264  0.146680  0.243617  1
  Sr  Sr9  1  0.732277  0.015616  0.445409  1
  Ru  Ru10  1  0.587986  0.354625  0.466704  1
  W  W11  1  0.423787  0.639448  0.525447  1
  W  W12  1  0.120828  0.217125  0.919202  1
  W  W13  1  0.877031  0.783577  0.081052  1
  N  N14  1  0.503524  0.549501  0.673455  1
  N  N15  1  0.470777  0.458357  0.327306  1
  N  N16  1  0.151479  0.706138  0.541929  1
  N  N17  1  0.841982  0.279805  0.431084  1
  N  N18  1  0.425722  0.200536  0.495679  1
  N  N19  1  0.590805  0.809246  0.543221  1
  N  N20  1  0.955253  0.137659  0.717855  1
  N  N21  1  0.047475  0.867190  0.280505  1
  N  N22  1  0.234017  0.052655  0.965319  1
  N  N23  1  0.766261  0.945751  0.032611  1
  N  N24  1  0.351720  0.330389  0.909305  1
  N  N25  1  0.964395  0.350058  0.081025  1
  N  N26  1  0.033456  0.651541  0.917985  1
  N  N27  1  0.644100  0.672510  0.094556  1
