# generated using pymatgen
data_TbY3(Nb3Si4)2
_symmetry_space_group_name_H-M   'P 1'
_cell_length_a   7.07330412
_cell_length_b   7.07837140
_cell_length_c   13.07498500
_cell_angle_alpha   90.00000000
_cell_angle_beta   90.00000000
_cell_angle_gamma   90.18527423
_symmetry_Int_Tables_number   1
_chemical_formula_structural   TbY3(Nb3Si4)2
_chemical_formula_sum   'Tb2 Y6 Nb12 Si16'
_cell_volume   654.62804386
_cell_formula_units_Z   2
loop_
 _symmetry_equiv_pos_site_id
 _symmetry_equiv_pos_as_xyz
  1  'x, y, z'
loop_
 _atom_site_type_symbol
 _atom_site_label
 _atom_site_symmetry_multiplicity
 _atom_site_fract_x
 _atom_site_fract_y
 _atom_site_fract_z
 _atom_site_occupancy
  Tb  Tb0  1  0.340609  0.998481  0.782409  1
  Tb  Tb1  1  0.659391  0.001519  0.282409  1
  Y  Y2  1  0.998442  0.340309  0.217481  1
  Y  Y3  1  0.001558  0.659691  0.717481  1
  Y  Y4  1  0.158797  0.498665  0.467780  1
  Y  Y5  1  0.501799  0.840700  0.032270  1
  Y  Y6  1  0.841203  0.501335  0.967780  1
  Y  Y7  1  0.498201  0.159300  0.532270  1
  Nb  Nb8  1  0.171308  0.171095  0.999866  1
  Nb  Nb9  1  0.828692  0.828905  0.499866  1
  Nb  Nb10  1  0.328933  0.670747  0.250157  1
  Nb  Nb11  1  0.671067  0.329253  0.750157  1
  Nb  Nb12  1  0.153805  0.991735  0.375936  1
  Nb  Nb13  1  0.846195  0.008265  0.875936  1
  Nb  Nb14  1  0.507324  0.654848  0.626291  1
  Nb  Nb15  1  0.346101  0.492835  0.873904  1
  Nb  Nb16  1  0.492676  0.345152  0.126291  1
  Nb  Nb17  1  0.653899  0.507165  0.373904  1
  Nb  Nb18  1  0.992440  0.154818  0.623911  1
  Nb  Nb19  1  0.007560  0.845182  0.123911  1
  Si  Si20  1  0.293336  0.044460  0.186533  1
  Si  Si21  1  0.706664  0.955540  0.686533  1
  Si  Si22  1  0.454757  0.793297  0.436756  1
  Si  Si23  1  0.207176  0.544713  0.063325  1
  Si  Si24  1  0.545243  0.206703  0.936756  1
  Si  Si25  1  0.792824  0.455287  0.563325  1
  Si  Si26  1  0.045126  0.294065  0.813312  1
  Si  Si27  1  0.954874  0.705935  0.313312  1
  Si  Si28  1  0.367211  0.295130  0.317426  1
  Si  Si29  1  0.632789  0.704870  0.817426  1
  Si  Si30  1  0.204125  0.868161  0.567107  1
  Si  Si31  1  0.132325  0.795368  0.932918  1
  Si  Si32  1  0.795875  0.131839  0.067107  1
  Si  Si33  1  0.867675  0.204632  0.432918  1
  Si  Si34  1  0.295606  0.368135  0.682618  1
  Si  Si35  1  0.704394  0.631865  0.182618  1
