# generated using pymatgen
data_Y2MnCo9As7Ru2
_symmetry_space_group_name_H-M   'P 1'
_cell_length_a   3.79138800
_cell_length_b   9.43737790
_cell_length_c   9.39271780
_cell_angle_alpha   120.47098197
_cell_angle_beta   90.00000000
_cell_angle_gamma   90.00000000
_symmetry_Int_Tables_number   1
_chemical_formula_structural   Y2MnCo9As7Ru2
_chemical_formula_sum   'Y2 Mn1 Co9 As7 Ru2'
_cell_volume   289.66146776
_cell_formula_units_Z   1
loop_
 _symmetry_equiv_pos_site_id
 _symmetry_equiv_pos_as_xyz
  1  'x, y, z'
loop_
 _atom_site_type_symbol
 _atom_site_label
 _atom_site_symmetry_multiplicity
 _atom_site_fract_x
 _atom_site_fract_y
 _atom_site_fract_z
 _atom_site_occupancy
  Y  Y0  1  0.000000  0.666765  0.335021  1
  Y  Y1  1  0.500000  0.335613  0.665946  1
  Mn  Mn2  1  0.500000  0.106199  0.886176  1
  Co  Co3  1  0.000000  0.570593  0.941858  1
  Co  Co4  1  0.000000  0.369834  0.429151  1
  Co  Co5  1  0.000000  0.059579  0.627426  1
  Co  Co6  1  0.000000  0.875889  0.158792  1
  Co  Co7  1  0.000000  0.277626  0.119915  1
  Co  Co8  1  0.000000  0.840584  0.719006  1
  Co  Co9  1  0.500000  0.946954  0.381520  1
  Co  Co10  1  0.500000  0.434253  0.050499  1
  Co  Co11  1  0.500000  0.616520  0.563018  1
  As  As12  1  0.000000  0.997476  0.000670  1
  As  As13  1  0.500000  0.707418  0.117724  1
  As  As14  1  0.500000  0.408196  0.289882  1
  As  As15  1  0.500000  0.884478  0.591778  1
  As  As16  1  0.000000  0.588488  0.701746  1
  As  As17  1  0.000000  0.113450  0.413282  1
  As  As18  1  0.000000  0.300489  0.884724  1
  Ru  Ru19  1  0.500000  0.779505  0.901671  1
  Ru  Ru20  1  0.500000  0.120091  0.220195  1
