# generated using pymatgen
data_Y6Ho2Si8PdPt7
_symmetry_space_group_name_H-M   'P 1'
_cell_length_a   4.28725500
_cell_length_b   7.49117194
_cell_length_c   14.07653502
_cell_angle_alpha   89.96789558
_cell_angle_beta   90.00000000
_cell_angle_gamma   90.00000000
_symmetry_Int_Tables_number   1
_chemical_formula_structural   Y6Ho2Si8PdPt7
_chemical_formula_sum   'Y6 Ho2 Si8 Pd1 Pt7'
_cell_volume   452.08987222
_cell_formula_units_Z   1
loop_
 _symmetry_equiv_pos_site_id
 _symmetry_equiv_pos_as_xyz
  1  'x, y, z'
loop_
 _atom_site_type_symbol
 _atom_site_label
 _atom_site_symmetry_multiplicity
 _atom_site_fract_x
 _atom_site_fract_y
 _atom_site_fract_z
 _atom_site_occupancy
  Y  Y0  1  0.500000  0.795154  0.749799  1
  Y  Y1  1  0.500000  0.795664  0.250475  1
  Y  Y2  1  0.500000  0.704881  0.000269  1
  Y  Y3  1  0.000000  0.294207  0.500145  1
  Y  Y4  1  0.500000  0.700449  0.499875  1
  Y  Y5  1  0.000000  0.299689  0.999807  1
  Ho  Ho6  1  0.000000  0.204150  0.750565  1
  Ho  Ho7  1  0.000000  0.204880  0.249096  1
  Si  Si8  1  0.500000  0.404057  0.647005  1
  Si  Si9  1  0.000000  0.592845  0.855076  1
  Si  Si10  1  0.500000  0.407086  0.350649  1
  Si  Si11  1  0.000000  0.592337  0.147753  1
  Si  Si12  1  0.500000  0.092600  0.092437  1
  Si  Si13  1  0.000000  0.908209  0.407526  1
  Si  Si14  1  0.500000  0.093110  0.907035  1
  Si  Si15  1  0.000000  0.909479  0.591672  1
  Pd  Pd16  1  0.000000  0.580191  0.656154  1
  Pt  Pt17  1  0.500000  0.075966  0.608287  1
  Pt  Pt18  1  0.000000  0.924145  0.891288  1
  Pt  Pt19  1  0.500000  0.077287  0.391517  1
  Pt  Pt20  1  0.000000  0.924097  0.108380  1
  Pt  Pt21  1  0.500000  0.419436  0.155096  1
  Pt  Pt22  1  0.000000  0.578984  0.347257  1
  Pt  Pt23  1  0.500000  0.421096  0.842834  1
