# generated using pymatgen
data_HoSc6Co6Sn23
_symmetry_space_group_name_H-M   'P 1'
_cell_length_a   9.55768400
_cell_length_b   9.55768387
_cell_length_c   9.79730100
_cell_angle_alpha   90.00000000
_cell_angle_beta   90.00000000
_cell_angle_gamma   120.00000044
_symmetry_Int_Tables_number   1
_chemical_formula_structural   HoSc6Co6Sn23
_chemical_formula_sum   'Ho1 Sc6 Co6 Sn23'
_cell_volume   775.07264651
_cell_formula_units_Z   1
loop_
 _symmetry_equiv_pos_site_id
 _symmetry_equiv_pos_as_xyz
  1  'x, y, z'
loop_
 _atom_site_type_symbol
 _atom_site_label
 _atom_site_symmetry_multiplicity
 _atom_site_fract_x
 _atom_site_fract_y
 _atom_site_fract_z
 _atom_site_occupancy
  Ho  Ho0  1  0.000000  0.000000  0.000000  1
  Sc  Sc1  1  0.518078  0.481922  0.692186  1
  Sc  Sc2  1  0.518078  0.036154  0.692186  1
  Sc  Sc3  1  0.963846  0.481922  0.692186  1
  Sc  Sc4  1  0.036154  0.518078  0.307814  1
  Sc  Sc5  1  0.481922  0.963846  0.307814  1
  Sc  Sc6  1  0.481922  0.518078  0.307814  1
  Co  Co7  1  0.168784  0.831216  0.801636  1
  Co  Co8  1  0.168784  0.337568  0.801636  1
  Co  Co9  1  0.662432  0.831216  0.801636  1
  Co  Co10  1  0.337568  0.168784  0.198364  1
  Co  Co11  1  0.831216  0.662432  0.198364  1
  Co  Co12  1  0.831216  0.168784  0.198364  1
  Sn  Sn13  1  0.666667  0.333333  0.178135  1
  Sn  Sn14  1  0.666667  0.333333  0.863601  1
  Sn  Sn15  1  0.333333  0.666667  0.136399  1
  Sn  Sn16  1  0.347785  0.347785  0.000000  1
  Sn  Sn17  1  0.000000  0.652215  0.000000  1
  Sn  Sn18  1  0.652215  0.000000  0.000000  1
  Sn  Sn19  1  0.652215  0.652215  0.000000  1
  Sn  Sn20  1  0.333333  0.666667  0.821865  1
  Sn  Sn21  1  0.441570  0.220785  0.453389  1
  Sn  Sn22  1  0.220785  0.779215  0.546611  1
  Sn  Sn23  1  0.220785  0.441570  0.546611  1
  Sn  Sn24  1  0.558430  0.779215  0.546611  1
  Sn  Sn25  1  0.121779  0.878221  0.276529  1
  Sn  Sn26  1  0.779215  0.558430  0.453389  1
  Sn  Sn27  1  0.779215  0.220785  0.453389  1
  Sn  Sn28  1  0.347785  0.000000  0.000000  1
  Sn  Sn29  1  0.121779  0.243557  0.276529  1
  Sn  Sn30  1  0.756443  0.878221  0.276529  1
  Sn  Sn31  1  0.243557  0.121779  0.723471  1
  Sn  Sn32  1  0.878221  0.756443  0.723471  1
  Sn  Sn33  1  0.878221  0.121779  0.723471  1
  Sn  Sn34  1  0.000000  0.000000  0.500000  1
  Sn  Sn35  1  0.000000  0.347785  0.000000  1
