# generated using pymatgen
data_Sm2Ho3Nb3(Co4P3)4
_symmetry_space_group_name_H-M   'P 1'
_cell_length_a   12.20096500
_cell_length_b   12.20096506
_cell_length_c   3.70422600
_cell_angle_alpha   90.00000000
_cell_angle_beta   90.00000000
_cell_angle_gamma   119.99999712
_symmetry_Int_Tables_number   1
_chemical_formula_structural   Sm2Ho3Nb3(Co4P3)4
_chemical_formula_sum   'Sm2 Ho3 Nb3 Co16 P12'
_cell_volume   477.54739988
_cell_formula_units_Z   1
loop_
 _symmetry_equiv_pos_site_id
 _symmetry_equiv_pos_as_xyz
  1  'x, y, z'
loop_
 _atom_site_type_symbol
 _atom_site_label
 _atom_site_symmetry_multiplicity
 _atom_site_fract_x
 _atom_site_fract_y
 _atom_site_fract_z
 _atom_site_occupancy
  Sm  Sm0  1  0.333333  0.666667  0.000000  1
  Sm  Sm1  1  0.666667  0.333333  0.000000  1
  Ho  Ho2  1  0.816545  0.000000  0.500000  1
  Ho  Ho3  1  0.000000  0.816545  0.500000  1
  Ho  Ho4  1  0.183455  0.183455  0.500000  1
  Nb  Nb5  1  0.444322  0.000000  0.000000  1
  Nb  Nb6  1  0.000000  0.444322  0.000000  1
  Nb  Nb7  1  0.555678  0.555678  0.000000  1
  Co  Co8  1  0.277897  0.000000  0.500000  1
  Co  Co9  1  0.000000  0.277897  0.500000  1
  Co  Co10  1  0.722103  0.722103  0.500000  1
  Co  Co11  1  0.627869  0.804120  0.000000  1
  Co  Co12  1  0.195880  0.823749  0.000000  1
  Co  Co13  1  0.176251  0.372131  0.000000  1
  Co  Co14  1  0.372131  0.176251  0.000000  1
  Co  Co15  1  0.804120  0.627869  0.000000  1
  Co  Co16  1  0.823749  0.195880  0.000000  1
  Co  Co17  1  0.521354  0.874670  0.500000  1
  Co  Co18  1  0.125330  0.646685  0.500000  1
  Co  Co19  1  0.353315  0.478646  0.500000  1
  Co  Co20  1  0.478646  0.353315  0.500000  1
  Co  Co21  1  0.874670  0.521354  0.500000  1
  Co  Co22  1  0.646685  0.125330  0.500000  1
  Co  Co23  1  0.000000  0.000000  0.000000  1
  P  P24  1  0.177570  0.000000  0.000000  1
  P  P25  1  0.000000  0.177570  0.000000  1
  P  P26  1  0.822430  0.822430  0.000000  1
  P  P27  1  0.523078  0.689414  0.500000  1
  P  P28  1  0.310586  0.833663  0.500000  1
  P  P29  1  0.166337  0.476922  0.500000  1
  P  P30  1  0.476922  0.166337  0.500000  1
  P  P31  1  0.689414  0.523078  0.500000  1
  P  P32  1  0.833663  0.310586  0.500000  1
  P  P33  1  0.644159  0.000000  0.000000  1
  P  P34  1  0.000000  0.644159  0.000000  1
  P  P35  1  0.355841  0.355841  0.000000  1
