# generated using pymatgen
data_Ta5NbCN2
_symmetry_space_group_name_H-M   'P 1'
_cell_length_a   5.35638336
_cell_length_b   5.35706462
_cell_length_c   4.95692636
_cell_angle_alpha   89.92376915
_cell_angle_beta   89.85169578
_cell_angle_gamma   120.02163427
_symmetry_Int_Tables_number   1
_chemical_formula_structural   Ta5NbCN2
_chemical_formula_sum   'Ta5 Nb1 C1 N2'
_cell_volume   123.15256636
_cell_formula_units_Z   1
loop_
 _symmetry_equiv_pos_site_id
 _symmetry_equiv_pos_as_xyz
  1  'x, y, z'
loop_
 _atom_site_type_symbol
 _atom_site_label
 _atom_site_symmetry_multiplicity
 _atom_site_fract_x
 _atom_site_fract_y
 _atom_site_fract_z
 _atom_site_occupancy
  Ta  Ta0  1  0.000630  0.336402  0.754055  1
  Ta  Ta1  1  0.335562  0.998859  0.754024  1
  Ta  Ta2  1  0.336355  0.336770  0.248858  1
  Ta  Ta3  1  0.000016  0.663848  0.244807  1
  Ta  Ta4  1  0.663301  0.998859  0.245245  1
  Nb  Nb5  1  0.662758  0.662984  0.754143  1
  C  C6  1  0.667537  0.331675  0.499151  1
  N  N7  1  0.330864  0.667548  0.498450  1
  N  N8  1  0.002977  0.003056  0.001269  1
