# generated using pymatgen
data_RbBa3BiO6
_symmetry_space_group_name_H-M   'P 1'
_cell_length_a   7.51651530
_cell_length_b   7.51651589
_cell_length_c   7.51651547
_cell_angle_alpha   88.52116799
_cell_angle_beta   88.52116542
_cell_angle_gamma   88.52116480
_symmetry_Int_Tables_number   1
_chemical_formula_structural   RbBa3BiO6
_chemical_formula_sum   'Rb2 Ba6 Bi2 O12'
_cell_volume   424.25097054
_cell_formula_units_Z   2
loop_
 _symmetry_equiv_pos_site_id
 _symmetry_equiv_pos_as_xyz
  1  'x, y, z'
loop_
 _atom_site_type_symbol
 _atom_site_label
 _atom_site_symmetry_multiplicity
 _atom_site_fract_x
 _atom_site_fract_y
 _atom_site_fract_z
 _atom_site_occupancy
  Rb  Rb0  1  0.750000  0.750000  0.750000  1
  Rb  Rb1  1  0.250000  0.250000  0.250000  1
  Ba  Ba2  1  0.250000  0.894919  0.605081  1
  Ba  Ba3  1  0.750000  0.105081  0.394919  1
  Ba  Ba4  1  0.894919  0.605081  0.250000  1
  Ba  Ba5  1  0.394919  0.750000  0.105081  1
  Ba  Ba6  1  0.105081  0.394919  0.750000  1
  Ba  Ba7  1  0.605081  0.250000  0.894919  1
  Bi  Bi8  1  0.000000  0.000000  0.000000  1
  Bi  Bi9  1  0.500000  0.500000  0.500000  1
  O  O10  1  0.724408  0.932860  0.068801  1
  O  O11  1  0.068801  0.724408  0.932860  1
  O  O12  1  0.067140  0.931199  0.275592  1
  O  O13  1  0.932860  0.068801  0.724408  1
  O  O14  1  0.431199  0.567140  0.775592  1
  O  O15  1  0.567140  0.775592  0.431199  1
  O  O16  1  0.275592  0.067140  0.931199  1
  O  O17  1  0.931199  0.275592  0.067140  1
  O  O18  1  0.224408  0.568801  0.432860  1
  O  O19  1  0.568801  0.432860  0.224408  1
  O  O20  1  0.432860  0.224408  0.568801  1
  O  O21  1  0.775592  0.431199  0.567140  1
