# generated using pymatgen
data_KTb(PSe3)2
_symmetry_space_group_name_H-M   'P 1'
_cell_length_a   7.66129500
_cell_length_b   6.88534762
_cell_length_c   10.71226274
_cell_angle_alpha   87.37085269
_cell_angle_beta   90.00000000
_cell_angle_gamma   90.00000000
_symmetry_Int_Tables_number   1
_chemical_formula_structural   KTb(PSe3)2
_chemical_formula_sum   'K2 Tb2 P4 Se12'
_cell_volume   564.48431376
_cell_formula_units_Z   2
loop_
 _symmetry_equiv_pos_site_id
 _symmetry_equiv_pos_as_xyz
  1  'x, y, z'
loop_
 _atom_site_type_symbol
 _atom_site_label
 _atom_site_symmetry_multiplicity
 _atom_site_fract_x
 _atom_site_fract_y
 _atom_site_fract_z
 _atom_site_occupancy
  K  K0  1  0.043491  0.315011  0.494595  1
  K  K1  1  0.543491  0.684989  0.505405  1
  Tb  Tb2  1  0.264782  0.216733  0.997593  1
  Tb  Tb3  1  0.764782  0.783267  0.002407  1
  P  P4  1  0.751609  0.320649  0.831002  1
  P  P5  1  0.251609  0.679351  0.168998  1
  P  P6  1  0.032544  0.800620  0.284624  1
  P  P7  1  0.532544  0.199380  0.715376  1
  Se  Se8  1  0.627638  0.370583  0.016863  1
  Se  Se9  1  0.122228  0.833622  0.472870  1
  Se  Se10  1  0.950713  0.082776  0.837014  1
  Se  Se11  1  0.819332  0.593685  0.261059  1
  Se  Se12  1  0.345237  0.398479  0.247596  1
  Se  Se13  1  0.319332  0.406315  0.738941  1
  Se  Se14  1  0.455925  0.939298  0.837347  1
  Se  Se15  1  0.955925  0.060702  0.162653  1
  Se  Se16  1  0.622228  0.166378  0.527130  1
  Se  Se17  1  0.127638  0.629417  0.983137  1
  Se  Se18  1  0.450713  0.917224  0.162986  1
  Se  Se19  1  0.845237  0.601521  0.752404  1
