# generated using pymatgen
data_NdSmZn5Sn
_symmetry_space_group_name_H-M   'P 1'
_cell_length_a   8.53717514
_cell_length_b   8.53717507
_cell_length_c   9.06191700
_cell_angle_alpha   90.00000000
_cell_angle_beta   90.00000000
_cell_angle_gamma   149.66862674
_symmetry_Int_Tables_number   1
_chemical_formula_structural   NdSmZn5Sn
_chemical_formula_sum   'Nd2 Sm2 Zn10 Sn2'
_cell_volume   333.53399674
_cell_formula_units_Z   2
loop_
 _symmetry_equiv_pos_site_id
 _symmetry_equiv_pos_as_xyz
  1  'x, y, z'
loop_
 _atom_site_type_symbol
 _atom_site_label
 _atom_site_symmetry_multiplicity
 _atom_site_fract_x
 _atom_site_fract_y
 _atom_site_fract_z
 _atom_site_occupancy
  Nd  Nd0  1  0.000000  0.000000  0.500000  1
  Nd  Nd1  1  0.000000  0.000000  0.000000  1
  Sm  Sm2  1  0.204983  0.795017  0.250000  1
  Sm  Sm3  1  0.795017  0.204983  0.750000  1
  Zn  Zn4  1  0.813492  0.186508  0.391286  1
  Zn  Zn5  1  0.186508  0.813492  0.608714  1
  Zn  Zn6  1  0.813492  0.186508  0.108714  1
  Zn  Zn7  1  0.186508  0.813492  0.891286  1
  Zn  Zn8  1  0.656407  0.343593  0.482719  1
  Zn  Zn9  1  0.343593  0.656407  0.517281  1
  Zn  Zn10  1  0.656407  0.343593  0.017281  1
  Zn  Zn11  1  0.343593  0.656407  0.982719  1
  Zn  Zn12  1  0.394263  0.605737  0.250000  1
  Zn  Zn13  1  0.605737  0.394263  0.750000  1
  Sn  Sn14  1  0.555379  0.444621  0.250000  1
  Sn  Sn15  1  0.444621  0.555379  0.750000  1
