# generated using pymatgen
data_La(S8Cl)3
_symmetry_space_group_name_H-M   'P 1'
_cell_length_a   14.99118043
_cell_length_b   14.99118003
_cell_length_c   14.99117905
_cell_angle_alpha   119.11211821
_cell_angle_beta   119.11211909
_cell_angle_gamma   119.11211388
_symmetry_Int_Tables_number   1
_chemical_formula_structural   La(S8Cl)3
_chemical_formula_sum   'La1 S24 Cl3'
_cell_volume   822.31016198
_cell_formula_units_Z   1
loop_
 _symmetry_equiv_pos_site_id
 _symmetry_equiv_pos_as_xyz
  1  'x, y, z'
loop_
 _atom_site_type_symbol
 _atom_site_label
 _atom_site_symmetry_multiplicity
 _atom_site_fract_x
 _atom_site_fract_y
 _atom_site_fract_z
 _atom_site_occupancy
  La  La0  1  0.469148  0.469148  0.469148  1
  S  S1  1  0.005841  0.600775  0.600775  1
  S  S2  1  0.600775  0.600775  0.005841  1
  S  S3  1  0.600775  0.005841  0.600775  1
  S  S4  1  0.256202  0.863084  0.733703  1
  S  S5  1  0.863084  0.733703  0.256202  1
  S  S6  1  0.733703  0.256202  0.863084  1
  S  S7  1  0.863084  0.256202  0.733703  1
  S  S8  1  0.256202  0.733703  0.863084  1
  S  S9  1  0.733703  0.863084  0.256202  1
  S  S10  1  0.080508  0.603439  0.421901  1
  S  S11  1  0.603439  0.421901  0.080508  1
  S  S12  1  0.421901  0.080508  0.603439  1
  S  S13  1  0.603439  0.080508  0.421901  1
  S  S14  1  0.080508  0.421901  0.603439  1
  S  S15  1  0.421901  0.603439  0.080508  1
  S  S16  1  0.372438  0.754285  0.623110  1
  S  S17  1  0.754285  0.623110  0.372438  1
  S  S18  1  0.623110  0.372438  0.754285  1
  S  S19  1  0.754285  0.372438  0.623110  1
  S  S20  1  0.372438  0.623110  0.754285  1
  S  S21  1  0.623110  0.754285  0.372438  1
  S  S22  1  0.173686  0.444219  0.444219  1
  S  S23  1  0.444219  0.444219  0.173686  1
  S  S24  1  0.444219  0.173686  0.444219  1
  Cl  Cl25  1  0.051463  0.919816  0.919816  1
  Cl  Cl26  1  0.919816  0.919816  0.051463  1
  Cl  Cl27  1  0.919816  0.051463  0.919816  1
