# generated using pymatgen
data_Tb3BiIrRh3O14
_symmetry_space_group_name_H-M   'P 1'
_cell_length_a   7.26652813
_cell_length_b   7.29501618
_cell_length_c   7.26652800
_cell_angle_alpha   60.12909766
_cell_angle_beta   60.00000061
_cell_angle_gamma   60.12909746
_symmetry_Int_Tables_number   1
_chemical_formula_structural   Tb3BiIrRh3O14
_chemical_formula_sum   'Tb3 Bi1 Ir1 Rh3 O14'
_cell_volume   272.90397819
_cell_formula_units_Z   1
loop_
 _symmetry_equiv_pos_site_id
 _symmetry_equiv_pos_as_xyz
  1  'x, y, z'
loop_
 _atom_site_type_symbol
 _atom_site_label
 _atom_site_symmetry_multiplicity
 _atom_site_fract_x
 _atom_site_fract_y
 _atom_site_fract_z
 _atom_site_occupancy
  Tb  Tb0  1  0.125000  0.125000  0.125000  1
  Tb  Tb1  1  0.625000  0.125000  0.125000  1
  Tb  Tb2  1  0.125000  0.125000  0.625000  1
  Bi  Bi3  1  0.125000  0.625000  0.125000  1
  Ir  Ir4  1  0.625000  0.125000  0.625000  1
  Rh  Rh5  1  0.625000  0.625000  0.625000  1
  Rh  Rh6  1  0.625000  0.625000  0.125000  1
  Rh  Rh7  1  0.125000  0.625000  0.625000  1
  O  O8  1  0.252791  0.241626  0.252791  1
  O  O9  1  0.288009  0.718456  0.288009  1
  O  O10  1  0.957092  0.962149  0.540379  1
  O  O11  1  0.540379  0.962149  0.540379  1
  O  O12  1  0.705524  0.718456  0.288009  1
  O  O13  1  0.961991  0.531544  0.544476  1
  O  O14  1  0.709621  0.287851  0.709621  1
  O  O15  1  0.292908  0.287851  0.709621  1
  O  O16  1  0.709621  0.287851  0.292908  1
  O  O17  1  0.288009  0.718456  0.705524  1
  O  O18  1  0.961991  0.531544  0.961991  1
  O  O19  1  0.544476  0.531544  0.961991  1
  O  O20  1  0.997209  0.008374  0.997209  1
  O  O21  1  0.540379  0.962149  0.957092  1
