# generated using pymatgen
data_CsUMoO6
_symmetry_space_group_name_H-M   'P 1'
_cell_length_a   7.26393396
_cell_length_b   8.73677900
_cell_length_c   10.72639100
_cell_angle_alpha   90.00000000
_cell_angle_beta   105.52117742
_cell_angle_gamma   90.00000000
_symmetry_Int_Tables_number   1
_chemical_formula_structural   CsUMoO6
_chemical_formula_sum   'Cs4 U4 Mo4 O24'
_cell_volume   655.90785076
_cell_formula_units_Z   4
loop_
 _symmetry_equiv_pos_site_id
 _symmetry_equiv_pos_as_xyz
  1  'x, y, z'
loop_
 _atom_site_type_symbol
 _atom_site_label
 _atom_site_symmetry_multiplicity
 _atom_site_fract_x
 _atom_site_fract_y
 _atom_site_fract_z
 _atom_site_occupancy
  Cs  Cs0  1  0.453996  0.764330  0.138276  1
  Cs  Cs1  1  0.546005  0.264330  0.361724  1
  Cs  Cs2  1  0.453996  0.735670  0.638276  1
  Cs  Cs3  1  0.546004  0.235670  0.861724  1
  U  U4  1  0.985150  0.480962  0.175983  1
  U  U5  1  0.014851  0.980962  0.324017  1
  U  U6  1  0.985149  0.019038  0.675983  1
  U  U7  1  0.014851  0.519038  0.824017  1
  Mo  Mo8  1  0.122343  0.147151  0.058631  1
  Mo  Mo9  1  0.877655  0.647151  0.441369  1
  Mo  Mo10  1  0.122344  0.352848  0.558631  1
  Mo  Mo11  1  0.877656  0.852848  0.941369  1
  O  O12  1  0.970324  0.648468  0.007221  1
  O  O13  1  0.366238  0.135200  0.075153  1
  O  O14  1  0.040691  0.938592  0.110568  1
  O  O15  1  0.727360  0.442580  0.120984  1
  O  O16  1  0.070606  0.215274  0.220638  1
  O  O17  1  0.242053  0.517208  0.237116  1
  O  O18  1  0.757947  0.017208  0.262884  1
  O  O19  1  0.929395  0.715274  0.279362  1
  O  O20  1  0.272640  0.942580  0.379016  1
  O  O21  1  0.959310  0.438592  0.389433  1
  O  O22  1  0.633762  0.635200  0.424847  1
  O  O23  1  0.029676  0.148468  0.492779  1
  O  O24  1  0.970325  0.851532  0.507221  1
  O  O25  1  0.366237  0.364800  0.575153  1
  O  O26  1  0.040691  0.561408  0.610568  1
  O  O27  1  0.727361  0.057420  0.620984  1
  O  O28  1  0.070606  0.284726  0.720638  1
  O  O29  1  0.242054  0.982792  0.737116  1
  O  O30  1  0.757946  0.482792  0.762884  1
  O  O31  1  0.929394  0.784726  0.779362  1
  O  O32  1  0.272639  0.557420  0.879016  1
  O  O33  1  0.959309  0.061408  0.889433  1
  O  O34  1  0.633763  0.864800  0.924847  1
  O  O35  1  0.029675  0.351532  0.992779  1
