# generated using pymatgen
data_SmPu3(C2I)2
_symmetry_space_group_name_H-M   'P 1'
_cell_length_a   7.94946821
_cell_length_b   7.97416474
_cell_length_c   6.61174647
_cell_angle_alpha   99.03764089
_cell_angle_beta   99.30714324
_cell_angle_gamma   30.48521817
_symmetry_Int_Tables_number   1
_chemical_formula_structural   SmPu3(C2I)2
_chemical_formula_sum   'Sm1 Pu3 C4 I2'
_cell_volume   209.69634206
_cell_formula_units_Z   1
loop_
 _symmetry_equiv_pos_site_id
 _symmetry_equiv_pos_as_xyz
  1  'x, y, z'
loop_
 _atom_site_type_symbol
 _atom_site_label
 _atom_site_symmetry_multiplicity
 _atom_site_fract_x
 _atom_site_fract_y
 _atom_site_fract_z
 _atom_site_occupancy
  Sm  Sm0  1  0.153333  0.527636  0.846207  1
  Pu  Pu1  1  0.841378  0.479414  0.154995  1
  Pu  Pu2  1  0.523349  0.150691  0.350926  1
  Pu  Pu3  1  0.482379  0.843364  0.648187  1
  C  C4  1  0.347969  0.102027  0.030108  1
  C  C5  1  0.898084  0.650336  0.471271  1
  C  C6  1  0.105926  0.343319  0.524117  1
  C  C7  1  0.642261  0.905691  0.973999  1
  I  I8  1  0.215788  0.782916  0.252405  1
  I  I9  1  0.789532  0.214607  0.747787  1
