# generated using pymatgen
data_Dy9Er3Ru4
_symmetry_space_group_name_H-M   'P 1'
_cell_length_a   6.29125650
_cell_length_b   7.29745527
_cell_length_c   9.14493590
_cell_angle_alpha   90.00786634
_cell_angle_beta   90.07328818
_cell_angle_gamma   90.03018808
_symmetry_Int_Tables_number   1
_chemical_formula_structural   Dy9Er3Ru4
_chemical_formula_sum   'Dy9 Er3 Ru4'
_cell_volume   419.84509115
_cell_formula_units_Z   1
loop_
 _symmetry_equiv_pos_site_id
 _symmetry_equiv_pos_as_xyz
  1  'x, y, z'
loop_
 _atom_site_type_symbol
 _atom_site_label
 _atom_site_symmetry_multiplicity
 _atom_site_fract_x
 _atom_site_fract_y
 _atom_site_fract_z
 _atom_site_occupancy
  Dy  Dy0  1  0.330814  0.677126  0.064653  1
  Dy  Dy1  1  0.168854  0.176789  0.435563  1
  Dy  Dy2  1  0.668957  0.323229  0.564077  1
  Dy  Dy3  1  0.831353  0.823211  0.935553  1
  Dy  Dy4  1  0.668975  0.322916  0.935877  1
  Dy  Dy5  1  0.866646  0.539454  0.250276  1
  Dy  Dy6  1  0.633434  0.039182  0.250120  1
  Dy  Dy7  1  0.133734  0.460918  0.749797  1
  Dy  Dy8  1  0.366269  0.960578  0.749809  1
  Er  Er9  1  0.831160  0.823097  0.564308  1
  Er  Er10  1  0.331030  0.676829  0.435550  1
  Er  Er11  1  0.168797  0.176715  0.064598  1
  Ru  Ru12  1  0.041400  0.884032  0.250415  1
  Ru  Ru13  1  0.458304  0.384146  0.249903  1
  Ru  Ru14  1  0.959013  0.115583  0.750230  1
  Ru  Ru15  1  0.541260  0.616196  0.749272  1
