# generated using pymatgen
data_Pr5NbRuO12
_symmetry_space_group_name_H-M   'P 1'
_cell_length_a   7.10860229
_cell_length_b   7.10860227
_cell_length_c   7.84142843
_cell_angle_alpha   74.02157165
_cell_angle_beta   74.02156927
_cell_angle_gamma   50.28715895
_symmetry_Int_Tables_number   1
_chemical_formula_structural   Pr5NbRuO12
_chemical_formula_sum   'Pr5 Nb1 Ru1 O12'
_cell_volume   290.37897402
_cell_formula_units_Z   1
loop_
 _symmetry_equiv_pos_site_id
 _symmetry_equiv_pos_as_xyz
  1  'x, y, z'
loop_
 _atom_site_type_symbol
 _atom_site_label
 _atom_site_symmetry_multiplicity
 _atom_site_fract_x
 _atom_site_fract_y
 _atom_site_fract_z
 _atom_site_occupancy
  Pr  Pr0  1  0.302468  0.311792  0.358280  1
  Pr  Pr1  1  0.688208  0.697532  0.641720  1
  Pr  Pr2  1  0.683946  0.695210  0.169850  1
  Pr  Pr3  1  0.304790  0.316054  0.830150  1
  Pr  Pr4  1  0.999618  0.000382  0.500000  1
  Nb  Nb5  1  0.792595  0.207405  0.000000  1
  Ru  Ru6  1  0.246599  0.753401  0.000000  1
  O  O7  1  0.092401  0.596085  0.577405  1
  O  O8  1  0.001938  0.996285  0.191722  1
  O  O9  1  0.403915  0.907599  0.422595  1
  O  O10  1  0.503334  0.497112  0.171392  1
  O  O11  1  0.093704  0.588573  0.078962  1
  O  O12  1  0.900727  0.408611  0.422037  1
  O  O13  1  0.003715  0.998062  0.808278  1
  O  O14  1  0.591389  0.099272  0.577963  1
  O  O15  1  0.502888  0.496666  0.828608  1
  O  O16  1  0.578012  0.101673  0.079055  1
  O  O17  1  0.411427  0.906296  0.921038  1
  O  O18  1  0.898327  0.421988  0.920945  1
