# generated using pymatgen
data_Tm2ScCo9(SiB2)2
_symmetry_space_group_name_H-M   'P 1'
_cell_length_a   5.06165800
_cell_length_b   5.06165901
_cell_length_c   9.28611700
_cell_angle_alpha   90.00000000
_cell_angle_beta   90.00000000
_cell_angle_gamma   120.00000648
_symmetry_Int_Tables_number   1
_chemical_formula_structural   Tm2ScCo9(SiB2)2
_chemical_formula_sum   'Tm2 Sc1 Co9 Si2 B4'
_cell_volume   206.03947610
_cell_formula_units_Z   1
loop_
 _symmetry_equiv_pos_site_id
 _symmetry_equiv_pos_as_xyz
  1  'x, y, z'
loop_
 _atom_site_type_symbol
 _atom_site_label
 _atom_site_symmetry_multiplicity
 _atom_site_fract_x
 _atom_site_fract_y
 _atom_site_fract_z
 _atom_site_occupancy
  Tm  Tm0  1  0.000000  0.000000  0.997413  1
  Tm  Tm1  1  0.000000  0.000000  0.341140  1
  Sc  Sc2  1  0.000000  0.000000  0.662382  1
  Co  Co3  1  0.500000  0.500000  0.501723  1
  Co  Co4  1  0.500000  0.000000  0.501723  1
  Co  Co5  1  0.000000  0.500000  0.501723  1
  Co  Co6  1  0.500000  0.500000  0.801953  1
  Co  Co7  1  0.500000  0.000000  0.801953  1
  Co  Co8  1  0.000000  0.500000  0.801953  1
  Co  Co9  1  0.500000  0.500000  0.196189  1
  Co  Co10  1  0.500000  0.000000  0.196189  1
  Co  Co11  1  0.000000  0.500000  0.196189  1
  Si  Si12  1  0.666667  0.333333  0.999303  1
  Si  Si13  1  0.333333  0.666667  0.999303  1
  B  B14  1  0.666667  0.333333  0.654223  1
  B  B15  1  0.333333  0.666667  0.654223  1
  B  B16  1  0.333333  0.666667  0.346208  1
  B  B17  1  0.666667  0.333333  0.346208  1
