# generated using pymatgen
data_Ce10PtPb6Br
_symmetry_space_group_name_H-M   'P 1'
_cell_length_a   9.52220911
_cell_length_b   9.52176572
_cell_length_c   6.94267800
_cell_angle_alpha   89.99842947
_cell_angle_beta   89.99123915
_cell_angle_gamma   119.98910609
_symmetry_Int_Tables_number   1
_chemical_formula_structural   Ce10PtPb6Br
_chemical_formula_sum   'Ce10 Pt1 Pb6 Br1'
_cell_volume   545.20586189
_cell_formula_units_Z   1
loop_
 _symmetry_equiv_pos_site_id
 _symmetry_equiv_pos_as_xyz
  1  'x, y, z'
loop_
 _atom_site_type_symbol
 _atom_site_label
 _atom_site_symmetry_multiplicity
 _atom_site_fract_x
 _atom_site_fract_y
 _atom_site_fract_z
 _atom_site_occupancy
  Ce  Ce0  1  0.256533  0.999668  0.264618  1
  Ce  Ce1  1  0.743467  0.000332  0.735382  1
  Ce  Ce2  1  0.000185  0.256682  0.261071  1
  Ce  Ce3  1  0.999815  0.743318  0.738929  1
  Ce  Ce4  1  0.743572  0.743089  0.263834  1
  Ce  Ce5  1  0.256428  0.256911  0.736166  1
  Ce  Ce6  1  0.332700  0.666091  0.999933  1
  Ce  Ce7  1  0.667300  0.333909  0.000067  1
  Ce  Ce8  1  0.667756  0.334074  0.499870  1
  Ce  Ce9  1  0.332244  0.665926  0.500130  1
  Pt  Pt10  1  0.000000  0.000000  0.500000  1
  Pb  Pb11  1  0.609450  0.000099  0.244500  1
  Pb  Pb12  1  0.390550  0.999901  0.755500  1
  Pb  Pb13  1  0.999800  0.608421  0.245504  1
  Pb  Pb14  1  0.000200  0.391579  0.754496  1
  Pb  Pb15  1  0.390827  0.391151  0.245081  1
  Pb  Pb16  1  0.609173  0.608849  0.754919  1
  Br  Br17  1  0.000000  0.000000  0.000000  1
