# generated using pymatgen
data_Nd2ThIn3NiIr2
_symmetry_space_group_name_H-M   'P 1'
_cell_length_a   7.60708440
_cell_length_b   7.60708368
_cell_length_c   3.98712100
_cell_angle_alpha   90.00000000
_cell_angle_beta   90.00000000
_cell_angle_gamma   118.64935051
_symmetry_Int_Tables_number   1
_chemical_formula_structural   Nd2ThIn3NiIr2
_chemical_formula_sum   'Nd2 Th1 In3 Ni1 Ir2'
_cell_volume   202.47797110
_cell_formula_units_Z   1
loop_
 _symmetry_equiv_pos_site_id
 _symmetry_equiv_pos_as_xyz
  1  'x, y, z'
loop_
 _atom_site_type_symbol
 _atom_site_label
 _atom_site_symmetry_multiplicity
 _atom_site_fract_x
 _atom_site_fract_y
 _atom_site_fract_z
 _atom_site_occupancy
  Nd  Nd0  1  0.414279  0.001424  0.500000  1
  Nd  Nd1  1  0.001424  0.414279  0.500000  1
  Th  Th2  1  0.580137  0.580137  0.500000  1
  In  In3  1  0.756780  0.007002  0.000000  1
  In  In4  1  0.007002  0.756780  0.000000  1
  In  In5  1  0.232763  0.232763  0.000000  1
  Ni  Ni6  1  0.991589  0.991589  0.500000  1
  Ir  Ir7  1  0.352218  0.663807  0.000000  1
  Ir  Ir8  1  0.663807  0.352218  0.000000  1
