# generated using pymatgen
data_CaTcO4
_symmetry_space_group_name_H-M   'P 1'
_cell_length_a   6.93386680
_cell_length_b   6.93386798
_cell_length_c   6.93386771
_cell_angle_alpha   135.32701297
_cell_angle_beta   135.32702124
_cell_angle_gamma   65.02251158
_symmetry_Int_Tables_number   1
_chemical_formula_structural   CaTcO4
_chemical_formula_sum   'Ca2 Tc2 O8'
_cell_volume   162.41729303
_cell_formula_units_Z   2
loop_
 _symmetry_equiv_pos_site_id
 _symmetry_equiv_pos_as_xyz
  1  'x, y, z'
loop_
 _atom_site_type_symbol
 _atom_site_label
 _atom_site_symmetry_multiplicity
 _atom_site_fract_x
 _atom_site_fract_y
 _atom_site_fract_z
 _atom_site_occupancy
  Ca  Ca0  1  0.250000  0.750000  0.500000  1
  Ca  Ca1  1  0.500000  0.500000  0.000000  1
  Tc  Tc2  1  0.750000  0.250000  0.500000  1
  Tc  Tc3  1  0.000000  0.000000  0.000000  1
  O  O4  1  0.821825  0.421743  0.901411  1
  O  O5  1  0.520331  0.920413  0.098589  1
  O  O6  1  0.670413  0.071825  0.900082  1
  O  O7  1  0.171743  0.770331  0.099918  1
  O  O8  1  0.928175  0.828257  0.598589  1
  O  O9  1  0.229669  0.329587  0.401411  1
  O  O10  1  0.079587  0.178175  0.599918  1
  O  O11  1  0.578257  0.479669  0.400082  1
