# generated using pymatgen
data_Er3TmB16Mo3W
_symmetry_space_group_name_H-M   'P 1'
_cell_length_a   3.60492600
_cell_length_b   6.01001536
_cell_length_c   11.61458613
_cell_angle_alpha   90.02850181
_cell_angle_beta   90.00000000
_cell_angle_gamma   90.00000000
_symmetry_Int_Tables_number   1
_chemical_formula_structural   Er3TmB16Mo3W
_chemical_formula_sum   'Er3 Tm1 B16 Mo3 W1'
_cell_volume   251.63765040
_cell_formula_units_Z   1
loop_
 _symmetry_equiv_pos_site_id
 _symmetry_equiv_pos_as_xyz
  1  'x, y, z'
loop_
 _atom_site_type_symbol
 _atom_site_label
 _atom_site_symmetry_multiplicity
 _atom_site_fract_x
 _atom_site_fract_y
 _atom_site_fract_z
 _atom_site_occupancy
  Er  Er0  1  0.000000  0.372774  0.649796  1
  Er  Er1  1  0.000000  0.127487  0.149463  1
  Er  Er2  1  0.000000  0.873086  0.850261  1
  Tm  Tm3  1  0.000000  0.627140  0.350683  1
  B  B4  1  0.500000  0.787871  0.187008  1
  B  B5  1  0.500000  0.212731  0.813483  1
  B  B6  1  0.500000  0.287566  0.313539  1
  B  B7  1  0.500000  0.712669  0.686582  1
  B  B8  1  0.500000  0.867552  0.031706  1
  B  B9  1  0.500000  0.133017  0.967796  1
  B  B10  1  0.500000  0.367634  0.468024  1
  B  B11  1  0.500000  0.632583  0.531840  1
  B  B12  1  0.500000  0.884945  0.452176  1
  B  B13  1  0.500000  0.114509  0.547839  1
  B  B14  1  0.500000  0.385253  0.047494  1
  B  B15  1  0.500000  0.614221  0.952071  1
  B  B16  1  0.500000  0.976141  0.306108  1
  B  B17  1  0.500000  0.023868  0.693973  1
  B  B18  1  0.500000  0.475853  0.194116  1
  B  B19  1  0.500000  0.523492  0.806138  1
  Mo  Mo20  1  0.000000  0.369080  0.915502  1
  Mo  Mo21  1  0.000000  0.130287  0.415880  1
  Mo  Mo22  1  0.000000  0.869531  0.583979  1
  W  W23  1  0.000000  0.630710  0.084542  1
