# generated using pymatgen
data_Y8Hf11Si16Ag
_symmetry_space_group_name_H-M   'P 1'
_cell_length_a   7.29078075
_cell_length_b   7.29078112
_cell_length_c   13.29543501
_cell_angle_alpha   89.85697906
_cell_angle_beta   90.14301963
_cell_angle_gamma   89.85208849
_symmetry_Int_Tables_number   1
_chemical_formula_structural   Y8Hf11Si16Ag
_chemical_formula_sum   'Y8 Hf11 Si16 Ag1'
_cell_volume   706.71854859
_cell_formula_units_Z   1
loop_
 _symmetry_equiv_pos_site_id
 _symmetry_equiv_pos_as_xyz
  1  'x, y, z'
loop_
 _atom_site_type_symbol
 _atom_site_label
 _atom_site_symmetry_multiplicity
 _atom_site_fract_x
 _atom_site_fract_y
 _atom_site_fract_z
 _atom_site_occupancy
  Y  Y0  1  0.997781  0.344773  0.211443  1
  Y  Y1  1  0.004443  0.656268  0.716363  1
  Y  Y2  1  0.155505  0.495684  0.464852  1
  Y  Y3  1  0.499111  0.847472  0.033224  1
  Y  Y4  1  0.847472  0.499111  0.966776  1
  Y  Y5  1  0.495684  0.155505  0.535148  1
  Y  Y6  1  0.344773  0.997781  0.788557  1
  Y  Y7  1  0.656268  0.004443  0.283637  1
  Hf  Hf8  1  0.824872  0.824872  0.500000  1
  Hf  Hf9  1  0.323953  0.675924  0.249546  1
  Hf  Hf10  1  0.675924  0.323953  0.750454  1
  Hf  Hf11  1  0.146392  0.995764  0.374200  1
  Hf  Hf12  1  0.855958  0.003118  0.877805  1
  Hf  Hf13  1  0.504173  0.647261  0.625856  1
  Hf  Hf14  1  0.354426  0.491869  0.877532  1
  Hf  Hf15  1  0.491869  0.354426  0.122468  1
  Hf  Hf16  1  0.647261  0.504173  0.374144  1
  Hf  Hf17  1  0.995764  0.146392  0.625800  1
  Hf  Hf18  1  0.003118  0.855958  0.122195  1
  Si  Si19  1  0.360420  0.295701  0.316635  1
  Si  Si20  1  0.638673  0.704692  0.819216  1
  Si  Si21  1  0.206603  0.861804  0.568390  1
  Si  Si22  1  0.131894  0.777915  0.928495  1
  Si  Si23  1  0.777915  0.131894  0.071505  1
  Si  Si24  1  0.861804  0.206603  0.431610  1
  Si  Si25  1  0.295701  0.360420  0.683365  1
  Si  Si26  1  0.704692  0.638673  0.180784  1
  Si  Si27  1  0.296142  0.050383  0.189735  1
  Si  Si28  1  0.704579  0.951164  0.686408  1
  Si  Si29  1  0.450769  0.795499  0.435641  1
  Si  Si30  1  0.210013  0.564438  0.064472  1
  Si  Si31  1  0.564438  0.210013  0.935528  1
  Si  Si32  1  0.795499  0.450769  0.564359  1
  Si  Si33  1  0.050383  0.296142  0.810265  1
  Si  Si34  1  0.951164  0.704579  0.313592  1
  Ag  Ag35  1  0.174563  0.174563  0.000000  1
