# generated using pymatgen
data_Dy4Ho8InCo5
_symmetry_space_group_name_H-M   'P 1'
_cell_length_a   8.25545980
_cell_length_b   8.25545909
_cell_length_c   8.25545923
_cell_angle_alpha   106.92831947
_cell_angle_beta   110.66374041
_cell_angle_gamma   110.85120467
_symmetry_Int_Tables_number   1
_chemical_formula_structural   Dy4Ho8InCo5
_chemical_formula_sum   'Dy4 Ho8 In1 Co5'
_cell_volume   432.47608710
_cell_formula_units_Z   1
loop_
 _symmetry_equiv_pos_site_id
 _symmetry_equiv_pos_as_xyz
  1  'x, y, z'
loop_
 _atom_site_type_symbol
 _atom_site_label
 _atom_site_symmetry_multiplicity
 _atom_site_fract_x
 _atom_site_fract_y
 _atom_site_fract_z
 _atom_site_occupancy
  Dy  Dy0  1  0.192395  0.209592  0.401986  1
  Dy  Dy1  1  0.807605  0.790408  0.598014  1
  Dy  Dy2  1  0.192395  0.790408  0.982803  1
  Dy  Dy3  1  0.807605  0.209592  0.017197  1
  Ho  Ho4  1  0.477176  0.291584  0.185592  1
  Ho  Ho5  1  0.105992  0.291584  0.814408  1
  Ho  Ho6  1  0.894008  0.708416  0.185592  1
  Ho  Ho7  1  0.522824  0.708416  0.814408  1
  Ho  Ho8  1  0.305009  0.619458  0.314448  1
  Ho  Ho9  1  0.305009  0.990561  0.685552  1
  Ho  Ho10  1  0.694991  0.380542  0.685552  1
  Ho  Ho11  1  0.694991  0.009439  0.314448  1
  In  In12  1  0.000000  0.500000  0.500000  1
  Co  Co13  1  0.500000  0.612725  0.112725  1
  Co  Co14  1  0.500000  0.387275  0.887275  1
  Co  Co15  1  0.378482  0.000000  0.378482  1
  Co  Co16  1  0.621518  0.000000  0.621518  1
  Co  Co17  1  0.000000  0.000000  0.000000  1
