# generated using pymatgen
data_YbY8HoIr6
_symmetry_space_group_name_H-M   'P 1'
_cell_length_a   6.37718600
_cell_length_b   10.91842600
_cell_length_c   10.91842600
_cell_angle_alpha   90.00000000
_cell_angle_beta   90.00000000
_cell_angle_gamma   90.00000000
_symmetry_Int_Tables_number   1
_chemical_formula_structural   YbY8HoIr6
_chemical_formula_sum   'Yb2 Y16 Ho2 Ir12'
_cell_volume   760.23726526
_cell_formula_units_Z   2
loop_
 _symmetry_equiv_pos_site_id
 _symmetry_equiv_pos_as_xyz
  1  'x, y, z'
loop_
 _atom_site_type_symbol
 _atom_site_label
 _atom_site_symmetry_multiplicity
 _atom_site_fract_x
 _atom_site_fract_y
 _atom_site_fract_z
 _atom_site_occupancy
  Yb  Yb0  1  0.000000  0.250000  0.750000  1
  Yb  Yb1  1  0.500000  0.250000  0.750000  1
  Y  Y2  1  0.382206  0.839216  0.540998  1
  Y  Y3  1  0.882206  0.660784  0.540998  1
  Y  Y4  1  0.882206  0.839216  0.959002  1
  Y  Y5  1  0.382206  0.660784  0.959002  1
  Y  Y6  1  0.883643  0.540421  0.838080  1
  Y  Y7  1  0.383643  0.959579  0.838080  1
  Y  Y8  1  0.383643  0.540421  0.661920  1
  Y  Y9  1  0.883643  0.959579  0.661920  1
  Y  Y10  1  0.616357  0.161920  0.459580  1
  Y  Y11  1  0.116357  0.338080  0.459580  1
  Y  Y12  1  0.116357  0.161920  0.040421  1
  Y  Y13  1  0.616357  0.338080  0.040421  1
  Y  Y14  1  0.117794  0.459003  0.160784  1
  Y  Y15  1  0.617794  0.040998  0.160784  1
  Y  Y16  1  0.617794  0.459003  0.339216  1
  Y  Y17  1  0.117794  0.040998  0.339216  1
  Ho  Ho18  1  0.500000  0.750000  0.250000  1
  Ho  Ho19  1  0.000000  0.750000  0.250000  1
  Ir  Ir20  1  0.250000  0.901792  0.098208  1
  Ir  Ir21  1  0.750000  0.598208  0.098208  1
  Ir  Ir22  1  0.750000  0.901792  0.401792  1
  Ir  Ir23  1  0.250000  0.598208  0.401792  1
  Ir  Ir24  1  0.750000  0.092585  0.907415  1
  Ir  Ir25  1  0.250000  0.407415  0.907415  1
  Ir  Ir26  1  0.250000  0.092585  0.592585  1
  Ir  Ir27  1  0.750000  0.407415  0.592585  1
  Ir  Ir28  1  0.126882  0.750000  0.750000  1
  Ir  Ir29  1  0.626882  0.750000  0.750000  1
  Ir  Ir30  1  0.873118  0.250000  0.250000  1
  Ir  Ir31  1  0.373118  0.250000  0.250000  1
