# generated using pymatgen
data_La4Yb5LuSi8
_symmetry_space_group_name_H-M   'P 1'
_cell_length_a   7.93706231
_cell_length_b   7.93833112
_cell_length_c   14.54761506
_cell_angle_alpha   89.81054958
_cell_angle_beta   90.19950191
_cell_angle_gamma   89.96833233
_symmetry_Int_Tables_number   1
_chemical_formula_structural   La4Yb5LuSi8
_chemical_formula_sum   'La8 Yb10 Lu2 Si16'
_cell_volume   916.59128727
_cell_formula_units_Z   2
loop_
 _symmetry_equiv_pos_site_id
 _symmetry_equiv_pos_as_xyz
  1  'x, y, z'
loop_
 _atom_site_type_symbol
 _atom_site_label
 _atom_site_symmetry_multiplicity
 _atom_site_fract_x
 _atom_site_fract_y
 _atom_site_fract_z
 _atom_site_occupancy
  La  La0  1  0.989960  0.637450  0.040764  1
  La  La1  1  0.008379  0.363273  0.540765  1
  La  La2  1  0.639836  0.993298  0.959601  1
  La  La3  1  0.137618  0.508024  0.791435  1
  La  La4  1  0.864003  0.490444  0.290667  1
  La  La5  1  0.506985  0.139019  0.208855  1
  La  La6  1  0.493393  0.861120  0.709054  1
  La  La7  1  0.361989  0.007286  0.459009  1
  Yb  Yb8  1  0.367890  0.497152  0.375291  1
  Yb  Yb9  1  0.864558  0.003016  0.372017  1
  Yb  Yb10  1  0.997076  0.134511  0.124999  1
  Yb  Yb11  1  0.004232  0.866375  0.626733  1
  Yb  Yb12  1  0.636258  0.504184  0.876731  1
  Yb  Yb13  1  0.494088  0.364608  0.625301  1
  Yb  Yb14  1  0.684118  0.684028  0.499886  1
  Yb  Yb15  1  0.813635  0.185053  0.750020  1
  Yb  Yb16  1  0.180463  0.817928  0.249912  1
  Yb  Yb17  1  0.316540  0.317640  0.999790  1
  Lu  Lu18  1  0.501711  0.636288  0.122863  1
  Lu  Lu19  1  0.135568  0.996332  0.876001  1
  Si  Si20  1  0.076286  0.707573  0.442371  1
  Si  Si21  1  0.927885  0.289392  0.941695  1
  Si  Si22  1  0.705373  0.074836  0.556927  1
  Si  Si23  1  0.213715  0.427802  0.190221  1
  Si  Si24  1  0.794277  0.578308  0.694417  1
  Si  Si25  1  0.419375  0.201170  0.810870  1
  Si  Si26  1  0.573107  0.788416  0.302259  1
  Si  Si27  1  0.292662  0.921182  0.056529  1
  Si  Si28  1  0.852983  0.791718  0.816217  1
  Si  Si29  1  0.158306  0.213211  0.310034  1
  Si  Si30  1  0.781920  0.839080  0.182511  1
  Si  Si31  1  0.288949  0.656579  0.562288  1
  Si  Si32  1  0.708954  0.349827  0.064380  1
  Si  Si33  1  0.657685  0.287981  0.437974  1
  Si  Si34  1  0.343150  0.712636  0.937971  1
  Si  Si35  1  0.207074  0.153259  0.693641  1
