# generated using pymatgen
data_Nd7Y(CdRu)2
_symmetry_space_group_name_H-M   'P 1'
_cell_length_a   9.90485728
_cell_length_b   9.92318857
_cell_length_c   9.90485799
_cell_angle_alpha   59.93876205
_cell_angle_beta   60.12247938
_cell_angle_gamma   59.93876645
_symmetry_Int_Tables_number   1
_chemical_formula_structural   Nd7Y(CdRu)2
_chemical_formula_sum   'Nd14 Y2 Cd4 Ru4'
_cell_volume   688.38241502
_cell_formula_units_Z   2
loop_
 _symmetry_equiv_pos_site_id
 _symmetry_equiv_pos_as_xyz
  1  'x, y, z'
loop_
 _atom_site_type_symbol
 _atom_site_label
 _atom_site_symmetry_multiplicity
 _atom_site_fract_x
 _atom_site_fract_y
 _atom_site_fract_z
 _atom_site_occupancy
  Nd  Nd0  1  0.438837  0.438837  0.061163  1
  Nd  Nd1  1  0.061163  0.061163  0.438837  1
  Nd  Nd2  1  0.438837  0.061163  0.061163  1
  Nd  Nd3  1  0.845519  0.848164  0.845519  1
  Nd  Nd4  1  0.688641  0.311359  0.311359  1
  Nd  Nd5  1  0.061163  0.438837  0.438837  1
  Nd  Nd6  1  0.311359  0.688641  0.688641  1
  Nd  Nd7  1  0.311359  0.311359  0.688641  1
  Nd  Nd8  1  0.848164  0.845519  0.460798  1
  Nd  Nd9  1  0.688641  0.688641  0.311359  1
  Nd  Nd10  1  0.460798  0.845519  0.848164  1
  Nd  Nd11  1  0.060466  0.439534  0.060466  1
  Nd  Nd12  1  0.845519  0.460798  0.845519  1
  Nd  Nd13  1  0.439534  0.060466  0.439534  1
  Y  Y14  1  0.309953  0.690047  0.309953  1
  Y  Y15  1  0.690047  0.309953  0.690047  1
  Cd  Cd16  1  0.080154  0.761969  0.080154  1
  Cd  Cd17  1  0.077723  0.080154  0.761969  1
  Cd  Cd18  1  0.761969  0.080154  0.077723  1
  Cd  Cd19  1  0.080154  0.077723  0.080154  1
  Ru  Ru20  1  0.638131  0.085118  0.638131  1
  Ru  Ru21  1  0.638131  0.638619  0.638131  1
  Ru  Ru22  1  0.638619  0.638131  0.085118  1
  Ru  Ru23  1  0.085118  0.638131  0.638619  1
