# generated using pymatgen
data_Y15Pa(CdIr)4
_symmetry_space_group_name_H-M   'P 1'
_cell_length_a   9.71654102
_cell_length_b   9.71655832
_cell_length_c   9.71655163
_cell_angle_alpha   59.56144378
_cell_angle_beta   59.56140714
_cell_angle_gamma   59.56128473
_symmetry_Int_Tables_number   1
_chemical_formula_structural   Y15Pa(CdIr)4
_chemical_formula_sum   'Y15 Pa1 Cd4 Ir4'
_cell_volume   642.19795926
_cell_formula_units_Z   1
loop_
 _symmetry_equiv_pos_site_id
 _symmetry_equiv_pos_as_xyz
  1  'x, y, z'
loop_
 _atom_site_type_symbol
 _atom_site_label
 _atom_site_symmetry_multiplicity
 _atom_site_fract_x
 _atom_site_fract_y
 _atom_site_fract_z
 _atom_site_occupancy
  Y  Y0  1  0.350632  0.350633  0.948185  1
  Y  Y1  1  0.350631  0.948185  0.350639  1
  Y  Y2  1  0.948186  0.350633  0.350639  1
  Y  Y3  1  0.811129  0.190274  0.190272  1
  Y  Y4  1  0.189222  0.811033  0.811024  1
  Y  Y5  1  0.190273  0.811129  0.190272  1
  Y  Y6  1  0.811036  0.189221  0.811021  1
  Y  Y7  1  0.190274  0.190274  0.811124  1
  Y  Y8  1  0.811031  0.811025  0.189221  1
  Y  Y9  1  0.941479  0.562444  0.562444  1
  Y  Y10  1  0.561602  0.938311  0.938314  1
  Y  Y11  1  0.562444  0.941479  0.562445  1
  Y  Y12  1  0.938311  0.561601  0.938314  1
  Y  Y13  1  0.562447  0.562448  0.941474  1
  Y  Y14  1  0.938311  0.938312  0.561601  1
  Pa  Pa15  1  0.342125  0.342126  0.342129  1
  Cd  Cd16  1  0.579374  0.579374  0.579374  1
  Cd  Cd17  1  0.578895  0.578894  0.256215  1
  Cd  Cd18  1  0.578897  0.256214  0.578893  1
  Cd  Cd19  1  0.256213  0.578897  0.578894  1
  Ir  Ir20  1  0.142307  0.142312  0.142318  1
  Ir  Ir21  1  0.147774  0.147773  0.569645  1
  Ir  Ir22  1  0.147770  0.569641  0.147773  1
  Ir  Ir23  1  0.569638  0.147768  0.147770  1
