# generated using pymatgen
data_LiDy3(Ni4As3)2
_symmetry_space_group_name_H-M   'P 1'
_cell_length_a   3.90753000
_cell_length_b   10.96344100
_cell_length_c   12.75939800
_cell_angle_alpha   90.00000000
_cell_angle_beta   90.00000000
_cell_angle_gamma   90.00000000
_symmetry_Int_Tables_number   1
_chemical_formula_structural   LiDy3(Ni4As3)2
_chemical_formula_sum   'Li2 Dy6 Ni16 As12'
_cell_volume   546.61228637
_cell_formula_units_Z   2
loop_
 _symmetry_equiv_pos_site_id
 _symmetry_equiv_pos_as_xyz
  1  'x, y, z'
loop_
 _atom_site_type_symbol
 _atom_site_label
 _atom_site_symmetry_multiplicity
 _atom_site_fract_x
 _atom_site_fract_y
 _atom_site_fract_z
 _atom_site_occupancy
  Li  Li0  1  0.500000  0.500000  0.151169  1
  Li  Li1  1  0.000000  0.000000  0.848831  1
  Dy  Dy2  1  0.000000  0.500000  0.524913  1
  Dy  Dy3  1  0.500000  0.000000  0.475087  1
  Dy  Dy4  1  0.500000  0.818852  0.205589  1
  Dy  Dy5  1  0.500000  0.181148  0.205589  1
  Dy  Dy6  1  0.000000  0.681148  0.794411  1
  Dy  Dy7  1  0.000000  0.318852  0.794411  1
  Ni  Ni8  1  0.500000  0.500000  0.702013  1
  Ni  Ni9  1  0.000000  0.000000  0.297987  1
  Ni  Ni10  1  0.000000  0.500000  0.986074  1
  Ni  Ni11  1  0.500000  0.000000  0.013926  1
  Ni  Ni12  1  0.500000  0.331368  0.998053  1
  Ni  Ni13  1  0.500000  0.668632  0.998053  1
  Ni  Ni14  1  0.000000  0.168632  0.001947  1
  Ni  Ni15  1  0.000000  0.831368  0.001947  1
  Ni  Ni16  1  0.500000  0.302088  0.428529  1
  Ni  Ni17  1  0.500000  0.697912  0.428529  1
  Ni  Ni18  1  0.000000  0.197912  0.571471  1
  Ni  Ni19  1  0.000000  0.802088  0.571471  1
  Ni  Ni20  1  0.500000  0.879925  0.705893  1
  Ni  Ni21  1  0.500000  0.120075  0.705893  1
  Ni  Ni22  1  0.000000  0.620075  0.294107  1
  Ni  Ni23  1  0.000000  0.379925  0.294107  1
  As  As24  1  0.500000  0.500000  0.880178  1
  As  As25  1  0.000000  0.000000  0.119822  1
  As  As26  1  0.500000  0.500000  0.350225  1
  As  As27  1  0.000000  0.000000  0.649775  1
  As  As28  1  0.500000  0.314621  0.614791  1
  As  As29  1  0.500000  0.685379  0.614791  1
  As  As30  1  0.000000  0.185379  0.385209  1
  As  As31  1  0.000000  0.814621  0.385209  1
  As  As32  1  0.500000  0.843579  0.890680  1
  As  As33  1  0.500000  0.156421  0.890680  1
  As  As34  1  0.000000  0.656421  0.109320  1
  As  As35  1  0.000000  0.343579  0.109320  1
