# generated using pymatgen
data_Ca2YUO6
_symmetry_space_group_name_H-M   'P 1'
_cell_length_a   6.80141523
_cell_length_b   6.80216262
_cell_length_c   6.77208045
_cell_angle_alpha   91.42472087
_cell_angle_beta   91.27389674
_cell_angle_gamma   91.24295280
_symmetry_Int_Tables_number   1
_chemical_formula_structural   Ca2YUO6
_chemical_formula_sum   'Ca4 Y2 U2 O12'
_cell_volume   313.05394371
_cell_formula_units_Z   2
loop_
 _symmetry_equiv_pos_site_id
 _symmetry_equiv_pos_as_xyz
  1  'x, y, z'
loop_
 _atom_site_type_symbol
 _atom_site_label
 _atom_site_symmetry_multiplicity
 _atom_site_fract_x
 _atom_site_fract_y
 _atom_site_fract_z
 _atom_site_occupancy
  Ca  Ca0  1  0.551801  0.249691  0.059224  1
  Ca  Ca1  1  0.252183  0.058861  0.556578  1
  Ca  Ca2  1  0.063182  0.555059  0.249393  1
  Ca  Ca3  1  0.445778  0.749818  0.941329  1
  Y  Y4  1  0.938270  0.442451  0.748768  1
  Y  Y5  1  0.748726  0.938689  0.440845  1
  U  U6  1  0.998425  0.998063  0.998614  1
  U  U7  1  0.498450  0.499076  0.499999  1
  O  O8  1  0.292228  0.061795  0.922367  1
  O  O9  1  0.058134  0.922565  0.302464  1
  O  O10  1  0.924978  0.301340  0.055771  1
  O  O11  1  0.702336  0.934766  0.092179  1
  O  O12  1  0.923624  0.086773  0.691860  1
  O  O13  1  0.070797  0.694164  0.925715  1
  O  O14  1  0.194946  0.409083  0.546938  1
  O  O15  1  0.411111  0.539956  0.203378  1
  O  O16  1  0.472180  0.804876  0.587289  1
  O  O17  1  0.600064  0.459137  0.797134  1
  O  O18  1  0.806255  0.597230  0.468937  1
  O  O19  1  0.546528  0.196607  0.411215  1
