# generated using pymatgen
data_Zr10Ti3Al9Ir8
_symmetry_space_group_name_H-M   'P 1'
_cell_length_a   9.08862399
_cell_length_b   9.08862402
_cell_length_c   9.08862507
_cell_angle_alpha   59.80962191
_cell_angle_beta   59.80962949
_cell_angle_gamma   59.80963519
_symmetry_Int_Tables_number   1
_chemical_formula_structural   Zr10Ti3Al9Ir8
_chemical_formula_sum   'Zr10 Ti3 Al9 Ir8'
_cell_volume   528.56532382
_cell_formula_units_Z   1
loop_
 _symmetry_equiv_pos_site_id
 _symmetry_equiv_pos_as_xyz
  1  'x, y, z'
loop_
 _atom_site_type_symbol
 _atom_site_label
 _atom_site_symmetry_multiplicity
 _atom_site_fract_x
 _atom_site_fract_y
 _atom_site_fract_z
 _atom_site_occupancy
  Zr  Zr0  1  0.206072  0.206072  0.793026  1
  Zr  Zr1  1  0.793026  0.206072  0.206072  1
  Zr  Zr2  1  0.206072  0.793026  0.206072  1
  Zr  Zr3  1  0.797498  0.797498  0.192143  1
  Zr  Zr4  1  0.192143  0.797498  0.797498  1
  Zr  Zr5  1  0.797498  0.192143  0.797498  1
  Zr  Zr6  1  0.378562  0.378562  0.378562  1
  Zr  Zr7  1  0.379028  0.865431  0.379028  1
  Zr  Zr8  1  0.865431  0.379028  0.379028  1
  Zr  Zr9  1  0.379028  0.379028  0.865431  1
  Ti  Ti10  1  0.834720  0.500456  0.834720  1
  Ti  Ti11  1  0.500456  0.834720  0.834720  1
  Ti  Ti12  1  0.834720  0.834720  0.500456  1
  Al  Al13  1  0.158600  0.158600  0.158600  1
  Al  Al14  1  0.161830  0.517428  0.161830  1
  Al  Al15  1  0.517428  0.161830  0.161830  1
  Al  Al16  1  0.161830  0.161830  0.517428  1
  Al  Al17  1  0.621716  0.621716  0.621716  1
  Al  Al18  1  0.620389  0.138979  0.620389  1
  Al  Al19  1  0.138979  0.620389  0.620389  1
  Al  Al20  1  0.620389  0.620389  0.138979  1
  Al  Al21  1  0.827078  0.827078  0.827078  1
  Ir  Ir22  1  0.001041  0.001041  0.500335  1
  Ir  Ir23  1  0.500335  0.001041  0.001041  1
  Ir  Ir24  1  0.001041  0.500335  0.001041  1
  Ir  Ir25  1  0.501157  0.501157  0.000398  1
  Ir  Ir26  1  0.000398  0.501157  0.501157  1
  Ir  Ir27  1  0.501157  0.000398  0.501157  1
  Ir  Ir28  1  0.500714  0.500714  0.500714  1
  Ir  Ir29  1  0.001662  0.001662  0.001662  1
