# generated using pymatgen
data_Er10TlIn3(HgPd)4
_symmetry_space_group_name_H-M   'P 1'
_cell_length_a   3.63179400
_cell_length_b   7.92814859
_cell_length_c   18.24128065
_cell_angle_alpha   89.92742872
_cell_angle_beta   90.00000000
_cell_angle_gamma   90.00000000
_symmetry_Int_Tables_number   1
_chemical_formula_structural   Er10TlIn3(HgPd)4
_chemical_formula_sum   'Er10 Tl1 In3 Hg4 Pd4'
_cell_volume   525.22811442
_cell_formula_units_Z   1
loop_
 _symmetry_equiv_pos_site_id
 _symmetry_equiv_pos_as_xyz
  1  'x, y, z'
loop_
 _atom_site_type_symbol
 _atom_site_label
 _atom_site_symmetry_multiplicity
 _atom_site_fract_x
 _atom_site_fract_y
 _atom_site_fract_z
 _atom_site_occupancy
  Er  Er0  1  0.000000  0.499843  0.499170  1
  Er  Er1  1  0.000000  0.999876  0.000150  1
  Er  Er2  1  0.000000  0.742890  0.283170  1
  Er  Er3  1  0.000000  0.257488  0.716882  1
  Er  Er4  1  0.000000  0.757442  0.783655  1
  Er  Er5  1  0.000000  0.242934  0.216853  1
  Er  Er6  1  0.000000  0.610206  0.084220  1
  Er  Er7  1  0.000000  0.389607  0.916160  1
  Er  Er8  1  0.000000  0.890565  0.584307  1
  Er  Er9  1  0.000000  0.109667  0.415889  1
  Tl  Tl10  1  0.500000  0.580834  0.647722  1
  In  In11  1  0.500000  0.419610  0.351170  1
  In  In12  1  0.500000  0.919860  0.148869  1
  In  In13  1  0.500000  0.080241  0.851288  1
  Hg  Hg14  1  0.500000  0.714110  0.933506  1
  Hg  Hg15  1  0.500000  0.285832  0.066689  1
  Hg  Hg16  1  0.500000  0.785967  0.433159  1
  Hg  Hg17  1  0.500000  0.211151  0.565559  1
  Pd  Pd18  1  0.500000  0.530256  0.197395  1
  Pd  Pd19  1  0.500000  0.468951  0.803922  1
  Pd  Pd20  1  0.500000  0.972536  0.697497  1
  Pd  Pd21  1  0.500000  0.030134  0.302769  1
