# generated using pymatgen
data_Tb16Er3TmIr12
_symmetry_space_group_name_H-M   'P 1'
_cell_length_a   10.92597600
_cell_length_b   10.92597600
_cell_length_c   6.37776400
_cell_angle_alpha   90.00000000
_cell_angle_beta   90.00000000
_cell_angle_gamma   90.00000000
_symmetry_Int_Tables_number   1
_chemical_formula_structural   Tb16Er3TmIr12
_chemical_formula_sum   'Tb16 Er3 Tm1 Ir12'
_cell_volume   761.35802404
_cell_formula_units_Z   1
loop_
 _symmetry_equiv_pos_site_id
 _symmetry_equiv_pos_as_xyz
  1  'x, y, z'
loop_
 _atom_site_type_symbol
 _atom_site_label
 _atom_site_symmetry_multiplicity
 _atom_site_fract_x
 _atom_site_fract_y
 _atom_site_fract_z
 _atom_site_occupancy
  Tb  Tb0  1  0.290172  0.087685  0.377991  1
  Tb  Tb1  1  0.290314  0.912287  0.877897  1
  Tb  Tb2  1  0.709686  0.087713  0.877897  1
  Tb  Tb3  1  0.709828  0.912315  0.377991  1
  Tb  Tb4  1  0.587735  0.790382  0.877957  1
  Tb  Tb5  1  0.587777  0.209610  0.377918  1
  Tb  Tb6  1  0.412223  0.790390  0.377918  1
  Tb  Tb7  1  0.412265  0.209618  0.877957  1
  Tb  Tb8  1  0.209610  0.412223  0.622082  1
  Tb  Tb9  1  0.209618  0.587735  0.122043  1
  Tb  Tb10  1  0.790382  0.412265  0.122043  1
  Tb  Tb11  1  0.790390  0.587777  0.622082  1
  Tb  Tb12  1  0.912287  0.709686  0.122103  1
  Tb  Tb13  1  0.912315  0.290172  0.622009  1
  Tb  Tb14  1  0.087685  0.709828  0.622009  1
  Tb  Tb15  1  0.087713  0.290314  0.122103  1
  Er  Er16  1  0.000000  0.000000  0.000000  1
  Er  Er17  1  0.500000  0.500000  0.000000  1
  Er  Er18  1  0.500000  0.500000  0.500000  1
  Tm  Tm19  1  0.000000  0.000000  0.500000  1
  Ir  Ir20  1  0.848191  0.151830  0.250396  1
  Ir  Ir21  1  0.848170  0.848191  0.749604  1
  Ir  Ir22  1  0.151830  0.151809  0.749604  1
  Ir  Ir23  1  0.151809  0.848170  0.250396  1
  Ir  Ir24  1  0.652111  0.347888  0.750006  1
  Ir  Ir25  1  0.652112  0.652111  0.249994  1
  Ir  Ir26  1  0.347888  0.347889  0.249994  1
  Ir  Ir27  1  0.347889  0.652112  0.750006  1
  Ir  Ir28  1  0.500000  0.000000  0.121373  1
  Ir  Ir29  1  0.500000  0.000000  0.621393  1
  Ir  Ir30  1  0.000000  0.500000  0.878627  1
  Ir  Ir31  1  0.000000  0.500000  0.378607  1
