# generated using pymatgen
data_Dy9Ho11(Cd3Ru)2
_symmetry_space_group_name_H-M   'P 1'
_cell_length_a   9.56171500
_cell_length_b   9.56171517
_cell_length_c   9.83766100
_cell_angle_alpha   90.00000000
_cell_angle_beta   90.00000000
_cell_angle_gamma   120.00000288
_symmetry_Int_Tables_number   1
_chemical_formula_structural   Dy9Ho11(Cd3Ru)2
_chemical_formula_sum   'Dy9 Ho11 Cd6 Ru2'
_cell_volume   778.92217766
_cell_formula_units_Z   1
loop_
 _symmetry_equiv_pos_site_id
 _symmetry_equiv_pos_as_xyz
  1  'x, y, z'
loop_
 _atom_site_type_symbol
 _atom_site_label
 _atom_site_symmetry_multiplicity
 _atom_site_fract_x
 _atom_site_fract_y
 _atom_site_fract_z
 _atom_site_occupancy
  Dy  Dy0  1  0.209739  0.790261  0.440479  1
  Dy  Dy1  1  0.209739  0.419479  0.440479  1
  Dy  Dy2  1  0.580521  0.790261  0.440479  1
  Dy  Dy3  1  0.541241  0.458759  0.249955  1
  Dy  Dy4  1  0.541241  0.082480  0.249955  1
  Dy  Dy5  1  0.917520  0.458759  0.249955  1
  Dy  Dy6  1  0.458816  0.541184  0.750075  1
  Dy  Dy7  1  0.458816  0.917633  0.750075  1
  Dy  Dy8  1  0.082367  0.541184  0.750075  1
  Ho  Ho9  1  0.000000  0.000000  0.500020  1
  Ho  Ho10  1  0.000000  0.000000  0.000025  1
  Ho  Ho11  1  0.790147  0.209853  0.559575  1
  Ho  Ho12  1  0.790147  0.580294  0.559575  1
  Ho  Ho13  1  0.419706  0.209853  0.559575  1
  Ho  Ho14  1  0.790157  0.209843  0.940452  1
  Ho  Ho15  1  0.790157  0.580313  0.940452  1
  Ho  Ho16  1  0.419687  0.209843  0.940452  1
  Ho  Ho17  1  0.209819  0.790181  0.059496  1
  Ho  Ho18  1  0.209819  0.419639  0.059496  1
  Ho  Ho19  1  0.580361  0.790181  0.059496  1
  Cd  Cd20  1  0.885448  0.114552  0.249972  1
  Cd  Cd21  1  0.885448  0.770898  0.249972  1
  Cd  Cd22  1  0.229102  0.114552  0.249972  1
  Cd  Cd23  1  0.114545  0.885455  0.750038  1
  Cd  Cd24  1  0.114545  0.229089  0.750038  1
  Cd  Cd25  1  0.770911  0.885455  0.750038  1
  Ru  Ru26  1  0.333333  0.666667  0.249844  1
  Ru  Ru27  1  0.666667  0.333333  0.749982  1
