# generated using pymatgen
data_Sc6Co2B4IrRh7
_symmetry_space_group_name_H-M   'P 1'
_cell_length_a   3.07813900
_cell_length_b   9.41294356
_cell_length_c   9.39072957
_cell_angle_alpha   89.90023328
_cell_angle_beta   90.00000000
_cell_angle_gamma   90.00000000
_symmetry_Int_Tables_number   1
_chemical_formula_structural   Sc6Co2B4IrRh7
_chemical_formula_sum   'Sc6 Co2 B4 Ir1 Rh7'
_cell_volume   272.08986030
_cell_formula_units_Z   1
loop_
 _symmetry_equiv_pos_site_id
 _symmetry_equiv_pos_as_xyz
  1  'x, y, z'
loop_
 _atom_site_type_symbol
 _atom_site_label
 _atom_site_symmetry_multiplicity
 _atom_site_fract_x
 _atom_site_fract_y
 _atom_site_fract_z
 _atom_site_occupancy
  Sc  Sc0  1  0.000000  0.175466  0.674474  1
  Sc  Sc1  1  0.000000  0.825450  0.324995  1
  Sc  Sc2  1  0.000000  0.325081  0.175972  1
  Sc  Sc3  1  0.000000  0.675084  0.825209  1
  Sc  Sc4  1  0.000000  0.000071  0.999703  1
  Sc  Sc5  1  0.000000  0.501936  0.500636  1
  Co  Co6  1  0.500000  0.999148  0.500109  1
  Co  Co7  1  0.500000  0.500073  0.999368  1
  B  B8  1  0.000000  0.609631  0.109492  1
  B  B9  1  0.000000  0.389858  0.890346  1
  B  B10  1  0.000000  0.890545  0.609856  1
  B  B11  1  0.000000  0.110891  0.390410  1
  Ir  Ir12  1  0.500000  0.271036  0.434182  1
  Rh  Rh13  1  0.500000  0.063746  0.227534  1
  Rh  Rh14  1  0.500000  0.934129  0.771801  1
  Rh  Rh15  1  0.500000  0.770946  0.065698  1
  Rh  Rh16  1  0.500000  0.434406  0.728319  1
  Rh  Rh17  1  0.500000  0.228716  0.934822  1
  Rh  Rh18  1  0.500000  0.564859  0.271311  1
  Rh  Rh19  1  0.500000  0.728929  0.565765  1
