# generated using pymatgen
data_NaBi(IO3)4
_symmetry_space_group_name_H-M   'P 1'
_cell_length_a   5.25281700
_cell_length_b   7.37358998
_cell_length_c   16.28404425
_cell_angle_alpha   78.83057950
_cell_angle_beta   90.00000000
_cell_angle_gamma   90.00000000
_symmetry_Int_Tables_number   1
_chemical_formula_structural   NaBi(IO3)4
_chemical_formula_sum   'Na2 Bi2 I8 O24'
_cell_volume   618.76895194
_cell_formula_units_Z   2
loop_
 _symmetry_equiv_pos_site_id
 _symmetry_equiv_pos_as_xyz
  1  'x, y, z'
loop_
 _atom_site_type_symbol
 _atom_site_label
 _atom_site_symmetry_multiplicity
 _atom_site_fract_x
 _atom_site_fract_y
 _atom_site_fract_z
 _atom_site_occupancy
  Na  Na0  1  0.500000  0.500000  0.000000  1
  Na  Na1  1  0.000000  0.500000  0.500000  1
  Bi  Bi2  1  0.500000  0.000000  0.000000  1
  Bi  Bi3  1  0.000000  0.000000  0.500000  1
  I  I4  1  0.905106  0.662472  0.166967  1
  I  I5  1  0.405106  0.337528  0.333033  1
  I  I6  1  0.094894  0.337528  0.833033  1
  I  I7  1  0.594894  0.662472  0.666967  1
  I  I8  1  0.989777  0.189831  0.141382  1
  I  I9  1  0.489777  0.810169  0.358618  1
  I  I10  1  0.010223  0.810169  0.858618  1
  I  I11  1  0.510223  0.189831  0.641382  1
  O  O12  1  0.683184  0.727610  0.076218  1
  O  O13  1  0.183184  0.272390  0.423782  1
  O  O14  1  0.316816  0.272390  0.923782  1
  O  O15  1  0.816816  0.727610  0.576218  1
  O  O16  1  0.788982  0.825614  0.230151  1
  O  O17  1  0.288982  0.174386  0.269849  1
  O  O18  1  0.211018  0.174386  0.769849  1
  O  O19  1  0.711018  0.825614  0.730151  1
  O  O20  1  0.744347  0.444504  0.212083  1
  O  O21  1  0.244347  0.555496  0.287917  1
  O  O22  1  0.255653  0.555496  0.787917  1
  O  O23  1  0.755653  0.444504  0.712083  1
  O  O24  1  0.740473  0.211161  0.057869  1
  O  O25  1  0.240473  0.788839  0.442131  1
  O  O26  1  0.259527  0.788839  0.942131  1
  O  O27  1  0.759527  0.211161  0.557869  1
  O  O28  1  0.188187  0.009135  0.106262  1
  O  O29  1  0.688187  0.990865  0.393738  1
  O  O30  1  0.811813  0.990865  0.893738  1
  O  O31  1  0.311813  0.009135  0.606262  1
  O  O32  1  0.160453  0.399473  0.097411  1
  O  O33  1  0.660453  0.600527  0.402589  1
  O  O34  1  0.839547  0.600527  0.902589  1
  O  O35  1  0.339547  0.399473  0.597411  1
