# generated using pymatgen
data_Dy12Cu2Ru5
_symmetry_space_group_name_H-M   'P 1'
_cell_length_a   11.35435300
_cell_length_b   8.36507918
_cell_length_c   11.21859800
_cell_angle_alpha   56.08092710
_cell_angle_beta   90.00000000
_cell_angle_gamma   90.00000000
_symmetry_Int_Tables_number   1
_chemical_formula_structural   Dy12Cu2Ru5
_chemical_formula_sum   'Dy24 Cu4 Ru10'
_cell_volume   884.21600727
_cell_formula_units_Z   2
loop_
 _symmetry_equiv_pos_site_id
 _symmetry_equiv_pos_as_xyz
  1  'x, y, z'
loop_
 _atom_site_type_symbol
 _atom_site_label
 _atom_site_symmetry_multiplicity
 _atom_site_fract_x
 _atom_site_fract_y
 _atom_site_fract_z
 _atom_site_occupancy
  Dy  Dy0  1  0.703481  0.243984  0.531483  1
  Dy  Dy1  1  0.203481  0.756016  0.968517  1
  Dy  Dy2  1  0.847984  0.496563  0.661348  1
  Dy  Dy3  1  0.347984  0.503437  0.838652  1
  Dy  Dy4  1  0.152016  0.503437  0.338652  1
  Dy  Dy5  1  0.652016  0.496563  0.161348  1
  Dy  Dy6  1  0.004798  0.846346  0.357063  1
  Dy  Dy7  1  0.504798  0.153654  0.142937  1
  Dy  Dy8  1  0.995202  0.153654  0.642937  1
  Dy  Dy9  1  0.495202  0.846346  0.857063  1
  Dy  Dy10  1  0.796519  0.243984  0.031483  1
  Dy  Dy11  1  0.296519  0.756016  0.468517  1
  Dy  Dy12  1  0.932592  0.777203  0.088747  1
  Dy  Dy13  1  0.432592  0.222797  0.411253  1
  Dy  Dy14  1  0.067408  0.222797  0.911253  1
  Dy  Dy15  1  0.567408  0.777203  0.588747  1
  Dy  Dy16  1  0.303643  0.247031  0.665776  1
  Dy  Dy17  1  0.803643  0.752969  0.834224  1
  Dy  Dy18  1  0.696357  0.752969  0.334224  1
  Dy  Dy19  1  0.196357  0.247031  0.165776  1
  Dy  Dy20  1  0.920647  0.283268  0.290016  1
  Dy  Dy21  1  0.420647  0.716732  0.209984  1
  Dy  Dy22  1  0.079353  0.716732  0.709984  1
  Dy  Dy23  1  0.579353  0.283268  0.790016  1
  Cu  Cu24  1  0.656986  0.915051  0.037220  1
  Cu  Cu25  1  0.156986  0.084949  0.462780  1
  Cu  Cu26  1  0.343014  0.084949  0.962780  1
  Cu  Cu27  1  0.843014  0.915051  0.537220  1
  Ru  Ru28  1  0.500000  0.500000  0.500000  1
  Ru  Ru29  1  0.000000  0.500000  0.000000  1
  Ru  Ru30  1  0.396275  0.485577  0.105198  1
  Ru  Ru31  1  0.896275  0.514423  0.394802  1
  Ru  Ru32  1  0.603725  0.514423  0.894802  1
  Ru  Ru33  1  0.103725  0.485577  0.605198  1
  Ru  Ru34  1  0.814255  0.097647  0.843837  1
  Ru  Ru35  1  0.314255  0.902353  0.656163  1
  Ru  Ru36  1  0.185745  0.902353  0.156163  1
  Ru  Ru37  1  0.685745  0.097647  0.343837  1
