# generated using pymatgen
data_DyTm2Nb3(B2Ru5)2
_symmetry_space_group_name_H-M   'P 1'
_cell_length_a   9.58405420
_cell_length_b   9.58434677
_cell_length_c   3.12284800
_cell_angle_alpha   90.00000000
_cell_angle_beta   90.00000000
_cell_angle_gamma   90.40168750
_symmetry_Int_Tables_number   1
_chemical_formula_structural   DyTm2Nb3(B2Ru5)2
_chemical_formula_sum   'Dy1 Tm2 Nb3 B4 Ru10'
_cell_volume   286.84808341
_cell_formula_units_Z   1
loop_
 _symmetry_equiv_pos_site_id
 _symmetry_equiv_pos_as_xyz
  1  'x, y, z'
loop_
 _atom_site_type_symbol
 _atom_site_label
 _atom_site_symmetry_multiplicity
 _atom_site_fract_x
 _atom_site_fract_y
 _atom_site_fract_z
 _atom_site_occupancy
  Dy  Dy0  1  0.824343  0.674996  0.000000  1
  Tm  Tm1  1  0.175540  0.323983  0.000000  1
  Tm  Tm2  1  0.325480  0.825573  0.000000  1
  Nb  Nb3  1  0.675450  0.175443  0.000000  1
  Nb  Nb4  1  0.497632  0.503036  0.000000  1
  Nb  Nb5  1  0.003459  0.998647  0.000000  1
  B  B6  1  0.622458  0.881215  0.000000  1
  B  B7  1  0.380363  0.123259  0.000000  1
  B  B8  1  0.119835  0.619032  0.000000  1
  B  B9  1  0.876877  0.376195  0.000000  1
  Ru  Ru10  1  0.569786  0.722537  0.500000  1
  Ru  Ru11  1  0.439757  0.280316  0.500000  1
  Ru  Ru12  1  0.070800  0.780540  0.500000  1
  Ru  Ru13  1  0.916772  0.213738  0.500000  1
  Ru  Ru14  1  0.280489  0.569544  0.500000  1
  Ru  Ru15  1  0.713626  0.415790  0.500000  1
  Ru  Ru16  1  0.221908  0.071300  0.500000  1
  Ru  Ru17  1  0.779936  0.940955  0.500000  1
  Ru  Ru18  1  0.508075  0.008710  0.500000  1
  Ru  Ru19  1  0.997410  0.495189  0.500000  1
