# generated using pymatgen
data_Yb4Pu3O12
_symmetry_space_group_name_H-M   'P 1'
_cell_length_a   6.54065409
_cell_length_b   6.35179207
_cell_length_c   13.25287877
_cell_angle_alpha   97.93901205
_cell_angle_beta   100.24488319
_cell_angle_gamma   99.46658722
_symmetry_Int_Tables_number   1
_chemical_formula_structural   Yb4Pu3O12
_chemical_formula_sum   'Yb8 Pu6 O24'
_cell_volume   526.42740219
_cell_formula_units_Z   2
loop_
 _symmetry_equiv_pos_site_id
 _symmetry_equiv_pos_as_xyz
  1  'x, y, z'
loop_
 _atom_site_type_symbol
 _atom_site_label
 _atom_site_symmetry_multiplicity
 _atom_site_fract_x
 _atom_site_fract_y
 _atom_site_fract_z
 _atom_site_occupancy
  Yb  Yb0  1  0.389699  0.857180  0.098198  1
  Yb  Yb1  1  0.323788  0.612642  0.821180  1
  Yb  Yb2  1  0.296431  0.607650  0.320323  1
  Yb  Yb3  1  0.868395  0.692814  0.446623  1
  Yb  Yb4  1  0.676212  0.387358  0.178820  1
  Yb  Yb5  1  0.131605  0.307186  0.553377  1
  Yb  Yb6  1  0.610301  0.142820  0.901802  1
  Yb  Yb7  1  0.703569  0.392350  0.679677  1
  Pu  Pu8  1  0.989199  0.996425  0.251306  1
  Pu  Pu9  1  0.395060  0.857524  0.597927  1
  Pu  Pu10  1  0.010801  0.003575  0.748694  1
  Pu  Pu11  1  0.860853  0.697800  0.951130  1
  Pu  Pu12  1  0.139147  0.302200  0.048870  1
  Pu  Pu13  1  0.604940  0.142476  0.402073  1
  O  O14  1  0.324684  0.958060  0.780043  1
  O  O15  1  0.043876  0.928637  0.091252  1
  O  O16  1  0.308549  0.960979  0.291832  1
  O  O17  1  0.594737  0.813492  0.967302  1
  O  O18  1  0.052859  0.924166  0.597146  1
  O  O19  1  0.941712  0.702813  0.770835  1
  O  O20  1  0.586076  0.854878  0.456262  1
  O  O21  1  0.151030  0.583810  0.957691  1
  O  O22  1  0.366894  0.540339  0.155695  1
  O  O23  1  0.921233  0.692851  0.272120  1
  O  O24  1  0.197642  0.622088  0.475078  1
  O  O25  1  0.633106  0.459661  0.844305  1
  O  O26  1  0.419999  0.589578  0.657118  1
  O  O27  1  0.848970  0.416190  0.042309  1
  O  O28  1  0.058288  0.297187  0.229165  1
  O  O29  1  0.580001  0.410422  0.342882  1
  O  O30  1  0.802358  0.377912  0.524922  1
  O  O31  1  0.405263  0.186508  0.032698  1
  O  O32  1  0.078767  0.307149  0.727880  1
  O  O33  1  0.956124  0.071363  0.908748  1
  O  O34  1  0.413924  0.145122  0.543738  1
  O  O35  1  0.675316  0.041940  0.219957  1
  O  O36  1  0.947141  0.075834  0.402854  1
  O  O37  1  0.691451  0.039021  0.708168  1
