# generated using pymatgen
data_Lu12CuTc2NiSn2
_symmetry_space_group_name_H-M   'P 1'
_cell_length_a   8.31667443
_cell_length_b   8.31667504
_cell_length_c   8.31667462
_cell_angle_alpha   113.31425390
_cell_angle_beta   111.37371774
_cell_angle_gamma   103.87333543
_symmetry_Int_Tables_number   1
_chemical_formula_structural   Lu12CuTc2NiSn2
_chemical_formula_sum   'Lu12 Cu1 Tc2 Ni1 Sn2'
_cell_volume   439.55127597
_cell_formula_units_Z   1
loop_
 _symmetry_equiv_pos_site_id
 _symmetry_equiv_pos_as_xyz
  1  'x, y, z'
loop_
 _atom_site_type_symbol
 _atom_site_label
 _atom_site_symmetry_multiplicity
 _atom_site_fract_x
 _atom_site_fract_y
 _atom_site_fract_z
 _atom_site_occupancy
  Lu  Lu0  1  0.662476  0.848454  0.185978  1
  Lu  Lu1  1  0.332779  0.516534  0.183754  1
  Lu  Lu2  1  0.818139  0.785950  0.599877  1
  Lu  Lu3  1  0.186073  0.785950  0.967811  1
  Lu  Lu4  1  0.818139  0.218262  0.032189  1
  Lu  Lu5  1  0.186073  0.218262  0.400123  1
  Lu  Lu6  1  0.662476  0.476498  0.814022  1
  Lu  Lu7  1  0.332779  0.149025  0.816246  1
  Lu  Lu8  1  0.555622  0.257538  0.298082  1
  Lu  Lu9  1  0.441574  0.741615  0.699960  1
  Lu  Lu10  1  0.041655  0.741615  0.300040  1
  Lu  Lu11  1  0.959456  0.257538  0.701918  1
  Cu  Cu12  1  0.880330  0.880330  0.000000  1
  Tc  Tc13  1  0.324518  0.500979  0.823539  1
  Tc  Tc14  1  0.677440  0.500979  0.176461  1
  Ni  Ni15  1  0.120696  0.120696  0.000000  1
  Sn  Sn16  1  0.999802  0.499802  0.500000  1
  Sn  Sn17  1  0.499973  0.999973  0.500000  1
