# generated using pymatgen
data_DyU3(Sb3Mo)4
_symmetry_space_group_name_H-M   'P 1'
_cell_length_a   6.05540400
_cell_length_b   6.34419695
_cell_length_c   12.47168902
_cell_angle_alpha   90.36962667
_cell_angle_beta   90.00000000
_cell_angle_gamma   90.00000000
_symmetry_Int_Tables_number   1
_chemical_formula_structural   DyU3(Sb3Mo)4
_chemical_formula_sum   'Dy1 U3 Sb12 Mo4'
_cell_volume   479.11086102
_cell_formula_units_Z   1
loop_
 _symmetry_equiv_pos_site_id
 _symmetry_equiv_pos_as_xyz
  1  'x, y, z'
loop_
 _atom_site_type_symbol
 _atom_site_label
 _atom_site_symmetry_multiplicity
 _atom_site_fract_x
 _atom_site_fract_y
 _atom_site_fract_z
 _atom_site_occupancy
  Dy  Dy0  1  0.750000  0.001337  0.311030  1
  U  U1  1  0.250000  0.489552  0.306274  1
  U  U2  1  0.750000  0.510498  0.697714  1
  U  U3  1  0.250000  0.985678  0.697386  1
  Sb  Sb4  1  0.001636  0.746495  0.503779  1
  Sb  Sb5  1  0.001784  0.249268  0.502033  1
  Sb  Sb6  1  0.498216  0.249268  0.502033  1
  Sb  Sb7  1  0.498364  0.746495  0.503779  1
  Sb  Sb8  1  0.250000  0.610194  0.061032  1
  Sb  Sb9  1  0.750000  0.394372  0.936550  1
  Sb  Sb10  1  0.250000  0.107847  0.934944  1
  Sb  Sb11  1  0.750000  0.898519  0.062190  1
  Sb  Sb12  1  0.250000  0.978977  0.236594  1
  Sb  Sb13  1  0.750000  0.023251  0.759218  1
  Sb  Sb14  1  0.250000  0.475760  0.758867  1
  Sb  Sb15  1  0.750000  0.522955  0.235537  1
  Mo  Mo16  1  0.999537  0.750741  0.884512  1
  Mo  Mo17  1  0.005500  0.254026  0.111009  1
  Mo  Mo18  1  0.494500  0.254026  0.111009  1
  Mo  Mo19  1  0.500463  0.750741  0.884512  1
