# generated using pymatgen
data_TiBiF7
_symmetry_space_group_name_H-M   'P 1'
_cell_length_a   5.51636100
_cell_length_b   8.95792390
_cell_length_c   11.86943000
_cell_angle_alpha   62.86882471
_cell_angle_beta   90.00000000
_cell_angle_gamma   90.00000000
_symmetry_Int_Tables_number   1
_chemical_formula_structural   TiBiF7
_chemical_formula_sum   'Ti4 Bi4 F28'
_cell_volume   521.99067408
_cell_formula_units_Z   4
loop_
 _symmetry_equiv_pos_site_id
 _symmetry_equiv_pos_as_xyz
  1  'x, y, z'
loop_
 _atom_site_type_symbol
 _atom_site_label
 _atom_site_symmetry_multiplicity
 _atom_site_fract_x
 _atom_site_fract_y
 _atom_site_fract_z
 _atom_site_occupancy
  Ti  Ti0  1  0.244949  0.722350  0.542942  1
  Ti  Ti1  1  0.744949  0.277650  0.957058  1
  Ti  Ti2  1  0.755296  0.276982  0.457474  1
  Ti  Ti3  1  0.255296  0.723018  0.042526  1
  Bi  Bi4  1  0.238325  0.184905  0.738823  1
  Bi  Bi5  1  0.738325  0.815095  0.761177  1
  Bi  Bi6  1  0.761643  0.814795  0.261498  1
  Bi  Bi7  1  0.261643  0.185205  0.238502  1
  F  F8  1  0.953521  0.715317  0.460207  1
  F  F9  1  0.453521  0.284683  0.039793  1
  F  F10  1  0.046890  0.284315  0.539776  1
  F  F11  1  0.546890  0.715685  0.960224  1
  F  F12  1  0.065558  0.706366  0.918487  1
  F  F13  1  0.565558  0.293634  0.581513  1
  F  F14  1  0.934136  0.294255  0.081333  1
  F  F15  1  0.434136  0.705745  0.418667  1
  F  F16  1  0.728767  0.509909  0.861657  1
  F  F17  1  0.228767  0.490091  0.638343  1
  F  F18  1  0.271596  0.490886  0.138576  1
  F  F19  1  0.771596  0.509114  0.361424  1
  F  F20  1  0.737021  0.040104  0.050083  1
  F  F21  1  0.237021  0.959896  0.449917  1
  F  F22  1  0.263453  0.960797  0.949560  1
  F  F23  1  0.763453  0.039203  0.550440  1
  F  F24  1  0.062247  0.742317  0.670445  1
  F  F25  1  0.562247  0.257683  0.829555  1
  F  F26  1  0.936942  0.256520  0.329761  1
  F  F27  1  0.436942  0.743480  0.170239  1
  F  F28  1  0.029940  0.271784  0.871782  1
  F  F29  1  0.529940  0.728216  0.628218  1
  F  F30  1  0.970291  0.728877  0.127686  1
  F  F31  1  0.470291  0.271123  0.372314  1
  F  F32  1  0.113411  0.962890  0.222317  1
  F  F33  1  0.613411  0.037110  0.277683  1
  F  F34  1  0.886012  0.037476  0.777622  1
  F  F35  1  0.386012  0.962524  0.722378  1
