# generated using pymatgen
data_La2TmIn5
_symmetry_space_group_name_H-M   'P 1'
_cell_length_a   6.77819600
_cell_length_b   10.62549900
_cell_length_c   12.51740200
_cell_angle_alpha   90.00000000
_cell_angle_beta   90.00000000
_cell_angle_gamma   90.00000000
_symmetry_Int_Tables_number   1
_chemical_formula_structural   La2TmIn5
_chemical_formula_sum   'La8 Tm4 In20'
_cell_volume   901.52475713
_cell_formula_units_Z   4
loop_
 _symmetry_equiv_pos_site_id
 _symmetry_equiv_pos_as_xyz
  1  'x, y, z'
loop_
 _atom_site_type_symbol
 _atom_site_label
 _atom_site_symmetry_multiplicity
 _atom_site_fract_x
 _atom_site_fract_y
 _atom_site_fract_z
 _atom_site_occupancy
  La  La0  1  0.888410  0.486692  0.143751  1
  La  La1  1  0.611590  0.013308  0.643751  1
  La  La2  1  0.111590  0.986692  0.856249  1
  La  La3  1  0.388410  0.513308  0.356249  1
  La  La4  1  0.111590  0.513308  0.856249  1
  La  La5  1  0.388410  0.986692  0.356249  1
  La  La6  1  0.888410  0.013308  0.143751  1
  La  La7  1  0.611590  0.486692  0.643751  1
  Tm  Tm8  1  0.348472  0.750000  0.060308  1
  Tm  Tm9  1  0.151528  0.750000  0.560308  1
  Tm  Tm10  1  0.651528  0.250000  0.939692  1
  Tm  Tm11  1  0.848472  0.250000  0.439692  1
  In  In12  1  0.618132  0.750000  0.502828  1
  In  In13  1  0.881868  0.750000  0.002828  1
  In  In14  1  0.381868  0.250000  0.497172  1
  In  In15  1  0.118132  0.250000  0.997172  1
  In  In16  1  0.657208  0.750000  0.239848  1
  In  In17  1  0.842792  0.750000  0.739848  1
  In  In18  1  0.342792  0.250000  0.760152  1
  In  In19  1  0.157208  0.250000  0.260152  1
  In  In20  1  0.103723  0.750000  0.283671  1
  In  In21  1  0.396277  0.750000  0.783671  1
  In  In22  1  0.896277  0.250000  0.716329  1
  In  In23  1  0.603723  0.250000  0.216329  1
  In  In24  1  0.874598  0.545017  0.405780  1
  In  In25  1  0.625402  0.954983  0.905780  1
  In  In26  1  0.125402  0.045017  0.594220  1
  In  In27  1  0.374598  0.454983  0.094220  1
  In  In28  1  0.125402  0.454983  0.594220  1
  In  In29  1  0.374598  0.045017  0.094220  1
  In  In30  1  0.874598  0.954983  0.405780  1
  In  In31  1  0.625402  0.545017  0.905780  1
