# generated using pymatgen
data_NaYb19Ru4
_symmetry_space_group_name_H-M   'P 1'
_cell_length_a   6.53474611
_cell_length_b   7.47125062
_cell_length_c   15.58313863
_cell_angle_alpha   89.90970558
_cell_angle_beta   90.77598891
_cell_angle_gamma   89.88888823
_symmetry_Int_Tables_number   1
_chemical_formula_structural   NaYb19Ru4
_chemical_formula_sum   'Na1 Yb19 Ru4'
_cell_volume   760.73912259
_cell_formula_units_Z   1
loop_
 _symmetry_equiv_pos_site_id
 _symmetry_equiv_pos_as_xyz
  1  'x, y, z'
loop_
 _atom_site_type_symbol
 _atom_site_label
 _atom_site_symmetry_multiplicity
 _atom_site_fract_x
 _atom_site_fract_y
 _atom_site_fract_z
 _atom_site_occupancy
  Na  Na0  1  0.848250  0.190251  0.940303  1
  Yb  Yb1  1  0.142828  0.098916  0.250693  1
  Yb  Yb2  1  0.859714  0.194380  0.566486  1
  Yb  Yb3  1  0.855561  0.907468  0.752951  1
  Yb  Yb4  1  0.822915  0.467203  0.145978  1
  Yb  Yb5  1  0.179939  0.538305  0.644099  1
  Yb  Yb6  1  0.356096  0.307174  0.070299  1
  Yb  Yb7  1  0.356876  0.599301  0.250874  1
  Yb  Yb8  1  0.824657  0.466346  0.353462  1
  Yb  Yb9  1  0.313475  0.036825  0.853914  1
  Yb  Yb10  1  0.142112  0.806531  0.068781  1
  Yb  Yb11  1  0.644944  0.692949  0.569595  1
  Yb  Yb12  1  0.676326  0.966192  0.353656  1
  Yb  Yb13  1  0.636622  0.695695  0.931115  1
  Yb  Yb14  1  0.328616  0.031928  0.644748  1
  Yb  Yb15  1  0.143972  0.805452  0.431820  1
  Yb  Yb16  1  0.649197  0.395582  0.752277  1
  Yb  Yb17  1  0.169108  0.525243  0.852507  1
  Yb  Yb18  1  0.359213  0.305619  0.432677  1
  Yb  Yb19  1  0.674978  0.965738  0.146156  1
  Ru  Ru20  1  0.051310  0.245737  0.735705  1
  Ru  Ru21  1  0.462777  0.741541  0.752964  1
  Ru  Ru22  1  0.537203  0.257989  0.248992  1
  Ru  Ru23  1  0.963311  0.757637  0.249951  1
