# generated using pymatgen
data_SmY3(CuP)6
_symmetry_space_group_name_H-M   'P 1'
_cell_length_a   3.91113700
_cell_length_b   10.76664100
_cell_length_c   13.00764500
_cell_angle_alpha   90.00000000
_cell_angle_beta   90.00000000
_cell_angle_gamma   90.00000000
_symmetry_Int_Tables_number   1
_chemical_formula_structural   SmY3(CuP)6
_chemical_formula_sum   'Sm2 Y6 Cu12 P12'
_cell_volume   547.74943323
_cell_formula_units_Z   2
loop_
 _symmetry_equiv_pos_site_id
 _symmetry_equiv_pos_as_xyz
  1  'x, y, z'
loop_
 _atom_site_type_symbol
 _atom_site_label
 _atom_site_symmetry_multiplicity
 _atom_site_fract_x
 _atom_site_fract_y
 _atom_site_fract_z
 _atom_site_occupancy
  Sm  Sm0  1  0.250000  0.930772  0.793318  1
  Sm  Sm1  1  0.750000  0.430772  0.706682  1
  Y  Y2  1  0.250000  0.569878  0.293174  1
  Y  Y3  1  0.750000  0.069878  0.206826  1
  Y  Y4  1  0.250000  0.841656  0.501713  1
  Y  Y5  1  0.750000  0.341656  0.998287  1
  Y  Y6  1  0.250000  0.657367  0.003552  1
  Y  Y7  1  0.750000  0.157367  0.496448  1
  Cu  Cu8  1  0.250000  0.401116  0.512156  1
  Cu  Cu9  1  0.750000  0.901116  0.987844  1
  Cu  Cu10  1  0.250000  0.098562  0.014211  1
  Cu  Cu11  1  0.750000  0.598562  0.485789  1
  Cu  Cu12  1  0.250000  0.273001  0.331866  1
  Cu  Cu13  1  0.750000  0.773001  0.168134  1
  Cu  Cu14  1  0.250000  0.228003  0.832715  1
  Cu  Cu15  1  0.750000  0.728003  0.667285  1
  Cu  Cu16  1  0.250000  0.860532  0.278197  1
  Cu  Cu17  1  0.750000  0.360532  0.221803  1
  Cu  Cu18  1  0.250000  0.640017  0.779823  1
  Cu  Cu19  1  0.750000  0.140017  0.720177  1
  P  P20  1  0.250000  0.238118  0.643218  1
  P  P21  1  0.750000  0.738118  0.856782  1
  P  P22  1  0.250000  0.259682  0.144605  1
  P  P23  1  0.750000  0.759682  0.355395  1
  P  P24  1  0.250000  0.605274  0.599271  1
  P  P25  1  0.750000  0.105274  0.900729  1
  P  P26  1  0.250000  0.896133  0.099392  1
  P  P27  1  0.750000  0.396133  0.400608  1
  P  P28  1  0.250000  0.057433  0.367580  1
  P  P29  1  0.750000  0.557433  0.132420  1
  P  P30  1  0.250000  0.442456  0.871329  1
  P  P31  1  0.750000  0.942456  0.628671  1
