# generated using pymatgen
data_Lu2CoB8Ru7
_symmetry_space_group_name_H-M   'P 1'
_cell_length_a   9.13914700
_cell_length_b   7.40346962
_cell_length_c   7.40753820
_cell_angle_alpha   89.91586983
_cell_angle_beta   113.82419078
_cell_angle_gamma   114.38217141
_symmetry_Int_Tables_number   1
_chemical_formula_structural   Lu2CoB8Ru7
_chemical_formula_sum   'Lu4 Co2 B16 Ru14'
_cell_volume   409.30500206
_cell_formula_units_Z   2
loop_
 _symmetry_equiv_pos_site_id
 _symmetry_equiv_pos_as_xyz
  1  'x, y, z'
loop_
 _atom_site_type_symbol
 _atom_site_label
 _atom_site_symmetry_multiplicity
 _atom_site_fract_x
 _atom_site_fract_y
 _atom_site_fract_z
 _atom_site_occupancy
  Lu  Lu0  1  0.747413  0.877460  0.123865  1
  Lu  Lu1  1  0.247848  0.624890  0.371713  1
  Lu  Lu2  1  0.751446  0.372003  0.633370  1
  Lu  Lu3  1  0.250240  0.116425  0.878284  1
  Co  Co4  1  0.875104  0.547632  0.035146  1
  Co  Co5  1  0.373221  0.836511  0.046536  1
  B  B6  1  0.913388  0.293090  0.066631  1
  B  B7  1  0.418981  0.581034  0.129700  1
  B  B8  1  0.084747  0.211275  0.155088  1
  B  B9  1  0.577518  0.151245  0.203829  1
  B  B10  1  0.399833  0.049453  0.275929  1
  B  B11  1  0.920748  0.632310  0.337183  1
  B  B12  1  0.588465  0.649787  0.375630  1
  B  B13  1  0.091010  0.880139  0.445205  1
  B  B14  1  0.908750  0.123614  0.559876  1
  B  B15  1  0.416990  0.345883  0.625309  1
  B  B16  1  0.085703  0.374257  0.659929  1
  B  B17  1  0.587543  0.934420  0.710090  1
  B  B18  1  0.416664  0.847479  0.794238  1
  B  B19  1  0.909648  0.783491  0.847595  1
  B  B20  1  0.593959  0.438955  0.876761  1
  B  B21  1  0.086826  0.710433  0.938232  1
  Ru  Ru22  1  0.113456  0.937631  0.164591  1
  Ru  Ru23  1  0.632652  0.468690  0.176842  1
  Ru  Ru24  1  0.373213  0.331980  0.316174  1
  Ru  Ru25  1  0.872478  0.324547  0.335805  1
  Ru  Ru26  1  0.619743  0.957542  0.437195  1
  Ru  Ru27  1  0.129610  0.183227  0.467273  1
  Ru  Ru28  1  0.873931  0.820692  0.536811  1
  Ru  Ru29  1  0.374083  0.035315  0.550397  1
  Ru  Ru30  1  0.130995  0.681667  0.671344  1
  Ru  Ru31  1  0.624210  0.662693  0.675576  1
  Ru  Ru32  1  0.375193  0.537346  0.826026  1
  Ru  Ru33  1  0.873735  0.053269  0.833256  1
  Ru  Ru34  1  0.629137  0.169446  0.948559  1
  Ru  Ru35  1  0.131519  0.454169  0.970005  1
