# generated using pymatgen
data_LaNd2Hg2Pd3Au
_symmetry_space_group_name_H-M   'P 1'
_cell_length_a   7.74288659
_cell_length_b   7.77312043
_cell_length_c   3.99932900
_cell_angle_alpha   90.00000000
_cell_angle_beta   90.00000000
_cell_angle_gamma   119.32893249
_symmetry_Int_Tables_number   1
_chemical_formula_structural   LaNd2Hg2Pd3Au
_chemical_formula_sum   'La1 Nd2 Hg2 Pd3 Au1'
_cell_volume   209.85207628
_cell_formula_units_Z   1
loop_
 _symmetry_equiv_pos_site_id
 _symmetry_equiv_pos_as_xyz
  1  'x, y, z'
loop_
 _atom_site_type_symbol
 _atom_site_label
 _atom_site_symmetry_multiplicity
 _atom_site_fract_x
 _atom_site_fract_y
 _atom_site_fract_z
 _atom_site_occupancy
  La  La0  1  0.991344  0.604612  0.500000  1
  Nd  Nd1  1  0.406859  0.407799  0.500000  1
  Nd  Nd2  1  0.606043  0.991615  0.500000  1
  Hg  Hg3  1  0.265480  0.004111  0.000000  1
  Hg  Hg4  1  0.002093  0.261784  0.000000  1
  Pd  Pd5  1  0.664164  0.329041  0.000000  1
  Pd  Pd6  1  0.329212  0.664374  0.000000  1
  Pd  Pd7  1  0.001093  0.000700  0.500000  1
  Au  Au8  1  0.733711  0.735964  0.000000  1
