# generated using pymatgen
data_Tb2Yb(EuGe2)2
_symmetry_space_group_name_H-M   'P 1'
_cell_length_a   7.64556600
_cell_length_b   8.03920300
_cell_length_c   15.16810800
_cell_angle_alpha   90.00000000
_cell_angle_beta   90.00000000
_cell_angle_gamma   90.00000000
_symmetry_Int_Tables_number   1
_chemical_formula_structural   Tb2Yb(EuGe2)2
_chemical_formula_sum   'Tb8 Yb4 Eu8 Ge16'
_cell_volume   932.29649020
_cell_formula_units_Z   4
loop_
 _symmetry_equiv_pos_site_id
 _symmetry_equiv_pos_as_xyz
  1  'x, y, z'
loop_
 _atom_site_type_symbol
 _atom_site_label
 _atom_site_symmetry_multiplicity
 _atom_site_fract_x
 _atom_site_fract_y
 _atom_site_fract_z
 _atom_site_occupancy
  Tb  Tb0  1  0.319713  0.174822  0.121228  1
  Tb  Tb1  1  0.819713  0.325178  0.378772  1
  Tb  Tb2  1  0.180287  0.674822  0.878772  1
  Tb  Tb3  1  0.680287  0.825178  0.621228  1
  Tb  Tb4  1  0.319713  0.174822  0.378772  1
  Tb  Tb5  1  0.819713  0.325178  0.121228  1
  Tb  Tb6  1  0.180287  0.674822  0.621228  1
  Tb  Tb7  1  0.680287  0.825178  0.878772  1
  Yb  Yb8  1  0.346726  0.014936  0.750000  1
  Yb  Yb9  1  0.846726  0.485064  0.750000  1
  Yb  Yb10  1  0.153274  0.514936  0.250000  1
  Yb  Yb11  1  0.653274  0.985064  0.250000  1
  Eu  Eu12  1  0.978890  0.817680  0.403328  1
  Eu  Eu13  1  0.478890  0.682320  0.096672  1
  Eu  Eu14  1  0.521110  0.317680  0.596672  1
  Eu  Eu15  1  0.021110  0.182320  0.903328  1
  Eu  Eu16  1  0.021110  0.182320  0.596672  1
  Eu  Eu17  1  0.521110  0.317680  0.903328  1
  Eu  Eu18  1  0.478890  0.682320  0.403328  1
  Eu  Eu19  1  0.978890  0.817680  0.096672  1
  Ge  Ge20  1  0.848182  0.534696  0.539883  1
  Ge  Ge21  1  0.348182  0.965304  0.960117  1
  Ge  Ge22  1  0.651818  0.034696  0.460117  1
  Ge  Ge23  1  0.151818  0.465304  0.039883  1
  Ge  Ge24  1  0.151818  0.465304  0.460117  1
  Ge  Ge25  1  0.651818  0.034696  0.039883  1
  Ge  Ge26  1  0.348182  0.965304  0.539883  1
  Ge  Ge27  1  0.848182  0.534696  0.960117  1
  Ge  Ge28  1  0.975199  0.883313  0.750000  1
  Ge  Ge29  1  0.475199  0.616687  0.750000  1
  Ge  Ge30  1  0.524801  0.383313  0.250000  1
  Ge  Ge31  1  0.024801  0.116687  0.250000  1
  Ge  Ge32  1  0.233977  0.387056  0.750000  1
  Ge  Ge33  1  0.733977  0.112944  0.750000  1
  Ge  Ge34  1  0.266023  0.887056  0.250000  1
  Ge  Ge35  1  0.766023  0.612944  0.250000  1
