# generated using pymatgen
data_Tm2Lu2Co3Si4Ru
_symmetry_space_group_name_H-M   'P 1'
_cell_length_a   4.15525500
_cell_length_b   6.74978583
_cell_length_c   6.97918500
_cell_angle_alpha   90.21220418
_cell_angle_beta   90.00000000
_cell_angle_gamma   90.00000000
_symmetry_Int_Tables_number   1
_chemical_formula_structural   Tm2Lu2Co3Si4Ru
_chemical_formula_sum   'Tm2 Lu2 Co3 Si4 Ru1'
_cell_volume   195.74442661
_cell_formula_units_Z   1
loop_
 _symmetry_equiv_pos_site_id
 _symmetry_equiv_pos_as_xyz
  1  'x, y, z'
loop_
 _atom_site_type_symbol
 _atom_site_label
 _atom_site_symmetry_multiplicity
 _atom_site_fract_x
 _atom_site_fract_y
 _atom_site_fract_z
 _atom_site_occupancy
  Tm  Tm0  1  0.750000  0.009591  0.193233  1
  Tm  Tm1  1  0.750000  0.507725  0.314373  1
  Lu  Lu2  1  0.250000  0.987270  0.803081  1
  Lu  Lu3  1  0.250000  0.483479  0.689286  1
  Co  Co4  1  0.750000  0.852277  0.569309  1
  Co  Co5  1  0.250000  0.156879  0.437994  1
  Co  Co6  1  0.750000  0.349676  0.931487  1
  Si  Si7  1  0.250000  0.296193  0.100122  1
  Si  Si8  1  0.750000  0.698461  0.886461  1
  Si  Si9  1  0.250000  0.803705  0.401285  1
  Si  Si10  1  0.750000  0.197835  0.608604  1
  Ru  Ru11  1  0.250000  0.656910  0.064765  1
