# generated using pymatgen
data_YbHo(AgO2)4
_symmetry_space_group_name_H-M   'P 1'
_cell_length_a   6.59966091
_cell_length_b   6.59966089
_cell_length_c   6.59966221
_cell_angle_alpha   126.25031953
_cell_angle_beta   126.25031094
_cell_angle_gamma   79.47711445
_symmetry_Int_Tables_number   1
_chemical_formula_structural   YbHo(AgO2)4
_chemical_formula_sum   'Yb1 Ho1 Ag4 O8'
_cell_volume   180.67320290
_cell_formula_units_Z   1
loop_
 _symmetry_equiv_pos_site_id
 _symmetry_equiv_pos_as_xyz
  1  'x, y, z'
loop_
 _atom_site_type_symbol
 _atom_site_label
 _atom_site_symmetry_multiplicity
 _atom_site_fract_x
 _atom_site_fract_y
 _atom_site_fract_z
 _atom_site_occupancy
  Yb  Yb0  1  0.000000  0.000000  0.000000  1
  Ho  Ho1  1  0.750000  0.250000  0.500000  1
  Ag  Ag2  1  0.370264  0.125597  0.744819  1
  Ag  Ag3  1  0.380777  0.625445  0.255181  1
  Ag  Ag4  1  0.874403  0.619223  0.244668  1
  Ag  Ag5  1  0.374555  0.629736  0.755332  1
  O  O6  1  0.033114  0.003892  0.644426  1
  O  O7  1  0.611313  0.966886  0.970778  1
  O  O8  1  0.996108  0.640534  0.029222  1
  O  O9  1  0.407870  0.869480  0.165408  1
  O  O10  1  0.757538  0.592130  0.461610  1
  O  O11  1  0.130520  0.295928  0.538390  1
  O  O12  1  0.359466  0.388687  0.355574  1
  O  O13  1  0.704072  0.242462  0.834592  1
