# generated using pymatgen
data_Tb12Tc2PdRu
_symmetry_space_group_name_H-M   'P 1'
_cell_length_a   6.35768631
_cell_length_b   7.37183356
_cell_length_c   9.30496500
_cell_angle_alpha   90.00000000
_cell_angle_beta   90.00000000
_cell_angle_gamma   90.09847385
_symmetry_Int_Tables_number   1
_chemical_formula_structural   Tb12Tc2PdRu
_chemical_formula_sum   'Tb12 Tc2 Pd1 Ru1'
_cell_volume   436.10264409
_cell_formula_units_Z   1
loop_
 _symmetry_equiv_pos_site_id
 _symmetry_equiv_pos_as_xyz
  1  'x, y, z'
loop_
 _atom_site_type_symbol
 _atom_site_label
 _atom_site_symmetry_multiplicity
 _atom_site_fract_x
 _atom_site_fract_y
 _atom_site_fract_z
 _atom_site_occupancy
  Tb  Tb0  1  0.335926  0.672192  0.061266  1
  Tb  Tb1  1  0.169233  0.183355  0.441141  1
  Tb  Tb2  1  0.669775  0.322098  0.565112  1
  Tb  Tb3  1  0.825175  0.822866  0.930766  1
  Tb  Tb4  1  0.669775  0.322098  0.934888  1
  Tb  Tb5  1  0.825175  0.822866  0.569234  1
  Tb  Tb6  1  0.335926  0.672192  0.438734  1
  Tb  Tb7  1  0.169233  0.183355  0.058859  1
  Tb  Tb8  1  0.864923  0.532596  0.250000  1
  Tb  Tb9  1  0.629467  0.043371  0.250000  1
  Tb  Tb10  1  0.134188  0.461851  0.750000  1
  Tb  Tb11  1  0.365444  0.958957  0.750000  1
  Tc  Tc12  1  0.453808  0.387305  0.250000  1
  Tc  Tc13  1  0.961494  0.112195  0.750000  1
  Pd  Pd14  1  0.050316  0.886529  0.250000  1
  Ru  Ru15  1  0.540142  0.616172  0.750000  1
