# generated using pymatgen
data_YbEr7Tm2(In2Pt)4
_symmetry_space_group_name_H-M   'P 1'
_cell_length_a   3.62099600
_cell_length_b   8.09853559
_cell_length_c   18.14723571
_cell_angle_alpha   89.94873921
_cell_angle_beta   90.00000000
_cell_angle_gamma   90.00000000
_symmetry_Int_Tables_number   1
_chemical_formula_structural   YbEr7Tm2(In2Pt)4
_chemical_formula_sum   'Yb1 Er7 Tm2 In8 Pt4'
_cell_volume   532.16320906
_cell_formula_units_Z   1
loop_
 _symmetry_equiv_pos_site_id
 _symmetry_equiv_pos_as_xyz
  1  'x, y, z'
loop_
 _atom_site_type_symbol
 _atom_site_label
 _atom_site_symmetry_multiplicity
 _atom_site_fract_x
 _atom_site_fract_y
 _atom_site_fract_z
 _atom_site_occupancy
  Yb  Yb0  1  0.000000  0.000000  0.000000  1
  Er  Er1  1  0.000000  0.116898  0.414195  1
  Er  Er2  1  0.000000  0.883102  0.585805  1
  Er  Er3  1  0.000000  0.380942  0.913985  1
  Er  Er4  1  0.000000  0.619058  0.086015  1
  Er  Er5  1  0.000000  0.243375  0.221459  1
  Er  Er6  1  0.000000  0.756625  0.778541  1
  Er  Er7  1  0.000000  0.500000  0.500000  1
  Tm  Tm8  1  0.000000  0.256827  0.721241  1
  Tm  Tm9  1  0.000000  0.743173  0.278759  1
  In  In10  1  0.500000  0.425388  0.352266  1
  In  In11  1  0.500000  0.574612  0.647734  1
  In  In12  1  0.500000  0.073575  0.851367  1
  In  In13  1  0.500000  0.926425  0.148633  1
  In  In14  1  0.500000  0.294041  0.067444  1
  In  In15  1  0.500000  0.705959  0.932556  1
  In  In16  1  0.500000  0.208697  0.566861  1
  In  In17  1  0.500000  0.791303  0.433139  1
  Pt  Pt18  1  0.500000  0.022657  0.304200  1
  Pt  Pt19  1  0.500000  0.977343  0.695800  1
  Pt  Pt20  1  0.500000  0.476380  0.802644  1
  Pt  Pt21  1  0.500000  0.523620  0.197356  1
