# generated using pymatgen
data_La5CoPt2
_symmetry_space_group_name_H-M   'P 1'
_cell_length_a   8.55566000
_cell_length_b   8.22563600
_cell_length_c   12.38652800
_cell_angle_alpha   90.00000000
_cell_angle_beta   90.00000000
_cell_angle_gamma   90.00000000
_symmetry_Int_Tables_number   1
_chemical_formula_structural   La5CoPt2
_chemical_formula_sum   'La20 Co4 Pt8'
_cell_volume   871.71113472
_cell_formula_units_Z   4
loop_
 _symmetry_equiv_pos_site_id
 _symmetry_equiv_pos_as_xyz
  1  'x, y, z'
loop_
 _atom_site_type_symbol
 _atom_site_label
 _atom_site_symmetry_multiplicity
 _atom_site_fract_x
 _atom_site_fract_y
 _atom_site_fract_z
 _atom_site_occupancy
  La  La0  1  0.827967  0.750000  0.786578  1
  La  La1  1  0.172033  0.250000  0.213422  1
  La  La2  1  0.327967  0.250000  0.713422  1
  La  La3  1  0.672033  0.750000  0.286578  1
  La  La4  1  0.360264  0.750000  0.702549  1
  La  La5  1  0.639736  0.250000  0.297451  1
  La  La6  1  0.860264  0.250000  0.797451  1
  La  La7  1  0.139736  0.750000  0.202549  1
  La  La8  1  0.968432  0.750000  0.496690  1
  La  La9  1  0.031568  0.250000  0.503310  1
  La  La10  1  0.468432  0.250000  0.003310  1
  La  La11  1  0.531568  0.750000  0.996690  1
  La  La12  1  0.664548  0.029241  0.577725  1
  La  La13  1  0.335452  0.970759  0.422275  1
  La  La14  1  0.164548  0.970759  0.922275  1
  La  La15  1  0.335452  0.529241  0.422275  1
  La  La16  1  0.835452  0.029241  0.077725  1
  La  La17  1  0.664548  0.470759  0.577725  1
  La  La18  1  0.835452  0.470759  0.077725  1
  La  La19  1  0.164548  0.529241  0.922275  1
  Co  Co20  1  0.557531  0.750000  0.508137  1
  Co  Co21  1  0.442469  0.250000  0.491863  1
  Co  Co22  1  0.057531  0.250000  0.991863  1
  Co  Co23  1  0.942469  0.750000  0.008137  1
  Pt  Pt24  1  0.554364  0.485562  0.822925  1
  Pt  Pt25  1  0.445636  0.514438  0.177075  1
  Pt  Pt26  1  0.054364  0.514438  0.677075  1
  Pt  Pt27  1  0.445636  0.985562  0.177075  1
  Pt  Pt28  1  0.945636  0.485562  0.322925  1
  Pt  Pt29  1  0.554364  0.014438  0.822925  1
  Pt  Pt30  1  0.945636  0.014438  0.322925  1
  Pt  Pt31  1  0.054364  0.985562  0.677075  1
