# generated using pymatgen
data_Tb20Bi8Ru3Pt
_symmetry_space_group_name_H-M   'P 1'
_cell_length_a   8.05821133
_cell_length_b   9.06383600
_cell_length_c   12.54086054
_cell_angle_alpha   90.00000000
_cell_angle_beta   90.05877095
_cell_angle_gamma   90.00000000
_symmetry_Int_Tables_number   1
_chemical_formula_structural   Tb20Bi8Ru3Pt
_chemical_formula_sum   'Tb20 Bi8 Ru3 Pt1'
_cell_volume   915.96272706
_cell_formula_units_Z   1
loop_
 _symmetry_equiv_pos_site_id
 _symmetry_equiv_pos_as_xyz
  1  'x, y, z'
loop_
 _atom_site_type_symbol
 _atom_site_label
 _atom_site_symmetry_multiplicity
 _atom_site_fract_x
 _atom_site_fract_y
 _atom_site_fract_z
 _atom_site_occupancy
  Tb  Tb0  1  0.838985  0.750000  0.790066  1
  Tb  Tb1  1  0.156838  0.250000  0.205871  1
  Tb  Tb2  1  0.343492  0.250000  0.706587  1
  Tb  Tb3  1  0.654815  0.750000  0.295329  1
  Tb  Tb4  1  0.377183  0.750000  0.694852  1
  Tb  Tb5  1  0.620532  0.250000  0.306051  1
  Tb  Tb6  1  0.877849  0.250000  0.807046  1
  Tb  Tb7  1  0.126943  0.750000  0.196889  1
  Tb  Tb8  1  0.947201  0.750000  0.502924  1
  Tb  Tb9  1  0.055199  0.250000  0.496143  1
  Tb  Tb10  1  0.450940  0.250000  0.997283  1
  Tb  Tb11  1  0.548757  0.750000  0.002520  1
  Tb  Tb12  1  0.675751  0.040225  0.563611  1
  Tb  Tb13  1  0.323355  0.957760  0.436603  1
  Tb  Tb14  1  0.178675  0.962654  0.933951  1
  Tb  Tb15  1  0.323355  0.542240  0.436603  1
  Tb  Tb16  1  0.821481  0.046374  0.065463  1
  Tb  Tb17  1  0.675751  0.459775  0.563611  1
  Tb  Tb18  1  0.821481  0.453626  0.065463  1
  Tb  Tb19  1  0.178675  0.537346  0.933951  1
  Bi  Bi20  1  0.571847  0.491576  0.827212  1
  Bi  Bi21  1  0.429214  0.508147  0.172597  1
  Bi  Bi22  1  0.070242  0.507937  0.672395  1
  Bi  Bi23  1  0.429214  0.991853  0.172597  1
  Bi  Bi24  1  0.928649  0.491636  0.326823  1
  Bi  Bi25  1  0.571847  0.008424  0.827212  1
  Bi  Bi26  1  0.928649  0.008364  0.326823  1
  Bi  Bi27  1  0.070242  0.992063  0.672395  1
  Ru  Ru28  1  0.574515  0.750000  0.512806  1
  Ru  Ru29  1  0.426229  0.250000  0.489016  1
  Ru  Ru30  1  0.073180  0.250000  0.989002  1
  Pt  Pt31  1  0.928911  0.750000  0.010300  1
