# generated using pymatgen
data_Cs4USbBr12
_symmetry_space_group_name_H-M   'P 1'
_cell_length_a   8.05362000
_cell_length_b   8.05362000
_cell_length_c   11.67732100
_cell_angle_alpha   90.00000000
_cell_angle_beta   90.00000000
_cell_angle_gamma   90.00000000
_symmetry_Int_Tables_number   1
_chemical_formula_structural   Cs4USbBr12
_chemical_formula_sum   'Cs4 U1 Sb1 Br12'
_cell_volume   757.40032475
_cell_formula_units_Z   1
loop_
 _symmetry_equiv_pos_site_id
 _symmetry_equiv_pos_as_xyz
  1  'x, y, z'
loop_
 _atom_site_type_symbol
 _atom_site_label
 _atom_site_symmetry_multiplicity
 _atom_site_fract_x
 _atom_site_fract_y
 _atom_site_fract_z
 _atom_site_occupancy
  Cs  Cs0  1  0.500000  0.000000  0.714498  1
  Cs  Cs1  1  0.000000  0.500000  0.285502  1
  Cs  Cs2  1  0.500000  0.000000  0.285502  1
  Cs  Cs3  1  0.000000  0.500000  0.714498  1
  U  U4  1  0.000000  0.000000  0.000000  1
  Sb  Sb5  1  0.500000  0.500000  0.500000  1
  Br  Br6  1  0.000000  0.000000  0.767173  1
  Br  Br7  1  0.500000  0.500000  0.256808  1
  Br  Br8  1  0.748382  0.748382  0.500000  1
  Br  Br9  1  0.236668  0.236668  0.000000  1
  Br  Br10  1  0.748382  0.251618  0.500000  1
  Br  Br11  1  0.236668  0.763332  0.000000  1
  Br  Br12  1  0.000000  0.000000  0.232827  1
  Br  Br13  1  0.500000  0.500000  0.743192  1
  Br  Br14  1  0.251618  0.251618  0.500000  1
  Br  Br15  1  0.763332  0.763332  0.000000  1
  Br  Br16  1  0.251618  0.748382  0.500000  1
  Br  Br17  1  0.763332  0.236668  0.000000  1
