# generated using pymatgen
data_Tb2Zn2PdRh
_symmetry_space_group_name_H-M   'P 1'
_cell_length_a   4.05021700
_cell_length_b   7.06344394
_cell_length_c   8.24553647
_cell_angle_alpha   89.81753127
_cell_angle_beta   90.00000000
_cell_angle_gamma   90.00000000
_symmetry_Int_Tables_number   1
_chemical_formula_structural   Tb2Zn2PdRh
_chemical_formula_sum   'Tb4 Zn4 Pd2 Rh2'
_cell_volume   235.89107496
_cell_formula_units_Z   2
loop_
 _symmetry_equiv_pos_site_id
 _symmetry_equiv_pos_as_xyz
  1  'x, y, z'
loop_
 _atom_site_type_symbol
 _atom_site_label
 _atom_site_symmetry_multiplicity
 _atom_site_fract_x
 _atom_site_fract_y
 _atom_site_fract_z
 _atom_site_occupancy
  Tb  Tb0  1  0.250000  0.541247  0.181833  1
  Tb  Tb1  1  0.750000  0.458753  0.818167  1
  Tb  Tb2  1  0.250000  0.047995  0.306759  1
  Tb  Tb3  1  0.750000  0.952005  0.693241  1
  Zn  Zn4  1  0.250000  0.134721  0.936949  1
  Zn  Zn5  1  0.750000  0.865279  0.063051  1
  Zn  Zn6  1  0.250000  0.639329  0.567753  1
  Zn  Zn7  1  0.750000  0.360671  0.432247  1
  Pd  Pd8  1  0.750000  0.745778  0.379683  1
  Pd  Pd9  1  0.250000  0.254222  0.620317  1
  Rh  Rh10  1  0.750000  0.250477  0.120847  1
  Rh  Rh11  1  0.250000  0.749523  0.879153  1
