# generated using pymatgen
data_Dy16In4OsPt2Rh
_symmetry_space_group_name_H-M   'P 1'
_cell_length_a   9.71244882
_cell_length_b   9.69700706
_cell_length_c   9.71244802
_cell_angle_alpha   59.90327806
_cell_angle_beta   59.91697900
_cell_angle_gamma   59.90327506
_symmetry_Int_Tables_number   1
_chemical_formula_structural   Dy16In4OsPt2Rh
_chemical_formula_sum   'Dy16 In4 Os1 Pt2 Rh1'
_cell_volume   645.46285622
_cell_formula_units_Z   1
loop_
 _symmetry_equiv_pos_site_id
 _symmetry_equiv_pos_as_xyz
  1  'x, y, z'
loop_
 _atom_site_type_symbol
 _atom_site_label
 _atom_site_symmetry_multiplicity
 _atom_site_fract_x
 _atom_site_fract_y
 _atom_site_fract_z
 _atom_site_occupancy
  Dy  Dy0  1  0.685986  0.310420  0.310142  1
  Dy  Dy1  1  0.687578  0.693668  0.310604  1
  Dy  Dy2  1  0.311278  0.687503  0.311278  1
  Dy  Dy3  1  0.938021  0.936420  0.562689  1
  Dy  Dy4  1  0.152148  0.148599  0.548669  1
  Dy  Dy5  1  0.559405  0.944269  0.559405  1
  Dy  Dy6  1  0.151019  0.147493  0.151019  1
  Dy  Dy7  1  0.310142  0.310420  0.685986  1
  Dy  Dy8  1  0.944898  0.559243  0.559143  1
  Dy  Dy9  1  0.559143  0.559243  0.944898  1
  Dy  Dy10  1  0.562689  0.936420  0.938021  1
  Dy  Dy11  1  0.936922  0.563172  0.936922  1
  Dy  Dy12  1  0.150511  0.550946  0.150511  1
  Dy  Dy13  1  0.310604  0.693668  0.687578  1
  Dy  Dy14  1  0.691469  0.310164  0.691469  1
  Dy  Dy15  1  0.548669  0.148599  0.152148  1
  In  In16  1  0.917433  0.917783  0.248463  1
  In  In17  1  0.248463  0.917783  0.917433  1
  In  In18  1  0.917709  0.248595  0.917709  1
  In  In19  1  0.917002  0.916937  0.917002  1
  Os  Os20  1  0.357360  0.358320  0.357360  1
  Pt  Pt21  1  0.926298  0.357681  0.357325  1
  Pt  Pt22  1  0.357325  0.357681  0.926298  1
  Rh  Rh23  1  0.357925  0.924971  0.357925  1
