# generated using pymatgen
data_CaTe7
_symmetry_space_group_name_H-M   'P 1'
_cell_length_a   14.52999188
_cell_length_b   14.52999310
_cell_length_c   4.04927600
_cell_angle_alpha   90.00000000
_cell_angle_beta   90.00000000
_cell_angle_gamma   161.54275212
_symmetry_Int_Tables_number   1
_chemical_formula_structural   CaTe7
_chemical_formula_sum   'Ca1 Te7'
_cell_volume   270.65428174
_cell_formula_units_Z   1
loop_
 _symmetry_equiv_pos_site_id
 _symmetry_equiv_pos_as_xyz
  1  'x, y, z'
loop_
 _atom_site_type_symbol
 _atom_site_label
 _atom_site_symmetry_multiplicity
 _atom_site_fract_x
 _atom_site_fract_y
 _atom_site_fract_z
 _atom_site_occupancy
  Ca  Ca0  1  0.174087  0.825913  0.500000  1
  Te  Te1  1  0.795783  0.204217  0.000000  1
  Te  Te2  1  0.437316  0.562684  0.000000  1
  Te  Te3  1  0.582545  0.417455  0.500000  1
  Te  Te4  1  0.698295  0.301705  0.000000  1
  Te  Te5  1  0.297058  0.702942  0.500000  1
  Te  Te6  1  0.081513  0.918487  0.000000  1
  Te  Te7  1  0.933401  0.066599  0.500000  1
