# generated using pymatgen
data_MnZn2Te2P2(PbO7)2
_symmetry_space_group_name_H-M   'P 1'
_cell_length_a   8.06722400
_cell_length_b   5.35155590
_cell_length_c   15.46132000
_cell_angle_alpha   89.94035476
_cell_angle_beta   90.00000000
_cell_angle_gamma   90.00000000
_symmetry_Int_Tables_number   1
_chemical_formula_structural   MnZn2Te2P2(PbO7)2
_chemical_formula_sum   'Mn2 Zn4 Te4 P4 Pb4 O28'
_cell_volume   667.49884058
_cell_formula_units_Z   2
loop_
 _symmetry_equiv_pos_site_id
 _symmetry_equiv_pos_as_xyz
  1  'x, y, z'
loop_
 _atom_site_type_symbol
 _atom_site_label
 _atom_site_symmetry_multiplicity
 _atom_site_fract_x
 _atom_site_fract_y
 _atom_site_fract_z
 _atom_site_occupancy
  Mn  Mn0  1  0.500000  0.000000  0.000000  1
  Mn  Mn1  1  0.000000  0.000000  0.500000  1
  Zn  Zn2  1  0.606587  0.018962  0.383962  1
  Zn  Zn3  1  0.106587  0.981038  0.116038  1
  Zn  Zn4  1  0.393413  0.981038  0.616038  1
  Zn  Zn5  1  0.893413  0.018962  0.883962  1
  Te  Te6  1  0.717201  0.495214  0.511149  1
  Te  Te7  1  0.217201  0.504786  0.988851  1
  Te  Te8  1  0.282799  0.504786  0.488851  1
  Te  Te9  1  0.782799  0.495214  0.011149  1
  P  P10  1  0.738269  0.041494  0.192494  1
  P  P11  1  0.238269  0.958506  0.307506  1
  P  P12  1  0.261731  0.958506  0.807506  1
  P  P13  1  0.761731  0.041494  0.692494  1
  Pb  Pb14  1  0.938796  0.500708  0.301983  1
  Pb  Pb15  1  0.438796  0.499292  0.198017  1
  Pb  Pb16  1  0.061204  0.499292  0.698017  1
  Pb  Pb17  1  0.561204  0.500708  0.801983  1
  O  O18  1  0.696669  0.189477  0.278063  1
  O  O19  1  0.196669  0.810523  0.221937  1
  O  O20  1  0.303331  0.810523  0.721937  1
  O  O21  1  0.803331  0.189477  0.778063  1
  O  O22  1  0.743039  0.757423  0.209617  1
  O  O23  1  0.243039  0.242577  0.290383  1
  O  O24  1  0.256961  0.242577  0.790383  1
  O  O25  1  0.756961  0.757423  0.709617  1
  O  O26  1  0.602008  0.107490  0.125419  1
  O  O27  1  0.102008  0.892510  0.374581  1
  O  O28  1  0.397992  0.892510  0.874581  1
  O  O29  1  0.897992  0.107490  0.625419  1
  O  O30  1  0.407898  0.849442  0.337979  1
  O  O31  1  0.907898  0.150558  0.162021  1
  O  O32  1  0.592102  0.150558  0.662021  1
  O  O33  1  0.092102  0.849442  0.837979  1
  O  O34  1  0.881356  0.310077  0.446239  1
  O  O35  1  0.381356  0.689923  0.053761  1
  O  O36  1  0.118644  0.689923  0.553761  1
  O  O37  1  0.618644  0.310077  0.946239  1
  O  O38  1  0.542063  0.306139  0.456257  1
  O  O39  1  0.042063  0.693861  0.043743  1
  O  O40  1  0.457937  0.693861  0.543743  1
  O  O41  1  0.957937  0.306139  0.956257  1
  O  O42  1  0.759574  0.772504  0.434423  1
  O  O43  1  0.259574  0.227496  0.065577  1
  O  O44  1  0.240426  0.227496  0.565577  1
  O  O45  1  0.740426  0.772504  0.934423  1
