# generated using pymatgen
data_TmPuB6Os
_symmetry_space_group_name_H-M   'P 1'
_cell_length_a   3.62526900
_cell_length_b   9.14035000
_cell_length_c   11.53086700
_cell_angle_alpha   90.00000000
_cell_angle_beta   90.00000000
_cell_angle_gamma   90.00000000
_symmetry_Int_Tables_number   1
_chemical_formula_structural   TmPuB6Os
_chemical_formula_sum   'Tm4 Pu4 B24 Os4'
_cell_volume   382.08943223
_cell_formula_units_Z   4
loop_
 _symmetry_equiv_pos_site_id
 _symmetry_equiv_pos_as_xyz
  1  'x, y, z'
loop_
 _atom_site_type_symbol
 _atom_site_label
 _atom_site_symmetry_multiplicity
 _atom_site_fract_x
 _atom_site_fract_y
 _atom_site_fract_z
 _atom_site_occupancy
  Tm  Tm0  1  0.000000  0.944366  0.374001  1
  Tm  Tm1  1  0.000000  0.055634  0.626000  1
  Tm  Tm2  1  0.000000  0.444366  0.125999  1
  Tm  Tm3  1  0.000000  0.555634  0.874000  1
  Pu  Pu4  1  0.000000  0.323770  0.413312  1
  Pu  Pu5  1  0.000000  0.676230  0.586688  1
  Pu  Pu6  1  0.000000  0.823770  0.086688  1
  Pu  Pu7  1  0.000000  0.176230  0.913312  1
  B  B8  1  0.500000  0.553561  0.432754  1
  B  B9  1  0.500000  0.446439  0.567246  1
  B  B10  1  0.500000  0.053561  0.067246  1
  B  B11  1  0.500000  0.946439  0.932754  1
  B  B12  1  0.500000  0.748782  0.420434  1
  B  B13  1  0.500000  0.251218  0.579566  1
  B  B14  1  0.500000  0.248782  0.079566  1
  B  B15  1  0.500000  0.751218  0.920434  1
  B  B16  1  0.500000  0.792793  0.266526  1
  B  B17  1  0.500000  0.207207  0.733474  1
  B  B18  1  0.500000  0.292792  0.233474  1
  B  B19  1  0.500000  0.707207  0.766526  1
  B  B20  1  0.500000  0.632357  0.184685  1
  B  B21  1  0.500000  0.367643  0.815315  1
  B  B22  1  0.500000  0.132357  0.315315  1
  B  B23  1  0.500000  0.867643  0.684685  1
  B  B24  1  0.500000  0.982695  0.213569  1
  B  B25  1  0.500000  0.017305  0.786431  1
  B  B26  1  0.500000  0.482695  0.286431  1
  B  B27  1  0.500000  0.517305  0.713569  1
  B  B28  1  0.500000  0.607720  0.029746  1
  B  B29  1  0.500000  0.392280  0.970254  1
  B  B30  1  0.500000  0.107720  0.470254  1
  B  B31  1  0.500000  0.892280  0.529746  1
  Os  Os32  1  0.000000  0.639062  0.320061  1
  Os  Os33  1  0.000000  0.360938  0.679939  1
  Os  Os34  1  0.000000  0.139062  0.179939  1
  Os  Os35  1  0.000000  0.860938  0.820061  1
