# generated using pymatgen
data_LiAg3(SnO3)2
_symmetry_space_group_name_H-M   'P 1'
_cell_length_a   5.55076041
_cell_length_b   5.55533155
_cell_length_c   6.64669744
_cell_angle_alpha   73.86865756
_cell_angle_beta   97.99197716
_cell_angle_gamma   120.02723634
_symmetry_Int_Tables_number   1
_chemical_formula_structural   LiAg3(SnO3)2
_chemical_formula_sum   'Li1 Ag3 Sn2 O6'
_cell_volume   170.46478621
_cell_formula_units_Z   1
loop_
 _symmetry_equiv_pos_site_id
 _symmetry_equiv_pos_as_xyz
  1  'x, y, z'
loop_
 _atom_site_type_symbol
 _atom_site_label
 _atom_site_symmetry_multiplicity
 _atom_site_fract_x
 _atom_site_fract_y
 _atom_site_fract_z
 _atom_site_occupancy
  Li  Li0  1  0.333333  0.166667  0.500000  1
  Ag  Ag1  1  0.673613  0.336805  0.000000  1
  Ag  Ag2  1  0.333333  0.666667  0.000000  1
  Ag  Ag3  1  0.993054  0.996528  0.000000  1
  Sn  Sn4  1  0.999755  0.499877  0.500000  1
  Sn  Sn5  1  0.666912  0.833456  0.500000  1
  O  O6  1  0.333333  0.760196  0.668526  1
  O  O7  1  0.984427  0.111382  0.667999  1
  O  O8  1  0.682240  0.460289  0.667999  1
  O  O9  1  0.682240  0.221951  0.332001  1
  O  O10  1  0.333333  0.573138  0.331474  1
  O  O11  1  0.984427  0.873044  0.332001  1
