# generated using pymatgen
data_Sr3Ga3Si2SbO14
_symmetry_space_group_name_H-M   'P 1'
_cell_length_a   8.37714800
_cell_length_b   8.37712355
_cell_length_c   5.14906500
_cell_angle_alpha   89.99998193
_cell_angle_beta   89.99979860
_cell_angle_gamma   119.99997686
_symmetry_Int_Tables_number   1
_chemical_formula_structural   Sr3Ga3Si2SbO14
_chemical_formula_sum   'Sr3 Ga3 Si2 Sb1 O14'
_cell_volume   312.93217336
_cell_formula_units_Z   1
loop_
 _symmetry_equiv_pos_site_id
 _symmetry_equiv_pos_as_xyz
  1  'x, y, z'
loop_
 _atom_site_type_symbol
 _atom_site_label
 _atom_site_symmetry_multiplicity
 _atom_site_fract_x
 _atom_site_fract_y
 _atom_site_fract_z
 _atom_site_occupancy
  Sr  Sr0  1  0.431096  0.000000  0.000003  1
  Sr  Sr1  1  0.000000  0.431103  0.999999  1
  Sr  Sr2  1  0.568903  0.568903  0.999998  1
  Ga  Ga3  1  0.748592  0.000000  0.500001  1
  Ga  Ga4  1  0.000000  0.748590  0.500000  1
  Ga  Ga5  1  0.251408  0.251408  0.499999  1
  Si  Si6  1  0.666669  0.333338  0.466005  1
  Si  Si7  1  0.333331  0.666669  0.533996  1
  Sb  Sb8  1  0.000000  0.999996  0.000000  1
  O  O9  1  0.333338  0.666670  0.220742  1
  O  O10  1  0.129247  0.906368  0.229423  1
  O  O11  1  0.093631  0.222881  0.229427  1
  O  O12  1  0.777124  0.870752  0.229431  1
  O  O13  1  0.473898  0.307105  0.332709  1
  O  O14  1  0.692892  0.166790  0.332713  1
  O  O15  1  0.833205  0.526098  0.332715  1
  O  O16  1  0.166795  0.692893  0.667285  1
  O  O17  1  0.307108  0.473898  0.667288  1
  O  O18  1  0.526102  0.833208  0.667292  1
  O  O19  1  0.222877  0.093629  0.770569  1
  O  O20  1  0.906369  0.129249  0.770573  1
  O  O21  1  0.870753  0.777121  0.770578  1
  O  O22  1  0.666662  0.333331  0.779257  1
