# generated using pymatgen
data_LiGd8Ho11Sn16
_symmetry_space_group_name_H-M   'P 1'
_cell_length_a   8.02987900
_cell_length_b   8.17313608
_cell_length_c   15.44537000
_cell_angle_alpha   90.00000000
_cell_angle_beta   90.00000000
_cell_angle_gamma   90.00821602
_symmetry_Int_Tables_number   1
_chemical_formula_structural   LiGd8Ho11Sn16
_chemical_formula_sum   'Li1 Gd8 Ho11 Sn16'
_cell_volume   1013.66871524
_cell_formula_units_Z   1
loop_
 _symmetry_equiv_pos_site_id
 _symmetry_equiv_pos_as_xyz
  1  'x, y, z'
loop_
 _atom_site_type_symbol
 _atom_site_label
 _atom_site_symmetry_multiplicity
 _atom_site_fract_x
 _atom_site_fract_y
 _atom_site_fract_z
 _atom_site_occupancy
  Li  Li0  1  0.301260  0.999134  0.250000  1
  Gd  Gd1  1  0.517948  0.320345  0.903346  1
  Gd  Gd2  1  0.018425  0.179374  0.597466  1
  Gd  Gd3  1  0.481415  0.685157  0.404132  1
  Gd  Gd4  1  0.986797  0.822462  0.094709  1
  Gd  Gd5  1  0.481415  0.685157  0.095868  1
  Gd  Gd6  1  0.986797  0.822462  0.405291  1
  Gd  Gd7  1  0.517948  0.320345  0.596654  1
  Gd  Gd8  1  0.018425  0.179374  0.902534  1
  Ho  Ho9  1  0.362321  0.835452  0.876441  1
  Ho  Ho10  1  0.861843  0.660440  0.621192  1
  Ho  Ho11  1  0.630802  0.161067  0.375064  1
  Ho  Ho12  1  0.138192  0.334294  0.123278  1
  Ho  Ho13  1  0.630802  0.161067  0.124936  1
  Ho  Ho14  1  0.138192  0.334294  0.376722  1
  Ho  Ho15  1  0.362321  0.835452  0.623559  1
  Ho  Ho16  1  0.861843  0.660440  0.878808  1
  Ho  Ho17  1  0.194975  0.501806  0.750000  1
  Ho  Ho18  1  0.695959  0.996353  0.750000  1
  Ho  Ho19  1  0.807365  0.496882  0.250000  1
  Sn  Sn20  1  0.298392  0.041725  0.039067  1
  Sn  Sn21  1  0.796854  0.461938  0.456168  1
  Sn  Sn22  1  0.699021  0.962502  0.541178  1
  Sn  Sn23  1  0.202719  0.537352  0.958375  1
  Sn  Sn24  1  0.699021  0.962502  0.958822  1
  Sn  Sn25  1  0.202719  0.537352  0.541625  1
  Sn  Sn26  1  0.298392  0.041725  0.460933  1
  Sn  Sn27  1  0.796854  0.461938  0.043832  1
  Sn  Sn28  1  0.560224  0.619537  0.750000  1
  Sn  Sn29  1  0.058692  0.879190  0.750000  1
  Sn  Sn30  1  0.437385  0.390023  0.250000  1
  Sn  Sn31  1  0.946411  0.111508  0.250000  1
  Sn  Sn32  1  0.325734  0.144377  0.750000  1
  Sn  Sn33  1  0.826131  0.354202  0.750000  1
  Sn  Sn34  1  0.679331  0.854293  0.250000  1
  Sn  Sn35  1  0.177077  0.648475  0.250000  1
