# generated using pymatgen
data_Hf3Ta3(B2Ru5)2
_symmetry_space_group_name_H-M   'P 1'
_cell_length_a   9.46015931
_cell_length_b   9.46015931
_cell_length_c   3.09113900
_cell_angle_alpha   90.00000000
_cell_angle_beta   90.00000000
_cell_angle_gamma   90.02928940
_symmetry_Int_Tables_number   1
_chemical_formula_structural   Hf3Ta3(B2Ru5)2
_chemical_formula_sum   'Hf3 Ta3 B4 Ru10'
_cell_volume   276.64025595
_cell_formula_units_Z   1
loop_
 _symmetry_equiv_pos_site_id
 _symmetry_equiv_pos_as_xyz
  1  'x, y, z'
loop_
 _atom_site_type_symbol
 _atom_site_label
 _atom_site_symmetry_multiplicity
 _atom_site_fract_x
 _atom_site_fract_y
 _atom_site_fract_z
 _atom_site_occupancy
  Hf  Hf0  1  0.824479  0.676482  0.000000  1
  Hf  Hf1  1  0.176482  0.324479  0.000000  1
  Hf  Hf2  1  0.323798  0.823798  0.000000  1
  Ta  Ta3  1  0.676755  0.176755  0.000000  1
  Ta  Ta4  1  0.499574  0.500413  0.000000  1
  Ta  Ta5  1  0.000413  0.999574  0.000000  1
  B  B6  1  0.621108  0.878393  0.000000  1
  B  B7  1  0.378393  0.121108  0.000000  1
  B  B8  1  0.120984  0.620984  0.000000  1
  B  B9  1  0.878661  0.378661  0.000000  1
  Ru  Ru10  1  0.571258  0.718728  0.500000  1
  Ru  Ru11  1  0.433106  0.281015  0.500000  1
  Ru  Ru12  1  0.070062  0.781615  0.500000  1
  Ru  Ru13  1  0.924649  0.216571  0.500000  1
  Ru  Ru14  1  0.281615  0.570062  0.500000  1
  Ru  Ru15  1  0.716571  0.424649  0.500000  1
  Ru  Ru16  1  0.218728  0.071258  0.500000  1
  Ru  Ru17  1  0.781015  0.933106  0.500000  1
  Ru  Ru18  1  0.503430  0.003430  0.500000  1
  Ru  Ru19  1  0.998920  0.498920  0.500000  1
