# generated using pymatgen
data_Nb12Ga5Os3N4
_symmetry_space_group_name_H-M   'P 1'
_cell_length_a   7.05141305
_cell_length_b   7.05141305
_cell_length_c   7.05141305
_cell_angle_alpha   90.17803582
_cell_angle_beta   90.17803582
_cell_angle_gamma   90.17803582
_symmetry_Int_Tables_number   1
_chemical_formula_structural   Nb12Ga5Os3N4
_chemical_formula_sum   'Nb12 Ga5 Os3 N4'
_cell_volume   350.60827472
_cell_formula_units_Z   1
loop_
 _symmetry_equiv_pos_site_id
 _symmetry_equiv_pos_as_xyz
  1  'x, y, z'
loop_
 _atom_site_type_symbol
 _atom_site_label
 _atom_site_symmetry_multiplicity
 _atom_site_fract_x
 _atom_site_fract_y
 _atom_site_fract_z
 _atom_site_occupancy
  Nb  Nb0  1  0.799735  0.961785  0.369940  1
  Nb  Nb1  1  0.705593  0.047704  0.878039  1
  Nb  Nb2  1  0.201808  0.454923  0.123380  1
  Nb  Nb3  1  0.292335  0.544110  0.622780  1
  Nb  Nb4  1  0.961785  0.369940  0.799735  1
  Nb  Nb5  1  0.047704  0.878039  0.705593  1
  Nb  Nb6  1  0.454923  0.123380  0.201808  1
  Nb  Nb7  1  0.544110  0.622780  0.292335  1
  Nb  Nb8  1  0.369940  0.799735  0.961785  1
  Nb  Nb9  1  0.878039  0.705593  0.047704  1
  Nb  Nb10  1  0.123380  0.201808  0.454923  1
  Nb  Nb11  1  0.622780  0.292335  0.544110  1
  Ga  Ga12  1  0.679317  0.679317  0.679317  1
  Ga  Ga13  1  0.566386  0.428785  0.933797  1
  Ga  Ga14  1  0.428785  0.933797  0.566386  1
  Ga  Ga15  1  0.933797  0.566386  0.428785  1
  Ga  Ga16  1  0.070030  0.070030  0.070030  1
  Os  Os17  1  0.176302  0.823132  0.322343  1
  Os  Os18  1  0.322343  0.176302  0.823132  1
  Os  Os19  1  0.823132  0.322343  0.176302  1
  N  N20  1  0.875080  0.124817  0.625814  1
  N  N21  1  0.625814  0.875080  0.124817  1
  N  N22  1  0.124817  0.625814  0.875080  1
  N  N23  1  0.372067  0.372067  0.372067  1
