# generated using pymatgen
data_NaMnFe2NiSb12
_symmetry_space_group_name_H-M   'P 1'
_cell_length_a   8.02330814
_cell_length_b   8.01939708
_cell_length_c   8.02167434
_cell_angle_alpha   109.61026724
_cell_angle_beta   109.48625008
_cell_angle_gamma   109.70184300
_symmetry_Int_Tables_number   1
_chemical_formula_structural   NaMnFe2NiSb12
_chemical_formula_sum   'Na1 Mn1 Fe2 Ni1 Sb12'
_cell_volume   395.41943018
_cell_formula_units_Z   1
loop_
 _symmetry_equiv_pos_site_id
 _symmetry_equiv_pos_as_xyz
  1  'x, y, z'
loop_
 _atom_site_type_symbol
 _atom_site_label
 _atom_site_symmetry_multiplicity
 _atom_site_fract_x
 _atom_site_fract_y
 _atom_site_fract_z
 _atom_site_occupancy
  Na  Na0  1  0.000000  0.000000  0.000000  1
  Mn  Mn1  1  0.500000  0.500000  0.500000  1
  Fe  Fe2  1  0.000000  0.500000  0.000000  1
  Fe  Fe3  1  0.500000  0.000000  0.000000  1
  Ni  Ni4  1  0.000000  0.000000  0.500000  1
  Sb  Sb5  1  0.659706  0.823570  0.155376  1
  Sb  Sb6  1  0.838246  0.331240  0.169102  1
  Sb  Sb7  1  0.503566  0.846084  0.669513  1
  Sb  Sb8  1  0.845284  0.661705  0.502379  1
  Sb  Sb9  1  0.496434  0.153916  0.330487  1
  Sb  Sb10  1  0.161754  0.668760  0.830898  1
  Sb  Sb11  1  0.823448  0.163810  0.667580  1
  Sb  Sb12  1  0.176552  0.836190  0.332420  1
  Sb  Sb13  1  0.154716  0.338295  0.497621  1
  Sb  Sb14  1  0.669582  0.503527  0.845984  1
  Sb  Sb15  1  0.330418  0.496473  0.154016  1
  Sb  Sb16  1  0.340294  0.176430  0.844624  1
