# generated using pymatgen
data_Zr4CuPt10Rh
_symmetry_space_group_name_H-M   'P 1'
_cell_length_a   5.74697122
_cell_length_b   5.71708520
_cell_length_c   9.28882993
_cell_angle_alpha   90.36131225
_cell_angle_beta   90.45722146
_cell_angle_gamma   120.55422482
_symmetry_Int_Tables_number   1
_chemical_formula_structural   Zr4CuPt10Rh
_chemical_formula_sum   'Zr4 Cu1 Pt10 Rh1'
_cell_volume   262.78915629
_cell_formula_units_Z   1
loop_
 _symmetry_equiv_pos_site_id
 _symmetry_equiv_pos_as_xyz
  1  'x, y, z'
loop_
 _atom_site_type_symbol
 _atom_site_label
 _atom_site_symmetry_multiplicity
 _atom_site_fract_x
 _atom_site_fract_y
 _atom_site_fract_z
 _atom_site_occupancy
  Zr  Zr0  1  0.000000  0.000000  0.500000  1
  Zr  Zr1  1  0.000000  0.000000  0.000000  1
  Zr  Zr2  1  0.333256  0.656773  0.255890  1
  Zr  Zr3  1  0.666744  0.343227  0.744110  1
  Cu  Cu4  1  0.500000  0.000000  0.000000  1
  Pt  Pt5  1  0.500000  0.000000  0.500000  1
  Pt  Pt6  1  0.000000  0.500000  0.500000  1
  Pt  Pt7  1  0.500000  0.500000  0.000000  1
  Pt  Pt8  1  0.000000  0.500000  0.000000  1
  Pt  Pt9  1  0.827383  0.651992  0.248655  1
  Pt  Pt10  1  0.339961  0.160703  0.246007  1
  Pt  Pt11  1  0.822810  0.160106  0.244959  1
  Pt  Pt12  1  0.172617  0.348008  0.751345  1
  Pt  Pt13  1  0.660039  0.839297  0.753993  1
  Pt  Pt14  1  0.177190  0.839894  0.755041  1
  Rh  Rh15  1  0.500000  0.500000  0.500000  1
