# generated using pymatgen
data_Dy7Y(RuC2)4
_symmetry_space_group_name_H-M   'P 1'
_cell_length_a   5.11297900
_cell_length_b   6.45952645
_cell_length_c   9.79245513
_cell_angle_alpha   89.99374116
_cell_angle_beta   90.00000000
_cell_angle_gamma   90.00000000
_symmetry_Int_Tables_number   1
_chemical_formula_structural   Dy7Y(RuC2)4
_chemical_formula_sum   'Dy7 Y1 Ru4 C8'
_cell_volume   323.41955649
_cell_formula_units_Z   1
loop_
 _symmetry_equiv_pos_site_id
 _symmetry_equiv_pos_as_xyz
  1  'x, y, z'
loop_
 _atom_site_type_symbol
 _atom_site_label
 _atom_site_symmetry_multiplicity
 _atom_site_fract_x
 _atom_site_fract_y
 _atom_site_fract_z
 _atom_site_occupancy
  Dy  Dy0  1  0.750000  0.821154  0.053995  1
  Dy  Dy1  1  0.250000  0.678934  0.554312  1
  Dy  Dy2  1  0.750000  0.321268  0.445846  1
  Dy  Dy3  1  0.250000  0.178508  0.945900  1
  Dy  Dy4  1  0.750000  0.472910  0.783128  1
  Dy  Dy5  1  0.250000  0.026985  0.283187  1
  Dy  Dy6  1  0.750000  0.972966  0.716817  1
  Y  Y7  1  0.250000  0.527632  0.216774  1
  Ru  Ru8  1  0.750000  0.279610  0.134794  1
  Ru  Ru9  1  0.250000  0.220088  0.634918  1
  Ru  Ru10  1  0.750000  0.779942  0.365099  1
  Ru  Ru11  1  0.250000  0.720048  0.865077  1
  C  C12  1  0.750000  0.174514  0.947082  1
  C  C13  1  0.250000  0.826000  0.052711  1
  C  C14  1  0.750000  0.674515  0.552921  1
  C  C15  1  0.250000  0.325087  0.447360  1
  C  C16  1  0.750000  0.043482  0.257148  1
  C  C17  1  0.250000  0.456426  0.757187  1
  C  C18  1  0.750000  0.543395  0.242880  1
  C  C19  1  0.250000  0.956539  0.742865  1
