# generated using pymatgen
data_Tb2Dy10Tc3Ru
_symmetry_space_group_name_H-M   'P 1'
_cell_length_a   6.28702012
_cell_length_b   7.40284232
_cell_length_c   9.19656500
_cell_angle_alpha   90.00000000
_cell_angle_beta   90.00000000
_cell_angle_gamma   89.94370384
_symmetry_Int_Tables_number   1
_chemical_formula_structural   Tb2Dy10Tc3Ru
_chemical_formula_sum   'Tb2 Dy10 Tc3 Ru1'
_cell_volume   428.02465292
_cell_formula_units_Z   1
loop_
 _symmetry_equiv_pos_site_id
 _symmetry_equiv_pos_as_xyz
  1  'x, y, z'
loop_
 _atom_site_type_symbol
 _atom_site_label
 _atom_site_symmetry_multiplicity
 _atom_site_fract_x
 _atom_site_fract_y
 _atom_site_fract_z
 _atom_site_occupancy
  Tb  Tb0  1  0.874183  0.542174  0.250000  1
  Tb  Tb1  1  0.130961  0.457185  0.750000  1
  Dy  Dy2  1  0.335090  0.676668  0.063614  1
  Dy  Dy3  1  0.163057  0.175467  0.437486  1
  Dy  Dy4  1  0.662478  0.324097  0.562657  1
  Dy  Dy5  1  0.836145  0.824451  0.937555  1
  Dy  Dy6  1  0.662478  0.324097  0.937343  1
  Dy  Dy7  1  0.836145  0.824451  0.562445  1
  Dy  Dy8  1  0.335090  0.676668  0.436386  1
  Dy  Dy9  1  0.163057  0.175467  0.062514  1
  Dy  Dy10  1  0.625132  0.040824  0.250000  1
  Dy  Dy11  1  0.373299  0.955831  0.750000  1
  Tc  Tc12  1  0.038617  0.886205  0.250000  1
  Tc  Tc13  1  0.462692  0.388107  0.250000  1
  Tc  Tc14  1  0.962385  0.113941  0.750000  1
  Ru  Ru15  1  0.539193  0.614367  0.750000  1
