# generated using pymatgen
data_Te(PtCl6)2
_symmetry_space_group_name_H-M   'P 1'
_cell_length_a   11.24759900
_cell_length_b   8.65679008
_cell_length_c   10.28540410
_cell_angle_alpha   89.03204250
_cell_angle_beta   90.00000000
_cell_angle_gamma   90.00000000
_symmetry_Int_Tables_number   1
_chemical_formula_structural   Te(PtCl6)2
_chemical_formula_sum   'Te2 Pt4 Cl24'
_cell_volume   1001.32737964
_cell_formula_units_Z   2
loop_
 _symmetry_equiv_pos_site_id
 _symmetry_equiv_pos_as_xyz
  1  'x, y, z'
loop_
 _atom_site_type_symbol
 _atom_site_label
 _atom_site_symmetry_multiplicity
 _atom_site_fract_x
 _atom_site_fract_y
 _atom_site_fract_z
 _atom_site_occupancy
  Te  Te0  1  0.250000  0.836271  0.919092  1
  Te  Te1  1  0.750000  0.163729  0.080908  1
  Pt  Pt2  1  0.250000  0.107141  0.640417  1
  Pt  Pt3  1  0.750000  0.668149  0.603349  1
  Pt  Pt4  1  0.750000  0.892859  0.359583  1
  Pt  Pt5  1  0.250000  0.331851  0.396651  1
  Cl  Cl6  1  0.895213  0.661438  0.760463  1
  Cl  Cl7  1  0.593896  0.171363  0.928060  1
  Cl  Cl8  1  0.250000  0.596524  0.406746  1
  Cl  Cl9  1  0.104787  0.338562  0.239537  1
  Cl  Cl10  1  0.103422  0.924019  0.687707  1
  Cl  Cl11  1  0.750000  0.403476  0.593254  1
  Cl  Cl12  1  0.390527  0.301581  0.574240  1
  Cl  Cl13  1  0.093896  0.828637  0.071940  1
  Cl  Cl14  1  0.406104  0.828637  0.071940  1
  Cl  Cl15  1  0.250000  0.570847  0.876847  1
  Cl  Cl16  1  0.250000  0.181858  0.856848  1
  Cl  Cl17  1  0.890527  0.698419  0.425760  1
  Cl  Cl18  1  0.395213  0.338562  0.239537  1
  Cl  Cl19  1  0.750000  0.429153  0.123153  1
  Cl  Cl20  1  0.396578  0.924019  0.687707  1
  Cl  Cl21  1  0.109473  0.301581  0.574240  1
  Cl  Cl22  1  0.750000  0.818142  0.143152  1
  Cl  Cl23  1  0.250000  0.051127  0.414340  1
  Cl  Cl24  1  0.603422  0.075981  0.312293  1
  Cl  Cl25  1  0.906104  0.171363  0.928060  1
  Cl  Cl26  1  0.750000  0.948873  0.585660  1
  Cl  Cl27  1  0.609473  0.698419  0.425760  1
  Cl  Cl28  1  0.604787  0.661438  0.760463  1
  Cl  Cl29  1  0.896578  0.075981  0.312293  1
