# generated using pymatgen
data_Ba6Gd2WO12
_symmetry_space_group_name_H-M   'P 1'
_cell_length_a   9.54481847
_cell_length_b   9.54481870
_cell_length_c   7.59060300
_cell_angle_alpha   67.92792991
_cell_angle_beta   67.92792936
_cell_angle_gamma   36.87997470
_symmetry_Int_Tables_number   1
_chemical_formula_structural   Ba6Gd2WO12
_chemical_formula_sum   'Ba6 Gd2 W1 O12'
_cell_volume   381.06872674
_cell_formula_units_Z   1
loop_
 _symmetry_equiv_pos_site_id
 _symmetry_equiv_pos_as_xyz
  1  'x, y, z'
loop_
 _atom_site_type_symbol
 _atom_site_label
 _atom_site_symmetry_multiplicity
 _atom_site_fract_x
 _atom_site_fract_y
 _atom_site_fract_z
 _atom_site_occupancy
  Ba  Ba0  1  0.875699  0.875699  0.710387  1
  Ba  Ba1  1  0.220642  0.220642  0.705249  1
  Ba  Ba2  1  0.549021  0.549021  0.701146  1
  Ba  Ba3  1  0.450979  0.450979  0.298854  1
  Ba  Ba4  1  0.779358  0.779358  0.294751  1
  Ba  Ba5  1  0.124301  0.124301  0.289613  1
  Gd  Gd6  1  0.664058  0.664058  0.997988  1
  Gd  Gd7  1  0.335942  0.335942  0.002012  1
  W  W8  1  0.000000  0.000000  0.000000  1
  O  O9  1  0.952414  0.952414  0.286722  1
  O  O10  1  0.279999  0.279999  0.334549  1
  O  O11  1  0.606801  0.606801  0.335468  1
  O  O12  1  0.393199  0.393199  0.664532  1
  O  O13  1  0.720001  0.720001  0.665451  1
  O  O14  1  0.047586  0.047586  0.713278  1
  O  O15  1  0.500000  0.000000  0.000000  1
  O  O16  1  0.848225  0.302220  0.001861  1
  O  O17  1  0.151775  0.697780  0.998139  1
  O  O18  1  0.000000  0.500000  0.000000  1
  O  O19  1  0.302220  0.848225  0.001861  1
  O  O20  1  0.697780  0.151775  0.998139  1
