# generated using pymatgen
data_Ta4BeAl4V3
_symmetry_space_group_name_H-M   'P 1'
_cell_length_a   4.96485403
_cell_length_b   4.96564784
_cell_length_c   8.35143200
_cell_angle_alpha   90.00000000
_cell_angle_beta   90.00000000
_cell_angle_gamma   61.26782996
_symmetry_Int_Tables_number   1
_chemical_formula_structural   Ta4BeAl4V3
_chemical_formula_sum   'Ta4 Be1 Al4 V3'
_cell_volume   180.54344650
_cell_formula_units_Z   1
loop_
 _symmetry_equiv_pos_site_id
 _symmetry_equiv_pos_as_xyz
  1  'x, y, z'
loop_
 _atom_site_type_symbol
 _atom_site_label
 _atom_site_symmetry_multiplicity
 _atom_site_fract_x
 _atom_site_fract_y
 _atom_site_fract_z
 _atom_site_occupancy
  Ta  Ta0  1  0.334408  0.334366  0.560736  1
  Ta  Ta1  1  0.664847  0.664851  0.439538  1
  Ta  Ta2  1  0.664847  0.664851  0.060462  1
  Ta  Ta3  1  0.334408  0.334366  0.939264  1
  Be  Be4  1  0.834073  0.834059  0.750000  1
  Al  Al5  1  0.992758  0.992866  0.501403  1
  Al  Al6  1  0.992758  0.992866  0.998597  1
  Al  Al7  1  0.836280  0.351882  0.750000  1
  Al  Al8  1  0.351895  0.836268  0.750000  1
  V  V9  1  0.171562  0.651355  0.250000  1
  V  V10  1  0.651401  0.171513  0.250000  1
  V  V11  1  0.170765  0.170757  0.250000  1
