# generated using pymatgen
data_Pr2C2F
_symmetry_space_group_name_H-M   'P 1'
_cell_length_a   7.16005056
_cell_length_b   7.16004995
_cell_length_c   6.66161619
_cell_angle_alpha   107.40826636
_cell_angle_beta   107.40826572
_cell_angle_gamma   35.46175494
_symmetry_Int_Tables_number   1
_chemical_formula_structural   Pr2C2F
_chemical_formula_sum   'Pr4 C4 F2'
_cell_volume   188.10652136
_cell_formula_units_Z   2
loop_
 _symmetry_equiv_pos_site_id
 _symmetry_equiv_pos_as_xyz
  1  'x, y, z'
loop_
 _atom_site_type_symbol
 _atom_site_label
 _atom_site_symmetry_multiplicity
 _atom_site_fract_x
 _atom_site_fract_y
 _atom_site_fract_z
 _atom_site_occupancy
  Pr  Pr0  1  0.820337  0.463480  0.111790  1
  Pr  Pr1  1  0.536520  0.179663  0.388209  1
  Pr  Pr2  1  0.463480  0.820337  0.611790  1
  Pr  Pr3  1  0.179663  0.536520  0.888209  1
  C  C4  1  0.348638  0.094334  0.014054  1
  C  C5  1  0.905666  0.651363  0.485945  1
  C  C6  1  0.094334  0.348637  0.514056  1
  C  C7  1  0.651363  0.905666  0.985945  1
  F  F8  1  0.433459  0.566542  0.250000  1
  F  F9  1  0.566542  0.433459  0.749999  1
