# generated using pymatgen
data_Pa4Mn6Ge6Os
_symmetry_space_group_name_H-M   'P 1'
_cell_length_a   7.11430393
_cell_length_b   7.11430390
_cell_length_c   7.11430403
_cell_angle_alpha   109.32207734
_cell_angle_beta   109.54584981
_cell_angle_gamma   109.54583864
_symmetry_Int_Tables_number   1
_chemical_formula_structural   Pa4Mn6Ge6Os
_chemical_formula_sum   'Pa4 Mn6 Ge6 Os1'
_cell_volume   277.18718366
_cell_formula_units_Z   1
loop_
 _symmetry_equiv_pos_site_id
 _symmetry_equiv_pos_as_xyz
  1  'x, y, z'
loop_
 _atom_site_type_symbol
 _atom_site_label
 _atom_site_symmetry_multiplicity
 _atom_site_fract_x
 _atom_site_fract_y
 _atom_site_fract_z
 _atom_site_occupancy
  Pa  Pa0  1  0.004475  0.002237  0.502237  1
  Pa  Pa1  1  0.995525  0.497763  0.997763  1
  Pa  Pa2  1  0.500000  0.002237  0.997763  1
  Pa  Pa3  1  0.500000  0.497763  0.502237  1
  Mn  Mn4  1  0.749932  0.250390  0.500458  1
  Mn  Mn5  1  0.749932  0.499542  0.249474  1
  Mn  Mn6  1  0.500000  0.250000  0.750000  1
  Mn  Mn7  1  0.250068  0.499542  0.749610  1
  Mn  Mn8  1  0.250068  0.750526  0.500458  1
  Mn  Mn9  1  0.000000  0.000000  0.000000  1
  Ge  Ge10  1  0.686551  0.683597  0.997045  1
  Ge  Ge11  1  0.313449  0.002955  0.316403  1
  Ge  Ge12  1  0.000000  0.318323  0.318323  1
  Ge  Ge13  1  0.313449  0.310494  0.997045  1
  Ge  Ge14  1  0.686551  0.002955  0.689506  1
  Ge  Ge15  1  0.000000  0.681677  0.681677  1
  Os  Os16  1  0.500000  0.750000  0.250000  1
