# generated using pymatgen
data_Tb4Er8InCo5
_symmetry_space_group_name_H-M   'P 1'
_cell_length_a   8.25120805
_cell_length_b   8.25120730
_cell_length_c   8.25120784
_cell_angle_alpha   110.90688110
_cell_angle_beta   110.61551862
_cell_angle_gamma   106.92110556
_symmetry_Int_Tables_number   1
_chemical_formula_structural   Tb4Er8InCo5
_chemical_formula_sum   'Tb4 Er8 In1 Co5'
_cell_volume   431.80297340
_cell_formula_units_Z   1
loop_
 _symmetry_equiv_pos_site_id
 _symmetry_equiv_pos_as_xyz
  1  'x, y, z'
loop_
 _atom_site_type_symbol
 _atom_site_label
 _atom_site_symmetry_multiplicity
 _atom_site_fract_x
 _atom_site_fract_y
 _atom_site_fract_z
 _atom_site_occupancy
  Tb  Tb0  1  0.289356  0.186360  0.475716  1
  Tb  Tb1  1  0.710644  0.813640  0.524284  1
  Tb  Tb2  1  0.289356  0.813640  0.102995  1
  Tb  Tb3  1  0.710644  0.186360  0.897005  1
  Er  Er4  1  0.620776  0.314727  0.306050  1
  Er  Er5  1  0.379224  0.685273  0.693950  1
  Er  Er6  1  0.008677  0.314727  0.693950  1
  Er  Er7  1  0.991323  0.685273  0.306050  1
  Er  Er8  1  0.211423  0.403187  0.191763  1
  Er  Er9  1  0.788577  0.596813  0.808237  1
  Er  Er10  1  0.211423  0.019660  0.808237  1
  Er  Er11  1  0.788577  0.980340  0.191763  1
  In  In12  1  0.500000  0.500000  0.000000  1
  Co  Co13  1  0.000000  0.377969  0.377969  1
  Co  Co14  1  0.000000  0.622031  0.622031  1
  Co  Co15  1  0.387112  0.887112  0.500000  1
  Co  Co16  1  0.612888  0.112888  0.500000  1
  Co  Co17  1  0.000000  0.000000  0.000000  1
