# generated using pymatgen
data_Lu12Th8Si15P
_symmetry_space_group_name_H-M   'P 1'
_cell_length_a   7.53165966
_cell_length_b   7.65343604
_cell_length_c   14.48341200
_cell_angle_alpha   90.01689654
_cell_angle_beta   89.75006817
_cell_angle_gamma   89.97538418
_symmetry_Int_Tables_number   1
_chemical_formula_structural   Lu12Th8Si15P
_chemical_formula_sum   'Lu12 Th8 Si15 P1'
_cell_volume   834.86035436
_cell_formula_units_Z   1
loop_
 _symmetry_equiv_pos_site_id
 _symmetry_equiv_pos_as_xyz
  1  'x, y, z'
loop_
 _atom_site_type_symbol
 _atom_site_label
 _atom_site_symmetry_multiplicity
 _atom_site_fract_x
 _atom_site_fract_y
 _atom_site_fract_z
 _atom_site_occupancy
  Lu  Lu0  1  0.186025  0.994395  0.750009  1
  Lu  Lu1  1  0.814639  0.004328  0.250857  1
  Lu  Lu2  1  0.313327  0.497068  0.250422  1
  Lu  Lu3  1  0.685924  0.503036  0.749152  1
  Lu  Lu4  1  0.356776  0.329981  0.622498  1
  Lu  Lu5  1  0.641717  0.667163  0.376854  1
  Lu  Lu6  1  0.143312  0.837890  0.380893  1
  Lu  Lu7  1  0.644248  0.669564  0.123503  1
  Lu  Lu8  1  0.860270  0.165632  0.620648  1
  Lu  Lu9  1  0.355511  0.330037  0.876240  1
  Lu  Lu10  1  0.855306  0.168193  0.876269  1
  Lu  Lu11  1  0.144313  0.830709  0.123064  1
  Th  Th12  1  0.008293  0.681774  0.596085  1
  Th  Th13  1  0.991238  0.319456  0.403184  1
  Th  Th14  1  0.490687  0.184536  0.403301  1
  Th  Th15  1  0.993859  0.319974  0.097445  1
  Th  Th16  1  0.508423  0.818402  0.596426  1
  Th  Th17  1  0.006111  0.679927  0.902263  1
  Th  Th18  1  0.506507  0.818492  0.902690  1
  Th  Th19  1  0.493789  0.180238  0.097064  1
  Si  Si20  1  0.059496  0.384239  0.748412  1
  Si  Si21  1  0.940817  0.616082  0.251549  1
  Si  Si22  1  0.439072  0.886631  0.250904  1
  Si  Si23  1  0.560437  0.114032  0.748605  1
  Si  Si24  1  0.306764  0.627056  0.749333  1
  Si  Si25  1  0.693728  0.371902  0.250090  1
  Si  Si26  1  0.193703  0.127791  0.250327  1
  Si  Si27  1  0.806710  0.871611  0.749096  1
  Si  Si28  1  0.796993  0.961556  0.456317  1
  Si  Si29  1  0.302164  0.540817  0.458291  1
  Si  Si30  1  0.807155  0.961176  0.041852  1
  Si  Si31  1  0.696023  0.460773  0.542840  1
  Si  Si32  1  0.193045  0.037691  0.957365  1
  Si  Si33  1  0.693305  0.460665  0.957953  1
  Si  Si34  1  0.307284  0.538155  0.041986  1
  P  P35  1  0.203030  0.039025  0.546214  1
