# generated using pymatgen
data_CaLaPr5OsBr12
_symmetry_space_group_name_H-M   'P 1'
_cell_length_a   9.64689408
_cell_length_b   9.79843798
_cell_length_c   9.65899657
_cell_angle_alpha   106.98443542
_cell_angle_beta   106.83814430
_cell_angle_gamma   107.49107669
_symmetry_Int_Tables_number   1
_chemical_formula_structural   CaLaPr5OsBr12
_chemical_formula_sum   'Ca1 La1 Pr5 Os1 Br12'
_cell_volume   758.16488698
_cell_formula_units_Z   1
loop_
 _symmetry_equiv_pos_site_id
 _symmetry_equiv_pos_as_xyz
  1  'x, y, z'
loop_
 _atom_site_type_symbol
 _atom_site_label
 _atom_site_symmetry_multiplicity
 _atom_site_fract_x
 _atom_site_fract_y
 _atom_site_fract_z
 _atom_site_occupancy
  Ca  Ca0  1  0.499974  0.500201  0.500343  1
  La  La1  1  0.311866  0.107414  0.025095  1
  Pr  Pr2  1  0.026051  0.321235  0.111511  1
  Pr  Pr3  1  0.106718  0.024415  0.310924  1
  Pr  Pr4  1  0.892503  0.975396  0.688757  1
  Pr  Pr5  1  0.973975  0.678644  0.888610  1
  Pr  Pr6  1  0.689227  0.892668  0.974562  1
  Os  Os7  1  0.002925  0.000972  0.999998  1
  Br  Br8  1  0.681938  0.214506  0.067108  1
  Br  Br9  1  0.378096  0.460381  0.170351  1
  Br  Br10  1  0.067349  0.683112  0.215274  1
  Br  Br11  1  0.782610  0.932590  0.317210  1
  Br  Br12  1  0.459489  0.171274  0.381013  1
  Br  Br13  1  0.168361  0.376989  0.458952  1
  Br  Br14  1  0.831347  0.622984  0.541013  1
  Br  Br15  1  0.540605  0.829145  0.621769  1
  Br  Br16  1  0.215202  0.066553  0.679594  1
  Br  Br17  1  0.932510  0.316778  0.784782  1
  Br  Br18  1  0.621564  0.542081  0.831088  1
  Br  Br19  1  0.317691  0.782663  0.932050  1
