# generated using pymatgen
data_Tb6Lu4Sn5Sb
_symmetry_space_group_name_H-M   'P 1'
_cell_length_a   8.93133300
_cell_length_b   8.93133278
_cell_length_c   6.44203300
_cell_angle_alpha   90.00000000
_cell_angle_beta   90.00000000
_cell_angle_gamma   119.99718475
_symmetry_Int_Tables_number   1
_chemical_formula_structural   Tb6Lu4Sn5Sb
_chemical_formula_sum   'Tb6 Lu4 Sn5 Sb1'
_cell_volume   445.03938853
_cell_formula_units_Z   1
loop_
 _symmetry_equiv_pos_site_id
 _symmetry_equiv_pos_as_xyz
  1  'x, y, z'
loop_
 _atom_site_type_symbol
 _atom_site_label
 _atom_site_symmetry_multiplicity
 _atom_site_fract_x
 _atom_site_fract_y
 _atom_site_fract_z
 _atom_site_occupancy
  Tb  Tb0  1  0.760128  0.760128  0.750000  1
  Tb  Tb1  1  0.239967  0.999189  0.750000  1
  Tb  Tb2  1  0.999189  0.239967  0.750000  1
  Tb  Tb3  1  0.240415  0.240415  0.250000  1
  Tb  Tb4  1  0.759838  0.000281  0.250000  1
  Tb  Tb5  1  0.000281  0.759838  0.250000  1
  Lu  Lu6  1  0.666939  0.333183  0.000108  1
  Lu  Lu7  1  0.333183  0.666939  0.000108  1
  Lu  Lu8  1  0.333183  0.666939  0.499892  1
  Lu  Lu9  1  0.666939  0.333183  0.499892  1
  Sn  Sn10  1  0.602728  0.999791  0.750000  1
  Sn  Sn11  1  0.999791  0.602728  0.750000  1
  Sn  Sn12  1  0.603327  0.603327  0.250000  1
  Sn  Sn13  1  0.397179  0.000307  0.250000  1
  Sn  Sn14  1  0.000307  0.397179  0.250000  1
  Sb  Sb15  1  0.396610  0.396610  0.750000  1
