# generated using pymatgen
data_Ti6TeS7
_symmetry_space_group_name_H-M   'P 1'
_cell_length_a   9.52591400
_cell_length_b   9.64812504
_cell_length_c   3.39712000
_cell_angle_alpha   90.00000000
_cell_angle_beta   90.00000000
_cell_angle_gamma   120.00422060
_symmetry_Int_Tables_number   1
_chemical_formula_structural   Ti6TeS7
_chemical_formula_sum   'Ti6 Te1 S7'
_cell_volume   270.37879452
_cell_formula_units_Z   1
loop_
 _symmetry_equiv_pos_site_id
 _symmetry_equiv_pos_as_xyz
  1  'x, y, z'
loop_
 _atom_site_type_symbol
 _atom_site_label
 _atom_site_symmetry_multiplicity
 _atom_site_fract_x
 _atom_site_fract_y
 _atom_site_fract_z
 _atom_site_occupancy
  Ti  Ti0  1  0.648234  0.150544  0.249999  1
  Ti  Ti1  1  0.475705  0.348042  0.249999  1
  Ti  Ti2  1  0.866939  0.517896  0.249999  1
  Ti  Ti3  1  0.134031  0.492115  0.750001  1
  Ti  Ti4  1  0.499477  0.625025  0.750001  1
  Ti  Ti5  1  0.359177  0.869439  0.750001  1
  Te  Te6  1  0.685835  0.954071  0.750001  1
  S  S7  1  0.356234  0.047725  0.249999  1
  S  S8  1  0.950168  0.318600  0.249999  1
  S  S9  1  0.681859  0.629682  0.249999  1
  S  S10  1  0.335213  0.667986  0.249999  1
  S  S11  1  0.662687  0.338576  0.750001  1
  S  S12  1  0.292431  0.345501  0.750001  1
  S  S13  1  0.052011  0.694798  0.750001  1
