# generated using pymatgen
data_MnZn22CoNi
_symmetry_space_group_name_H-M   'P 1'
_cell_length_a   7.72476146
_cell_length_b   7.72476374
_cell_length_c   7.72357160
_cell_angle_alpha   71.95528564
_cell_angle_beta   71.95528797
_cell_angle_gamma   57.69771799
_symmetry_Int_Tables_number   1
_chemical_formula_structural   MnZn22CoNi
_chemical_formula_sum   'Mn1 Zn22 Co1 Ni1'
_cell_volume   364.38133861
_cell_formula_units_Z   1
loop_
 _symmetry_equiv_pos_site_id
 _symmetry_equiv_pos_as_xyz
  1  'x, y, z'
loop_
 _atom_site_type_symbol
 _atom_site_label
 _atom_site_symmetry_multiplicity
 _atom_site_fract_x
 _atom_site_fract_y
 _atom_site_fract_z
 _atom_site_occupancy
  Mn  Mn0  1  0.999971  0.999971  0.500222  1
  Zn  Zn1  1  0.346561  0.740105  0.309702  1
  Zn  Zn2  1  0.654426  0.259763  0.689367  1
  Zn  Zn3  1  0.259763  0.654426  0.689367  1
  Zn  Zn4  1  0.740105  0.346561  0.309702  1
  Zn  Zn5  1  0.675853  0.324826  0.000501  1
  Zn  Zn6  1  0.324826  0.675853  0.000501  1
  Zn  Zn7  1  0.829084  0.829084  0.785172  1
  Zn  Zn8  1  0.170147  0.170147  0.215459  1
  Zn  Zn9  1  0.977991  0.977991  0.175703  1
  Zn  Zn10  1  0.021892  0.021892  0.824611  1
  Zn  Zn11  1  0.350987  0.350987  0.273160  1
  Zn  Zn12  1  0.649222  0.649222  0.727376  1
  Zn  Zn13  1  0.685483  0.685483  0.374874  1
  Zn  Zn14  1  0.314143  0.314143  0.624448  1
  Zn  Zn15  1  0.661307  0.024162  0.464162  1
  Zn  Zn16  1  0.338134  0.976543  0.535985  1
  Zn  Zn17  1  0.976543  0.338134  0.535985  1
  Zn  Zn18  1  0.024162  0.661307  0.464162  1
  Zn  Zn19  1  0.616376  0.997919  0.098045  1
  Zn  Zn20  1  0.384193  0.000834  0.902071  1
  Zn  Zn21  1  0.000834  0.384193  0.902071  1
  Zn  Zn22  1  0.997919  0.616376  0.098045  1
  Co  Co23  1  0.657597  0.657597  0.053474  1
  Ni  Ni24  1  0.342480  0.342480  0.945837  1
