# generated using pymatgen
data_Sc12ReTc3
_symmetry_space_group_name_H-M   'P 1'
_cell_length_a   5.76371408
_cell_length_b   7.08900086
_cell_length_c   8.48152700
_cell_angle_alpha   90.00000000
_cell_angle_beta   90.00000000
_cell_angle_gamma   89.70081655
_symmetry_Int_Tables_number   1
_chemical_formula_structural   Sc12ReTc3
_chemical_formula_sum   'Sc12 Re1 Tc3'
_cell_volume   346.54176769
_cell_formula_units_Z   1
loop_
 _symmetry_equiv_pos_site_id
 _symmetry_equiv_pos_as_xyz
  1  'x, y, z'
loop_
 _atom_site_type_symbol
 _atom_site_label
 _atom_site_symmetry_multiplicity
 _atom_site_fract_x
 _atom_site_fract_y
 _atom_site_fract_z
 _atom_site_occupancy
  Sc  Sc0  1  0.353069  0.675913  0.060851  1
  Sc  Sc1  1  0.147868  0.177510  0.437665  1
  Sc  Sc2  1  0.646141  0.318874  0.561319  1
  Sc  Sc3  1  0.851163  0.827332  0.938354  1
  Sc  Sc4  1  0.646141  0.318874  0.938681  1
  Sc  Sc5  1  0.851163  0.827332  0.561646  1
  Sc  Sc6  1  0.353069  0.675913  0.439149  1
  Sc  Sc7  1  0.147868  0.177510  0.062335  1
  Sc  Sc8  1  0.876712  0.540300  0.250000  1
  Sc  Sc9  1  0.616350  0.035883  0.250000  1
  Sc  Sc10  1  0.121933  0.464473  0.750000  1
  Sc  Sc11  1  0.378709  0.960213  0.750000  1
  Re  Re12  1  0.557444  0.616833  0.750000  1
  Tc  Tc13  1  0.046514  0.880651  0.250000  1
  Tc  Tc14  1  0.450955  0.379980  0.250000  1
  Tc  Tc15  1  0.954902  0.122412  0.750000  1
