# generated using pymatgen
data_Hf3Al3Cu2Os
_symmetry_space_group_name_H-M   'P 1'
_cell_length_a   7.18243900
_cell_length_b   7.18243957
_cell_length_c   6.72429900
_cell_angle_alpha   90.00000000
_cell_angle_beta   90.00000000
_cell_angle_gamma   120.00000200
_symmetry_Int_Tables_number   1
_chemical_formula_structural   Hf3Al3Cu2Os
_chemical_formula_sum   'Hf6 Al6 Cu4 Os2'
_cell_volume   300.41496709
_cell_formula_units_Z   2
loop_
 _symmetry_equiv_pos_site_id
 _symmetry_equiv_pos_as_xyz
  1  'x, y, z'
loop_
 _atom_site_type_symbol
 _atom_site_label
 _atom_site_symmetry_multiplicity
 _atom_site_fract_x
 _atom_site_fract_y
 _atom_site_fract_z
 _atom_site_occupancy
  Hf  Hf0  1  0.610254  0.007266  0.750000  1
  Hf  Hf1  1  0.992734  0.602990  0.750000  1
  Hf  Hf2  1  0.397010  0.389746  0.750000  1
  Hf  Hf3  1  0.992028  0.602870  0.250000  1
  Hf  Hf4  1  0.610841  0.007972  0.250000  1
  Hf  Hf5  1  0.397130  0.389159  0.250000  1
  Al  Al6  1  0.734924  0.741274  0.999919  1
  Al  Al7  1  0.258726  0.993650  0.999919  1
  Al  Al8  1  0.006350  0.265076  0.999919  1
  Al  Al9  1  0.734924  0.741274  0.500081  1
  Al  Al10  1  0.258726  0.993650  0.500081  1
  Al  Al11  1  0.006350  0.265076  0.500081  1
  Cu  Cu12  1  0.000000  0.000000  0.750000  1
  Cu  Cu13  1  0.000000  0.000000  0.250000  1
  Cu  Cu14  1  0.333333  0.666667  0.498549  1
  Cu  Cu15  1  0.333333  0.666667  0.001452  1
  Os  Os16  1  0.666667  0.333333  0.999771  1
  Os  Os17  1  0.666667  0.333333  0.500229  1
