# generated using pymatgen
data_La7Tm13Si15Au
_symmetry_space_group_name_H-M   'P 1'
_cell_length_a   7.78414879
_cell_length_b   7.73584584
_cell_length_c   14.33981762
_cell_angle_alpha   90.02668270
_cell_angle_beta   89.72438039
_cell_angle_gamma   90.23012127
_symmetry_Int_Tables_number   1
_chemical_formula_structural   La7Tm13Si15Au
_chemical_formula_sum   'La7 Tm13 Si15 Au1'
_cell_volume   863.48339738
_cell_formula_units_Z   1
loop_
 _symmetry_equiv_pos_site_id
 _symmetry_equiv_pos_as_xyz
  1  'x, y, z'
loop_
 _atom_site_type_symbol
 _atom_site_label
 _atom_site_symmetry_multiplicity
 _atom_site_fract_x
 _atom_site_fract_y
 _atom_site_fract_z
 _atom_site_occupancy
  La  La0  1  0.008914  0.349866  0.540114  1
  La  La1  1  0.646287  0.992040  0.961420  1
  La  La2  1  0.144045  0.510681  0.791248  1
  La  La3  1  0.849319  0.486240  0.286405  1
  La  La4  1  0.506915  0.143324  0.205367  1
  La  La5  1  0.492056  0.856788  0.711157  1
  La  La6  1  0.359517  0.010409  0.459764  1
  Tm  Tm7  1  0.361533  0.492568  0.375522  1
  Tm  Tm8  1  0.851767  0.009527  0.368797  1
  Tm  Tm9  1  0.996208  0.138543  0.123283  1
  Tm  Tm10  1  0.011308  0.859971  0.627345  1
  Tm  Tm11  1  0.644630  0.511477  0.878353  1
  Tm  Tm12  1  0.495396  0.355912  0.625922  1
  Tm  Tm13  1  0.509059  0.640722  0.122328  1
  Tm  Tm14  1  0.137670  0.993332  0.877341  1
  Tm  Tm15  1  0.998577  0.636927  0.042125  1
  Tm  Tm16  1  0.680289  0.685893  0.500749  1
  Tm  Tm17  1  0.817589  0.182417  0.751002  1
  Tm  Tm18  1  0.174830  0.812748  0.249111  1
  Tm  Tm19  1  0.315328  0.322461  0.998797  1
  Si  Si20  1  0.941333  0.295529  0.939300  1
  Si  Si21  1  0.710424  0.060848  0.563494  1
  Si  Si22  1  0.209447  0.439811  0.185516  1
  Si  Si23  1  0.787790  0.561942  0.688318  1
  Si  Si24  1  0.438088  0.213336  0.814324  1
  Si  Si25  1  0.560467  0.787452  0.309759  1
  Si  Si26  1  0.286318  0.932586  0.062699  1
  Si  Si27  1  0.849710  0.798915  0.810735  1
  Si  Si28  1  0.148198  0.204905  0.308762  1
  Si  Si29  1  0.798105  0.846735  0.181977  1
  Si  Si30  1  0.299951  0.644544  0.564071  1
  Si  Si31  1  0.711960  0.356810  0.061176  1
  Si  Si32  1  0.649460  0.295655  0.440891  1
  Si  Si33  1  0.344015  0.701820  0.943111  1
  Si  Si34  1  0.204496  0.151360  0.693488  1
  Au  Au35  1  0.059000  0.715907  0.436232  1
