# generated using pymatgen
data_HoEr2Mg3Si2Ag
_symmetry_space_group_name_H-M   'P 1'
_cell_length_a   7.21155918
_cell_length_b   7.21155849
_cell_length_c   4.29537900
_cell_angle_alpha   90.00000000
_cell_angle_beta   90.00000000
_cell_angle_gamma   120.02545092
_symmetry_Int_Tables_number   1
_chemical_formula_structural   HoEr2Mg3Si2Ag
_chemical_formula_sum   'Ho1 Er2 Mg3 Si2 Ag1'
_cell_volume   193.41002741
_cell_formula_units_Z   1
loop_
 _symmetry_equiv_pos_site_id
 _symmetry_equiv_pos_as_xyz
  1  'x, y, z'
loop_
 _atom_site_type_symbol
 _atom_site_label
 _atom_site_symmetry_multiplicity
 _atom_site_fract_x
 _atom_site_fract_y
 _atom_site_fract_z
 _atom_site_occupancy
  Ho  Ho0  1  0.422049  0.422049  0.500000  1
  Er  Er1  1  0.578004  0.000093  0.500000  1
  Er  Er2  1  0.000093  0.578004  0.500000  1
  Mg  Mg3  1  0.751052  0.751052  0.000000  1
  Mg  Mg4  1  0.249070  0.999913  0.000000  1
  Mg  Mg5  1  0.999913  0.249070  0.000000  1
  Si  Si6  1  0.666876  0.333225  0.000000  1
  Si  Si7  1  0.333225  0.666876  0.000000  1
  Ag  Ag8  1  0.999718  0.999718  0.500000  1
