# generated using pymatgen
data_Y4Ga10(CoIr)3
_symmetry_space_group_name_H-M   'P 1'
_cell_length_a   5.58085525
_cell_length_b   8.50364096
_cell_length_c   8.46350352
_cell_angle_alpha   96.32588769
_cell_angle_beta   109.19600483
_cell_angle_gamma   109.12356750
_symmetry_Int_Tables_number   1
_chemical_formula_structural   Y4Ga10(CoIr)3
_chemical_formula_sum   'Y4 Ga10 Co3 Ir3'
_cell_volume   347.54079578
_cell_formula_units_Z   1
loop_
 _symmetry_equiv_pos_site_id
 _symmetry_equiv_pos_as_xyz
  1  'x, y, z'
loop_
 _atom_site_type_symbol
 _atom_site_label
 _atom_site_symmetry_multiplicity
 _atom_site_fract_x
 _atom_site_fract_y
 _atom_site_fract_z
 _atom_site_occupancy
  Y  Y0  1  0.775348  0.419819  0.130186  1
  Y  Y1  1  0.724021  0.869205  0.578757  1
  Y  Y2  1  0.228784  0.583029  0.875212  1
  Y  Y3  1  0.277784  0.134122  0.421197  1
  Ga  Ga4  1  0.826956  0.748512  0.906032  1
  Ga  Ga5  1  0.671762  0.092198  0.250856  1
  Ga  Ga6  1  0.172555  0.250406  0.094302  1
  Ga  Ga7  1  0.317032  0.898655  0.735472  1
  Ga  Ga8  1  0.746676  0.194968  0.801721  1
  Ga  Ga9  1  0.246634  0.803390  0.205226  1
  Ga  Ga10  1  0.760750  0.506717  0.501548  1
  Ga  Ga11  1  0.247605  0.507011  0.501540  1
  Ga  Ga12  1  0.761911  0.803524  0.204913  1
  Ga  Ga13  1  0.250030  0.194730  0.801988  1
  Co  Co14  1  0.088610  0.741538  0.436759  1
  Co  Co15  1  0.745149  0.997912  0.996912  1
  Co  Co16  1  0.249696  0.997509  0.997485  1
  Ir  Ir17  1  0.593019  0.441437  0.745264  1
  Ir  Ir18  1  0.907520  0.255010  0.559188  1
  Ir  Ir19  1  0.408158  0.560310  0.255442  1
