# generated using pymatgen
data_Ho2Ta4FeB4Ru9
_symmetry_space_group_name_H-M   'P 1'
_cell_length_a   9.47164645
_cell_length_b   9.47164622
_cell_length_c   3.09956800
_cell_angle_alpha   90.00000000
_cell_angle_beta   90.00000000
_cell_angle_gamma   90.23462087
_symmetry_Int_Tables_number   1
_chemical_formula_structural   Ho2Ta4FeB4Ru9
_chemical_formula_sum   'Ho2 Ta4 Fe1 B4 Ru9'
_cell_volume   278.06637433
_cell_formula_units_Z   1
loop_
 _symmetry_equiv_pos_site_id
 _symmetry_equiv_pos_as_xyz
  1  'x, y, z'
loop_
 _atom_site_type_symbol
 _atom_site_label
 _atom_site_symmetry_multiplicity
 _atom_site_fract_x
 _atom_site_fract_y
 _atom_site_fract_z
 _atom_site_occupancy
  Ho  Ho0  1  0.821905  0.678095  0.000000  1
  Ho  Ho1  1  0.178095  0.321905  0.000000  1
  Ta  Ta2  1  0.330234  0.830234  0.000000  1
  Ta  Ta3  1  0.669766  0.169766  0.000000  1
  Ta  Ta4  1  0.500000  0.500000  0.000000  1
  Ta  Ta5  1  0.000000  0.000000  0.000000  1
  Fe  Fe6  1  0.500000  0.000000  0.500000  1
  B  B7  1  0.610929  0.889071  0.000000  1
  B  B8  1  0.389071  0.110929  0.000000  1
  B  B9  1  0.121917  0.621917  0.000000  1
  B  B10  1  0.878083  0.378083  0.000000  1
  Ru  Ru11  1  0.556120  0.729412  0.500000  1
  Ru  Ru12  1  0.443880  0.270588  0.500000  1
  Ru  Ru13  1  0.080940  0.786285  0.500000  1
  Ru  Ru14  1  0.919060  0.213715  0.500000  1
  Ru  Ru15  1  0.286285  0.580940  0.500000  1
  Ru  Ru16  1  0.713715  0.419060  0.500000  1
  Ru  Ru17  1  0.229412  0.056120  0.500000  1
  Ru  Ru18  1  0.770588  0.943880  0.500000  1
  Ru  Ru19  1  0.000000  0.500000  0.500000  1
