# generated using pymatgen
data_CrGa2RhSe6
_symmetry_space_group_name_H-M   'P 1'
_cell_length_a   3.80969000
_cell_length_b   10.35041499
_cell_length_c   12.59002434
_cell_angle_alpha   91.28643042
_cell_angle_beta   90.00000000
_cell_angle_gamma   90.00000000
_symmetry_Int_Tables_number   1
_chemical_formula_structural   CrGa2RhSe6
_chemical_formula_sum   'Cr2 Ga4 Rh2 Se12'
_cell_volume   496.32310699
_cell_formula_units_Z   2
loop_
 _symmetry_equiv_pos_site_id
 _symmetry_equiv_pos_as_xyz
  1  'x, y, z'
loop_
 _atom_site_type_symbol
 _atom_site_label
 _atom_site_symmetry_multiplicity
 _atom_site_fract_x
 _atom_site_fract_y
 _atom_site_fract_z
 _atom_site_occupancy
  Cr  Cr0  1  0.250000  0.903422  0.889399  1
  Cr  Cr1  1  0.750000  0.096578  0.110601  1
  Ga  Ga2  1  0.750000  0.264524  0.796741  1
  Ga  Ga3  1  0.250000  0.735476  0.203259  1
  Ga  Ga4  1  0.750000  0.764792  0.705214  1
  Ga  Ga5  1  0.250000  0.235208  0.294786  1
  Rh  Rh6  1  0.250000  0.408944  0.608649  1
  Rh  Rh7  1  0.750000  0.591056  0.391351  1
  Se  Se8  1  0.250000  0.929874  0.093230  1
  Se  Se9  1  0.750000  0.070126  0.906770  1
  Se  Se10  1  0.250000  0.433686  0.409081  1
  Se  Se11  1  0.750000  0.566314  0.590919  1
  Se  Se12  1  0.750000  0.090087  0.316986  1
  Se  Se13  1  0.250000  0.909913  0.683014  1
  Se  Se14  1  0.750000  0.588819  0.187884  1
  Se  Se15  1  0.250000  0.411181  0.812116  1
  Se  Se16  1  0.250000  0.262302  0.104720  1
  Se  Se17  1  0.750000  0.737698  0.895280  1
  Se  Se18  1  0.250000  0.754355  0.395451  1
  Se  Se19  1  0.750000  0.245645  0.604549  1
