# generated using pymatgen
data_EuPa5Br24
_symmetry_space_group_name_H-M   'P 1'
_cell_length_a   9.09973000
_cell_length_b   9.13730171
_cell_length_c   19.28600600
_cell_angle_alpha   76.49445870
_cell_angle_beta   90.00000000
_cell_angle_gamma   90.00000000
_symmetry_Int_Tables_number   1
_chemical_formula_structural   EuPa5Br24
_chemical_formula_sum   'Eu1 Pa5 Br24'
_cell_volume   1559.23006140
_cell_formula_units_Z   1
loop_
 _symmetry_equiv_pos_site_id
 _symmetry_equiv_pos_as_xyz
  1  'x, y, z'
loop_
 _atom_site_type_symbol
 _atom_site_label
 _atom_site_symmetry_multiplicity
 _atom_site_fract_x
 _atom_site_fract_y
 _atom_site_fract_z
 _atom_site_occupancy
  Eu  Eu0  1  0.398682  0.000000  0.250000  1
  Pa  Pa1  1  0.879983  0.832183  0.581889  1
  Pa  Pa2  1  0.120356  0.161755  0.413857  1
  Pa  Pa3  1  0.632515  0.000000  0.750000  1
  Pa  Pa4  1  0.879983  0.167817  0.918111  1
  Pa  Pa5  1  0.120356  0.838245  0.086143  1
  Br  Br6  1  0.092242  0.373864  0.906485  1
  Br  Br7  1  0.584388  0.760845  0.263549  1
  Br  Br8  1  0.102998  0.067871  0.568823  1
  Br  Br9  1  0.330000  0.352424  0.428343  1
  Br  Br10  1  0.120320  0.788283  0.230416  1
  Br  Br11  1  0.120320  0.211717  0.269584  1
  Br  Br12  1  0.102998  0.932129  0.931177  1
  Br  Br13  1  0.433614  0.219812  0.739351  1
  Br  Br14  1  0.913601  0.634406  0.086183  1
  Br  Br15  1  0.870275  0.211080  0.764155  1
  Br  Br16  1  0.433614  0.780188  0.760649  1
  Br  Br17  1  0.913601  0.365594  0.413817  1
  Br  Br18  1  0.584388  0.239155  0.236451  1
  Br  Br19  1  0.664637  0.065461  0.596598  1
  Br  Br20  1  0.323670  0.936998  0.413249  1
  Br  Br21  1  0.870275  0.788920  0.735845  1
  Br  Br22  1  0.092242  0.626136  0.593515  1
  Br  Br23  1  0.661389  0.356315  0.927993  1
  Br  Br24  1  0.323670  0.063002  0.086751  1
  Br  Br25  1  0.886927  0.063258  0.070755  1
  Br  Br26  1  0.661389  0.643685  0.572007  1
  Br  Br27  1  0.664637  0.934539  0.903402  1
  Br  Br28  1  0.330000  0.647576  0.071657  1
  Br  Br29  1  0.886927  0.936742  0.429245  1
