# generated using pymatgen
data_K8TiP4
_symmetry_space_group_name_H-M   'P 1'
_cell_length_a   10.65470321
_cell_length_b   10.65470315
_cell_length_c   10.65470400
_cell_angle_alpha   60.00000358
_cell_angle_beta   60.00000376
_cell_angle_gamma   60.00000232
_symmetry_Int_Tables_number   1
_chemical_formula_structural   K8TiP4
_chemical_formula_sum   'K16 Ti2 P8'
_cell_volume   855.28161025
_cell_formula_units_Z   2
loop_
 _symmetry_equiv_pos_site_id
 _symmetry_equiv_pos_as_xyz
  1  'x, y, z'
loop_
 _atom_site_type_symbol
 _atom_site_label
 _atom_site_symmetry_multiplicity
 _atom_site_fract_x
 _atom_site_fract_y
 _atom_site_fract_z
 _atom_site_occupancy
  K  K0  1  0.625000  0.625000  0.125000  1
  K  K1  1  0.625000  0.125000  0.625000  1
  K  K2  1  0.125000  0.625000  0.625000  1
  K  K3  1  0.625000  0.625000  0.625000  1
  K  K4  1  0.028937  0.471063  0.471063  1
  K  K5  1  0.778937  0.221063  0.221063  1
  K  K6  1  0.471063  0.028937  0.471063  1
  K  K7  1  0.471063  0.471063  0.028937  1
  K  K8  1  0.028937  0.028937  0.471063  1
  K  K9  1  0.028937  0.471063  0.028937  1
  K  K10  1  0.471063  0.028937  0.028937  1
  K  K11  1  0.778937  0.221063  0.778937  1
  K  K12  1  0.221063  0.778937  0.221063  1
  K  K13  1  0.221063  0.221063  0.778937  1
  K  K14  1  0.778937  0.778937  0.221063  1
  K  K15  1  0.221063  0.778937  0.778937  1
  Ti  Ti16  1  0.750000  0.750000  0.750000  1
  Ti  Ti17  1  0.500000  0.500000  0.500000  1
  P  P18  1  0.845343  0.845343  0.463972  1
  P  P19  1  0.845343  0.463972  0.845343  1
  P  P20  1  0.404657  0.404657  0.786028  1
  P  P21  1  0.404657  0.786028  0.404657  1
  P  P22  1  0.786028  0.404657  0.404657  1
  P  P23  1  0.845343  0.845343  0.845343  1
  P  P24  1  0.463972  0.845343  0.845343  1
  P  P25  1  0.404657  0.404657  0.404657  1
