# generated using pymatgen
data_Ca3C3Br2
_symmetry_space_group_name_H-M   'P 1'
_cell_length_a   7.27752262
_cell_length_b   7.27752254
_cell_length_c   11.76111300
_cell_angle_alpha   90.00000000
_cell_angle_beta   90.00000000
_cell_angle_gamma   148.56535032
_symmetry_Int_Tables_number   1
_chemical_formula_structural   Ca3C3Br2
_chemical_formula_sum   'Ca6 C6 Br4'
_cell_volume   324.85628922
_cell_formula_units_Z   2
loop_
 _symmetry_equiv_pos_site_id
 _symmetry_equiv_pos_as_xyz
  1  'x, y, z'
loop_
 _atom_site_type_symbol
 _atom_site_label
 _atom_site_symmetry_multiplicity
 _atom_site_fract_x
 _atom_site_fract_y
 _atom_site_fract_z
 _atom_site_occupancy
  Ca  Ca0  1  0.661969  0.338031  0.558967  1
  Ca  Ca1  1  0.338031  0.661969  0.441033  1
  Ca  Ca2  1  0.338031  0.661969  0.058967  1
  Ca  Ca3  1  0.661969  0.338031  0.941033  1
  Ca  Ca4  1  0.126544  0.873456  0.250000  1
  Ca  Ca5  1  0.873456  0.126544  0.750000  1
  C  C6  1  0.266813  0.733187  0.636690  1
  C  C7  1  0.733187  0.266813  0.363310  1
  C  C8  1  0.733187  0.266813  0.136690  1
  C  C9  1  0.266813  0.733187  0.863310  1
  C  C10  1  0.741663  0.258337  0.250000  1
  C  C11  1  0.258337  0.741663  0.750000  1
  Br  Br12  1  0.529853  0.470147  0.750000  1
  Br  Br13  1  0.470147  0.529853  0.250000  1
  Br  Br14  1  0.000000  0.000000  0.000000  1
  Br  Br15  1  0.000000  0.000000  0.500000  1
