# generated using pymatgen
data_Nd6Ga4IrPd12
_symmetry_space_group_name_H-M   'P 1'
_cell_length_a   8.38522156
_cell_length_b   8.38522180
_cell_length_c   8.38522200
_cell_angle_alpha   109.47121387
_cell_angle_beta   109.47121446
_cell_angle_gamma   109.47122964
_symmetry_Int_Tables_number   1
_chemical_formula_structural   Nd6Ga4IrPd12
_chemical_formula_sum   'Nd6 Ga4 Ir1 Pd12'
_cell_volume   453.85987815
_cell_formula_units_Z   1
loop_
 _symmetry_equiv_pos_site_id
 _symmetry_equiv_pos_as_xyz
  1  'x, y, z'
loop_
 _atom_site_type_symbol
 _atom_site_label
 _atom_site_symmetry_multiplicity
 _atom_site_fract_x
 _atom_site_fract_y
 _atom_site_fract_z
 _atom_site_occupancy
  Nd  Nd0  1  0.703393  0.703393  0.000000  1
  Nd  Nd1  1  0.296607  0.000000  0.296607  1
  Nd  Nd2  1  0.000000  0.296607  0.296607  1
  Nd  Nd3  1  0.296607  0.296607  0.000000  1
  Nd  Nd4  1  0.703393  0.000000  0.703393  1
  Nd  Nd5  1  0.000000  0.703393  0.703393  1
  Ga  Ga6  1  0.000000  0.000000  0.500000  1
  Ga  Ga7  1  0.000000  0.500000  0.000000  1
  Ga  Ga8  1  0.500000  0.000000  0.000000  1
  Ga  Ga9  1  0.500000  0.500000  0.500000  1
  Ir  Ir10  1  0.000000  0.000000  0.000000  1
  Pd  Pd11  1  0.326679  0.326679  0.653358  1
  Pd  Pd12  1  0.673321  0.000000  0.326679  1
  Pd  Pd13  1  0.000000  0.673321  0.326679  1
  Pd  Pd14  1  0.673321  0.326679  0.000000  1
  Pd  Pd15  1  0.326679  0.653358  0.326679  1
  Pd  Pd16  1  0.000000  0.326679  0.673321  1
  Pd  Pd17  1  0.326679  0.673321  0.000000  1
  Pd  Pd18  1  0.326679  0.000000  0.673321  1
  Pd  Pd19  1  0.653358  0.326679  0.326679  1
  Pd  Pd20  1  0.673321  0.673321  0.346642  1
  Pd  Pd21  1  0.673321  0.346642  0.673321  1
  Pd  Pd22  1  0.346642  0.673321  0.673321  1
