# generated using pymatgen
data_Y5Mg2P12Ru17
_symmetry_space_group_name_H-M   'P 1'
_cell_length_a   12.73883300
_cell_length_b   12.59830610
_cell_length_c   3.97744400
_cell_angle_alpha   90.00000000
_cell_angle_beta   90.00000000
_cell_angle_gamma   120.36967399
_symmetry_Int_Tables_number   1
_chemical_formula_structural   Y5Mg2P12Ru17
_chemical_formula_sum   'Y5 Mg2 P12 Ru17'
_cell_volume   550.74002649
_cell_formula_units_Z   1
loop_
 _symmetry_equiv_pos_site_id
 _symmetry_equiv_pos_as_xyz
  1  'x, y, z'
loop_
 _atom_site_type_symbol
 _atom_site_label
 _atom_site_symmetry_multiplicity
 _atom_site_fract_x
 _atom_site_fract_y
 _atom_site_fract_z
 _atom_site_occupancy
  Y  Y0  1  0.999427  0.181032  0.500000  1
  Y  Y1  1  0.818395  0.818968  0.500000  1
  Y  Y2  1  0.182255  0.000000  0.500000  1
  Y  Y3  1  0.663634  0.325376  0.000000  1
  Y  Y4  1  0.338256  0.674624  0.000000  1
  Mg  Mg5  1  0.999320  0.561163  0.000000  1
  Mg  Mg6  1  0.438156  0.438837  0.000000  1
  P  P7  1  0.998683  0.811512  0.000000  1
  P  P8  1  0.187171  0.188488  0.000000  1
  P  P9  1  0.818105  0.000000  0.000000  1
  P  P10  1  0.690762  0.168599  0.500000  1
  P  P11  1  0.816642  0.514637  0.500000  1
  P  P12  1  0.478287  0.299862  0.500000  1
  P  P13  1  0.178426  0.700138  0.500000  1
  P  P14  1  0.522163  0.831401  0.500000  1
  P  P15  1  0.302005  0.485363  0.500000  1
  P  P16  1  0.000563  0.362126  0.000000  1
  P  P17  1  0.638437  0.637874  0.000000  1
  P  P18  1  0.376665  0.000000  0.000000  1
  Ru  Ru19  1  0.556950  0.000000  0.000000  1
  Ru  Ru20  1  0.998583  0.715177  0.500000  1
  Ru  Ru21  1  0.283406  0.284823  0.500000  1
  Ru  Ru22  1  0.717081  0.000000  0.500000  1
  Ru  Ru23  1  0.807576  0.183167  0.000000  1
  Ru  Ru24  1  0.813460  0.616651  0.000000  1
  Ru  Ru25  1  0.376817  0.191205  0.000000  1
  Ru  Ru26  1  0.185613  0.808795  0.000000  1
  Ru  Ru27  1  0.624410  0.816833  0.000000  1
  Ru  Ru28  1  0.196811  0.383349  0.000000  1
  Ru  Ru29  1  0.872253  0.363573  0.500000  1
  Ru  Ru30  1  0.630064  0.510733  0.500000  1
  Ru  Ru31  1  0.490975  0.123493  0.500000  1
  Ru  Ru32  1  0.367483  0.876507  0.500000  1
  Ru  Ru33  1  0.508680  0.636427  0.500000  1
  Ru  Ru34  1  0.119331  0.489267  0.500000  1
  Ru  Ru35  1  0.003154  0.000000  0.000000  1
