# generated using pymatgen
data_TbHf(Al3Ir)3
_symmetry_space_group_name_H-M   'P 1'
_cell_length_a   7.52349099
_cell_length_b   7.50477103
_cell_length_c   9.35608200
_cell_angle_alpha   90.00000000
_cell_angle_beta   90.00000000
_cell_angle_gamma   119.67038338
_symmetry_Int_Tables_number   1
_chemical_formula_structural   TbHf(Al3Ir)3
_chemical_formula_sum   'Tb2 Hf2 Al18 Ir6'
_cell_volume   459.00183611
_cell_formula_units_Z   2
loop_
 _symmetry_equiv_pos_site_id
 _symmetry_equiv_pos_as_xyz
  1  'x, y, z'
loop_
 _atom_site_type_symbol
 _atom_site_label
 _atom_site_symmetry_multiplicity
 _atom_site_fract_x
 _atom_site_fract_y
 _atom_site_fract_z
 _atom_site_occupancy
  Tb  Tb0  1  0.670467  0.994570  0.250000  1
  Tb  Tb1  1  0.329533  0.005430  0.750000  1
  Hf  Hf2  1  0.995305  0.670660  0.250000  1
  Hf  Hf3  1  0.004695  0.329340  0.750000  1
  Al  Al4  1  0.126512  0.124037  0.250000  1
  Al  Al5  1  0.873488  0.875963  0.750000  1
  Al  Al6  1  0.000313  0.337145  0.075034  1
  Al  Al7  1  0.999687  0.662855  0.924966  1
  Al  Al8  1  0.999687  0.662855  0.575034  1
  Al  Al9  1  0.331707  0.998072  0.422183  1
  Al  Al10  1  0.000313  0.337145  0.424966  1
  Al  Al11  1  0.668293  0.001928  0.577817  1
  Al  Al12  1  0.668293  0.001928  0.922183  1
  Al  Al13  1  0.331707  0.998072  0.077817  1
  Al  Al14  1  0.331284  0.333904  0.556316  1
  Al  Al15  1  0.668716  0.666096  0.443684  1
  Al  Al16  1  0.668716  0.666096  0.056316  1
  Al  Al17  1  0.331284  0.333904  0.943684  1
  Al  Al18  1  0.334362  0.547313  0.250000  1
  Al  Al19  1  0.665638  0.452687  0.750000  1
  Al  Al20  1  0.553534  0.343801  0.250000  1
  Al  Al21  1  0.446466  0.656199  0.750000  1
  Ir  Ir22  1  0.672640  0.328059  0.999737  1
  Ir  Ir23  1  0.327360  0.671941  0.000263  1
  Ir  Ir24  1  0.327360  0.671941  0.499737  1
  Ir  Ir25  1  0.672640  0.328059  0.500263  1
  Ir  Ir26  1  0.000000  0.000000  0.000000  1
  Ir  Ir27  1  0.000000  0.000000  0.500000  1
