# generated using pymatgen
data_K4Al3InI16
_symmetry_space_group_name_H-M   'P 1'
_cell_length_a   8.29955048
_cell_length_b   8.63303481
_cell_length_c   16.84824030
_cell_angle_alpha   85.14736209
_cell_angle_beta   90.11343858
_cell_angle_gamma   90.00415390
_symmetry_Int_Tables_number   1
_chemical_formula_structural   K4Al3InI16
_chemical_formula_sum   'K4 Al3 In1 I16'
_cell_volume   1202.85218140
_cell_formula_units_Z   1
loop_
 _symmetry_equiv_pos_site_id
 _symmetry_equiv_pos_as_xyz
  1  'x, y, z'
loop_
 _atom_site_type_symbol
 _atom_site_label
 _atom_site_symmetry_multiplicity
 _atom_site_fract_x
 _atom_site_fract_y
 _atom_site_fract_z
 _atom_site_occupancy
  K  K0  1  0.501448  0.256949  0.639543  1
  K  K1  1  0.001771  0.742996  0.860431  1
  K  K2  1  0.498465  0.742989  0.360381  1
  K  K3  1  0.998401  0.257164  0.139643  1
  Al  Al4  1  0.358156  0.244835  0.360784  1
  Al  Al5  1  0.858143  0.755373  0.139137  1
  Al  Al6  1  0.641716  0.755253  0.639169  1
  In  In7  1  0.141822  0.243767  0.861102  1
  I  I8  1  0.844312  0.132956  0.911111  1
  I  I9  1  0.365100  0.858947  0.592163  1
  I  I10  1  0.134941  0.859218  0.092361  1
  I  I11  1  0.634967  0.140913  0.407614  1
  I  I12  1  0.389018  0.410653  0.227556  1
  I  I13  1  0.889019  0.589438  0.272466  1
  I  I14  1  0.610893  0.589630  0.772684  1
  I  I15  1  0.109084  0.422698  0.717878  1
  I  I16  1  0.659867  0.977426  0.158865  1
  I  I17  1  0.159827  0.022554  0.341088  1
  I  I18  1  0.354988  0.005786  0.839556  1
  I  I19  1  0.840233  0.977536  0.658834  1
  I  I20  1  0.246066  0.417511  0.465059  1
  I  I21  1  0.745854  0.582481  0.034794  1
  I  I22  1  0.754035  0.582536  0.534924  1
  I  I23  1  0.261876  0.430389  0.972859  1
