# generated using pymatgen
data_Li3La3IrAu2
_symmetry_space_group_name_H-M   'P 1'
_cell_length_a   7.70820800
_cell_length_b   7.70820805
_cell_length_c   4.07801400
_cell_angle_alpha   90.00000000
_cell_angle_beta   90.00000000
_cell_angle_gamma   119.99999980
_symmetry_Int_Tables_number   1
_chemical_formula_structural   Li3La3IrAu2
_chemical_formula_sum   'Li3 La3 Ir1 Au2'
_cell_volume   209.83899525
_cell_formula_units_Z   1
loop_
 _symmetry_equiv_pos_site_id
 _symmetry_equiv_pos_as_xyz
  1  'x, y, z'
loop_
 _atom_site_type_symbol
 _atom_site_label
 _atom_site_symmetry_multiplicity
 _atom_site_fract_x
 _atom_site_fract_y
 _atom_site_fract_z
 _atom_site_occupancy
  Li  Li0  1  0.000012  0.234255  0.000000  1
  Li  Li1  1  0.765745  0.765757  0.000000  1
  Li  Li2  1  0.234243  0.999988  0.000000  1
  La  La3  1  0.598363  0.021061  0.500000  1
  La  La4  1  0.422699  0.401637  0.500000  1
  La  La5  1  0.978939  0.577301  0.500000  1
  Ir  Ir6  1  0.666667  0.333333  0.000000  1
  Au  Au7  1  0.333333  0.666667  0.000000  1
  Au  Au8  1  0.000000  0.000000  0.500000  1
