# generated using pymatgen
data_Tb6Mn3CrC12
_symmetry_space_group_name_H-M   'P 1'
_cell_length_a   8.12751600
_cell_length_b   8.12751572
_cell_length_c   5.01154800
_cell_angle_alpha   90.00000000
_cell_angle_beta   90.00000000
_cell_angle_gamma   120.00000115
_symmetry_Int_Tables_number   1
_chemical_formula_structural   Tb6Mn3CrC12
_chemical_formula_sum   'Tb6 Mn3 Cr1 C12'
_cell_volume   286.69371493
_cell_formula_units_Z   1
loop_
 _symmetry_equiv_pos_site_id
 _symmetry_equiv_pos_as_xyz
  1  'x, y, z'
loop_
 _atom_site_type_symbol
 _atom_site_label
 _atom_site_symmetry_multiplicity
 _atom_site_fract_x
 _atom_site_fract_y
 _atom_site_fract_z
 _atom_site_occupancy
  Tb  Tb0  1  0.620775  0.684835  0.749192  1
  Tb  Tb1  1  0.935940  0.620775  0.250808  1
  Tb  Tb2  1  0.684835  0.064060  0.250808  1
  Tb  Tb3  1  0.315165  0.935940  0.749192  1
  Tb  Tb4  1  0.064060  0.379225  0.749192  1
  Tb  Tb5  1  0.379225  0.315165  0.250808  1
  Mn  Mn6  1  0.000000  0.000000  0.000000  1
  Mn  Mn7  1  0.666667  0.333333  0.751344  1
  Mn  Mn8  1  0.333333  0.666667  0.248656  1
  Cr  Cr9  1  0.000000  0.000000  0.500000  1
  C  C10  1  0.962893  0.772096  0.748164  1
  C  C11  1  0.190798  0.962893  0.251836  1
  C  C12  1  0.772096  0.809202  0.251836  1
  C  C13  1  0.227904  0.190798  0.748164  1
  C  C14  1  0.809202  0.037107  0.748164  1
  C  C15  1  0.037107  0.227904  0.251836  1
  C  C16  1  0.864051  0.577452  0.750997  1
  C  C17  1  0.286600  0.864051  0.249003  1
  C  C18  1  0.577452  0.713400  0.249003  1
  C  C19  1  0.422548  0.286600  0.750997  1
  C  C20  1  0.135949  0.422548  0.249003  1
  C  C21  1  0.713400  0.135949  0.750997  1
