# generated using pymatgen
data_Er10Tl6P
_symmetry_space_group_name_H-M   'P 1'
_cell_length_a   6.62125801
_cell_length_b   9.02164089
_cell_length_c   9.02073801
_cell_angle_alpha   119.99879582
_cell_angle_beta   90.00484949
_cell_angle_gamma   89.99757820
_symmetry_Int_Tables_number   1
_chemical_formula_structural   Er10Tl6P
_chemical_formula_sum   'Er10 Tl6 P1'
_cell_volume   466.66369666
_cell_formula_units_Z   1
loop_
 _symmetry_equiv_pos_site_id
 _symmetry_equiv_pos_as_xyz
  1  'x, y, z'
loop_
 _atom_site_type_symbol
 _atom_site_label
 _atom_site_symmetry_multiplicity
 _atom_site_fract_x
 _atom_site_fract_y
 _atom_site_fract_z
 _atom_site_occupancy
  Er  Er0  1  0.499978  0.333287  0.666662  1
  Er  Er1  1  0.500014  0.666707  0.333338  1
  Er  Er2  1  0.999969  0.666662  0.333308  1
  Er  Er3  1  0.000051  0.333323  0.666686  1
  Er  Er4  1  0.747586  0.243777  0.999945  1
  Er  Er5  1  0.747586  0.756225  0.756244  1
  Er  Er6  1  0.747659  0.999974  0.243763  1
  Er  Er7  1  0.252414  0.756221  0.000049  1
  Er  Er8  1  0.252413  0.243778  0.243758  1
  Er  Er9  1  0.252336  0.000037  0.756243  1
  Tl  Tl10  1  0.753272  0.601992  0.999994  1
  Tl  Tl11  1  0.753400  0.398027  0.398084  1
  Tl  Tl12  1  0.753562  0.999964  0.601910  1
  Tl  Tl13  1  0.246726  0.398015  0.000014  1
  Tl  Tl14  1  0.246598  0.601981  0.601915  1
  Tl  Tl15  1  0.246437  0.000034  0.398088  1
  P  P16  1  0.499998  0.000003  0.000001  1
