# generated using pymatgen
data_Nd3DyScPt3O14
_symmetry_space_group_name_H-M   'P 1'
_cell_length_a   7.39165698
_cell_length_b   7.44462379
_cell_length_c   7.39165800
_cell_angle_alpha   60.23508138
_cell_angle_beta   60.00000437
_cell_angle_gamma   60.23508506
_symmetry_Int_Tables_number   1
_chemical_formula_structural   Nd3DyScPt3O14
_chemical_formula_sum   'Nd3 Dy1 Sc1 Pt3 O14'
_cell_volume   288.63268380
_cell_formula_units_Z   1
loop_
 _symmetry_equiv_pos_site_id
 _symmetry_equiv_pos_as_xyz
  1  'x, y, z'
loop_
 _atom_site_type_symbol
 _atom_site_label
 _atom_site_symmetry_multiplicity
 _atom_site_fract_x
 _atom_site_fract_y
 _atom_site_fract_z
 _atom_site_occupancy
  Nd  Nd0  1  0.625000  0.625000  0.125000  1
  Nd  Nd1  1  0.125000  0.625000  0.625000  1
  Nd  Nd2  1  0.625000  0.625000  0.625000  1
  Dy  Dy3  1  0.625000  0.125000  0.625000  1
  Sc  Sc4  1  0.125000  0.625000  0.125000  1
  Pt  Pt5  1  0.125000  0.125000  0.625000  1
  Pt  Pt6  1  0.625000  0.125000  0.125000  1
  Pt  Pt7  1  0.125000  0.125000  0.125000  1
  O  O8  1  0.505765  0.482704  0.505765  1
  O  O9  1  0.744235  0.767296  0.744235  1
  O  O10  1  0.458064  0.053821  0.458064  1
  O  O11  1  0.213691  0.794704  0.213691  1
  O  O12  1  0.472088  0.455296  0.036309  1
  O  O13  1  0.036309  0.455296  0.472088  1
  O  O14  1  0.458064  0.053821  0.030051  1
  O  O15  1  0.030051  0.053821  0.458064  1
  O  O16  1  0.036309  0.455296  0.036309  1
  O  O17  1  0.791936  0.196179  0.219949  1
  O  O18  1  0.213691  0.794704  0.777912  1
  O  O19  1  0.791936  0.196179  0.791936  1
  O  O20  1  0.219949  0.196179  0.791936  1
  O  O21  1  0.777912  0.794704  0.213691  1
