# generated using pymatgen
data_Sm2Zn(GaCu2)3
_symmetry_space_group_name_H-M   'P 1'
_cell_length_a   4.20210300
_cell_length_b   5.12480664
_cell_length_c   9.03137612
_cell_angle_alpha   89.66897179
_cell_angle_beta   90.00000000
_cell_angle_gamma   90.00000000
_symmetry_Int_Tables_number   1
_chemical_formula_structural   Sm2Zn(GaCu2)3
_chemical_formula_sum   'Sm2 Zn1 Ga3 Cu6'
_cell_volume   194.48712599
_cell_formula_units_Z   1
loop_
 _symmetry_equiv_pos_site_id
 _symmetry_equiv_pos_as_xyz
  1  'x, y, z'
loop_
 _atom_site_type_symbol
 _atom_site_label
 _atom_site_symmetry_multiplicity
 _atom_site_fract_x
 _atom_site_fract_y
 _atom_site_fract_z
 _atom_site_occupancy
  Sm  Sm0  1  0.000000  0.248027  0.752599  1
  Sm  Sm1  1  0.000000  0.751973  0.247401  1
  Zn  Zn2  1  0.500000  0.000000  0.500000  1
  Ga  Ga3  1  0.500000  0.723536  0.748940  1
  Ga  Ga4  1  0.500000  0.276464  0.251060  1
  Ga  Ga5  1  0.500000  0.000000  0.000000  1
  Cu  Cu6  1  0.000000  0.254870  0.082569  1
  Cu  Cu7  1  0.000000  0.748747  0.581336  1
  Cu  Cu8  1  0.000000  0.745130  0.917431  1
  Cu  Cu9  1  0.000000  0.251253  0.418664  1
  Cu  Cu10  1  0.500000  0.500000  0.500000  1
  Cu  Cu11  1  0.500000  0.500000  0.000000  1
