# generated using pymatgen
data_Er7Tm3(In2Rh)4
_symmetry_space_group_name_H-M   'P 1'
_cell_length_a   3.56918600
_cell_length_b   8.00074302
_cell_length_c   18.20192606
_cell_angle_alpha   90.00901209
_cell_angle_beta   90.00000000
_cell_angle_gamma   90.00000000
_symmetry_Int_Tables_number   1
_chemical_formula_structural   Er7Tm3(In2Rh)4
_chemical_formula_sum   'Er7 Tm3 In8 Rh4'
_cell_volume   519.77674219
_cell_formula_units_Z   1
loop_
 _symmetry_equiv_pos_site_id
 _symmetry_equiv_pos_as_xyz
  1  'x, y, z'
loop_
 _atom_site_type_symbol
 _atom_site_label
 _atom_site_symmetry_multiplicity
 _atom_site_fract_x
 _atom_site_fract_y
 _atom_site_fract_z
 _atom_site_occupancy
  Er  Er0  1  0.000000  0.500015  0.500050  1
  Er  Er1  1  0.000000  0.000042  0.999947  1
  Er  Er2  1  0.000000  0.745525  0.278682  1
  Er  Er3  1  0.000000  0.254623  0.721351  1
  Er  Er4  1  0.000000  0.754391  0.778704  1
  Er  Er5  1  0.000000  0.245542  0.221312  1
  Er  Er6  1  0.000000  0.617828  0.086825  1
  Tm  Tm7  1  0.000000  0.382244  0.912941  1
  Tm  Tm8  1  0.000000  0.882273  0.587003  1
  Tm  Tm9  1  0.000000  0.117755  0.412985  1
  In  In10  1  0.500000  0.707100  0.932183  1
  In  In11  1  0.500000  0.292570  0.067642  1
  In  In12  1  0.500000  0.792986  0.432369  1
  In  In13  1  0.500000  0.207006  0.567634  1
  In  In14  1  0.500000  0.571924  0.649859  1
  In  In15  1  0.500000  0.428079  0.350219  1
  In  In16  1  0.500000  0.928565  0.149889  1
  In  In17  1  0.500000  0.071893  0.850134  1
  Rh  Rh18  1  0.500000  0.525008  0.195488  1
  Rh  Rh19  1  0.500000  0.474618  0.804793  1
  Rh  Rh20  1  0.500000  0.974690  0.695154  1
  Rh  Rh21  1  0.500000  0.025324  0.304838  1
