# generated using pymatgen
data_TbHo(FeB)8
_symmetry_space_group_name_H-M   'P 1'
_cell_length_a   6.94536400
_cell_length_b   6.94536400
_cell_length_c   3.82050300
_cell_angle_alpha   90.00000000
_cell_angle_beta   90.00000000
_cell_angle_gamma   90.00000000
_symmetry_Int_Tables_number   1
_chemical_formula_structural   TbHo(FeB)8
_chemical_formula_sum   'Tb1 Ho1 Fe8 B8'
_cell_volume   184.29373353
_cell_formula_units_Z   1
loop_
 _symmetry_equiv_pos_site_id
 _symmetry_equiv_pos_as_xyz
  1  'x, y, z'
loop_
 _atom_site_type_symbol
 _atom_site_label
 _atom_site_symmetry_multiplicity
 _atom_site_fract_x
 _atom_site_fract_y
 _atom_site_fract_z
 _atom_site_occupancy
  Tb  Tb0  1  0.000000  0.000000  0.000000  1
  Ho  Ho1  1  0.500000  0.500000  0.500000  1
  Fe  Fe2  1  0.385449  0.132048  0.890685  1
  Fe  Fe3  1  0.614551  0.867952  0.890685  1
  Fe  Fe4  1  0.368266  0.884672  0.390116  1
  Fe  Fe5  1  0.631734  0.115328  0.390116  1
  Fe  Fe6  1  0.115328  0.368266  0.609884  1
  Fe  Fe7  1  0.884672  0.631734  0.609884  1
  Fe  Fe8  1  0.132048  0.614551  0.109315  1
  Fe  Fe9  1  0.867952  0.385449  0.109315  1
  B  B10  1  0.799845  0.666359  0.107012  1
  B  B11  1  0.200155  0.333641  0.107012  1
  B  B12  1  0.832872  0.301665  0.606531  1
  B  B13  1  0.167128  0.698335  0.606531  1
  B  B14  1  0.698335  0.832872  0.393469  1
  B  B15  1  0.301665  0.167128  0.393469  1
  B  B16  1  0.666359  0.200155  0.892988  1
  B  B17  1  0.333641  0.799845  0.892988  1
