# generated using pymatgen
data_Pr2CuAs3O
_symmetry_space_group_name_H-M   'P 1'
_cell_length_a   35.52091575
_cell_length_b   4.02247200
_cell_length_c   4.09590401
_cell_angle_alpha   90.00000000
_cell_angle_beta   89.98480641
_cell_angle_gamma   90.00000000
_symmetry_Int_Tables_number   1
_chemical_formula_structural   Pr2CuAs3O
_chemical_formula_sum   'Pr8 Cu4 As12 O4'
_cell_volume   585.23048126
_cell_formula_units_Z   4
loop_
 _symmetry_equiv_pos_site_id
 _symmetry_equiv_pos_as_xyz
  1  'x, y, z'
loop_
 _atom_site_type_symbol
 _atom_site_label
 _atom_site_symmetry_multiplicity
 _atom_site_fract_x
 _atom_site_fract_y
 _atom_site_fract_z
 _atom_site_occupancy
  Pr  Pr0  1  0.465994  0.750002  0.250303  1
  Pr  Pr1  1  0.033986  0.250002  0.750584  1
  Pr  Pr2  1  0.966014  0.750002  0.249417  1
  Pr  Pr3  1  0.534006  0.250002  0.749696  1
  Pr  Pr4  1  0.323482  0.250002  0.808203  1
  Pr  Pr5  1  0.176660  0.750002  0.308338  1
  Pr  Pr6  1  0.823340  0.250002  0.691664  1
  Pr  Pr7  1  0.676518  0.750002  0.191796  1
  Cu  Cu8  1  0.250151  0.250002  0.309224  1
  Cu  Cu9  1  0.250392  0.750002  0.808522  1
  Cu  Cu10  1  0.749608  0.250002  0.191477  1
  Cu  Cu11  1  0.749850  0.750002  0.690777  1
  As  As12  1  0.392104  0.250002  0.333040  1
  As  As13  1  0.107902  0.750002  0.832983  1
  As  As14  1  0.892098  0.250002  0.167019  1
  As  As15  1  0.607896  0.750002  0.666959  1
  As  As16  1  0.393708  0.750002  0.746168  1
  As  As17  1  0.106330  0.250002  0.246274  1
  As  As18  1  0.893670  0.750002  0.753725  1
  As  As19  1  0.606292  0.250002  0.253831  1
  As  As20  1  0.207507  0.250002  0.809886  1
  As  As21  1  0.292681  0.750002  0.309563  1
  As  As22  1  0.707319  0.250002  0.690439  1
  As  As23  1  0.792493  0.750002  0.190115  1
  O  O24  1  0.499679  0.750002  0.750636  1
  O  O25  1  0.000331  0.250002  0.250610  1
  O  O26  1  0.999668  0.750002  0.749389  1
  O  O27  1  0.500321  0.250002  0.249363  1
