# generated using pymatgen
data_DyHoTm4FeBi2
_symmetry_space_group_name_H-M   'P 1'
_cell_length_a   8.22614130
_cell_length_b   8.22624073
_cell_length_c   4.18446000
_cell_angle_alpha   90.00000000
_cell_angle_beta   90.00000000
_cell_angle_gamma   120.03050280
_symmetry_Int_Tables_number   1
_chemical_formula_structural   DyHoTm4FeBi2
_chemical_formula_sum   'Dy1 Ho1 Tm4 Fe1 Bi2'
_cell_volume   245.15122198
_cell_formula_units_Z   1
loop_
 _symmetry_equiv_pos_site_id
 _symmetry_equiv_pos_as_xyz
  1  'x, y, z'
loop_
 _atom_site_type_symbol
 _atom_site_label
 _atom_site_symmetry_multiplicity
 _atom_site_fract_x
 _atom_site_fract_y
 _atom_site_fract_z
 _atom_site_occupancy
  Dy  Dy0  1  0.609178  0.999326  0.000000  1
  Ho  Ho1  1  0.999148  0.610668  0.000000  1
  Tm  Tm2  1  0.230027  0.000125  0.500000  1
  Tm  Tm3  1  0.000131  0.229149  0.500000  1
  Tm  Tm4  1  0.772256  0.772278  0.500000  1
  Tm  Tm5  1  0.386615  0.386763  0.000000  1
  Fe  Fe6  1  0.004490  0.003095  0.000000  1
  Bi  Bi7  1  0.332545  0.664807  0.500000  1
  Bi  Bi8  1  0.665611  0.333789  0.500000  1
