# generated using pymatgen
data_Pr4Ho15TmBi12
_symmetry_space_group_name_H-M   'P 1'
_cell_length_a   8.35157225
_cell_length_b   9.51919200
_cell_length_c   12.19186737
_cell_angle_alpha   90.00000000
_cell_angle_beta   89.97181043
_cell_angle_gamma   90.00000000
_symmetry_Int_Tables_number   1
_chemical_formula_structural   Pr4Ho15TmBi12
_chemical_formula_sum   'Pr4 Ho15 Tm1 Bi12'
_cell_volume   969.25601799
_cell_formula_units_Z   1
loop_
 _symmetry_equiv_pos_site_id
 _symmetry_equiv_pos_as_xyz
  1  'x, y, z'
loop_
 _atom_site_type_symbol
 _atom_site_label
 _atom_site_symmetry_multiplicity
 _atom_site_fract_x
 _atom_site_fract_y
 _atom_site_fract_z
 _atom_site_occupancy
  Pr  Pr0  1  0.170108  0.750000  0.224851  1
  Pr  Pr1  1  0.329970  0.750000  0.724992  1
  Pr  Pr2  1  0.829868  0.250000  0.775161  1
  Pr  Pr3  1  0.670002  0.250000  0.274914  1
  Ho  Ho4  1  0.810872  0.563115  0.063816  1
  Ho  Ho5  1  0.688984  0.936990  0.563899  1
  Ho  Ho6  1  0.189016  0.062943  0.936180  1
  Ho  Ho7  1  0.311103  0.437029  0.436055  1
  Ho  Ho8  1  0.189016  0.437057  0.936180  1
  Ho  Ho9  1  0.311103  0.062971  0.436055  1
  Ho  Ho10  1  0.810872  0.936885  0.063816  1
  Ho  Ho11  1  0.688984  0.563010  0.563899  1
  Ho  Ho12  1  0.021365  0.750000  0.502751  1
  Ho  Ho13  1  0.521411  0.250000  0.997218  1
  Ho  Ho14  1  0.978540  0.250000  0.497167  1
  Ho  Ho15  1  0.664717  0.750000  0.288261  1
  Ho  Ho16  1  0.835195  0.750000  0.788665  1
  Ho  Ho17  1  0.335099  0.250000  0.711614  1
  Ho  Ho18  1  0.164822  0.250000  0.211454  1
  Tm  Tm19  1  0.478900  0.750000  0.002900  1
  Bi  Bi20  1  0.402873  0.750000  0.465572  1
  Bi  Bi21  1  0.097875  0.750000  0.965505  1
  Bi  Bi22  1  0.597097  0.250000  0.534521  1
  Bi  Bi23  1  0.902962  0.250000  0.034480  1
  Bi  Bi24  1  0.934651  0.506292  0.328680  1
  Bi  Bi25  1  0.564989  0.993296  0.829183  1
  Bi  Bi26  1  0.065298  0.006300  0.671326  1
  Bi  Bi27  1  0.434684  0.494165  0.170848  1
  Bi  Bi28  1  0.065298  0.493700  0.671326  1
  Bi  Bi29  1  0.434684  0.005835  0.170848  1
  Bi  Bi30  1  0.934651  0.993708  0.328680  1
  Bi  Bi31  1  0.564989  0.506704  0.829183  1
