# generated using pymatgen
data_Ba2Tl3InP6O23
_symmetry_space_group_name_H-M   'P 1'
_cell_length_a   6.85091511
_cell_length_b   8.44117529
_cell_length_c   9.31904942
_cell_angle_alpha   100.80428313
_cell_angle_beta   104.23704255
_cell_angle_gamma   103.03234297
_symmetry_Int_Tables_number   1
_chemical_formula_structural   Ba2Tl3InP6O23
_chemical_formula_sum   'Ba2 Tl3 In1 P6 O23'
_cell_volume   491.78628108
_cell_formula_units_Z   1
loop_
 _symmetry_equiv_pos_site_id
 _symmetry_equiv_pos_as_xyz
  1  'x, y, z'
loop_
 _atom_site_type_symbol
 _atom_site_label
 _atom_site_symmetry_multiplicity
 _atom_site_fract_x
 _atom_site_fract_y
 _atom_site_fract_z
 _atom_site_occupancy
  Ba  Ba0  1  0.460894  0.455618  0.711271  1
  Ba  Ba1  1  0.548527  0.547991  0.296805  1
  Tl  Tl2  1  0.978253  0.793093  0.055059  1
  Tl  Tl3  1  0.009737  0.214585  0.937076  1
  Tl  Tl4  1  0.776815  0.176944  0.423072  1
  In  In5  1  0.227536  0.813786  0.573787  1
  P  P6  1  0.995245  0.518367  0.737252  1
  P  P7  1  0.007912  0.487739  0.258111  1
  P  P8  1  0.525880  0.856295  0.085849  1
  P  P9  1  0.477088  0.139455  0.914082  1
  P  P10  1  0.778887  0.895578  0.650950  1
  P  P11  1  0.227364  0.102953  0.356038  1
  O  O12  1  0.101147  0.389516  0.798334  1
  O  O13  1  0.900981  0.616307  0.198218  1
  O  O14  1  0.813522  0.431490  0.585797  1
  O  O15  1  0.186375  0.576454  0.410924  1
  O  O16  1  0.301528  0.764667  0.072330  1
  O  O17  1  0.683481  0.251901  0.907851  1
  O  O18  1  0.903470  0.943846  0.829849  1
  O  O19  1  0.087537  0.055084  0.182118  1
  O  O20  1  0.617395  0.735106  0.994882  1
  O  O21  1  0.368729  0.251589  0.997131  1
  O  O22  1  0.557247  0.771901  0.619233  1
  O  O23  1  0.444467  0.226350  0.375262  1
  O  O24  1  0.878996  0.592692  0.844931  1
  O  O25  1  0.126156  0.413534  0.151538  1
  O  O26  1  0.181211  0.649302  0.721149  1
  O  O27  1  0.821637  0.354040  0.271384  1
  O  O28  1  0.761199  0.066026  0.618676  1
  O  O29  1  0.251424  0.938932  0.398258  1
  O  O30  1  0.665185  0.920690  0.254057  1
  O  O31  1  0.332865  0.038731  0.755092  1
  O  O32  1  0.894044  0.806186  0.552692  1
  O  O33  1  0.125969  0.202245  0.460355  1
  O  O34  1  0.541297  0.017007  0.017590  1
