# generated using pymatgen
data_DyEr5Co17ReP12
_symmetry_space_group_name_H-M   'P 1'
_cell_length_a   3.68532200
_cell_length_b   10.49272000
_cell_length_c   12.17098000
_cell_angle_alpha   90.00000000
_cell_angle_beta   90.00000000
_cell_angle_gamma   90.00000000
_symmetry_Int_Tables_number   1
_chemical_formula_structural   DyEr5Co17ReP12
_chemical_formula_sum   'Dy1 Er5 Co17 Re1 P12'
_cell_volume   470.64025676
_cell_formula_units_Z   1
loop_
 _symmetry_equiv_pos_site_id
 _symmetry_equiv_pos_as_xyz
  1  'x, y, z'
loop_
 _atom_site_type_symbol
 _atom_site_label
 _atom_site_symmetry_multiplicity
 _atom_site_fract_x
 _atom_site_fract_y
 _atom_site_fract_z
 _atom_site_occupancy
  Dy  Dy0  1  0.250000  0.750000  0.522530  1
  Er  Er1  1  0.750000  0.250000  0.475479  1
  Er  Er2  1  0.250000  0.932047  0.793059  1
  Er  Er3  1  0.250000  0.567953  0.793059  1
  Er  Er4  1  0.750000  0.067592  0.205049  1
  Er  Er5  1  0.750000  0.432408  0.205049  1
  Co  Co6  1  0.750000  0.750000  0.161004  1
  Co  Co7  1  0.250000  0.250000  0.297669  1
  Co  Co8  1  0.750000  0.750000  0.704212  1
  Co  Co9  1  0.750000  0.250000  0.011945  1
  Co  Co10  1  0.250000  0.750000  0.984819  1
  Co  Co11  1  0.250000  0.417753  0.009159  1
  Co  Co12  1  0.250000  0.082247  0.009159  1
  Co  Co13  1  0.750000  0.583624  0.994137  1
  Co  Co14  1  0.750000  0.916376  0.994137  1
  Co  Co15  1  0.250000  0.453102  0.568989  1
  Co  Co16  1  0.250000  0.046898  0.568989  1
  Co  Co17  1  0.750000  0.546629  0.430614  1
  Co  Co18  1  0.750000  0.953371  0.430614  1
  Co  Co19  1  0.250000  0.871470  0.290978  1
  Co  Co20  1  0.250000  0.628530  0.290978  1
  Co  Co21  1  0.750000  0.128979  0.708524  1
  Co  Co22  1  0.750000  0.371021  0.708524  1
  Re  Re23  1  0.250000  0.250000  0.842872  1
  P  P24  1  0.250000  0.250000  0.119770  1
  P  P25  1  0.750000  0.750000  0.882372  1
  P  P26  1  0.250000  0.250000  0.649376  1
  P  P27  1  0.750000  0.750000  0.344614  1
  P  P28  1  0.250000  0.438159  0.383106  1
  P  P29  1  0.250000  0.061841  0.383106  1
  P  P30  1  0.750000  0.561578  0.616266  1
  P  P31  1  0.750000  0.938422  0.616266  1
  P  P32  1  0.250000  0.900205  0.108737  1
  P  P33  1  0.250000  0.599795  0.108737  1
  P  P34  1  0.750000  0.093417  0.893049  1
  P  P35  1  0.750000  0.406583  0.893049  1
