# generated using pymatgen
data_Gd7IrI12
_symmetry_space_group_name_H-M   'P 1'
_cell_length_a   9.87281153
_cell_length_b   9.87281044
_cell_length_c   9.87281200
_cell_angle_alpha   106.98594928
_cell_angle_beta   106.98595340
_cell_angle_gamma   106.98595050
_symmetry_Int_Tables_number   1
_chemical_formula_structural   Gd7IrI12
_chemical_formula_sum   'Gd7 Ir1 I12'
_cell_volume   801.74178640
_cell_formula_units_Z   1
loop_
 _symmetry_equiv_pos_site_id
 _symmetry_equiv_pos_as_xyz
  1  'x, y, z'
loop_
 _atom_site_type_symbol
 _atom_site_label
 _atom_site_symmetry_multiplicity
 _atom_site_fract_x
 _atom_site_fract_y
 _atom_site_fract_z
 _atom_site_occupancy
  Gd  Gd0  1  0.097789  0.024227  0.301291  1
  Gd  Gd1  1  0.301291  0.097789  0.024227  1
  Gd  Gd2  1  0.024227  0.301291  0.097789  1
  Gd  Gd3  1  0.902211  0.975773  0.698709  1
  Gd  Gd4  1  0.698709  0.902211  0.975773  1
  Gd  Gd5  1  0.975773  0.698709  0.902211  1
  Gd  Gd6  1  0.500000  0.500000  0.500000  1
  Ir  Ir7  1  0.000000  0.000000  0.000000  1
  I  I8  1  0.072990  0.677257  0.225751  1
  I  I9  1  0.225751  0.072990  0.677257  1
  I  I10  1  0.677257  0.225751  0.072990  1
  I  I11  1  0.927010  0.322743  0.774249  1
  I  I12  1  0.774249  0.927010  0.322743  1
  I  I13  1  0.322743  0.774249  0.927010  1
  I  I14  1  0.464659  0.160359  0.386744  1
  I  I15  1  0.386744  0.464659  0.160359  1
  I  I16  1  0.160359  0.386744  0.464659  1
  I  I17  1  0.535341  0.839641  0.613256  1
  I  I18  1  0.613256  0.535341  0.839641  1
  I  I19  1  0.839641  0.613256  0.535341  1
