# generated using pymatgen
data_CsTa(Te2Au)2
_symmetry_space_group_name_H-M   'P 1'
_cell_length_a   6.30652600
_cell_length_b   8.82400100
_cell_length_c   21.44355600
_cell_angle_alpha   90.00000000
_cell_angle_beta   90.00000000
_cell_angle_gamma   90.00000000
_symmetry_Int_Tables_number   1
_chemical_formula_structural   CsTa(Te2Au)2
_chemical_formula_sum   'Cs4 Ta4 Te16 Au8'
_cell_volume   1193.30798181
_cell_formula_units_Z   4
loop_
 _symmetry_equiv_pos_site_id
 _symmetry_equiv_pos_as_xyz
  1  'x, y, z'
loop_
 _atom_site_type_symbol
 _atom_site_label
 _atom_site_symmetry_multiplicity
 _atom_site_fract_x
 _atom_site_fract_y
 _atom_site_fract_z
 _atom_site_occupancy
  Cs  Cs0  1  0.029032  0.716724  0.438598  1
  Cs  Cs1  1  0.529032  0.283276  0.561402  1
  Cs  Cs2  1  0.529032  0.783276  0.938598  1
  Cs  Cs3  1  0.029032  0.216724  0.061402  1
  Ta  Ta4  1  0.257791  0.707094  0.147196  1
  Ta  Ta5  1  0.757791  0.292906  0.852804  1
  Ta  Ta6  1  0.757791  0.792906  0.647196  1
  Ta  Ta7  1  0.257791  0.207094  0.352804  1
  Te  Te8  1  0.494511  0.959084  0.136671  1
  Te  Te9  1  0.994511  0.040916  0.863329  1
  Te  Te10  1  0.994511  0.540916  0.636671  1
  Te  Te11  1  0.494511  0.459084  0.363329  1
  Te  Te12  1  0.496031  0.956108  0.356560  1
  Te  Te13  1  0.996031  0.043892  0.643440  1
  Te  Te14  1  0.996031  0.543892  0.856560  1
  Te  Te15  1  0.496031  0.456108  0.143440  1
  Te  Te16  1  0.000892  0.713738  0.248988  1
  Te  Te17  1  0.500892  0.286262  0.751012  1
  Te  Te18  1  0.500892  0.786262  0.748988  1
  Te  Te19  1  0.000892  0.213738  0.251012  1
  Te  Te20  1  0.035308  0.694919  0.042552  1
  Te  Te21  1  0.535308  0.305081  0.957448  1
  Te  Te22  1  0.535308  0.805081  0.542552  1
  Te  Te23  1  0.035308  0.194919  0.457448  1
  Au  Au24  1  0.265326  0.964233  0.247019  1
  Au  Au25  1  0.765326  0.035767  0.752981  1
  Au  Au26  1  0.765326  0.535767  0.747019  1
  Au  Au27  1  0.265326  0.464233  0.252981  1
  Au  Au28  1  0.256511  0.792412  0.641167  1
  Au  Au29  1  0.756511  0.207588  0.358833  1
  Au  Au30  1  0.756511  0.707588  0.141167  1
  Au  Au31  1  0.256511  0.292412  0.858833  1
