# generated using pymatgen
data_Y5Ho3(NiAg)2
_symmetry_space_group_name_H-M   'P 1'
_cell_length_a   9.44978035
_cell_length_b   9.46071802
_cell_length_c   9.46071800
_cell_angle_alpha   59.92354332
_cell_angle_beta   60.03823422
_cell_angle_gamma   60.03823841
_symmetry_Int_Tables_number   1
_chemical_formula_structural   Y5Ho3(NiAg)2
_chemical_formula_sum   'Y10 Ho6 Ni4 Ag4'
_cell_volume   598.07246047
_cell_formula_units_Z   2
loop_
 _symmetry_equiv_pos_site_id
 _symmetry_equiv_pos_as_xyz
  1  'x, y, z'
loop_
 _atom_site_type_symbol
 _atom_site_label
 _atom_site_symmetry_multiplicity
 _atom_site_fract_x
 _atom_site_fract_y
 _atom_site_fract_z
 _atom_site_occupancy
  Y  Y0  1  0.189056  0.810944  0.189056  1
  Y  Y1  1  0.810944  0.189056  0.810944  1
  Y  Y2  1  0.189056  0.189056  0.810944  1
  Y  Y3  1  0.810944  0.810944  0.189056  1
  Y  Y4  1  0.935604  0.564396  0.564396  1
  Y  Y5  1  0.564396  0.935604  0.935604  1
  Y  Y6  1  0.563922  0.936078  0.563922  1
  Y  Y7  1  0.936078  0.563922  0.936078  1
  Y  Y8  1  0.563922  0.563922  0.936078  1
  Y  Y9  1  0.936078  0.936078  0.563922  1
  Ho  Ho10  1  0.349948  0.349545  0.349545  1
  Ho  Ho11  1  0.349545  0.349948  0.950962  1
  Ho  Ho12  1  0.349545  0.950962  0.349948  1
  Ho  Ho13  1  0.950962  0.349545  0.349545  1
  Ho  Ho14  1  0.810881  0.189119  0.189119  1
  Ho  Ho15  1  0.189119  0.810881  0.810881  1
  Ni  Ni16  1  0.141333  0.144214  0.144214  1
  Ni  Ni17  1  0.144214  0.141333  0.570241  1
  Ni  Ni18  1  0.144214  0.570241  0.141333  1
  Ni  Ni19  1  0.570241  0.144214  0.144214  1
  Ag  Ag20  1  0.581264  0.581356  0.581356  1
  Ag  Ag21  1  0.581356  0.581264  0.256023  1
  Ag  Ag22  1  0.581356  0.256023  0.581264  1
  Ag  Ag23  1  0.256023  0.581356  0.581356  1
