# generated using pymatgen
data_NdHo(CuSb)2
_symmetry_space_group_name_H-M   'P 1'
_cell_length_a   4.39889700
_cell_length_b   4.39889677
_cell_length_c   16.18785600
_cell_angle_alpha   90.00000000
_cell_angle_beta   90.00000000
_cell_angle_gamma   120.00000923
_symmetry_Int_Tables_number   1
_chemical_formula_structural   NdHo(CuSb)2
_chemical_formula_sum   'Nd2 Ho2 Cu4 Sb4'
_cell_volume   271.27357298
_cell_formula_units_Z   2
loop_
 _symmetry_equiv_pos_site_id
 _symmetry_equiv_pos_as_xyz
  1  'x, y, z'
loop_
 _atom_site_type_symbol
 _atom_site_label
 _atom_site_symmetry_multiplicity
 _atom_site_fract_x
 _atom_site_fract_y
 _atom_site_fract_z
 _atom_site_occupancy
  Nd  Nd0  1  0.000000  0.000000  0.500000  1
  Nd  Nd1  1  0.000000  0.000000  0.000000  1
  Ho  Ho2  1  0.000000  0.000000  0.250000  1
  Ho  Ho3  1  0.000000  0.000000  0.750000  1
  Cu  Cu4  1  0.666667  0.333333  0.332482  1
  Cu  Cu5  1  0.333333  0.666667  0.667518  1
  Cu  Cu6  1  0.333333  0.666667  0.832482  1
  Cu  Cu7  1  0.666667  0.333333  0.167518  1
  Sb  Sb8  1  0.333333  0.666667  0.379295  1
  Sb  Sb9  1  0.666667  0.333333  0.620705  1
  Sb  Sb10  1  0.666667  0.333333  0.879295  1
  Sb  Sb11  1  0.333333  0.666667  0.120705  1
