# generated using pymatgen
data_Na2Hf6MnBr15
_symmetry_space_group_name_H-M   'P 1'
_cell_length_a   9.76522018
_cell_length_b   9.76528096
_cell_length_c   9.76522040
_cell_angle_alpha   108.13278396
_cell_angle_beta   108.13207338
_cell_angle_gamma   112.18305423
_symmetry_Int_Tables_number   1
_chemical_formula_structural   Na2Hf6MnBr15
_chemical_formula_sum   'Na2 Hf6 Mn1 Br15'
_cell_volume   715.63939919
_cell_formula_units_Z   1
loop_
 _symmetry_equiv_pos_site_id
 _symmetry_equiv_pos_as_xyz
  1  'x, y, z'
loop_
 _atom_site_type_symbol
 _atom_site_label
 _atom_site_symmetry_multiplicity
 _atom_site_fract_x
 _atom_site_fract_y
 _atom_site_fract_z
 _atom_site_occupancy
  Na  Na0  1  0.250000  0.750000  0.500000  1
  Na  Na1  1  0.750000  0.250000  0.500000  1
  Hf  Hf2  1  0.776161  0.776160  0.999998  1
  Hf  Hf3  1  0.000000  0.208835  0.208835  1
  Hf  Hf4  1  0.208840  0.000000  0.208840  1
  Hf  Hf5  1  0.223839  0.223840  0.000002  1
  Hf  Hf6  1  0.000000  0.791165  0.791165  1
  Hf  Hf7  1  0.791160  0.000000  0.791160  1
  Mn  Mn8  1  0.000000  0.000000  0.000000  1
  Br  Br9  1  0.500000  0.500000  0.000000  1
  Br  Br10  1  0.000000  0.500000  0.500000  1
  Br  Br11  1  0.500000  0.000000  0.500000  1
  Br  Br12  1  0.234487  0.234487  0.468975  1
  Br  Br13  1  0.989998  0.753226  0.236773  1
  Br  Br14  1  0.753228  0.989997  0.236769  1
  Br  Br15  1  0.234488  0.765513  0.000000  1
  Br  Br16  1  0.483545  0.246774  0.236771  1
  Br  Br17  1  0.246772  0.010003  0.763231  1
  Br  Br18  1  0.765512  0.234487  0.000000  1
  Br  Br19  1  0.010002  0.246774  0.763227  1
  Br  Br20  1  0.246774  0.483545  0.236771  1
  Br  Br21  1  0.765513  0.765513  0.531025  1
  Br  Br22  1  0.516455  0.753226  0.763229  1
  Br  Br23  1  0.753226  0.516455  0.763229  1
