# generated using pymatgen
data_Ca2YbNi6B2Pd
_symmetry_space_group_name_H-M   'P 1'
_cell_length_a   5.12791600
_cell_length_b   5.12791555
_cell_length_c   14.71108300
_cell_angle_alpha   90.00000000
_cell_angle_beta   90.00000000
_cell_angle_gamma   120.00000293
_symmetry_Int_Tables_number   1
_chemical_formula_structural   Ca2YbNi6B2Pd
_chemical_formula_sum   'Ca4 Yb2 Ni12 B4 Pd2'
_cell_volume   335.00942931
_cell_formula_units_Z   2
loop_
 _symmetry_equiv_pos_site_id
 _symmetry_equiv_pos_as_xyz
  1  'x, y, z'
loop_
 _atom_site_type_symbol
 _atom_site_label
 _atom_site_symmetry_multiplicity
 _atom_site_fract_x
 _atom_site_fract_y
 _atom_site_fract_z
 _atom_site_occupancy
  Ca  Ca0  1  0.666667  0.333333  0.537409  1
  Ca  Ca1  1  0.333333  0.666667  0.462591  1
  Ca  Ca2  1  0.333333  0.666667  0.037409  1
  Ca  Ca3  1  0.666667  0.333333  0.962591  1
  Yb  Yb4  1  0.666667  0.333333  0.750000  1
  Yb  Yb5  1  0.333333  0.666667  0.250000  1
  Ni  Ni6  1  0.166628  0.333255  0.657036  1
  Ni  Ni7  1  0.333255  0.166628  0.342964  1
  Ni  Ni8  1  0.333255  0.166628  0.157036  1
  Ni  Ni9  1  0.166628  0.833372  0.842964  1
  Ni  Ni10  1  0.833372  0.666745  0.342964  1
  Ni  Ni11  1  0.833372  0.166628  0.157036  1
  Ni  Ni12  1  0.666745  0.833372  0.657036  1
  Ni  Ni13  1  0.666745  0.833372  0.842964  1
  Ni  Ni14  1  0.166628  0.833372  0.657036  1
  Ni  Ni15  1  0.833372  0.666745  0.157036  1
  Ni  Ni16  1  0.166628  0.333255  0.842964  1
  Ni  Ni17  1  0.833372  0.166628  0.342964  1
  B  B18  1  0.666667  0.333333  0.250000  1
  B  B19  1  0.000000  0.000000  0.750000  1
  B  B20  1  0.333333  0.666667  0.750000  1
  B  B21  1  0.000000  0.000000  0.250000  1
  Pd  Pd22  1  0.000000  0.000000  0.000000  1
  Pd  Pd23  1  0.000000  0.000000  0.500000  1
