# generated using pymatgen
data_Ho3ErPd4F28
_symmetry_space_group_name_H-M   'P 1'
_cell_length_a   5.50143505
_cell_length_b   8.79560983
_cell_length_c   11.89242510
_cell_angle_alpha   62.59700132
_cell_angle_beta   89.98491023
_cell_angle_gamma   89.99065041
_symmetry_Int_Tables_number   1
_chemical_formula_structural   Ho3ErPd4F28
_chemical_formula_sum   'Ho3 Er1 Pd4 F28'
_cell_volume   510.88510325
_cell_formula_units_Z   1
loop_
 _symmetry_equiv_pos_site_id
 _symmetry_equiv_pos_as_xyz
  1  'x, y, z'
loop_
 _atom_site_type_symbol
 _atom_site_label
 _atom_site_symmetry_multiplicity
 _atom_site_fract_x
 _atom_site_fract_y
 _atom_site_fract_z
 _atom_site_occupancy
  Ho  Ho0  1  0.761982  0.813300  0.764428  1
  Ho  Ho1  1  0.261929  0.186702  0.735549  1
  Ho  Ho2  1  0.238008  0.186146  0.235629  1
  Er  Er3  1  0.737949  0.813434  0.264303  1
  Pd  Pd4  1  0.759185  0.271998  0.957081  1
  Pd  Pd5  1  0.259333  0.727881  0.542773  1
  Pd  Pd6  1  0.240697  0.727858  0.043359  1
  Pd  Pd7  1  0.740780  0.272573  0.456779  1
  F  F8  1  0.433999  0.701796  0.916412  1
  F  F9  1  0.934065  0.298240  0.583747  1
  F  F10  1  0.565757  0.298241  0.083813  1
  F  F11  1  0.065383  0.701958  0.416064  1
  F  F12  1  0.438757  0.277386  0.541353  1
  F  F13  1  0.938971  0.722620  0.958680  1
  F  F14  1  0.561516  0.722964  0.458062  1
  F  F15  1  0.061247  0.277304  0.041444  1
  F  F16  1  0.777195  0.520774  0.858874  1
  F  F17  1  0.277272  0.479204  0.641113  1
  F  F18  1  0.222781  0.479071  0.141212  1
  F  F19  1  0.722876  0.521501  0.358646  1
  F  F20  1  0.753005  0.023757  0.049274  1
  F  F21  1  0.252910  0.976086  0.451034  1
  F  F22  1  0.247004  0.976013  0.951123  1
  F  F23  1  0.747036  0.024253  0.548801  1
  F  F24  1  0.965696  0.723472  0.635632  1
  F  F25  1  0.465562  0.276507  0.864395  1
  F  F26  1  0.034549  0.276491  0.364286  1
  F  F27  1  0.534601  0.723777  0.135961  1
  F  F28  1  0.052384  0.745999  0.176041  1
  F  F29  1  0.553355  0.254306  0.324078  1
  F  F30  1  0.946516  0.254218  0.824162  1
  F  F31  1  0.446571  0.745738  0.675784  1
  F  F32  1  0.415394  0.969244  0.232402  1
  F  F33  1  0.913622  0.029209  0.267708  1
  F  F34  1  0.586076  0.030274  0.767768  1
  F  F35  1  0.086037  0.969704  0.732230  1
