# generated using pymatgen
data_Y3Er9Tc3Pd
_symmetry_space_group_name_H-M   'P 1'
_cell_length_a   6.28206747
_cell_length_b   7.40706267
_cell_length_c   9.11669200
_cell_angle_alpha   90.00000000
_cell_angle_beta   90.00000000
_cell_angle_gamma   89.98144907
_symmetry_Int_Tables_number   1
_chemical_formula_structural   Y3Er9Tc3Pd
_chemical_formula_sum   'Y3 Er9 Tc3 Pd1'
_cell_volume   424.21485797
_cell_formula_units_Z   1
loop_
 _symmetry_equiv_pos_site_id
 _symmetry_equiv_pos_as_xyz
  1  'x, y, z'
loop_
 _atom_site_type_symbol
 _atom_site_label
 _atom_site_symmetry_multiplicity
 _atom_site_fract_x
 _atom_site_fract_y
 _atom_site_fract_z
 _atom_site_occupancy
  Y  Y0  1  0.626558  0.044592  0.250000  1
  Y  Y1  1  0.122967  0.462293  0.750000  1
  Y  Y2  1  0.870188  0.534212  0.250000  1
  Er  Er3  1  0.371671  0.957103  0.750000  1
  Er  Er4  1  0.164740  0.183338  0.057782  1
  Er  Er5  1  0.829696  0.824149  0.931436  1
  Er  Er6  1  0.663292  0.321811  0.935378  1
  Er  Er7  1  0.829696  0.824149  0.568564  1
  Er  Er8  1  0.341745  0.670993  0.058403  1
  Er  Er9  1  0.164740  0.183338  0.442218  1
  Er  Er10  1  0.341745  0.670993  0.441597  1
  Er  Er11  1  0.663292  0.321811  0.564622  1
  Tc  Tc12  1  0.452449  0.384992  0.250000  1
  Tc  Tc13  1  0.540527  0.615803  0.750000  1
  Tc  Tc14  1  0.963139  0.112288  0.750000  1
  Pd  Pd15  1  0.053552  0.888135  0.250000  1
