# generated using pymatgen
data_Hf17Nb3Si15Se
_symmetry_space_group_name_H-M   'P 1'
_cell_length_a   7.05145608
_cell_length_b   7.01020865
_cell_length_c   12.86205157
_cell_angle_alpha   90.06780520
_cell_angle_beta   89.39350760
_cell_angle_gamma   89.68720225
_symmetry_Int_Tables_number   1
_chemical_formula_structural   Hf17Nb3Si15Se
_chemical_formula_sum   'Hf17 Nb3 Si15 Se1'
_cell_volume   635.75364378
_cell_formula_units_Z   1
loop_
 _symmetry_equiv_pos_site_id
 _symmetry_equiv_pos_as_xyz
  1  'x, y, z'
loop_
 _atom_site_type_symbol
 _atom_site_label
 _atom_site_symmetry_multiplicity
 _atom_site_fract_x
 _atom_site_fract_y
 _atom_site_fract_z
 _atom_site_occupancy
  Hf  Hf0  1  0.177972  0.175536  0.999476  1
  Hf  Hf1  1  0.498322  0.151118  0.531706  1
  Hf  Hf2  1  0.496146  0.839571  0.027286  1
  Hf  Hf3  1  0.652485  0.997322  0.286270  1
  Hf  Hf4  1  0.335994  0.995490  0.777314  1
  Hf  Hf5  1  0.848103  0.512693  0.968138  1
  Hf  Hf6  1  0.154639  0.497675  0.468536  1
  Hf  Hf7  1  0.998739  0.655546  0.718076  1
  Hf  Hf8  1  0.011868  0.352047  0.224253  1
  Hf  Hf9  1  0.499792  0.353369  0.125065  1
  Hf  Hf10  1  0.502600  0.645412  0.626295  1
  Hf  Hf11  1  0.847198  0.003952  0.876163  1
  Hf  Hf12  1  0.148622  0.996734  0.376810  1
  Hf  Hf13  1  0.649007  0.501527  0.373246  1
  Hf  Hf14  1  0.350554  0.499370  0.871132  1
  Hf  Hf15  1  0.005861  0.851660  0.127234  1
  Hf  Hf16  1  0.995111  0.144945  0.623515  1
  Nb  Nb17  1  0.674371  0.325747  0.749406  1
  Nb  Nb18  1  0.327770  0.672560  0.250668  1
  Nb  Nb19  1  0.825065  0.825083  0.500413  1
  Si  Si20  1  0.204065  0.854018  0.573051  1
  Si  Si21  1  0.643154  0.704029  0.822336  1
  Si  Si22  1  0.359854  0.294647  0.323366  1
  Si  Si23  1  0.854802  0.202531  0.427698  1
  Si  Si24  1  0.140179  0.797105  0.926886  1
  Si  Si25  1  0.704062  0.647438  0.176768  1
  Si  Si26  1  0.293801  0.354374  0.675684  1
  Si  Si27  1  0.532128  0.190393  0.925916  1
  Si  Si28  1  0.452312  0.799248  0.436573  1
  Si  Si29  1  0.695739  0.952778  0.685638  1
  Si  Si30  1  0.307942  0.044148  0.186473  1
  Si  Si31  1  0.802363  0.453112  0.564517  1
  Si  Si32  1  0.200434  0.550074  0.064595  1
  Si  Si33  1  0.953705  0.699421  0.316782  1
  Si  Si34  1  0.043791  0.303364  0.812988  1
  Se  Se35  1  0.811446  0.155959  0.079726  1
