# generated using pymatgen
data_CrNi5(BO5)2
_symmetry_space_group_name_H-M   'P 1'
_cell_length_a   3.02059700
_cell_length_b   9.21999813
_cell_length_c   12.29890632
_cell_angle_alpha   89.63542244
_cell_angle_beta   90.00000000
_cell_angle_gamma   90.00000000
_symmetry_Int_Tables_number   1
_chemical_formula_structural   CrNi5(BO5)2
_chemical_formula_sum   'Cr2 Ni10 B4 O20'
_cell_volume   342.51636102
_cell_formula_units_Z   2
loop_
 _symmetry_equiv_pos_site_id
 _symmetry_equiv_pos_as_xyz
  1  'x, y, z'
loop_
 _atom_site_type_symbol
 _atom_site_label
 _atom_site_symmetry_multiplicity
 _atom_site_fract_x
 _atom_site_fract_y
 _atom_site_fract_z
 _atom_site_occupancy
  Cr  Cr0  1  0.000000  0.241181  0.385945  1
  Cr  Cr1  1  0.000000  0.758819  0.614055  1
  Ni  Ni2  1  0.500000  0.000000  0.500000  1
  Ni  Ni3  1  0.500000  0.500000  0.000000  1
  Ni  Ni4  1  0.000000  0.259789  0.886313  1
  Ni  Ni5  1  0.000000  0.740211  0.113687  1
  Ni  Ni6  1  0.000000  0.000000  0.000000  1
  Ni  Ni7  1  0.000000  0.500000  0.500000  1
  Ni  Ni8  1  0.500000  0.997253  0.218916  1
  Ni  Ni9  1  0.500000  0.002747  0.781084  1
  Ni  Ni10  1  0.500000  0.498478  0.719578  1
  Ni  Ni11  1  0.500000  0.501522  0.280422  1
  B  B12  1  0.000000  0.272978  0.138907  1
  B  B13  1  0.000000  0.727022  0.861093  1
  B  B14  1  0.000000  0.226677  0.639194  1
  B  B15  1  0.000000  0.773323  0.360806  1
  O  O16  1  0.000000  0.351530  0.043441  1
  O  O17  1  0.000000  0.648470  0.956559  1
  O  O18  1  0.000000  0.151913  0.539907  1
  O  O19  1  0.000000  0.848087  0.460093  1
  O  O20  1  0.500000  0.108071  0.356787  1
  O  O21  1  0.500000  0.891929  0.643213  1
  O  O22  1  0.500000  0.390474  0.857703  1
  O  O23  1  0.500000  0.609526  0.142297  1
  O  O24  1  0.000000  0.346288  0.238416  1
  O  O25  1  0.000000  0.653712  0.761584  1
  O  O26  1  0.000000  0.149690  0.735367  1
  O  O27  1  0.000000  0.850310  0.264633  1
  O  O28  1  0.500000  0.382610  0.421792  1
  O  O29  1  0.500000  0.617390  0.578208  1
  O  O30  1  0.500000  0.116655  0.921888  1
  O  O31  1  0.500000  0.883345  0.078112  1
  O  O32  1  0.000000  0.122537  0.140623  1
  O  O33  1  0.000000  0.877463  0.859377  1
  O  O34  1  0.000000  0.376887  0.640199  1
  O  O35  1  0.000000  0.623113  0.359801  1
