# generated using pymatgen
data_Er9Tm(IrRh2)2
_symmetry_space_group_name_H-M   'P 1'
_cell_length_a   10.79819500
_cell_length_b   10.79819500
_cell_length_c   6.32404300
_cell_angle_alpha   90.00000000
_cell_angle_beta   90.00000000
_cell_angle_gamma   90.00000000
_symmetry_Int_Tables_number   1
_chemical_formula_structural   Er9Tm(IrRh2)2
_chemical_formula_sum   'Er18 Tm2 Ir4 Rh8'
_cell_volume   737.38983434
_cell_formula_units_Z   2
loop_
 _symmetry_equiv_pos_site_id
 _symmetry_equiv_pos_as_xyz
  1  'x, y, z'
loop_
 _atom_site_type_symbol
 _atom_site_label
 _atom_site_symmetry_multiplicity
 _atom_site_fract_x
 _atom_site_fract_y
 _atom_site_fract_z
 _atom_site_occupancy
  Er  Er0  1  0.291440  0.089499  0.378044  1
  Er  Er1  1  0.291440  0.910501  0.878044  1
  Er  Er2  1  0.708560  0.089499  0.878044  1
  Er  Er3  1  0.708560  0.910501  0.378044  1
  Er  Er4  1  0.587247  0.789956  0.878718  1
  Er  Er5  1  0.587247  0.210044  0.378718  1
  Er  Er6  1  0.412753  0.789956  0.378718  1
  Er  Er7  1  0.412753  0.210044  0.878718  1
  Er  Er8  1  0.210044  0.412753  0.621282  1
  Er  Er9  1  0.210044  0.587247  0.121282  1
  Er  Er10  1  0.789956  0.412753  0.121282  1
  Er  Er11  1  0.789956  0.587247  0.621282  1
  Er  Er12  1  0.910501  0.708560  0.121956  1
  Er  Er13  1  0.910501  0.291440  0.621956  1
  Er  Er14  1  0.089499  0.708560  0.621956  1
  Er  Er15  1  0.089499  0.291440  0.121956  1
  Er  Er16  1  0.000000  0.000000  0.500000  1
  Er  Er17  1  0.000000  0.000000  0.000000  1
  Tm  Tm18  1  0.500000  0.500000  0.000000  1
  Tm  Tm19  1  0.500000  0.500000  0.500000  1
  Ir  Ir20  1  0.654268  0.345732  0.750000  1
  Ir  Ir21  1  0.654268  0.654268  0.250000  1
  Ir  Ir22  1  0.345732  0.345732  0.250000  1
  Ir  Ir23  1  0.345732  0.654268  0.750000  1
  Rh  Rh24  1  0.846501  0.153499  0.250000  1
  Rh  Rh25  1  0.846501  0.846501  0.750000  1
  Rh  Rh26  1  0.153499  0.153499  0.750000  1
  Rh  Rh27  1  0.153499  0.846501  0.250000  1
  Rh  Rh28  1  0.500000  0.000000  0.122574  1
  Rh  Rh29  1  0.500000  0.000000  0.622574  1
  Rh  Rh30  1  0.000000  0.500000  0.877426  1
  Rh  Rh31  1  0.000000  0.500000  0.377426  1
