# generated using pymatgen
data_ErFeReSiC
_symmetry_space_group_name_H-M   'P 1'
_cell_length_a   5.65311723
_cell_length_b   5.65311593
_cell_length_c   7.01251497
_cell_angle_alpha   92.45291264
_cell_angle_beta   87.54708861
_cell_angle_gamma   140.35800086
_symmetry_Int_Tables_number   1
_chemical_formula_structural   ErFeReSiC
_chemical_formula_sum   'Er2 Fe2 Re2 Si2 C2'
_cell_volume   142.82779510
_cell_formula_units_Z   2
loop_
 _symmetry_equiv_pos_site_id
 _symmetry_equiv_pos_as_xyz
  1  'x, y, z'
loop_
 _atom_site_type_symbol
 _atom_site_label
 _atom_site_symmetry_multiplicity
 _atom_site_fract_x
 _atom_site_fract_y
 _atom_site_fract_z
 _atom_site_occupancy
  Er  Er0  1  0.545883  0.454117  0.239246  1
  Er  Er1  1  0.454117  0.545883  0.760754  1
  Fe  Fe2  1  0.838534  0.161466  0.063335  1
  Fe  Fe3  1  0.161466  0.838534  0.936665  1
  Re  Re4  1  0.178880  0.821121  0.557810  1
  Re  Re5  1  0.821120  0.178879  0.442190  1
  Si  Si6  1  0.268538  0.731462  0.209132  1
  Si  Si7  1  0.731462  0.268538  0.790868  1
  C  C8  1  0.000000  0.000000  0.000000  1
  C  C9  1  0.000000  0.000000  0.500000  1
