# generated using pymatgen
data_K2Sm(IO3)5
_symmetry_space_group_name_H-M   'P 1'
_cell_length_a   8.18094447
_cell_length_b   8.18224000
_cell_length_c   12.15432800
_cell_angle_alpha   90.00000000
_cell_angle_beta   109.66648657
_cell_angle_gamma   90.00000000
_symmetry_Int_Tables_number   1
_chemical_formula_structural   K2Sm(IO3)5
_chemical_formula_sum   'K4 Sm2 I10 O30'
_cell_volume   766.13308837
_cell_formula_units_Z   2
loop_
 _symmetry_equiv_pos_site_id
 _symmetry_equiv_pos_as_xyz
  1  'x, y, z'
loop_
 _atom_site_type_symbol
 _atom_site_label
 _atom_site_symmetry_multiplicity
 _atom_site_fract_x
 _atom_site_fract_y
 _atom_site_fract_z
 _atom_site_occupancy
  K  K0  1  0.747488  0.000000  0.000000  1
  K  K1  1  0.247488  0.000000  0.000000  1
  K  K2  1  0.485746  0.510938  0.500000  1
  K  K3  1  0.985746  0.489061  0.500000  1
  Sm  Sm4  1  0.806088  0.500000  0.000000  1
  Sm  Sm5  1  0.306087  0.500000  0.000000  1
  I  I6  1  0.874482  0.265583  0.786615  1
  I  I7  1  0.087868  0.734417  0.213385  1
  I  I8  1  0.374482  0.734417  0.786615  1
  I  I9  1  0.587868  0.265583  0.213385  1
  I  I10  1  0.833635  0.758514  0.727402  1
  I  I11  1  0.106233  0.241486  0.272598  1
  I  I12  1  0.333635  0.241486  0.727402  1
  I  I13  1  0.606233  0.758514  0.272598  1
  I  I14  1  0.524752  0.044189  0.500000  1
  I  I15  1  0.024752  0.955811  0.500000  1
  O  O16  1  0.923089  0.057632  0.841817  1
  O  O17  1  0.081273  0.942368  0.158183  1
  O  O18  1  0.423089  0.942368  0.841817  1
  O  O19  1  0.581273  0.057632  0.158183  1
  O  O20  1  0.020571  0.381059  0.916635  1
  O  O21  1  0.103935  0.618941  0.083365  1
  O  O22  1  0.520571  0.618941  0.916635  1
  O  O23  1  0.603935  0.381059  0.083365  1
  O  O24  1  0.691096  0.305671  0.841569  1
  O  O25  1  0.849528  0.694329  0.158431  1
  O  O26  1  0.191096  0.694329  0.841569  1
  O  O27  1  0.349528  0.305671  0.158431  1
  O  O28  1  0.829791  0.713695  0.873873  1
  O  O29  1  0.955918  0.286305  0.126127  1
  O  O30  1  0.329791  0.286305  0.873873  1
  O  O31  1  0.455918  0.713695  0.126127  1
  O  O32  1  0.824338  0.552602  0.666203  1
  O  O33  1  0.158135  0.447398  0.333797  1
  O  O34  1  0.324338  0.447398  0.666203  1
  O  O35  1  0.658135  0.552602  0.333797  1
  O  O36  1  0.599530  0.806111  0.661022  1
  O  O37  1  0.938509  0.193889  0.338978  1
  O  O38  1  0.099530  0.193889  0.661022  1
  O  O39  1  0.438509  0.806111  0.338978  1
  O  O40  1  0.635593  0.189111  0.617534  1
  O  O41  1  0.018059  0.810889  0.382466  1
  O  O42  1  0.135593  0.810889  0.617534  1
  O  O43  1  0.518059  0.189111  0.382466  1
  O  O44  1  0.302154  0.094568  0.500000  1
  O  O45  1  0.802154  0.905432  0.500000  1
