# generated using pymatgen
data_Zr3CoCuSi2Ge
_symmetry_space_group_name_H-M   'P 1'
_cell_length_a   5.42310491
_cell_length_b   5.42310500
_cell_length_c   13.16418078
_cell_angle_alpha   90.69583973
_cell_angle_beta   89.30416079
_cell_angle_gamma   138.03986453
_symmetry_Int_Tables_number   1
_chemical_formula_structural   Zr3CoCuSi2Ge
_chemical_formula_sum   'Zr6 Co2 Cu2 Si4 Ge2'
_cell_volume   258.83809022
_cell_formula_units_Z   2
loop_
 _symmetry_equiv_pos_site_id
 _symmetry_equiv_pos_as_xyz
  1  'x, y, z'
loop_
 _atom_site_type_symbol
 _atom_site_label
 _atom_site_symmetry_multiplicity
 _atom_site_fract_x
 _atom_site_fract_y
 _atom_site_fract_z
 _atom_site_occupancy
  Zr  Zr0  1  0.927229  0.072771  0.387881  1
  Zr  Zr1  1  0.072771  0.927229  0.612119  1
  Zr  Zr2  1  0.928858  0.071142  0.117367  1
  Zr  Zr3  1  0.071142  0.928858  0.882633  1
  Zr  Zr4  1  0.634437  0.365563  0.251540  1
  Zr  Zr5  1  0.365563  0.634437  0.748460  1
  Co  Co6  1  0.780093  0.219907  0.575023  1
  Co  Co7  1  0.219907  0.780093  0.424977  1
  Cu  Cu8  1  0.781539  0.218461  0.909692  1
  Cu  Cu9  1  0.218461  0.781539  0.090308  1
  Si  Si10  1  0.611926  0.388074  0.456551  1
  Si  Si11  1  0.388074  0.611926  0.543449  1
  Si  Si12  1  0.607648  0.392352  0.040728  1
  Si  Si13  1  0.392352  0.607648  0.959272  1
  Ge  Ge14  1  0.338923  0.661077  0.258016  1
  Ge  Ge15  1  0.661077  0.338923  0.741984  1
