# generated using pymatgen
data_Er5Lu3(Co4P3)4
_symmetry_space_group_name_H-M   'P 1'
_cell_length_a   12.33904800
_cell_length_b   12.33904661
_cell_length_c   3.73567100
_cell_angle_alpha   90.00000000
_cell_angle_beta   90.00000000
_cell_angle_gamma   119.99999836
_symmetry_Int_Tables_number   1
_chemical_formula_structural   Er5Lu3(Co4P3)4
_chemical_formula_sum   'Er5 Lu3 Co16 P12'
_cell_volume   492.56383091
_cell_formula_units_Z   1
loop_
 _symmetry_equiv_pos_site_id
 _symmetry_equiv_pos_as_xyz
  1  'x, y, z'
loop_
 _atom_site_type_symbol
 _atom_site_label
 _atom_site_symmetry_multiplicity
 _atom_site_fract_x
 _atom_site_fract_y
 _atom_site_fract_z
 _atom_site_occupancy
  Er  Er0  1  0.818429  0.000000  0.500000  1
  Er  Er1  1  0.000000  0.818429  0.500000  1
  Er  Er2  1  0.181571  0.181571  0.500000  1
  Er  Er3  1  0.333333  0.666667  0.000000  1
  Er  Er4  1  0.666667  0.333333  0.000000  1
  Lu  Lu5  1  0.441501  0.000000  0.000000  1
  Lu  Lu6  1  0.000000  0.441501  0.000000  1
  Lu  Lu7  1  0.558499  0.558499  0.000000  1
  Co  Co8  1  0.275815  0.000000  0.500000  1
  Co  Co9  1  0.000000  0.275815  0.500000  1
  Co  Co10  1  0.724185  0.724185  0.500000  1
  Co  Co11  1  0.628110  0.807401  0.000000  1
  Co  Co12  1  0.192599  0.820710  0.000000  1
  Co  Co13  1  0.179290  0.371890  0.000000  1
  Co  Co14  1  0.371890  0.179290  0.000000  1
  Co  Co15  1  0.807401  0.628110  0.000000  1
  Co  Co16  1  0.820710  0.192599  0.000000  1
  Co  Co17  1  0.522131  0.875883  0.500000  1
  Co  Co18  1  0.124117  0.646248  0.500000  1
  Co  Co19  1  0.353752  0.477869  0.500000  1
  Co  Co20  1  0.477869  0.353752  0.500000  1
  Co  Co21  1  0.875883  0.522131  0.500000  1
  Co  Co22  1  0.646248  0.124117  0.500000  1
  Co  Co23  1  0.000000  0.000000  0.000000  1
  P  P24  1  0.178205  0.000000  0.000000  1
  P  P25  1  0.000000  0.178205  0.000000  1
  P  P26  1  0.821795  0.821795  0.000000  1
  P  P27  1  0.522230  0.696243  0.500000  1
  P  P28  1  0.303757  0.825987  0.500000  1
  P  P29  1  0.174013  0.477770  0.500000  1
  P  P30  1  0.477770  0.174013  0.500000  1
  P  P31  1  0.696243  0.522230  0.500000  1
  P  P32  1  0.825987  0.303757  0.500000  1
  P  P33  1  0.650948  0.000000  0.000000  1
  P  P34  1  0.000000  0.650948  0.000000  1
  P  P35  1  0.349052  0.349052  0.000000  1
