# generated using pymatgen
data_Dy8Er8Sc4Si15Tc
_symmetry_space_group_name_H-M   'P 1'
_cell_length_a   7.21571223
_cell_length_b   7.66824327
_cell_length_c   14.31838900
_cell_angle_alpha   90.00000000
_cell_angle_beta   90.00000000
_cell_angle_gamma   90.17111994
_symmetry_Int_Tables_number   1
_chemical_formula_structural   Dy8Er8Sc4Si15Tc
_chemical_formula_sum   'Dy8 Er8 Sc4 Si15 Tc1'
_cell_volume   792.25922935
_cell_formula_units_Z   1
loop_
 _symmetry_equiv_pos_site_id
 _symmetry_equiv_pos_as_xyz
  1  'x, y, z'
loop_
 _atom_site_type_symbol
 _atom_site_label
 _atom_site_symmetry_multiplicity
 _atom_site_fract_x
 _atom_site_fract_y
 _atom_site_fract_z
 _atom_site_occupancy
  Dy  Dy0  1  0.018704  0.183816  0.096422  1
  Dy  Dy1  1  0.984446  0.825335  0.904784  1
  Dy  Dy2  1  0.482757  0.682033  0.903746  1
  Dy  Dy3  1  0.984446  0.825335  0.595216  1
  Dy  Dy4  1  0.518097  0.317845  0.096528  1
  Dy  Dy5  1  0.018704  0.183816  0.403578  1
  Dy  Dy6  1  0.518097  0.317845  0.403472  1
  Dy  Dy7  1  0.482757  0.682033  0.596254  1
  Er  Er8  1  0.308821  0.172427  0.628607  1
  Er  Er9  1  0.678681  0.824414  0.373684  1
  Er  Er10  1  0.178443  0.678603  0.373236  1
  Er  Er11  1  0.678681  0.824414  0.126316  1
  Er  Er12  1  0.830689  0.317635  0.627381  1
  Er  Er13  1  0.308821  0.172427  0.871393  1
  Er  Er14  1  0.830689  0.317635  0.872619  1
  Er  Er15  1  0.178443  0.678603  0.126764  1
  Sc  Sc16  1  0.152991  0.515161  0.750000  1
  Sc  Sc17  1  0.843983  0.483917  0.250000  1
  Sc  Sc18  1  0.344565  0.017378  0.250000  1
  Sc  Sc19  1  0.665935  0.987528  0.750000  1
  Si  Si20  1  0.980940  0.905382  0.250000  1
  Si  Si21  1  0.482674  0.595258  0.250000  1
  Si  Si22  1  0.518392  0.403313  0.750000  1
  Si  Si23  1  0.279433  0.859245  0.750000  1
  Si  Si24  1  0.719536  0.135948  0.250000  1
  Si  Si25  1  0.221065  0.364584  0.250000  1
  Si  Si26  1  0.773657  0.632797  0.750000  1
  Si  Si27  1  0.156388  0.473345  0.538741  1
  Si  Si28  1  0.847789  0.530834  0.460171  1
  Si  Si29  1  0.346811  0.970536  0.459143  1
  Si  Si30  1  0.847789  0.530834  0.039829  1
  Si  Si31  1  0.649078  0.030807  0.539467  1
  Si  Si32  1  0.156388  0.473345  0.961259  1
  Si  Si33  1  0.649078  0.030807  0.960533  1
  Si  Si34  1  0.346811  0.970536  0.040857  1
  Tc  Tc35  1  0.015423  0.084229  0.750000  1
