# generated using pymatgen
data_SrAcB4Ir5
_symmetry_space_group_name_H-M   'P 1'
_cell_length_a   7.68257865
_cell_length_b   6.38107825
_cell_length_c   5.84035088
_cell_angle_alpha   77.75702709
_cell_angle_beta   54.26241419
_cell_angle_gamma   47.98058281
_symmetry_Int_Tables_number   1
_chemical_formula_structural   SrAcB4Ir5
_chemical_formula_sum   'Sr1 Ac1 B4 Ir5'
_cell_volume   164.88019972
_cell_formula_units_Z   1
loop_
 _symmetry_equiv_pos_site_id
 _symmetry_equiv_pos_as_xyz
  1  'x, y, z'
loop_
 _atom_site_type_symbol
 _atom_site_label
 _atom_site_symmetry_multiplicity
 _atom_site_fract_x
 _atom_site_fract_y
 _atom_site_fract_z
 _atom_site_occupancy
  Sr  Sr0  1  0.147157  0.147157  0.852843  1
  Ac  Ac1  1  0.860500  0.860500  0.139500  1
  B  B2  1  0.789615  0.465223  0.534777  1
  B  B3  1  0.206401  0.534290  0.465710  1
  B  B4  1  0.534290  0.206401  0.793599  1
  B  B5  1  0.465223  0.789615  0.210385  1
  Ir  Ir6  1  0.499967  0.499967  0.500033  1
  Ir  Ir7  1  0.500210  0.500210  0.999790  1
  Ir  Ir8  1  0.000210  0.000210  0.499790  1
  Ir  Ir9  1  0.748213  0.748213  0.751787  1
  Ir  Ir10  1  0.248213  0.248213  0.251787  1
