# generated using pymatgen
data_Ti5Cr(GaRu2)6
_symmetry_space_group_name_H-M   'P 1'
_cell_length_a   4.28200900
_cell_length_b   6.14624500
_cell_length_c   12.86617500
_cell_angle_alpha   89.99995909
_cell_angle_beta   90.00050361
_cell_angle_gamma   89.99972636
_symmetry_Int_Tables_number   1
_chemical_formula_structural   Ti5Cr(GaRu2)6
_chemical_formula_sum   'Ti5 Cr1 Ga6 Ru12'
_cell_volume   338.61554993
_cell_formula_units_Z   1
loop_
 _symmetry_equiv_pos_site_id
 _symmetry_equiv_pos_as_xyz
  1  'x, y, z'
loop_
 _atom_site_type_symbol
 _atom_site_label
 _atom_site_symmetry_multiplicity
 _atom_site_fract_x
 _atom_site_fract_y
 _atom_site_fract_z
 _atom_site_occupancy
  Ti  Ti0  1  0.999991  0.500013  0.999894  1
  Ti  Ti1  1  0.499722  0.999996  0.166462  1
  Ti  Ti2  1  0.999787  0.500018  0.333364  1
  Ti  Ti3  1  0.500007  0.999995  0.500215  1
  Ti  Ti4  1  0.000259  0.500015  0.666715  1
  Cr  Cr5  1  0.499856  0.999851  0.833609  1
  Ga  Ga6  1  0.999964  0.000004  0.002176  1
  Ga  Ga7  1  0.499724  0.500009  0.164926  1
  Ga  Ga8  1  0.999801  0.999998  0.333366  1
  Ga  Ga9  1  0.500002  0.500009  0.501722  1
  Ga  Ga10  1  0.000248  0.000003  0.664456  1
  Ga  Ga11  1  0.500331  0.500022  0.833279  1
  Ru  Ru12  1  0.500000  0.246921  0.995295  1
  Ru  Ru13  1  0.500001  0.753091  0.995298  1
  Ru  Ru14  1  0.999729  0.250426  0.165690  1
  Ru  Ru15  1  0.999731  0.749579  0.165688  1
  Ru  Ru16  1  0.499843  0.250378  0.333328  1
  Ru  Ru17  1  0.499844  0.749632  0.333328  1
  Ru  Ru18  1  0.000010  0.250443  0.500974  1
  Ru  Ru19  1  0.000010  0.749567  0.500978  1
  Ru  Ru20  1  0.500253  0.246880  0.671312  1
  Ru  Ru21  1  0.500253  0.753132  0.671311  1
  Ru  Ru22  1  0.000316  0.239415  0.833308  1
  Ru  Ru23  1  0.000320  0.760602  0.833310  1
