# generated using pymatgen
data_CoBi3Ir2(RhO7)2
_symmetry_space_group_name_H-M   'P 1'
_cell_length_a   7.32483026
_cell_length_b   7.19204967
_cell_length_c   7.33500400
_cell_angle_alpha   59.34028537
_cell_angle_beta   59.95405267
_cell_angle_gamma   59.34588457
_symmetry_Int_Tables_number   1
_chemical_formula_structural   CoBi3Ir2(RhO7)2
_chemical_formula_sum   'Co1 Bi3 Ir2 Rh2 O14'
_cell_volume   270.39787863
_cell_formula_units_Z   1
loop_
 _symmetry_equiv_pos_site_id
 _symmetry_equiv_pos_as_xyz
  1  'x, y, z'
loop_
 _atom_site_type_symbol
 _atom_site_label
 _atom_site_symmetry_multiplicity
 _atom_site_fract_x
 _atom_site_fract_y
 _atom_site_fract_z
 _atom_site_occupancy
  Co  Co0  1  0.125000  0.625000  0.125000  1
  Bi  Bi1  1  0.125000  0.125000  0.125000  1
  Bi  Bi2  1  0.625000  0.125000  0.125000  1
  Bi  Bi3  1  0.125000  0.125000  0.625000  1
  Ir  Ir4  1  0.625000  0.625000  0.625000  1
  Ir  Ir5  1  0.625000  0.625000  0.125000  1
  Rh  Rh6  1  0.125000  0.625000  0.625000  1
  Rh  Rh7  1  0.625000  0.125000  0.625000  1
  O  O8  1  0.238865  0.284655  0.238240  1
  O  O9  1  0.295643  0.702822  0.290223  1
  O  O10  1  0.960223  0.962785  0.538496  1
  O  O11  1  0.542142  0.958809  0.538845  1
  O  O12  1  0.704460  0.703468  0.296036  1
  O  O13  1  0.954357  0.547178  0.538688  1
  O  O14  1  0.707858  0.291191  0.711155  1
  O  O15  1  0.289777  0.287215  0.711504  1
  O  O16  1  0.707858  0.291191  0.289795  1
  O  O17  1  0.295643  0.702822  0.711312  1
  O  O18  1  0.954357  0.547178  0.959777  1
  O  O19  1  0.545540  0.546532  0.953964  1
  O  O20  1  0.011135  0.965345  0.011760  1
  O  O21  1  0.542142  0.958809  0.960205  1
