# generated using pymatgen
data_Ho8MgSc10Si16Ag
_symmetry_space_group_name_H-M   'P 1'
_cell_length_a   6.98109143
_cell_length_b   7.38912314
_cell_length_c   13.98379600
_cell_angle_alpha   90.00000000
_cell_angle_beta   90.00000000
_cell_angle_gamma   89.80576547
_symmetry_Int_Tables_number   1
_chemical_formula_structural   Ho8MgSc10Si16Ag
_chemical_formula_sum   'Ho8 Mg1 Sc10 Si16 Ag1'
_cell_volume   721.33800419
_cell_formula_units_Z   1
loop_
 _symmetry_equiv_pos_site_id
 _symmetry_equiv_pos_as_xyz
  1  'x, y, z'
loop_
 _atom_site_type_symbol
 _atom_site_label
 _atom_site_symmetry_multiplicity
 _atom_site_fract_x
 _atom_site_fract_y
 _atom_site_fract_z
 _atom_site_occupancy
  Ho  Ho0  1  0.010060  0.179433  0.096752  1
  Ho  Ho1  1  0.990549  0.815585  0.901593  1
  Ho  Ho2  1  0.485855  0.673362  0.902413  1
  Ho  Ho3  1  0.990549  0.815585  0.598407  1
  Ho  Ho4  1  0.512158  0.325140  0.095970  1
  Ho  Ho5  1  0.010060  0.179433  0.403248  1
  Ho  Ho6  1  0.512158  0.325140  0.404030  1
  Ho  Ho7  1  0.485855  0.673362  0.597587  1
  Mg  Mg8  1  0.839895  0.494566  0.250000  1
  Sc  Sc9  1  0.341043  0.003591  0.250000  1
  Sc  Sc10  1  0.657676  0.996960  0.750000  1
  Sc  Sc11  1  0.325290  0.182395  0.626490  1
  Sc  Sc12  1  0.672584  0.820362  0.375129  1
  Sc  Sc13  1  0.167640  0.677805  0.374234  1
  Sc  Sc14  1  0.672584  0.820362  0.124871  1
  Sc  Sc15  1  0.835948  0.324959  0.626740  1
  Sc  Sc16  1  0.325290  0.182395  0.873510  1
  Sc  Sc17  1  0.835948  0.324959  0.873260  1
  Sc  Sc18  1  0.167640  0.677805  0.125766  1
  Si  Si19  1  0.027924  0.096301  0.750000  1
  Si  Si20  1  0.970308  0.899395  0.250000  1
  Si  Si21  1  0.462550  0.617062  0.250000  1
  Si  Si22  1  0.536876  0.384939  0.750000  1
  Si  Si23  1  0.289165  0.881216  0.750000  1
  Si  Si24  1  0.710662  0.120813  0.250000  1
  Si  Si25  1  0.221825  0.371616  0.250000  1
  Si  Si26  1  0.778080  0.628660  0.750000  1
  Si  Si27  1  0.162060  0.459575  0.531040  1
  Si  Si28  1  0.839902  0.538033  0.466510  1
  Si  Si29  1  0.343044  0.966959  0.461942  1
  Si  Si30  1  0.839902  0.538033  0.033490  1
  Si  Si31  1  0.657997  0.032822  0.539718  1
  Si  Si32  1  0.162060  0.459575  0.968960  1
  Si  Si33  1  0.657997  0.032822  0.960282  1
  Si  Si34  1  0.343044  0.966959  0.038058  1
  Ag  Ag35  1  0.157816  0.512023  0.750000  1
