# generated using pymatgen
data_Tm5Hg2PbO
_symmetry_space_group_name_H-M   'P 1'
_cell_length_a   8.77621142
_cell_length_b   8.77621061
_cell_length_c   8.77621000
_cell_angle_alpha   125.55159236
_cell_angle_beta   125.55158057
_cell_angle_gamma   80.62639321
_symmetry_Int_Tables_number   1
_chemical_formula_structural   Tm5Hg2PbO
_chemical_formula_sum   'Tm10 Hg4 Pb2 O2'
_cell_volume   431.48345690
_cell_formula_units_Z   2
loop_
 _symmetry_equiv_pos_site_id
 _symmetry_equiv_pos_as_xyz
  1  'x, y, z'
loop_
 _atom_site_type_symbol
 _atom_site_label
 _atom_site_symmetry_multiplicity
 _atom_site_fract_x
 _atom_site_fract_y
 _atom_site_fract_z
 _atom_site_occupancy
  Tm  Tm0  1  0.498508  0.302071  0.500000  1
  Tm  Tm1  1  0.802071  0.998508  0.500000  1
  Tm  Tm2  1  0.998508  0.498508  0.196437  1
  Tm  Tm3  1  0.302071  0.802071  0.803563  1
  Tm  Tm4  1  0.504006  0.700443  0.500000  1
  Tm  Tm5  1  0.200443  0.004006  0.500000  1
  Tm  Tm6  1  0.004006  0.504006  0.803562  1
  Tm  Tm7  1  0.700443  0.200443  0.196438  1
  Tm  Tm8  1  0.501315  0.501315  0.000000  1
  Tm  Tm9  1  0.001315  0.001315  0.000000  1
  Hg  Hg10  1  0.141773  0.360750  0.500000  1
  Hg  Hg11  1  0.860750  0.641773  0.500000  1
  Hg  Hg12  1  0.641773  0.141773  0.781022  1
  Hg  Hg13  1  0.360750  0.860750  0.218978  1
  Pb  Pb14  1  0.751290  0.751290  0.000000  1
  Pb  Pb15  1  0.251290  0.251290  0.000000  1
  O  O16  1  0.751264  0.251264  0.500000  1
  O  O17  1  0.251264  0.751264  0.500000  1
