# generated using pymatgen
data_CeNd(BIr)8
_symmetry_space_group_name_H-M   'P 1'
_cell_length_a   7.73069700
_cell_length_b   7.73069700
_cell_length_c   3.98640700
_cell_angle_alpha   90.00000000
_cell_angle_beta   90.00000000
_cell_angle_gamma   90.00000000
_symmetry_Int_Tables_number   1
_chemical_formula_structural   CeNd(BIr)8
_chemical_formula_sum   'Ce1 Nd1 B8 Ir8'
_cell_volume   238.24233677
_cell_formula_units_Z   1
loop_
 _symmetry_equiv_pos_site_id
 _symmetry_equiv_pos_as_xyz
  1  'x, y, z'
loop_
 _atom_site_type_symbol
 _atom_site_label
 _atom_site_symmetry_multiplicity
 _atom_site_fract_x
 _atom_site_fract_y
 _atom_site_fract_z
 _atom_site_occupancy
  Ce  Ce0  1  0.500000  0.500000  0.000000  1
  Nd  Nd1  1  0.000000  0.000000  0.500000  1
  B  B2  1  0.658160  0.778928  0.608056  1
  B  B3  1  0.158560  0.279084  0.889963  1
  B  B4  1  0.279084  0.841440  0.110037  1
  B  B5  1  0.720916  0.158560  0.110037  1
  B  B6  1  0.341840  0.221072  0.608056  1
  B  B7  1  0.841440  0.720916  0.889963  1
  B  B8  1  0.221072  0.658160  0.391944  1
  B  B9  1  0.778928  0.341840  0.391944  1
  Ir  Ir10  1  0.340299  0.109194  0.108077  1
  Ir  Ir11  1  0.659701  0.890806  0.108077  1
  Ir  Ir12  1  0.608546  0.161656  0.611059  1
  Ir  Ir13  1  0.109194  0.659701  0.891923  1
  Ir  Ir14  1  0.161656  0.391454  0.388941  1
  Ir  Ir15  1  0.838344  0.608546  0.388941  1
  Ir  Ir16  1  0.890806  0.340299  0.891923  1
  Ir  Ir17  1  0.391454  0.838344  0.611059  1
