# generated using pymatgen
data_Ho2ZnGaFe4
_symmetry_space_group_name_H-M   'P 1'
_cell_length_a   4.94177010
_cell_length_b   3.93670800
_cell_length_c   6.87224811
_cell_angle_alpha   90.00000000
_cell_angle_beta   90.02176461
_cell_angle_gamma   90.00000000
_symmetry_Int_Tables_number   1
_chemical_formula_structural   Ho2ZnGaFe4
_chemical_formula_sum   'Ho2 Zn1 Ga1 Fe4'
_cell_volume   133.69480721
_cell_formula_units_Z   1
loop_
 _symmetry_equiv_pos_site_id
 _symmetry_equiv_pos_as_xyz
  1  'x, y, z'
loop_
 _atom_site_type_symbol
 _atom_site_label
 _atom_site_symmetry_multiplicity
 _atom_site_fract_x
 _atom_site_fract_y
 _atom_site_fract_z
 _atom_site_occupancy
  Ho  Ho0  1  0.749964  0.500000  0.186716  1
  Ho  Ho1  1  0.250039  0.500000  0.812502  1
  Zn  Zn2  1  0.250016  0.000000  0.164040  1
  Ga  Ga3  1  0.749975  0.000000  0.834220  1
  Fe  Fe4  1  0.250041  0.500000  0.408810  1
  Fe  Fe5  1  0.000190  0.000000  0.500546  1
  Fe  Fe6  1  0.499812  0.000000  0.500546  1
  Fe  Fe7  1  0.749957  0.500000  0.592619  1
