# generated using pymatgen
data_Tm5Th5(Si3C)2
_symmetry_space_group_name_H-M   'P 1'
_cell_length_a   8.61430100
_cell_length_b   8.62519759
_cell_length_c   6.30420000
_cell_angle_alpha   90.00000000
_cell_angle_beta   90.00000000
_cell_angle_gamma   120.04185292
_symmetry_Int_Tables_number   1
_chemical_formula_structural   Tm5Th5(Si3C)2
_chemical_formula_sum   'Tm5 Th5 Si6 C2'
_cell_volume   405.47716080
_cell_formula_units_Z   1
loop_
 _symmetry_equiv_pos_site_id
 _symmetry_equiv_pos_as_xyz
  1  'x, y, z'
loop_
 _atom_site_type_symbol
 _atom_site_label
 _atom_site_symmetry_multiplicity
 _atom_site_fract_x
 _atom_site_fract_y
 _atom_site_fract_z
 _atom_site_occupancy
  Tm  Tm0  1  0.668394  0.334873  0.500636  1
  Tm  Tm1  1  0.331606  0.666481  0.500636  1
  Tm  Tm2  1  0.331606  0.666481  0.999364  1
  Tm  Tm3  1  0.668394  0.334873  0.999364  1
  Tm  Tm4  1  0.000000  0.773245  0.750000  1
  Th  Th5  1  0.766453  0.764211  0.250000  1
  Th  Th6  1  0.233547  0.997759  0.250000  1
  Th  Th7  1  0.000000  0.233668  0.250000  1
  Th  Th8  1  0.235092  0.234544  0.750000  1
  Th  Th9  1  0.764908  0.999452  0.750000  1
  Si  Si10  1  0.402916  0.400515  0.250000  1
  Si  Si11  1  0.597084  0.997599  0.250000  1
  Si  Si12  1  0.000000  0.594385  0.250000  1
  Si  Si13  1  0.603225  0.598403  0.750000  1
  Si  Si14  1  0.396775  0.995177  0.750000  1
  Si  Si15  1  0.000000  0.409228  0.750000  1
  C  C16  1  0.000000  0.999553  0.500313  1
  C  C17  1  0.000000  0.999553  0.999687  1
