# generated using pymatgen
data_Cs4Mg3Mn3Te8
_symmetry_space_group_name_H-M   'P 1'
_cell_length_a   10.73453362
_cell_length_b   10.74241054
_cell_length_c   10.73453464
_cell_angle_alpha   143.51776899
_cell_angle_beta   105.71930448
_cell_angle_gamma   85.67001018
_symmetry_Int_Tables_number   1
_chemical_formula_structural   Cs4Mg3Mn3Te8
_chemical_formula_sum   'Cs4 Mg3 Mn3 Te8'
_cell_volume   686.20951385
_cell_formula_units_Z   1
loop_
 _symmetry_equiv_pos_site_id
 _symmetry_equiv_pos_as_xyz
  1  'x, y, z'
loop_
 _atom_site_type_symbol
 _atom_site_label
 _atom_site_symmetry_multiplicity
 _atom_site_fract_x
 _atom_site_fract_y
 _atom_site_fract_z
 _atom_site_occupancy
  Cs  Cs0  1  0.122891  0.235781  0.359336  1
  Cs  Cs1  1  0.375923  0.735269  0.112688  1
  Cs  Cs2  1  0.623555  0.264219  0.887110  1
  Cs  Cs3  1  0.877419  0.764731  0.640655  1
  Mg  Mg4  1  0.514873  0.750000  0.764873  1
  Mg  Mg5  1  0.985673  0.750000  0.235673  1
  Mg  Mg6  1  0.484717  0.250000  0.234717  1
  Mn  Mn7  1  0.748921  0.250000  0.498921  1
  Mn  Mn8  1  0.249897  0.750000  0.499897  1
  Mn  Mn9  1  0.013815  0.250000  0.763815  1
  Te  Te10  1  0.221165  0.081920  0.603722  1
  Te  Te11  1  0.275471  0.873615  0.852678  1
  Te  Te12  1  0.021803  0.418080  0.139246  1
  Te  Te13  1  0.479063  0.626385  0.401855  1
  Te  Te14  1  0.778918  0.928218  0.409012  1
  Te  Te15  1  0.724402  0.125850  0.146551  1
  Te  Te16  1  0.980794  0.571782  0.850699  1
  Te  Te17  1  0.520702  0.374150  0.598552  1
