# generated using pymatgen
data_Hf4MnSi4Rh3
_symmetry_space_group_name_H-M   'P 1'
_cell_length_a   3.94319200
_cell_length_b   6.44889759
_cell_length_c   7.40337865
_cell_angle_alpha   90.41134378
_cell_angle_beta   90.00000000
_cell_angle_gamma   90.00000000
_symmetry_Int_Tables_number   1
_chemical_formula_structural   Hf4MnSi4Rh3
_chemical_formula_sum   'Hf4 Mn1 Si4 Rh3'
_cell_volume   188.25745107
_cell_formula_units_Z   1
loop_
 _symmetry_equiv_pos_site_id
 _symmetry_equiv_pos_as_xyz
  1  'x, y, z'
loop_
 _atom_site_type_symbol
 _atom_site_label
 _atom_site_symmetry_multiplicity
 _atom_site_fract_x
 _atom_site_fract_y
 _atom_site_fract_z
 _atom_site_occupancy
  Hf  Hf0  1  0.250000  0.523766  0.186239  1
  Hf  Hf1  1  0.750000  0.490736  0.815820  1
  Hf  Hf2  1  0.250000  0.012690  0.309651  1
  Hf  Hf3  1  0.750000  0.976598  0.684347  1
  Mn  Mn4  1  0.750000  0.842409  0.063165  1
  Si  Si5  1  0.250000  0.782806  0.892369  1
  Si  Si6  1  0.750000  0.216350  0.116495  1
  Si  Si7  1  0.250000  0.273187  0.617808  1
  Si  Si8  1  0.750000  0.725579  0.372727  1
  Rh  Rh9  1  0.250000  0.155601  0.936938  1
  Rh  Rh10  1  0.750000  0.345983  0.434740  1
  Rh  Rh11  1  0.250000  0.654296  0.569700  1
