# generated using pymatgen
data_Dy2Ni9P7Ir3
_symmetry_space_group_name_H-M   'P 1'
_cell_length_a   9.14491100
_cell_length_b   9.14491104
_cell_length_c   3.81539200
_cell_angle_alpha   90.00000000
_cell_angle_beta   90.00000000
_cell_angle_gamma   120.00000347
_symmetry_Int_Tables_number   1
_chemical_formula_structural   Dy2Ni9P7Ir3
_chemical_formula_sum   'Dy2 Ni9 P7 Ir3'
_cell_volume   276.33045340
_cell_formula_units_Z   1
loop_
 _symmetry_equiv_pos_site_id
 _symmetry_equiv_pos_as_xyz
  1  'x, y, z'
loop_
 _atom_site_type_symbol
 _atom_site_label
 _atom_site_symmetry_multiplicity
 _atom_site_fract_x
 _atom_site_fract_y
 _atom_site_fract_z
 _atom_site_occupancy
  Dy  Dy0  1  0.666667  0.333333  0.000000  1
  Dy  Dy1  1  0.000000  0.000000  0.500000  1
  Ni  Ni2  1  0.766191  0.729234  0.000000  1
  Ni  Ni3  1  0.270766  0.036958  0.000000  1
  Ni  Ni4  1  0.963042  0.233809  0.000000  1
  Ni  Ni5  1  0.528975  0.742600  0.500000  1
  Ni  Ni6  1  0.257400  0.786376  0.500000  1
  Ni  Ni7  1  0.213624  0.471025  0.500000  1
  Ni  Ni8  1  0.486848  0.939601  0.000000  1
  Ni  Ni9  1  0.060399  0.547247  0.000000  1
  Ni  Ni10  1  0.452753  0.513152  0.000000  1
  P  P11  1  0.439726  0.064724  0.500000  1
  P  P12  1  0.935276  0.375001  0.500000  1
  P  P13  1  0.624999  0.560274  0.500000  1
  P  P14  1  0.333333  0.666667  0.000000  1
  P  P15  1  0.744706  0.958904  0.000000  1
  P  P16  1  0.041096  0.785801  0.000000  1
  P  P17  1  0.214199  0.255294  0.000000  1
  Ir  Ir18  1  0.716352  0.094610  0.500000  1
  Ir  Ir19  1  0.905390  0.621742  0.500000  1
  Ir  Ir20  1  0.378258  0.283648  0.500000  1
