# generated using pymatgen
data_Ho5P12PdRu18
_symmetry_space_group_name_H-M   'P 1'
_cell_length_a   12.56169800
_cell_length_b   12.56169750
_cell_length_c   3.97061400
_cell_angle_alpha   90.00000000
_cell_angle_beta   90.00000000
_cell_angle_gamma   120.00000133
_symmetry_Int_Tables_number   1
_chemical_formula_structural   Ho5P12PdRu18
_chemical_formula_sum   'Ho5 P12 Pd1 Ru18'
_cell_volume   542.60647795
_cell_formula_units_Z   1
loop_
 _symmetry_equiv_pos_site_id
 _symmetry_equiv_pos_as_xyz
  1  'x, y, z'
loop_
 _atom_site_type_symbol
 _atom_site_label
 _atom_site_symmetry_multiplicity
 _atom_site_fract_x
 _atom_site_fract_y
 _atom_site_fract_z
 _atom_site_occupancy
  Ho  Ho0  1  0.666667  0.333333  0.000000  1
  Ho  Ho1  1  0.333333  0.666667  0.000000  1
  Ho  Ho2  1  0.809144  0.809144  0.500000  1
  Ho  Ho3  1  0.190856  0.000000  0.500000  1
  Ho  Ho4  1  0.000000  0.190856  0.500000  1
  P  P5  1  0.693321  0.171207  0.500000  1
  P  P6  1  0.828793  0.522115  0.500000  1
  P  P7  1  0.477885  0.306679  0.500000  1
  P  P8  1  0.171207  0.693321  0.500000  1
  P  P9  1  0.522115  0.828793  0.500000  1
  P  P10  1  0.306679  0.477885  0.500000  1
  P  P11  1  0.187152  0.187152  0.000000  1
  P  P12  1  0.812848  0.000000  0.000000  1
  P  P13  1  0.000000  0.812848  0.000000  1
  P  P14  1  0.626915  0.626915  0.000000  1
  P  P15  1  0.373085  0.000000  0.000000  1
  P  P16  1  0.000000  0.373085  0.000000  1
  Pd  Pd17  1  0.000000  0.000000  0.000000  1
  Ru  Ru18  1  0.873794  0.365765  0.500000  1
  Ru  Ru19  1  0.634235  0.508029  0.500000  1
  Ru  Ru20  1  0.491971  0.126206  0.500000  1
  Ru  Ru21  1  0.365765  0.873794  0.500000  1
  Ru  Ru22  1  0.508029  0.634235  0.500000  1
  Ru  Ru23  1  0.126206  0.491971  0.500000  1
  Ru  Ru24  1  0.444986  0.444986  0.000000  1
  Ru  Ru25  1  0.555014  0.000000  0.000000  1
  Ru  Ru26  1  0.000000  0.555014  0.000000  1
  Ru  Ru27  1  0.808143  0.184901  0.000000  1
  Ru  Ru28  1  0.815099  0.623240  0.000000  1
  Ru  Ru29  1  0.376760  0.191857  0.000000  1
  Ru  Ru30  1  0.184901  0.808143  0.000000  1
  Ru  Ru31  1  0.623240  0.815099  0.000000  1
  Ru  Ru32  1  0.191857  0.376760  0.000000  1
  Ru  Ru33  1  0.282283  0.282283  0.500000  1
  Ru  Ru34  1  0.717717  0.000000  0.500000  1
  Ru  Ru35  1  0.000000  0.717717  0.500000  1
