# generated using pymatgen
data_Np4BeB14
_symmetry_space_group_name_H-M   'P 1'
_cell_length_a   7.15704100
_cell_length_b   7.15704100
_cell_length_c   7.37641600
_cell_angle_alpha   90.00000000
_cell_angle_beta   90.00000000
_cell_angle_gamma   90.00000000
_symmetry_Int_Tables_number   1
_chemical_formula_structural   Np4BeB14
_chemical_formula_sum   'Np8 Be2 B28'
_cell_volume   377.84389669
_cell_formula_units_Z   2
loop_
 _symmetry_equiv_pos_site_id
 _symmetry_equiv_pos_as_xyz
  1  'x, y, z'
loop_
 _atom_site_type_symbol
 _atom_site_label
 _atom_site_symmetry_multiplicity
 _atom_site_fract_x
 _atom_site_fract_y
 _atom_site_fract_z
 _atom_site_occupancy
  Np  Np0  1  0.198137  0.328428  0.000000  1
  Np  Np1  1  0.671572  0.198137  0.000000  1
  Np  Np2  1  0.328428  0.801863  0.000000  1
  Np  Np3  1  0.698137  0.171572  0.500000  1
  Np  Np4  1  0.301863  0.828428  0.500000  1
  Np  Np5  1  0.801863  0.671572  0.000000  1
  Np  Np6  1  0.828428  0.698137  0.500000  1
  Np  Np7  1  0.171572  0.301863  0.500000  1
  Be  Be8  1  0.000000  0.000000  0.000000  1
  Be  Be9  1  0.500000  0.500000  0.500000  1
  B  B10  1  0.175150  0.040300  0.226477  1
  B  B11  1  0.959700  0.175150  0.226477  1
  B  B12  1  0.040300  0.824850  0.226477  1
  B  B13  1  0.675150  0.459700  0.273523  1
  B  B14  1  0.324850  0.540300  0.273523  1
  B  B15  1  0.824850  0.959700  0.226477  1
  B  B16  1  0.540300  0.675150  0.273523  1
  B  B17  1  0.459700  0.324850  0.273523  1
  B  B18  1  0.824850  0.959700  0.773523  1
  B  B19  1  0.040300  0.824850  0.773523  1
  B  B20  1  0.959700  0.175150  0.773523  1
  B  B21  1  0.324850  0.540300  0.726477  1
  B  B22  1  0.675150  0.459700  0.726477  1
  B  B23  1  0.175150  0.040300  0.773523  1
  B  B24  1  0.459700  0.324850  0.726477  1
  B  B25  1  0.540300  0.675150  0.726477  1
  B  B26  1  0.089130  0.589130  0.250000  1
  B  B27  1  0.410870  0.089130  0.250000  1
  B  B28  1  0.589130  0.910870  0.250000  1
  B  B29  1  0.910870  0.410870  0.250000  1
  B  B30  1  0.910870  0.410870  0.750000  1
  B  B31  1  0.589130  0.910870  0.750000  1
  B  B32  1  0.410870  0.089130  0.750000  1
  B  B33  1  0.089130  0.589130  0.750000  1
  B  B34  1  0.000000  0.000000  0.388501  1
  B  B35  1  0.500000  0.500000  0.111499  1
  B  B36  1  0.000000  0.000000  0.611499  1
  B  B37  1  0.500000  0.500000  0.888501  1
