# generated using pymatgen
data_ScTa4Nb3Tc8
_symmetry_space_group_name_H-M   'P 1'
_cell_length_a   6.40947900
_cell_length_b   4.51160800
_cell_length_c   9.02758800
_cell_angle_alpha   90.00000000
_cell_angle_beta   90.00003316
_cell_angle_gamma   90.00000000
_symmetry_Int_Tables_number   1
_chemical_formula_structural   ScTa4Nb3Tc8
_chemical_formula_sum   'Sc1 Ta4 Nb3 Tc8'
_cell_volume   261.05127435
_cell_formula_units_Z   1
loop_
 _symmetry_equiv_pos_site_id
 _symmetry_equiv_pos_as_xyz
  1  'x, y, z'
loop_
 _atom_site_type_symbol
 _atom_site_label
 _atom_site_symmetry_multiplicity
 _atom_site_fract_x
 _atom_site_fract_y
 _atom_site_fract_z
 _atom_site_occupancy
  Sc  Sc0  1  0.250096  0.749999  0.875052  1
  Ta  Ta1  1  0.249961  0.249999  0.122434  1
  Ta  Ta2  1  0.749959  0.749999  0.374987  1
  Ta  Ta3  1  0.250027  0.249999  0.627550  1
  Ta  Ta4  1  0.750036  0.749999  0.874983  1
  Nb  Nb5  1  0.749961  0.249999  0.124343  1
  Nb  Nb6  1  0.249953  0.749999  0.375010  1
  Nb  Nb7  1  0.750035  0.249999  0.625633  1
  Tc  Tc8  1  0.502128  0.749999  0.128988  1
  Tc  Tc9  1  0.997812  0.749999  0.128982  1
  Tc  Tc10  1  0.499618  0.249999  0.375003  1
  Tc  Tc11  1  0.000298  0.249999  0.374999  1
  Tc  Tc12  1  0.997865  0.749999  0.621019  1
  Tc  Tc13  1  0.502187  0.749999  0.621014  1
  Tc  Tc14  1  0.995761  0.249999  0.875001  1
  Tc  Tc15  1  0.504301  0.249999  0.875003  1
