# generated using pymatgen
data_Ta3Ti4AlOs8
_symmetry_space_group_name_H-M   'P 1'
_cell_length_a   6.25235400
_cell_length_b   4.42061600
_cell_length_c   8.84259200
_cell_angle_alpha   90.00000000
_cell_angle_beta   90.00010682
_cell_angle_gamma   90.00000000
_symmetry_Int_Tables_number   1
_chemical_formula_structural   Ta3Ti4AlOs8
_chemical_formula_sum   'Ta3 Ti4 Al1 Os8'
_cell_volume   244.40266514
_cell_formula_units_Z   1
loop_
 _symmetry_equiv_pos_site_id
 _symmetry_equiv_pos_as_xyz
  1  'x, y, z'
loop_
 _atom_site_type_symbol
 _atom_site_label
 _atom_site_symmetry_multiplicity
 _atom_site_fract_x
 _atom_site_fract_y
 _atom_site_fract_z
 _atom_site_occupancy
  Ta  Ta0  1  0.250000  0.749999  0.373139  1
  Ta  Ta1  1  0.750002  0.250000  0.625049  1
  Ta  Ta2  1  0.250001  0.749999  0.876891  1
  Ti  Ti3  1  0.250001  0.250000  0.124978  1
  Ti  Ti4  1  0.750000  0.749999  0.368932  1
  Ti  Ti5  1  0.250001  0.250000  0.625016  1
  Ti  Ti6  1  0.749999  0.749999  0.881043  1
  Al  Al7  1  0.750000  0.250000  0.124948  1
  Os  Os8  1  0.503097  0.749999  0.124943  1
  Os  Os9  1  0.996897  0.749999  0.124942  1
  Os  Os10  1  0.501842  0.250000  0.373118  1
  Os  Os11  1  0.998160  0.250000  0.373118  1
  Os  Os12  1  0.999643  0.749999  0.625031  1
  Os  Os13  1  0.500355  0.749999  0.625031  1
  Os  Os14  1  0.998044  0.250000  0.876909  1
  Os  Os15  1  0.501958  0.250000  0.876909  1
