# generated using pymatgen
data_Nd6TlHg9
_symmetry_space_group_name_H-M   'P 1'
_cell_length_a   6.57542234
_cell_length_b   6.57542398
_cell_length_c   10.50428300
_cell_angle_alpha   90.00000000
_cell_angle_beta   90.00000000
_cell_angle_gamma   105.20695744
_symmetry_Int_Tables_number   1
_chemical_formula_structural   Nd6TlHg9
_chemical_formula_sum   'Nd6 Tl1 Hg9'
_cell_volume   438.26241998
_cell_formula_units_Z   1
loop_
 _symmetry_equiv_pos_site_id
 _symmetry_equiv_pos_as_xyz
  1  'x, y, z'
loop_
 _atom_site_type_symbol
 _atom_site_label
 _atom_site_symmetry_multiplicity
 _atom_site_fract_x
 _atom_site_fract_y
 _atom_site_fract_z
 _atom_site_occupancy
  Nd  Nd0  1  0.573858  0.573858  0.250000  1
  Nd  Nd1  1  0.417195  0.417195  0.750000  1
  Nd  Nd2  1  0.206739  0.792056  0.502516  1
  Nd  Nd3  1  0.206739  0.792056  0.997484  1
  Nd  Nd4  1  0.792056  0.206739  0.502516  1
  Nd  Nd5  1  0.792056  0.206739  0.997484  1
  Tl  Tl6  1  0.995605  0.995604  0.250000  1
  Hg  Hg7  1  0.015914  0.015913  0.750000  1
  Hg  Hg8  1  0.294420  0.294420  0.030711  1
  Hg  Hg9  1  0.701469  0.701469  0.968969  1
  Hg  Hg10  1  0.294420  0.294420  0.469289  1
  Hg  Hg11  1  0.701469  0.701469  0.531031  1
  Hg  Hg12  1  0.491143  0.044521  0.250000  1
  Hg  Hg13  1  0.953991  0.518405  0.750000  1
  Hg  Hg14  1  0.518405  0.953991  0.750000  1
  Hg  Hg15  1  0.044521  0.491143  0.250000  1
