# generated using pymatgen
data_DyEr11(TcOs)2
_symmetry_space_group_name_H-M   'P 1'
_cell_length_a   6.24770305
_cell_length_b   7.39145206
_cell_length_c   9.00339300
_cell_angle_alpha   90.00000000
_cell_angle_beta   90.00000000
_cell_angle_gamma   89.98575062
_symmetry_Int_Tables_number   1
_chemical_formula_structural   DyEr11(TcOs)2
_chemical_formula_sum   'Dy1 Er11 Tc2 Os2'
_cell_volume   415.77305246
_cell_formula_units_Z   1
loop_
 _symmetry_equiv_pos_site_id
 _symmetry_equiv_pos_as_xyz
  1  'x, y, z'
loop_
 _atom_site_type_symbol
 _atom_site_label
 _atom_site_symmetry_multiplicity
 _atom_site_fract_x
 _atom_site_fract_y
 _atom_site_fract_z
 _atom_site_occupancy
  Dy  Dy0  1  0.876176  0.539220  0.250000  1
  Er  Er1  1  0.337470  0.675085  0.061791  1
  Er  Er2  1  0.163023  0.174951  0.438104  1
  Er  Er3  1  0.664442  0.324429  0.563003  1
  Er  Er4  1  0.835288  0.824879  0.937105  1
  Er  Er5  1  0.664442  0.324429  0.936997  1
  Er  Er6  1  0.835288  0.824879  0.562895  1
  Er  Er7  1  0.337470  0.675085  0.438209  1
  Er  Er8  1  0.163023  0.174951  0.061896  1
  Er  Er9  1  0.623853  0.038727  0.250000  1
  Er  Er10  1  0.129302  0.459916  0.750000  1
  Er  Er11  1  0.370684  0.959847  0.750000  1
  Tc  Tc12  1  0.039037  0.884066  0.250000  1
  Tc  Tc13  1  0.460443  0.383635  0.250000  1
  Os  Os14  1  0.959574  0.117944  0.750000  1
  Os  Os15  1  0.540484  0.617958  0.750000  1
