# generated using pymatgen
data_TaHg5F6
_symmetry_space_group_name_H-M   'P 1'
_cell_length_a   8.04566508
_cell_length_b   7.04192479
_cell_length_c   17.91279300
_cell_angle_alpha   95.63238822
_cell_angle_beta   93.35056904
_cell_angle_gamma   107.04410839
_symmetry_Int_Tables_number   1
_chemical_formula_structural   TaHg5F6
_chemical_formula_sum   'Ta3 Hg15 F18'
_cell_volume   961.56057614
_cell_formula_units_Z   3
loop_
 _symmetry_equiv_pos_site_id
 _symmetry_equiv_pos_as_xyz
  1  'x, y, z'
loop_
 _atom_site_type_symbol
 _atom_site_label
 _atom_site_symmetry_multiplicity
 _atom_site_fract_x
 _atom_site_fract_y
 _atom_site_fract_z
 _atom_site_occupancy
  Ta  Ta0  1  0.445039  0.124218  0.331106  1
  Ta  Ta1  1  0.554961  0.875782  0.668894  1
  Ta  Ta2  1  0.000000  0.000000  0.000000  1
  Hg  Hg3  1  0.111813  0.459268  0.277006  1
  Hg  Hg4  1  0.586897  0.467870  0.069986  1
  Hg  Hg5  1  0.442659  0.871203  0.053999  1
  Hg  Hg6  1  0.557341  0.128797  0.946001  1
  Hg  Hg7  1  0.282293  0.621193  0.157131  1
  Hg  Hg8  1  0.717707  0.378807  0.842869  1
  Hg  Hg9  1  0.413103  0.532130  0.930014  1
  Hg  Hg10  1  0.888187  0.540732  0.722994  1
  Hg  Hg11  1  0.039723  0.452621  0.426994  1
  Hg  Hg12  1  0.960277  0.547379  0.573006  1
  Hg  Hg13  1  0.120640  0.186911  0.646626  1
  Hg  Hg14  1  0.879360  0.813089  0.353374  1
  Hg  Hg15  1  0.211448  0.400209  0.791496  1
  Hg  Hg16  1  0.788552  0.599791  0.208504  1
  Hg  Hg17  1  0.000000  0.000000  0.500000  1
  F  F18  1  0.787015  0.957574  0.721137  1
  F  F19  1  0.321952  0.795095  0.618670  1
  F  F20  1  0.678048  0.204905  0.381330  1
  F  F21  1  0.999343  0.218593  0.943077  1
  F  F22  1  0.000657  0.781407  0.056923  1
  F  F23  1  0.142661  0.912024  0.929774  1
  F  F24  1  0.857339  0.087976  0.070226  1
  F  F25  1  0.207561  0.167739  0.060284  1
  F  F26  1  0.792439  0.832261  0.939716  1
  F  F27  1  0.355495  0.217030  0.420258  1
  F  F28  1  0.212985  0.042426  0.278863  1
  F  F29  1  0.536025  0.036691  0.240897  1
  F  F30  1  0.463975  0.963309  0.759103  1
  F  F31  1  0.398556  0.861671  0.362278  1
  F  F32  1  0.601444  0.138329  0.637722  1
  F  F33  1  0.483913  0.385565  0.297385  1
  F  F34  1  0.516087  0.614435  0.702615  1
  F  F35  1  0.644505  0.782970  0.579742  1
