# generated using pymatgen
data_Dy15Y(HgIr)4
_symmetry_space_group_name_H-M   'P 1'
_cell_length_a   9.60552282
_cell_length_b   9.60552264
_cell_length_c   9.60241200
_cell_angle_alpha   60.01070503
_cell_angle_beta   60.01070565
_cell_angle_gamma   60.01415022
_symmetry_Int_Tables_number   1
_chemical_formula_structural   Dy15Y(HgIr)4
_chemical_formula_sum   'Dy15 Y1 Hg4 Ir4'
_cell_volume   626.64854814
_cell_formula_units_Z   1
loop_
 _symmetry_equiv_pos_site_id
 _symmetry_equiv_pos_as_xyz
  1  'x, y, z'
loop_
 _atom_site_type_symbol
 _atom_site_label
 _atom_site_symmetry_multiplicity
 _atom_site_fract_x
 _atom_site_fract_y
 _atom_site_fract_z
 _atom_site_occupancy
  Dy  Dy0  1  0.350710  0.350710  0.350253  1
  Dy  Dy1  1  0.350710  0.350710  0.948326  1
  Dy  Dy2  1  0.351266  0.947499  0.350618  1
  Dy  Dy3  1  0.947499  0.351266  0.350618  1
  Dy  Dy4  1  0.809325  0.190131  0.190737  1
  Dy  Dy5  1  0.190131  0.809325  0.809808  1
  Dy  Dy6  1  0.190131  0.809325  0.190737  1
  Dy  Dy7  1  0.809325  0.190131  0.809808  1
  Dy  Dy8  1  0.190487  0.190487  0.809513  1
  Dy  Dy9  1  0.809582  0.809582  0.190418  1
  Dy  Dy10  1  0.938845  0.561129  0.561627  1
  Dy  Dy11  1  0.561129  0.938845  0.938399  1
  Dy  Dy12  1  0.561129  0.938845  0.561627  1
  Dy  Dy13  1  0.938845  0.561129  0.938399  1
  Dy  Dy14  1  0.561603  0.561603  0.938397  1
  Y  Y15  1  0.938417  0.938417  0.561583  1
  Hg  Hg16  1  0.584806  0.584806  0.584796  1
  Hg  Hg17  1  0.584806  0.584806  0.245594  1
  Hg  Hg18  1  0.584808  0.245349  0.584923  1
  Hg  Hg19  1  0.245349  0.584808  0.584923  1
  Ir  Ir20  1  0.142154  0.142154  0.141246  1
  Ir  Ir21  1  0.142154  0.142154  0.574447  1
  Ir  Ir22  1  0.142399  0.574396  0.141603  1
  Ir  Ir23  1  0.574396  0.142399  0.141603  1
