# generated using pymatgen
data_La3PaZn2Ir3
_symmetry_space_group_name_H-M   'P 1'
_cell_length_a   7.43594400
_cell_length_b   7.56320680
_cell_length_c   4.20343400
_cell_angle_alpha   90.00000000
_cell_angle_beta   90.00000000
_cell_angle_gamma   119.44492534
_symmetry_Int_Tables_number   1
_chemical_formula_structural   La3PaZn2Ir3
_chemical_formula_sum   'La3 Pa1 Zn2 Ir3'
_cell_volume   205.86334081
_cell_formula_units_Z   1
loop_
 _symmetry_equiv_pos_site_id
 _symmetry_equiv_pos_as_xyz
  1  'x, y, z'
loop_
 _atom_site_type_symbol
 _atom_site_label
 _atom_site_symmetry_multiplicity
 _atom_site_fract_x
 _atom_site_fract_y
 _atom_site_fract_z
 _atom_site_occupancy
  La  La0  1  0.378355  0.000000  0.000000  1
  La  La1  1  0.029670  0.452723  0.000000  1
  La  La2  1  0.576947  0.547277  0.000000  1
  Pa  Pa3  1  0.749395  0.000000  0.499999  1
  Zn  Zn4  1  0.237823  0.243688  0.499999  1
  Zn  Zn5  1  0.994135  0.756312  0.499999  1
  Ir  Ir6  1  0.986704  0.000000  0.000000  1
  Ir  Ir7  1  0.681992  0.317014  0.499999  1
  Ir  Ir8  1  0.364979  0.682986  0.499999  1
