# generated using pymatgen
data_LiTb2TmAg2Ge3
_symmetry_space_group_name_H-M   'P 1'
_cell_length_a   7.10085051
_cell_length_b   7.12418776
_cell_length_c   4.25198100
_cell_angle_alpha   90.00000000
_cell_angle_beta   90.00000000
_cell_angle_gamma   120.52618888
_symmetry_Int_Tables_number   1
_chemical_formula_structural   LiTb2TmAg2Ge3
_chemical_formula_sum   'Li1 Tb2 Tm1 Ag2 Ge3'
_cell_volume   185.28507568
_cell_formula_units_Z   1
loop_
 _symmetry_equiv_pos_site_id
 _symmetry_equiv_pos_as_xyz
  1  'x, y, z'
loop_
 _atom_site_type_symbol
 _atom_site_label
 _atom_site_symmetry_multiplicity
 _atom_site_fract_x
 _atom_site_fract_y
 _atom_site_fract_z
 _atom_site_occupancy
  Li  Li0  1  0.766512  0.765522  0.000000  1
  Tb  Tb1  1  0.416381  0.417022  0.500000  1
  Tb  Tb2  1  0.579630  0.002843  0.500000  1
  Tm  Tm3  1  0.002290  0.580260  0.500000  1
  Ag  Ag4  1  0.243483  0.996541  0.000000  1
  Ag  Ag5  1  0.997222  0.244775  0.000000  1
  Ge  Ge6  1  0.669944  0.342097  0.000000  1
  Ge  Ge7  1  0.336664  0.665832  0.000000  1
  Ge  Ge8  1  0.987874  0.985110  0.500000  1
