# generated using pymatgen
data_TbLu4(In2Pd)2
_symmetry_space_group_name_H-M   'P 1'
_cell_length_a   3.58934300
_cell_length_b   8.03925000
_cell_length_c   18.07078900
_cell_angle_alpha   90.00000000
_cell_angle_beta   90.00000000
_cell_angle_gamma   90.00000000
_symmetry_Int_Tables_number   1
_chemical_formula_structural   TbLu4(In2Pd)2
_chemical_formula_sum   'Tb2 Lu8 In8 Pd4'
_cell_volume   521.44392372
_cell_formula_units_Z   2
loop_
 _symmetry_equiv_pos_site_id
 _symmetry_equiv_pos_as_xyz
  1  'x, y, z'
loop_
 _atom_site_type_symbol
 _atom_site_label
 _atom_site_symmetry_multiplicity
 _atom_site_fract_x
 _atom_site_fract_y
 _atom_site_fract_z
 _atom_site_occupancy
  Tb  Tb0  1  0.000000  0.500000  0.500000  1
  Tb  Tb1  1  0.000000  0.000000  0.000000  1
  Lu  Lu2  1  0.000000  0.741937  0.280034  1
  Lu  Lu3  1  0.000000  0.258063  0.719966  1
  Lu  Lu4  1  0.000000  0.758063  0.780034  1
  Lu  Lu5  1  0.000000  0.241937  0.219966  1
  Lu  Lu6  1  0.000000  0.618873  0.084850  1
  Lu  Lu7  1  0.000000  0.381127  0.915150  1
  Lu  Lu8  1  0.000000  0.881127  0.584850  1
  Lu  Lu9  1  0.000000  0.118873  0.415150  1
  In  In10  1  0.500000  0.704419  0.932502  1
  In  In11  1  0.500000  0.295581  0.067498  1
  In  In12  1  0.500000  0.795581  0.432502  1
  In  In13  1  0.500000  0.204419  0.567498  1
  In  In14  1  0.500000  0.579591  0.650666  1
  In  In15  1  0.500000  0.420409  0.349334  1
  In  In16  1  0.500000  0.920409  0.150666  1
  In  In17  1  0.500000  0.079591  0.849334  1
  Pd  Pd18  1  0.500000  0.525668  0.195638  1
  Pd  Pd19  1  0.500000  0.474332  0.804362  1
  Pd  Pd20  1  0.500000  0.974332  0.695638  1
  Pd  Pd21  1  0.500000  0.025668  0.304362  1
