# generated using pymatgen
data_K2Rb4DyErF12
_symmetry_space_group_name_H-M   'P 1'
_cell_length_a   6.73237270
_cell_length_b   6.52937975
_cell_length_c   11.29554954
_cell_angle_alpha   55.17409397
_cell_angle_beta   89.98000828
_cell_angle_gamma   89.98626257
_symmetry_Int_Tables_number   1
_chemical_formula_structural   K2Rb4DyErF12
_chemical_formula_sum   'K2 Rb4 Dy1 Er1 F12'
_cell_volume   407.59885209
_cell_formula_units_Z   1
loop_
 _symmetry_equiv_pos_site_id
 _symmetry_equiv_pos_as_xyz
  1  'x, y, z'
loop_
 _atom_site_type_symbol
 _atom_site_label
 _atom_site_symmetry_multiplicity
 _atom_site_fract_x
 _atom_site_fract_y
 _atom_site_fract_z
 _atom_site_occupancy
  K  K0  1  0.500000  0.500000  0.000000  1
  K  K1  1  0.000000  0.500000  0.500000  1
  Rb  Rb2  1  0.046879  0.732545  0.754128  1
  Rb  Rb3  1  0.953121  0.267455  0.245872  1
  Rb  Rb4  1  0.547134  0.265362  0.748431  1
  Rb  Rb5  1  0.452866  0.734638  0.251569  1
  Dy  Dy6  1  0.500000  0.000000  0.500000  1
  Er  Er7  1  0.000000  0.000000  0.000000  1
  F  F8  1  0.764790  0.763071  0.558892  1
  F  F9  1  0.235210  0.236929  0.441108  1
  F  F10  1  0.261637  0.234871  0.942538  1
  F  F11  1  0.738363  0.765129  0.057462  1
  F  F12  1  0.457447  0.869873  0.725392  1
  F  F13  1  0.542553  0.130127  0.274608  1
  F  F14  1  0.958116  0.129052  0.777017  1
  F  F15  1  0.041884  0.870948  0.222983  1
  F  F16  1  0.316846  0.686957  0.542040  1
  F  F17  1  0.683154  0.313043  0.457960  1
  F  F18  1  0.817348  0.308455  0.959266  1
  F  F19  1  0.182652  0.691545  0.040734  1
