# generated using pymatgen
data_Tb5Ho7In2(CoTc)2
_symmetry_space_group_name_H-M   'P 1'
_cell_length_a   8.44204578
_cell_length_b   8.44204601
_cell_length_c   8.43704691
_cell_angle_alpha   113.14406620
_cell_angle_beta   111.00330350
_cell_angle_gamma   104.41708302
_symmetry_Int_Tables_number   1
_chemical_formula_structural   Tb5Ho7In2(CoTc)2
_chemical_formula_sum   'Tb5 Ho7 In2 Co2 Tc2'
_cell_volume   459.86483347
_cell_formula_units_Z   1
loop_
 _symmetry_equiv_pos_site_id
 _symmetry_equiv_pos_as_xyz
  1  'x, y, z'
loop_
 _atom_site_type_symbol
 _atom_site_label
 _atom_site_symmetry_multiplicity
 _atom_site_fract_x
 _atom_site_fract_y
 _atom_site_fract_z
 _atom_site_occupancy
  Tb  Tb0  1  0.445769  0.244336  0.200544  1
  Tb  Tb1  1  0.555312  0.756374  0.799912  1
  Tb  Tb2  1  0.043537  0.244601  0.799912  1
  Tb  Tb3  1  0.956208  0.754773  0.200544  1
  Tb  Tb4  1  0.184559  0.287888  0.472447  1
  Ho  Ho5  1  0.815932  0.712508  0.528440  1
  Ho  Ho6  1  0.184096  0.712787  0.896884  1
  Ho  Ho7  1  0.815398  0.287235  0.102634  1
  Ho  Ho8  1  0.328117  0.648361  0.320006  1
  Ho  Ho9  1  0.672624  0.351842  0.680031  1
  Ho  Ho10  1  0.328189  0.007406  0.680031  1
  Ho  Ho11  1  0.671644  0.991889  0.320006  1
  In  In12  1  0.500048  0.499883  0.999933  1
  In  In13  1  0.999942  0.999626  0.999569  1
  Co  Co14  1  0.110108  0.611384  0.499823  1
  Co  Co15  1  0.888440  0.389715  0.499823  1
  Tc  Tc16  1  0.323009  0.999532  0.322541  1
  Tc  Tc17  1  0.677067  0.999858  0.676924  1
