# generated using pymatgen
data_TbU2(SnIr)3
_symmetry_space_group_name_H-M   'P 1'
_cell_length_a   7.48250678
_cell_length_b   7.48250765
_cell_length_c   4.02787900
_cell_angle_alpha   90.00000000
_cell_angle_beta   90.00000000
_cell_angle_gamma   121.25644509
_symmetry_Int_Tables_number   1
_chemical_formula_structural   TbU2(SnIr)3
_chemical_formula_sum   'Tb1 U2 Sn3 Ir3'
_cell_volume   192.78018952
_cell_formula_units_Z   1
loop_
 _symmetry_equiv_pos_site_id
 _symmetry_equiv_pos_as_xyz
  1  'x, y, z'
loop_
 _atom_site_type_symbol
 _atom_site_label
 _atom_site_symmetry_multiplicity
 _atom_site_fract_x
 _atom_site_fract_y
 _atom_site_fract_z
 _atom_site_occupancy
  Tb  Tb0  1  0.407638  0.407638  0.000000  1
  U  U1  1  0.588919  0.001610  0.000000  1
  U  U2  1  0.001610  0.588919  0.000000  1
  Sn  Sn3  1  0.255399  0.008876  0.500000  1
  Sn  Sn4  1  0.008876  0.255399  0.500000  1
  Sn  Sn5  1  0.735213  0.735213  0.500000  1
  Ir  Ir6  1  0.330399  0.684308  0.500000  1
  Ir  Ir7  1  0.684308  0.330399  0.500000  1
  Ir  Ir8  1  0.987638  0.987638  0.000000  1
