# generated using pymatgen
data_CoTePbO6
_symmetry_space_group_name_H-M   'P 1'
_cell_length_a   5.00551339
_cell_length_b   5.00496537
_cell_length_c   11.42603000
_cell_angle_alpha   89.84090989
_cell_angle_beta   90.31860447
_cell_angle_gamma   120.00396433
_symmetry_Int_Tables_number   1
_chemical_formula_structural   CoTePbO6
_chemical_formula_sum   'Co2 Te2 Pb2 O12'
_cell_volume   247.88578991
_cell_formula_units_Z   2
loop_
 _symmetry_equiv_pos_site_id
 _symmetry_equiv_pos_as_xyz
  1  'x, y, z'
loop_
 _atom_site_type_symbol
 _atom_site_label
 _atom_site_symmetry_multiplicity
 _atom_site_fract_x
 _atom_site_fract_y
 _atom_site_fract_z
 _atom_site_occupancy
  Co  Co0  1  0.335973  0.671943  0.999999  1
  Co  Co1  1  0.330541  0.661050  0.500004  1
  Te  Te2  1  0.667086  0.334180  0.999998  1
  Te  Te3  1  0.666579  0.333144  0.500004  1
  Pb  Pb4  1  0.999902  0.999471  0.250000  1
  Pb  Pb5  1  0.999561  0.999460  0.749999  1
  O  O6  1  0.370526  0.989691  0.096021  1
  O  O7  1  0.611214  0.623084  0.097057  1
  O  O8  1  0.007514  0.382672  0.097562  1
  O  O9  1  0.012880  0.386388  0.403539  1
  O  O10  1  0.620202  0.627812  0.403082  1
  O  O11  1  0.376607  0.990776  0.402794  1
  O  O12  1  0.614145  0.990760  0.597203  1
  O  O13  1  0.007603  0.627782  0.596923  1
  O  O14  1  0.373488  0.386352  0.596453  1
  O  O15  1  0.375153  0.382668  0.902437  1
  O  O16  1  0.011865  0.623080  0.902943  1
  O  O17  1  0.619162  0.989689  0.903980  1
