# generated using pymatgen
data_Er5Si9As2PIr19
_symmetry_space_group_name_H-M   'P 1'
_cell_length_a   12.87866767
_cell_length_b   12.89551201
_cell_length_c   3.95243300
_cell_angle_alpha   90.00000000
_cell_angle_beta   90.00000000
_cell_angle_gamma   120.04327878
_symmetry_Int_Tables_number   1
_chemical_formula_structural   Er5Si9As2PIr19
_chemical_formula_sum   'Er5 Si9 As2 P1 Ir19'
_cell_volume   568.21816306
_cell_formula_units_Z   1
loop_
 _symmetry_equiv_pos_site_id
 _symmetry_equiv_pos_as_xyz
  1  'x, y, z'
loop_
 _atom_site_type_symbol
 _atom_site_label
 _atom_site_symmetry_multiplicity
 _atom_site_fract_x
 _atom_site_fract_y
 _atom_site_fract_z
 _atom_site_occupancy
  Er  Er0  1  0.667432  0.334126  0.000000  1
  Er  Er1  1  0.332568  0.666695  0.000000  1
  Er  Er2  1  0.812898  0.809655  0.500000  1
  Er  Er3  1  0.187102  0.996757  0.500000  1
  Er  Er4  1  0.000000  0.191441  0.500000  1
  Si  Si5  1  0.686896  0.170554  0.500000  1
  Si  Si6  1  0.831323  0.518219  0.500000  1
  Si  Si7  1  0.484102  0.313714  0.500000  1
  Si  Si8  1  0.168677  0.686897  0.500000  1
  Si  Si9  1  0.515898  0.829612  0.500000  1
  Si  Si10  1  0.313104  0.483658  0.500000  1
  Si  Si11  1  0.632602  0.632911  0.000000  1
  Si  Si12  1  0.367398  0.000309  0.000000  1
  Si  Si13  1  0.000000  0.368564  0.000000  1
  As  As14  1  0.177097  0.176363  0.000000  1
  As  As15  1  0.822903  0.999266  0.000000  1
  P  P16  1  0.000000  0.816768  0.000000  1
  Ir  Ir17  1  0.806075  0.183308  0.000000  1
  Ir  Ir18  1  0.819890  0.626742  0.000000  1
  Ir  Ir19  1  0.378433  0.194938  0.000000  1
  Ir  Ir20  1  0.180110  0.806852  0.000000  1
  Ir  Ir21  1  0.621567  0.816505  0.000000  1
  Ir  Ir22  1  0.193925  0.377233  0.000000  1
  Ir  Ir23  1  0.448280  0.448119  0.000000  1
  Ir  Ir24  1  0.551720  0.999838  0.000000  1
  Ir  Ir25  1  0.000000  0.553011  0.000000  1
  Ir  Ir26  1  0.286726  0.286929  0.500000  1
  Ir  Ir27  1  0.713274  0.000203  0.500000  1
  Ir  Ir28  1  0.000000  0.718851  0.500000  1
  Ir  Ir29  1  0.872729  0.361665  0.500000  1
  Ir  Ir30  1  0.640590  0.512942  0.500000  1
  Ir  Ir31  1  0.488192  0.127062  0.500000  1
  Ir  Ir32  1  0.359410  0.872351  0.500000  1
  Ir  Ir33  1  0.511808  0.638869  0.500000  1
  Ir  Ir34  1  0.127271  0.488935  0.500000  1
  Ir  Ir35  1  0.000000  0.990140  0.000000  1
