# generated using pymatgen
data_Ta5Nb7Al4(AuN)4
_symmetry_space_group_name_H-M   'P 1'
_cell_length_a   7.10739460
_cell_length_b   7.10747435
_cell_length_c   7.10124903
_cell_angle_alpha   90.09412063
_cell_angle_beta   90.04847796
_cell_angle_gamma   90.05945697
_symmetry_Int_Tables_number   1
_chemical_formula_structural   Ta5Nb7Al4(AuN)4
_chemical_formula_sum   'Ta5 Nb7 Al4 Au4 N4'
_cell_volume   358.72322572
_cell_formula_units_Z   1
loop_
 _symmetry_equiv_pos_site_id
 _symmetry_equiv_pos_as_xyz
  1  'x, y, z'
loop_
 _atom_site_type_symbol
 _atom_site_label
 _atom_site_symmetry_multiplicity
 _atom_site_fract_x
 _atom_site_fract_y
 _atom_site_fract_z
 _atom_site_occupancy
  Ta  Ta0  1  0.786260  0.957700  0.377406  1
  Ta  Ta1  1  0.713332  0.042943  0.876150  1
  Ta  Ta2  1  0.214001  0.456351  0.124157  1
  Ta  Ta3  1  0.286189  0.543281  0.623058  1
  Ta  Ta4  1  0.955486  0.374907  0.785165  1
  Nb  Nb5  1  0.044762  0.875177  0.715420  1
  Nb  Nb6  1  0.455474  0.124768  0.214885  1
  Nb  Nb7  1  0.544886  0.625391  0.284787  1
  Nb  Nb8  1  0.376530  0.785987  0.956736  1
  Nb  Nb9  1  0.877429  0.713620  0.043313  1
  Nb  Nb10  1  0.122727  0.213656  0.456546  1
  Nb  Nb11  1  0.621998  0.286890  0.543082  1
  Al  Al12  1  0.572625  0.428302  0.927660  1
  Al  Al13  1  0.427521  0.928241  0.572290  1
  Al  Al14  1  0.927202  0.571512  0.427894  1
  Al  Al15  1  0.072891  0.071091  0.072159  1
  Au  Au16  1  0.178540  0.819113  0.321525  1
  Au  Au17  1  0.320630  0.180910  0.821426  1
  Au  Au18  1  0.821762  0.319388  0.177602  1
  Au  Au19  1  0.679451  0.680252  0.678786  1
  N  N20  1  0.875617  0.122329  0.624561  1
  N  N21  1  0.626013  0.880664  0.122979  1
  N  N22  1  0.124324  0.616950  0.875690  1
  N  N23  1  0.374349  0.380576  0.376722  1
