# generated using pymatgen
data_Pr3Si2Ni2Rh
_symmetry_space_group_name_H-M   'P 1'
_cell_length_a   5.88225600
_cell_length_b   7.58358300
_cell_length_c   14.99507100
_cell_angle_alpha   90.00000000
_cell_angle_beta   90.00000000
_cell_angle_gamma   90.00000000
_symmetry_Int_Tables_number   1
_chemical_formula_structural   Pr3Si2Ni2Rh
_chemical_formula_sum   'Pr12 Si8 Ni8 Rh4'
_cell_volume   668.90877337
_cell_formula_units_Z   4
loop_
 _symmetry_equiv_pos_site_id
 _symmetry_equiv_pos_as_xyz
  1  'x, y, z'
loop_
 _atom_site_type_symbol
 _atom_site_label
 _atom_site_symmetry_multiplicity
 _atom_site_fract_x
 _atom_site_fract_y
 _atom_site_fract_z
 _atom_site_occupancy
  Pr  Pr0  1  0.867029  0.853118  0.750000  1
  Pr  Pr1  1  0.853880  0.515500  0.391458  1
  Pr  Pr2  1  0.353880  0.984500  0.608542  1
  Pr  Pr3  1  0.146120  0.484500  0.891458  1
  Pr  Pr4  1  0.646120  0.015501  0.108542  1
  Pr  Pr5  1  0.132971  0.146882  0.250000  1
  Pr  Pr6  1  0.146120  0.484500  0.608542  1
  Pr  Pr7  1  0.646120  0.015501  0.391458  1
  Pr  Pr8  1  0.367029  0.646882  0.250000  1
  Pr  Pr9  1  0.353880  0.984500  0.891458  1
  Pr  Pr10  1  0.632971  0.353118  0.750000  1
  Pr  Pr11  1  0.853880  0.515500  0.108542  1
  Si  Si12  1  0.642112  0.639681  0.909968  1
  Si  Si13  1  0.857888  0.139681  0.590032  1
  Si  Si14  1  0.142112  0.860319  0.090032  1
  Si  Si15  1  0.142112  0.860319  0.409968  1
  Si  Si16  1  0.642112  0.639681  0.590032  1
  Si  Si17  1  0.857888  0.139681  0.909968  1
  Si  Si18  1  0.357888  0.360319  0.090032  1
  Si  Si19  1  0.357888  0.360319  0.409968  1
  Ni  Ni20  1  0.601852  0.347962  0.964109  1
  Ni  Ni21  1  0.101852  0.152038  0.464109  1
  Ni  Ni22  1  0.101852  0.152038  0.035891  1
  Ni  Ni23  1  0.898148  0.847962  0.964109  1
  Ni  Ni24  1  0.898148  0.847962  0.535891  1
  Ni  Ni25  1  0.601852  0.347962  0.535891  1
  Ni  Ni26  1  0.398148  0.652038  0.464109  1
  Ni  Ni27  1  0.398148  0.652038  0.035891  1
  Rh  Rh28  1  0.420385  0.697391  0.750000  1
  Rh  Rh29  1  0.579615  0.302609  0.250000  1
  Rh  Rh30  1  0.920385  0.802609  0.250000  1
  Rh  Rh31  1  0.079615  0.197391  0.750000  1
