# generated using pymatgen
data_Nb8VNiTe8
_symmetry_space_group_name_H-M   'P 1'
_cell_length_a   4.87659200
_cell_length_b   11.34614900
_cell_length_c   20.05284000
_cell_angle_alpha   90.00000000
_cell_angle_beta   90.00000000
_cell_angle_gamma   90.00000000
_symmetry_Int_Tables_number   1
_chemical_formula_structural   Nb8VNiTe8
_chemical_formula_sum   'Nb16 V2 Ni2 Te16'
_cell_volume   1109.53445459
_cell_formula_units_Z   2
loop_
 _symmetry_equiv_pos_site_id
 _symmetry_equiv_pos_as_xyz
  1  'x, y, z'
loop_
 _atom_site_type_symbol
 _atom_site_label
 _atom_site_symmetry_multiplicity
 _atom_site_fract_x
 _atom_site_fract_y
 _atom_site_fract_z
 _atom_site_occupancy
  Nb  Nb0  1  0.497767  0.563506  0.386571  1
  Nb  Nb1  1  0.497767  0.436494  0.613429  1
  Nb  Nb2  1  0.502233  0.063506  0.113429  1
  Nb  Nb3  1  0.502233  0.936494  0.886571  1
  Nb  Nb4  1  0.497939  0.700811  0.535820  1
  Nb  Nb5  1  0.497939  0.299189  0.464180  1
  Nb  Nb6  1  0.502061  0.200811  0.964180  1
  Nb  Nb7  1  0.502061  0.799189  0.035820  1
  Nb  Nb8  1  0.002939  0.686834  0.445032  1
  Nb  Nb9  1  0.002939  0.313166  0.554968  1
  Nb  Nb10  1  0.997061  0.186834  0.054968  1
  Nb  Nb11  1  0.997061  0.813166  0.945032  1
  Nb  Nb12  1  0.002527  0.403033  0.394427  1
  Nb  Nb13  1  0.002527  0.596967  0.605573  1
  Nb  Nb14  1  0.997473  0.903033  0.105573  1
  Nb  Nb15  1  0.997473  0.096967  0.894427  1
  V  V16  1  0.750623  0.500000  0.500000  1
  V  V17  1  0.249377  0.000000  0.000000  1
  Ni  Ni18  1  0.250541  0.500000  0.500000  1
  Ni  Ni19  1  0.749459  0.000000  0.000000  1
  Te  Te20  1  0.003353  0.835740  0.559938  1
  Te  Te21  1  0.003353  0.164260  0.440062  1
  Te  Te22  1  0.996647  0.335740  0.940062  1
  Te  Te23  1  0.996647  0.664260  0.059938  1
  Te  Te24  1  0.496786  0.337767  0.323471  1
  Te  Te25  1  0.496786  0.662233  0.676529  1
  Te  Te26  1  0.503214  0.837767  0.176529  1
  Te  Te27  1  0.503214  0.162233  0.823471  1
  Te  Te28  1  0.497384  0.812617  0.408116  1
  Te  Te29  1  0.497384  0.187383  0.591884  1
  Te  Te30  1  0.502616  0.312617  0.091884  1
  Te  Te31  1  0.502616  0.687383  0.908116  1
  Te  Te32  1  0.003613  0.606209  0.310205  1
  Te  Te33  1  0.003613  0.393791  0.689795  1
  Te  Te34  1  0.996387  0.106209  0.189795  1
  Te  Te35  1  0.996387  0.893791  0.810205  1
