# generated using pymatgen
data_Ta14Nb2Al3CoTe16
_symmetry_space_group_name_H-M   'P 1'
_cell_length_a   4.87568300
_cell_length_b   11.01756982
_cell_length_c   19.28108361
_cell_angle_alpha   89.87833259
_cell_angle_beta   89.99950194
_cell_angle_gamma   90.00199055
_symmetry_Int_Tables_number   1
_chemical_formula_structural   Ta14Nb2Al3CoTe16
_chemical_formula_sum   'Ta14 Nb2 Al3 Co1 Te16'
_cell_volume   1035.74234336
_cell_formula_units_Z   1
loop_
 _symmetry_equiv_pos_site_id
 _symmetry_equiv_pos_as_xyz
  1  'x, y, z'
loop_
 _atom_site_type_symbol
 _atom_site_label
 _atom_site_symmetry_multiplicity
 _atom_site_fract_x
 _atom_site_fract_y
 _atom_site_fract_z
 _atom_site_occupancy
  Ta  Ta0  1  0.500440  0.434715  0.617344  1
  Ta  Ta1  1  0.501393  0.063799  0.115436  1
  Ta  Ta2  1  0.501371  0.936166  0.884443  1
  Ta  Ta3  1  0.499819  0.707344  0.536662  1
  Ta  Ta4  1  0.499750  0.293677  0.463740  1
  Ta  Ta5  1  0.502750  0.202969  0.963536  1
  Ta  Ta6  1  0.502786  0.796912  0.036315  1
  Ta  Ta7  1  0.000095  0.308566  0.557428  1
  Ta  Ta8  1  0.997308  0.188667  0.055990  1
  Ta  Ta9  1  0.997335  0.811264  0.943830  1
  Ta  Ta10  1  0.999734  0.399354  0.390621  1
  Ta  Ta11  1  0.999787  0.599483  0.609163  1
  Ta  Ta12  1  0.998447  0.901579  0.107438  1
  Ta  Ta13  1  0.998512  0.098265  0.892453  1
  Nb  Nb14  1  0.500332  0.565895  0.381483  1
  Nb  Nb15  1  0.000114  0.693833  0.442447  1
  Al  Al16  1  0.249993  0.500880  0.499520  1
  Al  Al17  1  0.750299  0.999945  0.999951  1
  Al  Al18  1  0.750009  0.500881  0.499514  1
  Co  Co19  1  0.250241  0.999848  0.999847  1
  Te  Te20  1  0.000026  0.846756  0.563148  1
  Te  Te21  1  0.999961  0.152590  0.438413  1
  Te  Te22  1  0.008330  0.344888  0.937623  1
  Te  Te23  1  0.008348  0.654997  0.062266  1
  Te  Te24  1  0.500061  0.331044  0.316888  1
  Te  Te25  1  0.500047  0.667227  0.683517  1
  Te  Te26  1  0.492482  0.833261  0.182660  1
  Te  Te27  1  0.492608  0.166696  0.817273  1
  Te  Te28  1  0.500121  0.823854  0.404270  1
  Te  Te29  1  0.500033  0.176989  0.596786  1
  Te  Te30  1  0.491532  0.320740  0.095379  1
  Te  Te31  1  0.491497  0.679168  0.904497  1
  Te  Te32  1  0.000041  0.607075  0.302034  1
  Te  Te33  1  0.999987  0.390879  0.698203  1
  Te  Te34  1  0.007192  0.107790  0.196559  1
  Te  Te35  1  0.007217  0.892000  0.803326  1
