# generated using pymatgen
data_Yb5Sn2BiH
_symmetry_space_group_name_H-M   'P 1'
_cell_length_a   9.38747000
_cell_length_b   9.38746959
_cell_length_c   9.38746959
_cell_angle_alpha   128.48011378
_cell_angle_beta   128.48011229
_cell_angle_gamma   75.84854440
_symmetry_Int_Tables_number   1
_chemical_formula_structural   Yb5Sn2BiH
_chemical_formula_sum   'Yb10 Sn4 Bi2 H2'
_cell_volume   493.02416516
_cell_formula_units_Z   2
loop_
 _symmetry_equiv_pos_site_id
 _symmetry_equiv_pos_as_xyz
  1  'x, y, z'
loop_
 _atom_site_type_symbol
 _atom_site_label
 _atom_site_symmetry_multiplicity
 _atom_site_fract_x
 _atom_site_fract_y
 _atom_site_fract_z
 _atom_site_occupancy
  Yb  Yb0  1  0.500000  0.500000  0.000000  1
  Yb  Yb1  1  0.000000  0.000000  0.000000  1
  Yb  Yb2  1  0.512277  0.012277  0.819788  1
  Yb  Yb3  1  0.192489  0.692489  0.180212  1
  Yb  Yb4  1  0.012277  0.192489  0.500000  1
  Yb  Yb5  1  0.692489  0.512277  0.500000  1
  Yb  Yb6  1  0.487723  0.987723  0.180212  1
  Yb  Yb7  1  0.807511  0.307511  0.819788  1
  Yb  Yb8  1  0.987723  0.807511  0.500000  1
  Yb  Yb9  1  0.307511  0.487723  0.500000  1
  Sn  Sn10  1  0.870036  0.370036  0.240073  1
  Sn  Sn11  1  0.129964  0.629964  0.759927  1
  Sn  Sn12  1  0.370036  0.129964  0.500000  1
  Sn  Sn13  1  0.629964  0.870036  0.500000  1
  Bi  Bi14  1  0.250000  0.250000  0.000000  1
  Bi  Bi15  1  0.750000  0.750000  0.000000  1
  H  H16  1  0.250000  0.750000  0.500000  1
  H  H17  1  0.750000  0.250000  0.500000  1
