# generated using pymatgen
data_Er3TmU4(Nb3Si4)4
_symmetry_space_group_name_H-M   'P 1'
_cell_length_a   7.03700894
_cell_length_b   7.04190889
_cell_length_c   12.96804350
_cell_angle_alpha   90.10416391
_cell_angle_beta   90.00926224
_cell_angle_gamma   89.95798481
_symmetry_Int_Tables_number   1
_chemical_formula_structural   Er3TmU4(Nb3Si4)4
_chemical_formula_sum   'Er3 Tm1 U4 Nb12 Si16'
_cell_volume   642.61687136
_cell_formula_units_Z   1
loop_
 _symmetry_equiv_pos_site_id
 _symmetry_equiv_pos_as_xyz
  1  'x, y, z'
loop_
 _atom_site_type_symbol
 _atom_site_label
 _atom_site_symmetry_multiplicity
 _atom_site_fract_x
 _atom_site_fract_y
 _atom_site_fract_z
 _atom_site_occupancy
  Er  Er0  1  0.998954  0.339172  0.217457  1
  Er  Er1  1  0.999465  0.660940  0.717401  1
  Er  Er2  1  0.161069  0.499076  0.467229  1
  Tm  Tm3  1  0.500801  0.839627  0.031928  1
  U  U4  1  0.838524  0.498561  0.966554  1
  U  U5  1  0.501619  0.158410  0.532482  1
  U  U6  1  0.339574  0.000879  0.780132  1
  U  U7  1  0.658716  0.999504  0.284644  1
  Nb  Nb8  1  0.168286  0.171265  0.997561  1
  Nb  Nb9  1  0.824705  0.835555  0.497858  1
  Nb  Nb10  1  0.334005  0.674266  0.250718  1
  Nb  Nb11  1  0.668293  0.327945  0.750041  1
  Nb  Nb12  1  0.156938  0.995618  0.376849  1
  Nb  Nb13  1  0.847678  0.002878  0.876152  1
  Nb  Nb14  1  0.503413  0.657996  0.627050  1
  Nb  Nb15  1  0.346900  0.496289  0.875288  1
  Nb  Nb16  1  0.498480  0.345773  0.125097  1
  Nb  Nb17  1  0.651564  0.499934  0.375623  1
  Nb  Nb18  1  0.999093  0.153347  0.625883  1
  Nb  Nb19  1  0.000335  0.844256  0.124878  1
  Si  Si20  1  0.293727  0.043954  0.184807  1
  Si  Si21  1  0.706770  0.958116  0.686073  1
  Si  Si22  1  0.456252  0.793097  0.436535  1
  Si  Si23  1  0.205446  0.543639  0.064568  1
  Si  Si24  1  0.543492  0.203941  0.935783  1
  Si  Si25  1  0.793243  0.456039  0.563247  1
  Si  Si26  1  0.043957  0.295348  0.813151  1
  Si  Si27  1  0.954903  0.706288  0.313879  1
  Si  Si28  1  0.368683  0.291751  0.318112  1
  Si  Si29  1  0.631299  0.707288  0.818261  1
  Si  Si30  1  0.206854  0.868895  0.568482  1
  Si  Si31  1  0.132609  0.792606  0.931295  1
  Si  Si32  1  0.794236  0.131493  0.068578  1
  Si  Si33  1  0.868980  0.204630  0.432589  1
  Si  Si34  1  0.296972  0.368589  0.682015  1
  Si  Si35  1  0.704170  0.633033  0.181804  1
