# generated using pymatgen
data_TmLu9In8(PtRh)2
_symmetry_space_group_name_H-M   'P 1'
_cell_length_a   3.55129000
_cell_length_b   8.02795510
_cell_length_c   17.98236305
_cell_angle_alpha   90.13262905
_cell_angle_beta   90.00000000
_cell_angle_gamma   90.00000000
_symmetry_Int_Tables_number   1
_chemical_formula_structural   TmLu9In8(PtRh)2
_chemical_formula_sum   'Tm1 Lu9 In8 Pt2 Rh2'
_cell_volume   512.66854417
_cell_formula_units_Z   1
loop_
 _symmetry_equiv_pos_site_id
 _symmetry_equiv_pos_as_xyz
  1  'x, y, z'
loop_
 _atom_site_type_symbol
 _atom_site_label
 _atom_site_symmetry_multiplicity
 _atom_site_fract_x
 _atom_site_fract_y
 _atom_site_fract_z
 _atom_site_occupancy
  Tm  Tm0  1  0.000000  0.500000  0.500000  1
  Lu  Lu1  1  0.000000  0.116689  0.412856  1
  Lu  Lu2  1  0.000000  0.883311  0.587144  1
  Lu  Lu3  1  0.000000  0.381235  0.913352  1
  Lu  Lu4  1  0.000000  0.618765  0.086648  1
  Lu  Lu5  1  0.000000  0.241088  0.222243  1
  Lu  Lu6  1  0.000000  0.758912  0.777757  1
  Lu  Lu7  1  0.000000  0.250748  0.721241  1
  Lu  Lu8  1  0.000000  0.749252  0.278759  1
  Lu  Lu9  1  0.000000  0.000000  0.000000  1
  In  In10  1  0.500000  0.424995  0.352333  1
  In  In11  1  0.500000  0.575005  0.647667  1
  In  In12  1  0.500000  0.069763  0.850823  1
  In  In13  1  0.500000  0.930237  0.149177  1
  In  In14  1  0.500000  0.293342  0.065613  1
  In  In15  1  0.500000  0.706658  0.934387  1
  In  In16  1  0.500000  0.205043  0.567131  1
  In  In17  1  0.500000  0.794957  0.432869  1
  Pt  Pt18  1  0.500000  0.477267  0.803739  1
  Pt  Pt19  1  0.500000  0.522733  0.196261  1
  Rh  Rh20  1  0.500000  0.023562  0.304626  1
  Rh  Rh21  1  0.500000  0.976438  0.695374  1
