# generated using pymatgen
data_TbLu2Co(P3Rh4)2
_symmetry_space_group_name_H-M   'P 1'
_cell_length_a   3.84698100
_cell_length_b   11.11066700
_cell_length_c   12.75726200
_cell_angle_alpha   90.00000000
_cell_angle_beta   90.00000000
_cell_angle_gamma   90.00000000
_symmetry_Int_Tables_number   1
_chemical_formula_structural   TbLu2Co(P3Rh4)2
_chemical_formula_sum   'Tb2 Lu4 Co2 P12 Rh16'
_cell_volume   545.27758801
_cell_formula_units_Z   2
loop_
 _symmetry_equiv_pos_site_id
 _symmetry_equiv_pos_as_xyz
  1  'x, y, z'
loop_
 _atom_site_type_symbol
 _atom_site_label
 _atom_site_symmetry_multiplicity
 _atom_site_fract_x
 _atom_site_fract_y
 _atom_site_fract_z
 _atom_site_occupancy
  Tb  Tb0  1  0.000000  0.500000  0.521781  1
  Tb  Tb1  1  0.500000  0.000000  0.478219  1
  Lu  Lu2  1  0.500000  0.815417  0.202119  1
  Lu  Lu3  1  0.500000  0.184583  0.202119  1
  Lu  Lu4  1  0.000000  0.684583  0.797881  1
  Lu  Lu5  1  0.000000  0.315417  0.797881  1
  Co  Co6  1  0.000000  0.500000  0.979245  1
  Co  Co7  1  0.500000  0.000000  0.020755  1
  P  P8  1  0.500000  0.500000  0.881522  1
  P  P9  1  0.000000  0.000000  0.118478  1
  P  P10  1  0.500000  0.500000  0.350965  1
  P  P11  1  0.000000  0.000000  0.649035  1
  P  P12  1  0.500000  0.316193  0.620552  1
  P  P13  1  0.500000  0.683807  0.620552  1
  P  P14  1  0.000000  0.183807  0.379448  1
  P  P15  1  0.000000  0.816193  0.379448  1
  P  P16  1  0.500000  0.852153  0.895247  1
  P  P17  1  0.500000  0.147847  0.895247  1
  P  P18  1  0.000000  0.647847  0.104753  1
  P  P19  1  0.000000  0.352153  0.104753  1
  Rh  Rh20  1  0.500000  0.500000  0.167480  1
  Rh  Rh21  1  0.000000  0.000000  0.832520  1
  Rh  Rh22  1  0.500000  0.500000  0.704871  1
  Rh  Rh23  1  0.000000  0.000000  0.295129  1
  Rh  Rh24  1  0.500000  0.336298  0.993184  1
  Rh  Rh25  1  0.500000  0.663702  0.993184  1
  Rh  Rh26  1  0.000000  0.163702  0.006816  1
  Rh  Rh27  1  0.000000  0.836298  0.006816  1
  Rh  Rh28  1  0.500000  0.293688  0.429759  1
  Rh  Rh29  1  0.500000  0.706312  0.429759  1
  Rh  Rh30  1  0.000000  0.206312  0.570241  1
  Rh  Rh31  1  0.000000  0.793688  0.570241  1
  Rh  Rh32  1  0.500000  0.871994  0.713063  1
  Rh  Rh33  1  0.500000  0.128006  0.713063  1
  Rh  Rh34  1  0.000000  0.628006  0.286937  1
  Rh  Rh35  1  0.000000  0.371994  0.286937  1
