# generated using pymatgen
data_Ca5Si10As2Ir19
_symmetry_space_group_name_H-M   'P 1'
_cell_length_a   12.91465542
_cell_length_b   12.88007562
_cell_length_c   3.99691100
_cell_angle_alpha   90.00000000
_cell_angle_beta   90.00000000
_cell_angle_gamma   119.91146699
_symmetry_Int_Tables_number   1
_chemical_formula_structural   Ca5Si10As2Ir19
_chemical_formula_sum   'Ca5 Si10 As2 Ir19'
_cell_volume   576.29267055
_cell_formula_units_Z   1
loop_
 _symmetry_equiv_pos_site_id
 _symmetry_equiv_pos_as_xyz
  1  'x, y, z'
loop_
 _atom_site_type_symbol
 _atom_site_label
 _atom_site_symmetry_multiplicity
 _atom_site_fract_x
 _atom_site_fract_y
 _atom_site_fract_z
 _atom_site_occupancy
  Ca  Ca0  1  0.000000  0.185268  0.500000  1
  Ca  Ca1  1  0.816696  0.814125  0.500000  1
  Ca  Ca2  1  0.183304  0.997429  0.500000  1
  Ca  Ca3  1  0.667668  0.334771  0.000000  1
  Ca  Ca4  1  0.332332  0.667104  0.000000  1
  Si  Si5  1  0.482819  0.313929  0.500000  1
  Si  Si6  1  0.000000  0.814261  0.000000  1
  Si  Si7  1  0.369224  0.999760  0.000000  1
  Si  Si8  1  0.687020  0.169569  0.500000  1
  Si  Si9  1  0.832375  0.520358  0.500000  1
  Si  Si10  1  0.517181  0.831110  0.500000  1
  Si  Si11  1  0.167625  0.687982  0.500000  1
  Si  Si12  1  0.312980  0.482549  0.500000  1
  Si  Si13  1  0.000000  0.369645  0.000000  1
  Si  Si14  1  0.630776  0.630535  0.000000  1
  As  As15  1  0.818778  0.998299  0.000000  1
  As  As16  1  0.181222  0.179520  0.000000  1
  Ir  Ir17  1  0.804603  0.185125  0.000000  1
  Ir  Ir18  1  0.381971  0.196272  0.000000  1
  Ir  Ir19  1  0.639497  0.513785  0.500000  1
  Ir  Ir20  1  0.873605  0.361742  0.500000  1
  Ir  Ir21  1  0.360503  0.874288  0.500000  1
  Ir  Ir22  1  0.512197  0.638943  0.500000  1
  Ir  Ir23  1  0.126395  0.488137  0.500000  1
  Ir  Ir24  1  0.816063  0.620692  0.000000  1
  Ir  Ir25  1  0.618029  0.814300  0.000000  1
  Ir  Ir26  1  0.183937  0.804628  0.000000  1
  Ir  Ir27  1  0.195397  0.380521  0.000000  1
  Ir  Ir28  1  0.000000  0.715423  0.500000  1
  Ir  Ir29  1  0.288567  0.288320  0.500000  1
  Ir  Ir30  1  0.711433  0.999753  0.500000  1
  Ir  Ir31  1  0.000000  0.552371  0.000000  1
  Ir  Ir32  1  0.447888  0.448166  0.000000  1
  Ir  Ir33  1  0.552112  0.000278  0.000000  1
  Ir  Ir34  1  0.000000  0.994296  0.000000  1
  Ir  Ir35  1  0.487803  0.126746  0.500000  1
