# generated using pymatgen
data_LiMn(BeRh)4
_symmetry_space_group_name_H-M   'P 1'
_cell_length_a   6.22823100
_cell_length_b   6.22823100
_cell_length_c   2.92434200
_cell_angle_alpha   90.00000000
_cell_angle_beta   90.00000000
_cell_angle_gamma   90.00000000
_symmetry_Int_Tables_number   1
_chemical_formula_structural   LiMn(BeRh)4
_chemical_formula_sum   'Li1 Mn1 Be4 Rh4'
_cell_volume   113.43774518
_cell_formula_units_Z   1
loop_
 _symmetry_equiv_pos_site_id
 _symmetry_equiv_pos_as_xyz
  1  'x, y, z'
loop_
 _atom_site_type_symbol
 _atom_site_label
 _atom_site_symmetry_multiplicity
 _atom_site_fract_x
 _atom_site_fract_y
 _atom_site_fract_z
 _atom_site_occupancy
  Li  Li0  1  0.500000  0.500000  0.000000  1
  Mn  Mn1  1  0.000000  0.000000  0.000000  1
  Be  Be2  1  0.128969  0.621736  0.000000  1
  Be  Be3  1  0.378264  0.128969  0.000000  1
  Be  Be4  1  0.621736  0.871031  0.000000  1
  Be  Be5  1  0.871031  0.378264  0.000000  1
  Rh  Rh6  1  0.164433  0.328592  0.500000  1
  Rh  Rh7  1  0.328592  0.835567  0.500000  1
  Rh  Rh8  1  0.671408  0.164433  0.500000  1
  Rh  Rh9  1  0.835567  0.671408  0.500000  1
