# generated using pymatgen
data_U3Co6GeB2
_symmetry_space_group_name_H-M   'P 1'
_cell_length_a   5.15276900
_cell_length_b   5.15276888
_cell_length_c   13.14565700
_cell_angle_alpha   90.00000000
_cell_angle_beta   90.00000000
_cell_angle_gamma   119.99999437
_symmetry_Int_Tables_number   1
_chemical_formula_structural   U3Co6GeB2
_chemical_formula_sum   'U6 Co12 Ge2 B4'
_cell_volume   302.26947312
_cell_formula_units_Z   2
loop_
 _symmetry_equiv_pos_site_id
 _symmetry_equiv_pos_as_xyz
  1  'x, y, z'
loop_
 _atom_site_type_symbol
 _atom_site_label
 _atom_site_symmetry_multiplicity
 _atom_site_fract_x
 _atom_site_fract_y
 _atom_site_fract_z
 _atom_site_occupancy
  U  U0  1  0.333333  0.666667  0.250000  1
  U  U1  1  0.666667  0.333333  0.750000  1
  U  U2  1  0.333333  0.666667  0.041136  1
  U  U3  1  0.666667  0.333333  0.541136  1
  U  U4  1  0.666667  0.333333  0.958864  1
  U  U5  1  0.333333  0.666667  0.458864  1
  Co  Co6  1  0.832244  0.664487  0.146435  1
  Co  Co7  1  0.167756  0.832244  0.646435  1
  Co  Co8  1  0.664487  0.832244  0.646435  1
  Co  Co9  1  0.335513  0.167756  0.146435  1
  Co  Co10  1  0.832244  0.167756  0.146435  1
  Co  Co11  1  0.167756  0.335513  0.853565  1
  Co  Co12  1  0.167756  0.832244  0.853565  1
  Co  Co13  1  0.167756  0.335513  0.646435  1
  Co  Co14  1  0.664487  0.832244  0.853565  1
  Co  Co15  1  0.335513  0.167756  0.353565  1
  Co  Co16  1  0.832244  0.664487  0.353565  1
  Co  Co17  1  0.832244  0.167756  0.353565  1
  Ge  Ge18  1  0.000000  0.000000  0.000000  1
  Ge  Ge19  1  0.000000  0.000000  0.500000  1
  B  B20  1  0.000000  0.000000  0.250000  1
  B  B21  1  0.000000  0.000000  0.750000  1
  B  B22  1  0.333333  0.666667  0.750000  1
  B  B23  1  0.666667  0.333333  0.250000  1
