# generated using pymatgen
data_KMgSc(MoO4)3
_symmetry_space_group_name_H-M   'P 1'
_cell_length_a   9.62791967
_cell_length_b   9.62792095
_cell_length_c   9.94156833
_cell_angle_alpha   61.02574946
_cell_angle_beta   61.02575360
_cell_angle_gamma   59.96730214
_symmetry_Int_Tables_number   1
_chemical_formula_structural   KMgSc(MoO4)3
_chemical_formula_sum   'K2 Mg2 Sc2 Mo6 O24'
_cell_volume   661.38822768
_cell_formula_units_Z   2
loop_
 _symmetry_equiv_pos_site_id
 _symmetry_equiv_pos_as_xyz
  1  'x, y, z'
loop_
 _atom_site_type_symbol
 _atom_site_label
 _atom_site_symmetry_multiplicity
 _atom_site_fract_x
 _atom_site_fract_y
 _atom_site_fract_z
 _atom_site_occupancy
  K  K0  1  0.113018  0.383245  0.756554  1
  K  K1  1  0.616755  0.886982  0.243446  1
  Mg  Mg2  1  0.755516  0.031628  0.818437  1
  Mg  Mg3  1  0.968372  0.244484  0.181563  1
  Sc  Sc4  1  0.254617  0.531330  0.321825  1
  Sc  Sc5  1  0.468670  0.745383  0.678175  1
  Mo  Mo6  1  0.075055  0.924945  0.000000  1
  Mo  Mo7  1  0.362208  0.351973  0.999395  1
  Mo  Mo8  1  0.144411  0.855589  0.500000  1
  Mo  Mo9  1  0.579563  0.137122  0.500498  1
  Mo  Mo10  1  0.862878  0.420437  0.499502  1
  Mo  Mo11  1  0.648027  0.637792  0.000605  1
  O  O12  1  0.044749  0.110532  0.025333  1
  O  O13  1  0.109912  0.030210  0.324646  1
  O  O14  1  0.181953  0.320604  0.025480  1
  O  O15  1  0.045649  0.447837  0.481251  1
  O  O16  1  0.108445  0.743326  0.176926  1
  O  O17  1  0.333668  0.387250  0.175140  1
  O  O18  1  0.172014  0.664170  0.480673  1
  O  O19  1  0.388933  0.320942  0.479544  1
  O  O20  1  0.466604  0.610227  0.178150  1
  O  O21  1  0.611871  0.101149  0.677341  1
  O  O22  1  0.755329  0.172324  0.326696  1
  O  O23  1  0.335830  0.827987  0.519327  1
  O  O24  1  0.389773  0.533396  0.821850  1
  O  O25  1  0.833590  0.456737  0.025416  1
  O  O26  1  0.543263  0.166410  0.974584  1
  O  O27  1  0.256674  0.891555  0.823074  1
  O  O28  1  0.679058  0.611067  0.520456  1
  O  O29  1  0.898851  0.388129  0.322659  1
  O  O30  1  0.552162  0.954351  0.518749  1
  O  O31  1  0.827676  0.244671  0.673304  1
  O  O32  1  0.612750  0.666332  0.824860  1
  O  O33  1  0.679396  0.818047  0.974520  1
  O  O34  1  0.969790  0.890088  0.675354  1
  O  O35  1  0.889468  0.955251  0.974667  1
