# generated using pymatgen
data_Zr8In14AgIr7
_symmetry_space_group_name_H-M   'P 1'
_cell_length_a   9.71341735
_cell_length_b   9.71341745
_cell_length_c   9.71341600
_cell_angle_alpha   59.99999813
_cell_angle_beta   59.99999780
_cell_angle_gamma   59.99999886
_symmetry_Int_Tables_number   1
_chemical_formula_structural   Zr8In14AgIr7
_chemical_formula_sum   'Zr8 In14 Ag1 Ir7'
_cell_volume   648.03890109
_cell_formula_units_Z   1
loop_
 _symmetry_equiv_pos_site_id
 _symmetry_equiv_pos_as_xyz
  1  'x, y, z'
loop_
 _atom_site_type_symbol
 _atom_site_label
 _atom_site_symmetry_multiplicity
 _atom_site_fract_x
 _atom_site_fract_y
 _atom_site_fract_z
 _atom_site_occupancy
  Zr  Zr0  1  0.124286  0.627142  0.124286  1
  Zr  Zr1  1  0.372858  0.875714  0.875714  1
  Zr  Zr2  1  0.875714  0.875714  0.875714  1
  Zr  Zr3  1  0.627142  0.124286  0.124286  1
  Zr  Zr4  1  0.875714  0.875714  0.372858  1
  Zr  Zr5  1  0.124286  0.124286  0.124286  1
  Zr  Zr6  1  0.875714  0.372858  0.875714  1
  Zr  Zr7  1  0.124286  0.124286  0.627142  1
  In  In8  1  0.500000  0.841476  0.158524  1
  In  In9  1  0.500000  0.841476  0.500000  1
  In  In10  1  0.500000  0.158524  0.500000  1
  In  In11  1  0.500000  0.500000  0.841476  1
  In  In12  1  0.158524  0.500000  0.500000  1
  In  In13  1  0.841476  0.158524  0.500000  1
  In  In14  1  0.158524  0.841476  0.500000  1
  In  In15  1  0.500000  0.158524  0.841476  1
  In  In16  1  0.158524  0.500000  0.841476  1
  In  In17  1  0.500000  0.500000  0.158524  1
  In  In18  1  0.841476  0.500000  0.500000  1
  In  In19  1  0.841476  0.500000  0.158524  1
  In  In20  1  0.250000  0.250000  0.250000  1
  In  In21  1  0.750000  0.750000  0.750000  1
  Ag  Ag22  1  0.500000  0.500000  0.500000  1
  Ir  Ir23  1  0.782393  0.782393  0.217607  1
  Ir  Ir24  1  0.000000  0.000000  0.000000  1
  Ir  Ir25  1  0.217607  0.782393  0.217607  1
  Ir  Ir26  1  0.217607  0.782393  0.782393  1
  Ir  Ir27  1  0.217607  0.217607  0.782393  1
  Ir  Ir28  1  0.782393  0.217607  0.782393  1
  Ir  Ir29  1  0.782393  0.217607  0.217607  1
