# generated using pymatgen
data_NaMn(SO4)2
_symmetry_space_group_name_H-M   'P 1'
_cell_length_a   4.73633776
_cell_length_b   9.05476531
_cell_length_c   8.49252832
_cell_angle_alpha   67.81326826
_cell_angle_beta   102.06760781
_cell_angle_gamma   76.87922792
_symmetry_Int_Tables_number   1
_chemical_formula_structural   NaMn(SO4)2
_chemical_formula_sum   'Na2 Mn2 S4 O16'
_cell_volume   310.39841968
_cell_formula_units_Z   2
loop_
 _symmetry_equiv_pos_site_id
 _symmetry_equiv_pos_as_xyz
  1  'x, y, z'
loop_
 _atom_site_type_symbol
 _atom_site_label
 _atom_site_symmetry_multiplicity
 _atom_site_fract_x
 _atom_site_fract_y
 _atom_site_fract_z
 _atom_site_occupancy
  Na  Na0  1  0.000000  0.250000  0.250000  1
  Na  Na1  1  0.000000  0.750000  0.750000  1
  Mn  Mn2  1  0.999999  0.500000  0.500000  1
  Mn  Mn3  1  0.000001  0.000000  0.000001  1
  S  S4  1  0.362808  0.566492  0.210093  1
  S  S5  1  0.362808  0.066493  0.710093  1
  S  S6  1  0.637192  0.433507  0.789907  1
  S  S7  1  0.637192  0.933507  0.289907  1
  O  O8  1  0.285638  0.439223  0.163001  1
  O  O9  1  0.285638  0.939223  0.663002  1
  O  O10  1  0.714362  0.560776  0.836999  1
  O  O11  1  0.714362  0.060777  0.336998  1
  O  O12  1  0.760460  0.409675  0.648255  1
  O  O13  1  0.760460  0.909676  0.148253  1
  O  O14  1  0.239541  0.590325  0.351745  1
  O  O15  1  0.239540  0.090324  0.851747  1
  O  O16  1  0.744190  0.265438  0.948018  1
  O  O17  1  0.744188  0.765440  0.448017  1
  O  O18  1  0.255810  0.734562  0.051982  1
  O  O19  1  0.255812  0.234560  0.551983  1
  O  O20  1  0.287582  0.491431  0.711696  1
  O  O21  1  0.287581  0.991432  0.211693  1
  O  O22  1  0.712418  0.508569  0.288304  1
  O  O23  1  0.712419  0.008568  0.788307  1
