# generated using pymatgen
data_Pa6Al24Re7Ir
_symmetry_space_group_name_H-M   'P 1'
_cell_length_a   8.91126100
_cell_length_b   8.91126126
_cell_length_c   9.45997100
_cell_angle_alpha   90.00000000
_cell_angle_beta   90.00000000
_cell_angle_gamma   119.99999531
_symmetry_Int_Tables_number   1
_chemical_formula_structural   Pa6Al24Re7Ir
_chemical_formula_sum   'Pa6 Al24 Re7 Ir1'
_cell_volume   650.57713828
_cell_formula_units_Z   1
loop_
 _symmetry_equiv_pos_site_id
 _symmetry_equiv_pos_as_xyz
  1  'x, y, z'
loop_
 _atom_site_type_symbol
 _atom_site_label
 _atom_site_symmetry_multiplicity
 _atom_site_fract_x
 _atom_site_fract_y
 _atom_site_fract_z
 _atom_site_occupancy
  Pa  Pa0  1  0.800056  0.199944  0.750826  1
  Pa  Pa1  1  0.199944  0.800056  0.249174  1
  Pa  Pa2  1  0.399888  0.199944  0.750826  1
  Pa  Pa3  1  0.600112  0.800056  0.249174  1
  Pa  Pa4  1  0.800056  0.600112  0.750826  1
  Pa  Pa5  1  0.199944  0.399888  0.249174  1
  Al  Al6  1  0.666667  0.333333  0.989135  1
  Al  Al7  1  0.333333  0.666667  0.010865  1
  Al  Al8  1  0.333333  0.666667  0.489095  1
  Al  Al9  1  0.666667  0.333333  0.510905  1
  Al  Al10  1  0.837607  0.162393  0.420010  1
  Al  Al11  1  0.162393  0.837607  0.579990  1
  Al  Al12  1  0.324788  0.162393  0.420010  1
  Al  Al13  1  0.161528  0.838472  0.918504  1
  Al  Al14  1  0.675212  0.837607  0.579990  1
  Al  Al15  1  0.838472  0.161528  0.081496  1
  Al  Al16  1  0.837607  0.675212  0.420010  1
  Al  Al17  1  0.676942  0.838472  0.918504  1
  Al  Al18  1  0.162393  0.324788  0.579990  1
  Al  Al19  1  0.323058  0.161528  0.081496  1
  Al  Al20  1  0.161528  0.323058  0.918504  1
  Al  Al21  1  0.838472  0.676942  0.081496  1
  Al  Al22  1  0.437632  0.562368  0.750269  1
  Al  Al23  1  0.562368  0.437632  0.249731  1
  Al  Al24  1  0.124736  0.562368  0.750269  1
  Al  Al25  1  0.875264  0.437632  0.249731  1
  Al  Al26  1  0.437632  0.875264  0.750269  1
  Al  Al27  1  0.562368  0.124736  0.249731  1
  Al  Al28  1  0.000000  0.000000  0.748802  1
  Al  Al29  1  0.000000  0.000000  0.251198  1
  Re  Re30  1  0.500000  0.500000  0.000000  1
  Re  Re31  1  0.000000  0.500000  0.000000  1
  Re  Re32  1  0.500000  0.500000  0.500000  1
  Re  Re33  1  0.500000  0.000000  0.000000  1
  Re  Re34  1  0.000000  0.500000  0.500000  1
  Re  Re35  1  0.500000  0.000000  0.500000  1
  Re  Re36  1  0.000000  0.000000  0.000000  1
  Ir  Ir37  1  0.000000  0.000000  0.500000  1
