# generated using pymatgen
data_LaTbV2F14
_symmetry_space_group_name_H-M   'P 1'
_cell_length_a   5.62219391
_cell_length_b   9.04366323
_cell_length_c   12.05520235
_cell_angle_alpha   63.18564528
_cell_angle_beta   89.90872146
_cell_angle_gamma   89.98026418
_symmetry_Int_Tables_number   1
_chemical_formula_structural   LaTbV2F14
_chemical_formula_sum   'La2 Tb2 V4 F28'
_cell_volume   547.04004621
_cell_formula_units_Z   2
loop_
 _symmetry_equiv_pos_site_id
 _symmetry_equiv_pos_as_xyz
  1  'x, y, z'
loop_
 _atom_site_type_symbol
 _atom_site_label
 _atom_site_symmetry_multiplicity
 _atom_site_fract_x
 _atom_site_fract_y
 _atom_site_fract_z
 _atom_site_occupancy
  La  La0  1  0.258062  0.810480  0.269298  1
  La  La1  1  0.741938  0.189520  0.730702  1
  Tb  Tb2  1  0.758931  0.198797  0.228967  1
  Tb  Tb3  1  0.241069  0.801203  0.771033  1
  V  V4  1  0.754128  0.722375  0.042158  1
  V  V5  1  0.245872  0.277625  0.957842  1
  V  V6  1  0.254214  0.270179  0.452384  1
  V  V7  1  0.745786  0.729821  0.547616  1
  F  F8  1  0.942078  0.706386  0.428710  1
  F  F9  1  0.057922  0.293614  0.571290  1
  F  F10  1  0.448765  0.293527  0.077589  1
  F  F11  1  0.551235  0.706473  0.922411  1
  F  F12  1  0.484722  0.728444  0.134241  1
  F  F13  1  0.515278  0.271556  0.865759  1
  F  F14  1  0.981250  0.266559  0.359626  1
  F  F15  1  0.018750  0.733441  0.640374  1
  F  F16  1  0.948330  0.741548  0.164839  1
  F  F17  1  0.051670  0.258452  0.835161  1
  F  F18  1  0.457758  0.250474  0.331235  1
  F  F19  1  0.542242  0.749526  0.668765  1
  F  F20  1  0.766895  0.494150  0.134689  1
  F  F21  1  0.233105  0.505850  0.865311  1
  F  F22  1  0.265361  0.497464  0.361693  1
  F  F23  1  0.734639  0.502536  0.638307  1
  F  F24  1  0.965702  0.286022  0.046591  1
  F  F25  1  0.034298  0.713978  0.953409  1
  F  F26  1  0.469769  0.713959  0.461415  1
  F  F27  1  0.530231  0.286041  0.538585  1
  F  F28  1  0.741970  0.954483  0.455199  1
  F  F29  1  0.258030  0.045517  0.544801  1
  F  F30  1  0.242793  0.051353  0.043595  1
  F  F31  1  0.757207  0.948647  0.956405  1
  F  F32  1  0.593294  0.980832  0.229444  1
  F  F33  1  0.406706  0.019168  0.770556  1
  F  F34  1  0.074325  0.037385  0.269606  1
  F  F35  1  0.925675  0.962615  0.730394  1
