# generated using pymatgen
data_Li4NdGd3(SiO4)4
_symmetry_space_group_name_H-M   'P 1'
_cell_length_a   6.32364871
_cell_length_b   5.52138653
_cell_length_c   11.09967496
_cell_angle_alpha   66.62308900
_cell_angle_beta   90.12662255
_cell_angle_gamma   90.16641724
_symmetry_Int_Tables_number   1
_chemical_formula_structural   Li4NdGd3(SiO4)4
_chemical_formula_sum   'Li4 Nd1 Gd3 Si4 O16'
_cell_volume   355.73475934
_cell_formula_units_Z   1
loop_
 _symmetry_equiv_pos_site_id
 _symmetry_equiv_pos_as_xyz
  1  'x, y, z'
loop_
 _atom_site_type_symbol
 _atom_site_label
 _atom_site_symmetry_multiplicity
 _atom_site_fract_x
 _atom_site_fract_y
 _atom_site_fract_z
 _atom_site_occupancy
  Li  Li0  1  0.133859  0.922252  0.429040  1
  Li  Li1  1  0.634256  0.076435  0.072400  1
  Li  Li2  1  0.865910  0.079446  0.570775  1
  Li  Li3  1  0.367158  0.921424  0.929686  1
  Nd  Nd4  1  0.117396  0.443285  0.847876  1
  Gd  Gd5  1  0.882879  0.554592  0.152300  1
  Gd  Gd6  1  0.616882  0.556711  0.649647  1
  Gd  Gd7  1  0.383927  0.445022  0.347930  1
  Si  Si8  1  0.652214  0.906405  0.358643  1
  Si  Si9  1  0.351318  0.094801  0.639189  1
  Si  Si10  1  0.152119  0.091418  0.143519  1
  Si  Si11  1  0.843901  0.906656  0.858597  1
  O  O12  1  0.851409  0.227991  0.775400  1
  O  O13  1  0.642194  0.228747  0.277294  1
  O  O14  1  0.164563  0.180483  0.526432  1
  O  O15  1  0.832499  0.764332  0.752553  1
  O  O16  1  0.140528  0.769221  0.224443  1
  O  O17  1  0.569969  0.225615  0.553853  1
  O  O18  1  0.663213  0.761919  0.253194  1
  O  O19  1  0.431062  0.778774  0.442217  1
  O  O20  1  0.066571  0.785923  0.942466  1
  O  O21  1  0.662206  0.818074  0.974069  1
  O  O22  1  0.163212  0.236766  0.248427  1
  O  O23  1  0.930751  0.219990  0.060008  1
  O  O24  1  0.337998  0.174825  0.030841  1
  O  O25  1  0.342622  0.235042  0.746044  1
  O  O26  1  0.362943  0.773545  0.720101  1
  O  O27  1  0.836440  0.820305  0.473053  1
