# generated using pymatgen
data_NaHf(Ni2P)4
_symmetry_space_group_name_H-M   'P 1'
_cell_length_a   3.53975600
_cell_length_b   6.99313592
_cell_length_c   6.99313592
_cell_angle_alpha   89.01391001
_cell_angle_beta   90.00000000
_cell_angle_gamma   90.00000000
_symmetry_Int_Tables_number   1
_chemical_formula_structural   NaHf(Ni2P)4
_chemical_formula_sum   'Na1 Hf1 Ni8 P4'
_cell_volume   173.08241363
_cell_formula_units_Z   1
loop_
 _symmetry_equiv_pos_site_id
 _symmetry_equiv_pos_as_xyz
  1  'x, y, z'
loop_
 _atom_site_type_symbol
 _atom_site_label
 _atom_site_symmetry_multiplicity
 _atom_site_fract_x
 _atom_site_fract_y
 _atom_site_fract_z
 _atom_site_occupancy
  Na  Na0  1  0.000000  0.500000  0.500000  1
  Hf  Hf1  1  0.500000  0.000000  0.000000  1
  Ni  Ni2  1  0.500000  0.164026  0.584319  1
  Ni  Ni3  1  0.500000  0.835974  0.415681  1
  Ni  Ni4  1  0.000000  0.332628  0.082784  1
  Ni  Ni5  1  0.000000  0.667372  0.917216  1
  Ni  Ni6  1  0.500000  0.584319  0.164026  1
  Ni  Ni7  1  0.500000  0.415681  0.835974  1
  Ni  Ni8  1  0.000000  0.082784  0.332628  1
  Ni  Ni9  1  0.000000  0.917216  0.667372  1
  P  P10  1  0.500000  0.725567  0.725567  1
  P  P11  1  0.500000  0.274433  0.274433  1
  P  P12  1  0.000000  0.783436  0.216564  1
  P  P13  1  0.000000  0.216564  0.783436  1
