# generated using pymatgen
data_Cs2Mg4CdSb4
_symmetry_space_group_name_H-M   'P 1'
_cell_length_a   7.77376377
_cell_length_b   7.77376382
_cell_length_c   13.46677100
_cell_angle_alpha   90.00000000
_cell_angle_beta   90.00000000
_cell_angle_gamma   118.39057186
_symmetry_Int_Tables_number   1
_chemical_formula_structural   Cs2Mg4CdSb4
_chemical_formula_sum   'Cs4 Mg8 Cd2 Sb8'
_cell_volume   715.93565438
_cell_formula_units_Z   2
loop_
 _symmetry_equiv_pos_site_id
 _symmetry_equiv_pos_as_xyz
  1  'x, y, z'
loop_
 _atom_site_type_symbol
 _atom_site_label
 _atom_site_symmetry_multiplicity
 _atom_site_fract_x
 _atom_site_fract_y
 _atom_site_fract_z
 _atom_site_occupancy
  Cs  Cs0  1  0.219860  0.780140  0.500000  1
  Cs  Cs1  1  0.219860  0.780140  0.000000  1
  Cs  Cs2  1  0.779510  0.220490  0.500000  1
  Cs  Cs3  1  0.779510  0.220490  0.000000  1
  Mg  Mg4  1  0.474736  0.752133  0.750000  1
  Mg  Mg5  1  0.247867  0.525264  0.250000  1
  Mg  Mg6  1  0.648713  0.647164  0.387180  1
  Mg  Mg7  1  0.352836  0.351287  0.612820  1
  Mg  Mg8  1  0.648713  0.647164  0.112820  1
  Mg  Mg9  1  0.352836  0.351287  0.887180  1
  Mg  Mg10  1  0.014298  0.014650  0.250000  1
  Mg  Mg11  1  0.985350  0.985702  0.750000  1
  Cd  Cd12  1  0.527847  0.245935  0.250000  1
  Cd  Cd13  1  0.754065  0.472153  0.750000  1
  Sb  Sb14  1  0.599264  0.913989  0.250000  1
  Sb  Sb15  1  0.086011  0.400736  0.750000  1
  Sb  Sb16  1  0.397501  0.079191  0.750000  1
  Sb  Sb17  1  0.920809  0.602499  0.250000  1
  Sb  Sb18  1  0.272621  0.277413  0.405410  1
  Sb  Sb19  1  0.722587  0.727379  0.594590  1
  Sb  Sb20  1  0.272621  0.277413  0.094590  1
  Sb  Sb21  1  0.722587  0.727379  0.905410  1
