# generated using pymatgen
data_LaTb9(Si2Hg)2
_symmetry_space_group_name_H-M   'P 1'
_cell_length_a   7.61493032
_cell_length_b   7.61493052
_cell_length_c   8.98828300
_cell_angle_alpha   115.03376294
_cell_angle_beta   115.03376364
_cell_angle_gamma   90.13903316
_symmetry_Int_Tables_number   1
_chemical_formula_structural   LaTb9(Si2Hg)2
_chemical_formula_sum   'La1 Tb9 Si4 Hg2'
_cell_volume   417.29274259
_cell_formula_units_Z   1
loop_
 _symmetry_equiv_pos_site_id
 _symmetry_equiv_pos_as_xyz
  1  'x, y, z'
loop_
 _atom_site_type_symbol
 _atom_site_label
 _atom_site_symmetry_multiplicity
 _atom_site_fract_x
 _atom_site_fract_y
 _atom_site_fract_z
 _atom_site_occupancy
  La  La0  1  0.528077  0.028077  0.709836  1
  Tb  Tb1  1  0.501509  0.500036  0.002101  1
  Tb  Tb2  1  0.000036  0.001509  0.002101  1
  Tb  Tb3  1  0.966372  0.812649  0.279641  1
  Tb  Tb4  1  0.312649  0.466372  0.279641  1
  Tb  Tb5  1  0.810443  0.310443  0.280107  1
  Tb  Tb6  1  0.467624  0.967624  0.277630  1
  Tb  Tb7  1  0.031616  0.191106  0.721385  1
  Tb  Tb8  1  0.691106  0.531616  0.721385  1
  Tb  Tb9  1  0.187171  0.687171  0.723161  1
  Si  Si10  1  0.624762  0.873751  0.002831  1
  Si  Si11  1  0.373751  0.124762  0.002831  1
  Si  Si12  1  0.880541  0.380541  0.003756  1
  Si  Si13  1  0.125170  0.625170  0.002625  1
  Hg  Hg14  1  0.755191  0.743981  0.495485  1
  Hg  Hg15  1  0.243981  0.255191  0.495485  1
