# generated using pymatgen
data_K2Lu(TeO4)3
_symmetry_space_group_name_H-M   'P 1'
_cell_length_a   7.48093656
_cell_length_b   7.48103714
_cell_length_c   7.47077834
_cell_angle_alpha   59.22032777
_cell_angle_beta   59.21955048
_cell_angle_gamma   59.14875918
_symmetry_Int_Tables_number   1
_chemical_formula_structural   K2Lu(TeO4)3
_chemical_formula_sum   'K2 Lu1 Te3 O12'
_cell_volume   290.22909262
_cell_formula_units_Z   1
loop_
 _symmetry_equiv_pos_site_id
 _symmetry_equiv_pos_as_xyz
  1  'x, y, z'
loop_
 _atom_site_type_symbol
 _atom_site_label
 _atom_site_symmetry_multiplicity
 _atom_site_fract_x
 _atom_site_fract_y
 _atom_site_fract_z
 _atom_site_occupancy
  K  K0  1  0.828183  0.895097  0.382907  1
  K  K1  1  0.104904  0.171810  0.617103  1
  Lu  Lu2  1  0.495711  0.504280  0.000012  1
  Te  Te3  1  0.998871  0.500301  0.999519  1
  Te  Te4  1  0.499700  0.001131  0.000475  1
  Te  Te5  1  0.499112  0.500891  0.500002  1
  O  O6  1  0.181837  0.182504  0.079845  1
  O  O7  1  0.577658  0.573699  0.651249  1
  O  O8  1  0.149326  0.573180  0.078467  1
  O  O9  1  0.581017  0.183132  0.682521  1
  O  O10  1  0.574373  0.153295  0.075958  1
  O  O11  1  0.181966  0.578869  0.682134  1
  O  O12  1  0.817504  0.818158  0.920150  1
  O  O13  1  0.426307  0.422332  0.348765  1
  O  O14  1  0.846711  0.425624  0.924036  1
  O  O15  1  0.421133  0.818030  0.317860  1
  O  O16  1  0.426817  0.850681  0.921525  1
  O  O17  1  0.816872  0.418982  0.317475  1
