# generated using pymatgen
data_Dy3Tm5(LuSb)12
_symmetry_space_group_name_H-M   'P 1'
_cell_length_a   8.05221175
_cell_length_b   9.11595000
_cell_length_c   11.69019200
_cell_angle_alpha   90.00000000
_cell_angle_beta   90.02475494
_cell_angle_gamma   90.00000000
_symmetry_Int_Tables_number   1
_chemical_formula_structural   Dy3Tm5(LuSb)12
_chemical_formula_sum   'Dy3 Tm5 Lu12 Sb12'
_cell_volume   858.10162648
_cell_formula_units_Z   1
loop_
 _symmetry_equiv_pos_site_id
 _symmetry_equiv_pos_as_xyz
  1  'x, y, z'
loop_
 _atom_site_type_symbol
 _atom_site_label
 _atom_site_symmetry_multiplicity
 _atom_site_fract_x
 _atom_site_fract_y
 _atom_site_fract_z
 _atom_site_occupancy
  Dy  Dy0  1  0.176193  0.750000  0.228663  1
  Dy  Dy1  1  0.676180  0.250000  0.271273  1
  Dy  Dy2  1  0.823803  0.250000  0.771162  1
  Tm  Tm3  1  0.324117  0.750000  0.728864  1
  Tm  Tm4  1  0.658906  0.750000  0.290921  1
  Tm  Tm5  1  0.159097  0.250000  0.209180  1
  Tm  Tm6  1  0.340952  0.250000  0.709224  1
  Tm  Tm7  1  0.841174  0.750000  0.790659  1
  Lu  Lu8  1  0.809131  0.938677  0.065988  1
  Lu  Lu9  1  0.309234  0.061340  0.433809  1
  Lu  Lu10  1  0.190767  0.438763  0.933917  1
  Lu  Lu11  1  0.691090  0.561134  0.565983  1
  Lu  Lu12  1  0.190767  0.061237  0.933917  1
  Lu  Lu13  1  0.691090  0.938866  0.565983  1
  Lu  Lu14  1  0.809131  0.561323  0.065988  1
  Lu  Lu15  1  0.309234  0.438660  0.433809  1
  Lu  Lu16  1  0.524779  0.250000  0.995119  1
  Lu  Lu17  1  0.025038  0.750000  0.504900  1
  Lu  Lu18  1  0.474902  0.750000  0.004663  1
  Lu  Lu19  1  0.975117  0.250000  0.495257  1
  Sb  Sb20  1  0.936564  0.991048  0.326481  1
  Sb  Sb21  1  0.436634  0.008873  0.173577  1
  Sb  Sb22  1  0.064053  0.491471  0.673661  1
  Sb  Sb23  1  0.562575  0.509611  0.826087  1
  Sb  Sb24  1  0.064053  0.008529  0.673661  1
  Sb  Sb25  1  0.562575  0.990389  0.826087  1
  Sb  Sb26  1  0.936564  0.508952  0.326481  1
  Sb  Sb27  1  0.436634  0.491127  0.173577  1
  Sb  Sb28  1  0.902615  0.250000  0.025882  1
  Sb  Sb29  1  0.402522  0.750000  0.475255  1
  Sb  Sb30  1  0.097330  0.750000  0.974019  1
  Sb  Sb31  1  0.597172  0.250000  0.525954  1
