# generated using pymatgen
data_Tm2Mn9CrP6
_symmetry_space_group_name_H-M   'P 1'
_cell_length_a   3.57935200
_cell_length_b   10.67900200
_cell_length_c   12.20810500
_cell_angle_alpha   90.00000000
_cell_angle_beta   90.00000000
_cell_angle_gamma   90.00000000
_symmetry_Int_Tables_number   1
_chemical_formula_structural   Tm2Mn9CrP6
_chemical_formula_sum   'Tm4 Mn18 Cr2 P12'
_cell_volume   466.64147220
_cell_formula_units_Z   2
loop_
 _symmetry_equiv_pos_site_id
 _symmetry_equiv_pos_as_xyz
  1  'x, y, z'
loop_
 _atom_site_type_symbol
 _atom_site_label
 _atom_site_symmetry_multiplicity
 _atom_site_fract_x
 _atom_site_fract_y
 _atom_site_fract_z
 _atom_site_occupancy
  Tm  Tm0  1  0.250000  0.588303  0.706117  1
  Tm  Tm1  1  0.250000  0.911697  0.206117  1
  Tm  Tm2  1  0.750000  0.413541  0.294149  1
  Tm  Tm3  1  0.750000  0.086459  0.794149  1
  Mn  Mn4  1  0.750000  0.281800  0.018290  1
  Mn  Mn5  1  0.750000  0.218200  0.518290  1
  Mn  Mn6  1  0.250000  0.409505  0.493397  1
  Mn  Mn7  1  0.250000  0.090495  0.993397  1
  Mn  Mn8  1  0.750000  0.589554  0.507266  1
  Mn  Mn9  1  0.750000  0.910446  0.007266  1
  Mn  Mn10  1  0.250000  0.211355  0.181250  1
  Mn  Mn11  1  0.250000  0.288645  0.681250  1
  Mn  Mn12  1  0.750000  0.788318  0.818067  1
  Mn  Mn13  1  0.750000  0.711682  0.318067  1
  Mn  Mn14  1  0.250000  0.884089  0.692840  1
  Mn  Mn15  1  0.250000  0.615911  0.192840  1
  Mn  Mn16  1  0.750000  0.117187  0.307322  1
  Mn  Mn17  1  0.750000  0.382813  0.807322  1
  Mn  Mn18  1  0.250000  0.465027  0.934530  1
  Mn  Mn19  1  0.250000  0.034973  0.434530  1
  Mn  Mn20  1  0.750000  0.532840  0.064586  1
  Mn  Mn21  1  0.750000  0.967160  0.564586  1
  Cr  Cr22  1  0.250000  0.714641  0.981891  1
  Cr  Cr23  1  0.250000  0.785359  0.481891  1
  P  P24  1  0.250000  0.410150  0.116560  1
  P  P25  1  0.250000  0.089850  0.616560  1
  P  P26  1  0.750000  0.589735  0.883537  1
  P  P27  1  0.750000  0.910265  0.383537  1
  P  P28  1  0.250000  0.263203  0.874919  1
  P  P29  1  0.250000  0.236797  0.374919  1
  P  P30  1  0.750000  0.735298  0.124135  1
  P  P31  1  0.750000  0.764702  0.624135  1
  P  P32  1  0.250000  0.591407  0.383443  1
  P  P33  1  0.250000  0.908593  0.883443  1
  P  P34  1  0.750000  0.410558  0.617699  1
  P  P35  1  0.750000  0.089442  0.117699  1
