# generated using pymatgen
data_Tb8In3HgAu8
_symmetry_space_group_name_H-M   'P 1'
_cell_length_a   8.05752600
_cell_length_b   8.05752600
_cell_length_c   7.39779800
_cell_angle_alpha   90.00000000
_cell_angle_beta   90.00000000
_cell_angle_gamma   90.00000000
_symmetry_Int_Tables_number   1
_chemical_formula_structural   Tb8In3HgAu8
_chemical_formula_sum   'Tb8 In3 Hg1 Au8'
_cell_volume   480.29260474
_cell_formula_units_Z   1
loop_
 _symmetry_equiv_pos_site_id
 _symmetry_equiv_pos_as_xyz
  1  'x, y, z'
loop_
 _atom_site_type_symbol
 _atom_site_label
 _atom_site_symmetry_multiplicity
 _atom_site_fract_x
 _atom_site_fract_y
 _atom_site_fract_z
 _atom_site_occupancy
  Tb  Tb0  1  0.167717  0.164003  0.999740  1
  Tb  Tb1  1  0.832283  0.835997  0.999740  1
  Tb  Tb2  1  0.664003  0.332283  0.500260  1
  Tb  Tb3  1  0.335997  0.667717  0.500260  1
  Tb  Tb4  1  0.672699  0.322338  0.999988  1
  Tb  Tb5  1  0.327301  0.677662  0.999988  1
  Tb  Tb6  1  0.822338  0.827301  0.500012  1
  Tb  Tb7  1  0.177662  0.172699  0.500012  1
  In  In8  1  0.500000  0.000000  0.750000  1
  In  In9  1  0.000000  0.500000  0.250000  1
  In  In10  1  0.000000  0.500000  0.750000  1
  Hg  Hg11  1  0.500000  0.000000  0.250000  1
  Au  Au12  1  0.369498  0.373917  0.240958  1
  Au  Au13  1  0.628992  0.628005  0.759239  1
  Au  Au14  1  0.630502  0.626083  0.240958  1
  Au  Au15  1  0.871995  0.128992  0.740761  1
  Au  Au16  1  0.873917  0.130502  0.259042  1
  Au  Au17  1  0.371008  0.371995  0.759239  1
  Au  Au18  1  0.126083  0.869498  0.259042  1
  Au  Au19  1  0.128005  0.871008  0.740761  1
