# generated using pymatgen
data_Tb13Ho7Fe2(CoBi4)2
_symmetry_space_group_name_H-M   'P 1'
_cell_length_a   8.00743329
_cell_length_b   8.92049723
_cell_length_c   12.44627045
_cell_angle_alpha   90.02048416
_cell_angle_beta   89.89268067
_cell_angle_gamma   90.01612551
_symmetry_Int_Tables_number   1
_chemical_formula_structural   Tb13Ho7Fe2(CoBi4)2
_chemical_formula_sum   'Tb13 Ho7 Fe2 Co2 Bi8'
_cell_volume   889.03901194
_cell_formula_units_Z   1
loop_
 _symmetry_equiv_pos_site_id
 _symmetry_equiv_pos_as_xyz
  1  'x, y, z'
loop_
 _atom_site_type_symbol
 _atom_site_label
 _atom_site_symmetry_multiplicity
 _atom_site_fract_x
 _atom_site_fract_y
 _atom_site_fract_z
 _atom_site_occupancy
  Tb  Tb0  1  0.348694  0.750333  0.700164  1
  Tb  Tb1  1  0.651496  0.249872  0.299511  1
  Tb  Tb2  1  0.851178  0.250049  0.801355  1
  Tb  Tb3  1  0.148477  0.749908  0.198368  1
  Tb  Tb4  1  0.885745  0.749712  0.811801  1
  Tb  Tb5  1  0.114568  0.250072  0.188555  1
  Tb  Tb6  1  0.383799  0.249538  0.687592  1
  Tb  Tb7  1  0.615110  0.750593  0.312529  1
  Tb  Tb8  1  0.677130  0.536272  0.563692  1
  Tb  Tb9  1  0.051504  0.750214  0.496485  1
  Tb  Tb10  1  0.950966  0.249706  0.503323  1
  Tb  Tb11  1  0.554143  0.249962  0.004398  1
  Tb  Tb12  1  0.445317  0.749959  0.995608  1
  Ho  Ho13  1  0.325089  0.463711  0.436187  1
  Ho  Ho14  1  0.174034  0.464305  0.937849  1
  Ho  Ho15  1  0.325153  0.036671  0.436086  1
  Ho  Ho16  1  0.825890  0.536128  0.062227  1
  Ho  Ho17  1  0.674971  0.963645  0.563507  1
  Ho  Ho18  1  0.826013  0.963772  0.062280  1
  Ho  Ho19  1  0.173825  0.035670  0.937754  1
  Fe  Fe20  1  0.067996  0.749889  0.990811  1
  Fe  Fe21  1  0.930550  0.250294  0.009790  1
  Co  Co22  1  0.561555  0.249620  0.506609  1
  Co  Co23  1  0.436641  0.750653  0.493070  1
  Bi  Bi24  1  0.572058  0.507305  0.826869  1
  Bi  Bi25  1  0.427618  0.492573  0.173330  1
  Bi  Bi26  1  0.073617  0.491987  0.673474  1
  Bi  Bi27  1  0.427401  0.007492  0.173180  1
  Bi  Bi28  1  0.927312  0.507837  0.326824  1
  Bi  Bi29  1  0.572458  0.992468  0.826673  1
  Bi  Bi30  1  0.927513  0.992142  0.326743  1
  Bi  Bi31  1  0.072179  0.007648  0.673357  1
