# generated using pymatgen
data_La2SnBi3
_symmetry_space_group_name_H-M   'P 1'
_cell_length_a   8.97576356
_cell_length_b   8.97576405
_cell_length_c   4.63812600
_cell_angle_alpha   90.00000000
_cell_angle_beta   90.00000000
_cell_angle_gamma   149.25567405
_symmetry_Int_Tables_number   1
_chemical_formula_structural   La2SnBi3
_chemical_formula_sum   'La2 Sn1 Bi3'
_cell_volume   191.02182718
_cell_formula_units_Z   1
loop_
 _symmetry_equiv_pos_site_id
 _symmetry_equiv_pos_as_xyz
  1  'x, y, z'
loop_
 _atom_site_type_symbol
 _atom_site_label
 _atom_site_symmetry_multiplicity
 _atom_site_fract_x
 _atom_site_fract_y
 _atom_site_fract_z
 _atom_site_occupancy
  La  La0  1  0.898393  0.101608  0.250000  1
  La  La1  1  0.100032  0.899969  0.750000  1
  Sn  Sn2  1  0.565369  0.434632  0.250000  1
  Bi  Bi3  1  0.250003  0.749998  0.250000  1
  Bi  Bi4  1  0.746687  0.253314  0.750000  1
  Bi  Bi5  1  0.439520  0.560481  0.750000  1
