# generated using pymatgen
data_Hf16Ta3TcNi4
_symmetry_space_group_name_H-M   'P 1'
_cell_length_a   8.72891130
_cell_length_b   8.75551590
_cell_length_c   8.75551700
_cell_angle_alpha   59.99999963
_cell_angle_beta   59.89912551
_cell_angle_gamma   59.89912708
_symmetry_Int_Tables_number   1
_chemical_formula_structural   Hf16Ta3TcNi4
_chemical_formula_sum   'Hf16 Ta3 Tc1 Ni4'
_cell_volume   472.43793353
_cell_formula_units_Z   1
loop_
 _symmetry_equiv_pos_site_id
 _symmetry_equiv_pos_as_xyz
  1  'x, y, z'
loop_
 _atom_site_type_symbol
 _atom_site_label
 _atom_site_symmetry_multiplicity
 _atom_site_fract_x
 _atom_site_fract_y
 _atom_site_fract_z
 _atom_site_occupancy
  Hf  Hf0  1  0.690305  0.103231  0.103231  1
  Hf  Hf1  1  0.101868  0.691817  0.103157  1
  Hf  Hf2  1  0.101868  0.103157  0.691817  1
  Hf  Hf3  1  0.101868  0.103157  0.103157  1
  Hf  Hf4  1  0.315462  0.315133  0.684703  1
  Hf  Hf5  1  0.689168  0.681247  0.314793  1
  Hf  Hf6  1  0.315462  0.684703  0.315133  1
  Hf  Hf7  1  0.689168  0.314793  0.681247  1
  Hf  Hf8  1  0.689168  0.314793  0.314793  1
  Hf  Hf9  1  0.315462  0.684703  0.684703  1
  Hf  Hf10  1  0.948185  0.948185  0.551816  1
  Hf  Hf11  1  0.550915  0.551257  0.948915  1
  Hf  Hf12  1  0.948185  0.551816  0.948185  1
  Hf  Hf13  1  0.550915  0.948915  0.551257  1
  Hf  Hf14  1  0.550915  0.948915  0.948915  1
  Hf  Hf15  1  0.948185  0.551816  0.551816  1
  Ta  Ta16  1  0.331958  0.000900  0.333571  1
  Ta  Ta17  1  0.331958  0.333571  0.000900  1
  Ta  Ta18  1  0.331958  0.333571  0.333571  1
  Tc  Tc19  1  0.993892  0.335369  0.335369  1
  Ni  Ni20  1  0.319889  0.893371  0.893371  1
  Ni  Ni21  1  0.894416  0.320879  0.892353  1
  Ni  Ni22  1  0.894416  0.892353  0.320879  1
  Ni  Ni23  1  0.894416  0.892353  0.892353  1
