# generated using pymatgen
data_Mn11Zn(PtRh)6
_symmetry_space_group_name_H-M   'P 1'
_cell_length_a   4.39132700
_cell_length_b   6.11638300
_cell_length_c   13.09871400
_cell_angle_alpha   90.00000000
_cell_angle_beta   90.00010905
_cell_angle_gamma   90.00000000
_symmetry_Int_Tables_number   1
_chemical_formula_structural   Mn11Zn(PtRh)6
_chemical_formula_sum   'Mn11 Zn1 Pt6 Rh6'
_cell_volume   351.81885459
_cell_formula_units_Z   1
loop_
 _symmetry_equiv_pos_site_id
 _symmetry_equiv_pos_as_xyz
  1  'x, y, z'
loop_
 _atom_site_type_symbol
 _atom_site_label
 _atom_site_symmetry_multiplicity
 _atom_site_fract_x
 _atom_site_fract_y
 _atom_site_fract_z
 _atom_site_occupancy
  Mn  Mn0  1  0.500001  0.750409  0.000000  1
  Mn  Mn1  1  0.999993  0.249994  0.165442  1
  Mn  Mn2  1  0.999992  0.749909  0.165916  1
  Mn  Mn3  1  0.499990  0.249644  0.333055  1
  Mn  Mn4  1  0.499992  0.749939  0.332655  1
  Mn  Mn5  1  0.000000  0.250194  0.500000  1
  Mn  Mn6  1  0.000000  0.750078  0.500000  1
  Mn  Mn7  1  0.500009  0.249644  0.666945  1
  Mn  Mn8  1  0.500007  0.749939  0.667345  1
  Mn  Mn9  1  0.000007  0.249994  0.834558  1
  Mn  Mn10  1  0.000008  0.749909  0.834084  1
  Zn  Zn11  1  0.500001  0.249885  0.000000  1
  Pt  Pt12  1  0.000000  0.998599  0.000000  1
  Pt  Pt13  1  0.500000  0.500400  0.166971  1
  Pt  Pt14  1  0.999995  0.000505  0.333023  1
  Pt  Pt15  1  0.500001  0.500109  0.500000  1
  Pt  Pt16  1  0.000005  0.000505  0.666977  1
  Pt  Pt17  1  0.500000  0.500400  0.833029  1
  Rh  Rh18  1  0.000000  0.501216  0.000000  1
  Rh  Rh19  1  0.499995  0.000010  0.167085  1
  Rh  Rh20  1  0.999997  0.499349  0.333005  1
  Rh  Rh21  1  0.500001  0.000004  0.500000  1
  Rh  Rh22  1  0.000003  0.499349  0.666995  1
  Rh  Rh23  1  0.500007  0.000010  0.832915  1
