# generated using pymatgen
data_Nd4Al15(ZnPd2)3
_symmetry_space_group_name_H-M   'P 1'
_cell_length_a   7.64802747
_cell_length_b   7.66477379
_cell_length_c   9.64818900
_cell_angle_alpha   90.00000000
_cell_angle_beta   90.00000000
_cell_angle_gamma   119.07703310
_symmetry_Int_Tables_number   1
_chemical_formula_structural   Nd4Al15(ZnPd2)3
_chemical_formula_sum   'Nd4 Al15 Zn3 Pd6'
_cell_volume   494.29892687
_cell_formula_units_Z   1
loop_
 _symmetry_equiv_pos_site_id
 _symmetry_equiv_pos_as_xyz
  1  'x, y, z'
loop_
 _atom_site_type_symbol
 _atom_site_label
 _atom_site_symmetry_multiplicity
 _atom_site_fract_x
 _atom_site_fract_y
 _atom_site_fract_z
 _atom_site_occupancy
  Nd  Nd0  1  0.995685  0.671244  0.250000  1
  Nd  Nd1  1  0.005655  0.328822  0.750000  1
  Nd  Nd2  1  0.669648  0.993061  0.250000  1
  Nd  Nd3  1  0.329449  0.006310  0.750000  1
  Al  Al4  1  0.007569  0.334810  0.078795  1
  Al  Al5  1  0.995065  0.667047  0.922867  1
  Al  Al6  1  0.995065  0.667047  0.577133  1
  Al  Al7  1  0.332884  0.004181  0.422993  1
  Al  Al8  1  0.007569  0.334810  0.421205  1
  Al  Al9  1  0.667546  0.995792  0.577288  1
  Al  Al10  1  0.667546  0.995792  0.922712  1
  Al  Al11  1  0.332884  0.004181  0.077007  1
  Al  Al12  1  0.334473  0.334935  0.550571  1
  Al  Al13  1  0.662706  0.664102  0.447721  1
  Al  Al14  1  0.662706  0.664102  0.052279  1
  Al  Al15  1  0.334473  0.334935  0.949429  1
  Al  Al16  1  0.660486  0.456527  0.750000  1
  Al  Al17  1  0.542109  0.341813  0.250000  1
  Al  Al18  1  0.457140  0.659835  0.750000  1
  Zn  Zn19  1  0.140797  0.140166  0.250000  1
  Zn  Zn20  1  0.861135  0.860395  0.750000  1
  Zn  Zn21  1  0.339970  0.539285  0.250000  1
  Pd  Pd22  1  0.672230  0.327383  0.999963  1
  Pd  Pd23  1  0.327103  0.673588  0.995092  1
  Pd  Pd24  1  0.327103  0.673588  0.504908  1
  Pd  Pd25  1  0.672230  0.327383  0.500037  1
  Pd  Pd26  1  0.999388  0.999435  0.000478  1
  Pd  Pd27  1  0.999388  0.999435  0.499522  1
