# generated using pymatgen
data_MnGa2Ni5Te4
_symmetry_space_group_name_H-M   'P 1'
_cell_length_a   4.01265200
_cell_length_b   4.01265374
_cell_length_c   16.79380100
_cell_angle_alpha   90.00000000
_cell_angle_beta   90.00000000
_cell_angle_gamma   120.00000215
_symmetry_Int_Tables_number   1
_chemical_formula_structural   MnGa2Ni5Te4
_chemical_formula_sum   'Mn1 Ga2 Ni5 Te4'
_cell_volume   234.17622838
_cell_formula_units_Z   1
loop_
 _symmetry_equiv_pos_site_id
 _symmetry_equiv_pos_as_xyz
  1  'x, y, z'
loop_
 _atom_site_type_symbol
 _atom_site_label
 _atom_site_symmetry_multiplicity
 _atom_site_fract_x
 _atom_site_fract_y
 _atom_site_fract_z
 _atom_site_occupancy
  Mn  Mn0  1  0.000000  0.000000  0.171390  1
  Ga  Ga1  1  0.666667  0.333334  0.267523  1
  Ga  Ga2  1  0.333333  0.666665  0.749338  1
  Ni  Ni3  1  0.333333  0.666665  0.245132  1
  Ni  Ni4  1  0.000000  0.000000  0.328787  1
  Ni  Ni5  1  0.000000  0.000000  0.670823  1
  Ni  Ni6  1  0.666667  0.333334  0.749012  1
  Ni  Ni7  1  0.000000  0.000000  0.827971  1
  Te  Te8  1  0.333333  0.666665  0.089646  1
  Te  Te9  1  0.333333  0.666665  0.402358  1
  Te  Te10  1  0.666667  0.333334  0.598933  1
  Te  Te11  1  0.666667  0.333334  0.899087  1
