# generated using pymatgen
data_YHo7Sc12Si15As
_symmetry_space_group_name_H-M   'P 1'
_cell_length_a   7.12328471
_cell_length_b   7.35525052
_cell_length_c   13.94999100
_cell_angle_alpha   90.04164128
_cell_angle_beta   88.77218716
_cell_angle_gamma   90.15639944
_symmetry_Int_Tables_number   1
_chemical_formula_structural   YHo7Sc12Si15As
_chemical_formula_sum   'Y1 Ho7 Sc12 Si15 As1'
_cell_volume   730.71876351
_cell_formula_units_Z   1
loop_
 _symmetry_equiv_pos_site_id
 _symmetry_equiv_pos_as_xyz
  1  'x, y, z'
loop_
 _atom_site_type_symbol
 _atom_site_label
 _atom_site_symmetry_multiplicity
 _atom_site_fract_x
 _atom_site_fract_y
 _atom_site_fract_z
 _atom_site_occupancy
  Y  Y0  1  0.011704  0.176097  0.097125  1
  Ho  Ho1  1  0.988730  0.824283  0.902542  1
  Ho  Ho2  1  0.488899  0.675540  0.902779  1
  Ho  Ho3  1  0.994026  0.821866  0.595695  1
  Ho  Ho4  1  0.511480  0.324984  0.097334  1
  Ho  Ho5  1  0.004143  0.178149  0.403784  1
  Ho  Ho6  1  0.503451  0.321131  0.402134  1
  Ho  Ho7  1  0.501204  0.677730  0.597387  1
  Sc  Sc8  1  0.166316  0.501173  0.749823  1
  Sc  Sc9  1  0.833553  0.498975  0.252977  1
  Sc  Sc10  1  0.333880  0.001164  0.251613  1
  Sc  Sc11  1  0.666518  0.998599  0.748905  1
  Sc  Sc12  1  0.342145  0.170528  0.626480  1
  Sc  Sc13  1  0.658732  0.827849  0.373848  1
  Sc  Sc14  1  0.156587  0.672004  0.377129  1
  Sc  Sc15  1  0.667447  0.823374  0.125537  1
  Sc  Sc16  1  0.840598  0.328944  0.622579  1
  Sc  Sc17  1  0.332130  0.176081  0.874123  1
  Sc  Sc18  1  0.833306  0.322872  0.874516  1
  Sc  Sc19  1  0.166863  0.677143  0.125079  1
  Si  Si20  1  0.037784  0.116283  0.749441  1
  Si  Si21  1  0.961956  0.883962  0.249672  1
  Si  Si22  1  0.458500  0.616643  0.249055  1
  Si  Si23  1  0.540414  0.383567  0.750629  1
  Si  Si24  1  0.289798  0.870349  0.750269  1
  Si  Si25  1  0.710909  0.128210  0.249217  1
  Si  Si26  1  0.209372  0.373298  0.249803  1
  Si  Si27  1  0.792130  0.627441  0.750346  1
  Si  Si28  1  0.810528  0.539973  0.457355  1
  Si  Si29  1  0.329296  0.962259  0.460639  1
  Si  Si30  1  0.842545  0.535329  0.039331  1
  Si  Si31  1  0.670547  0.037836  0.539938  1
  Si  Si32  1  0.157101  0.465609  0.960323  1
  Si  Si33  1  0.656361  0.034509  0.959873  1
  Si  Si34  1  0.343848  0.965944  0.040103  1
  As  As35  1  0.187202  0.460299  0.542621  1
