# generated using pymatgen
data_NdMgPt4
_symmetry_space_group_name_H-M   'P 1'
_cell_length_a   5.42007779
_cell_length_b   5.42007795
_cell_length_c   5.42007800
_cell_angle_alpha   59.99999967
_cell_angle_beta   59.99999874
_cell_angle_gamma   59.99999657
_symmetry_Int_Tables_number   1
_chemical_formula_structural   NdMgPt4
_chemical_formula_sum   'Nd1 Mg1 Pt4'
_cell_volume   112.59045503
_cell_formula_units_Z   1
loop_
 _symmetry_equiv_pos_site_id
 _symmetry_equiv_pos_as_xyz
  1  'x, y, z'
loop_
 _atom_site_type_symbol
 _atom_site_label
 _atom_site_symmetry_multiplicity
 _atom_site_fract_x
 _atom_site_fract_y
 _atom_site_fract_z
 _atom_site_occupancy
  Nd  Nd0  1  0.500000  0.500000  0.500000  1
  Mg  Mg1  1  0.750000  0.750000  0.750000  1
  Pt  Pt2  1  0.124223  0.627330  0.124223  1
  Pt  Pt3  1  0.124223  0.124223  0.627330  1
  Pt  Pt4  1  0.627330  0.124223  0.124223  1
  Pt  Pt5  1  0.124223  0.124223  0.124223  1
