# generated using pymatgen
data_Pr9NdCdSi4Ge
_symmetry_space_group_name_H-M   'P 1'
_cell_length_a   7.82564500
_cell_length_b   9.27351159
_cell_length_c   7.82564500
_cell_angle_alpha   114.95684585
_cell_angle_beta   90.00000000
_cell_angle_gamma   114.95684585
_symmetry_Int_Tables_number   1
_chemical_formula_structural   Pr9NdCdSi4Ge
_chemical_formula_sum   'Pr9 Nd1 Cd1 Si4 Ge1'
_cell_volume   455.72985808
_cell_formula_units_Z   1
loop_
 _symmetry_equiv_pos_site_id
 _symmetry_equiv_pos_as_xyz
  1  'x, y, z'
loop_
 _atom_site_type_symbol
 _atom_site_label
 _atom_site_symmetry_multiplicity
 _atom_site_fract_x
 _atom_site_fract_y
 _atom_site_fract_z
 _atom_site_occupancy
  Pr  Pr0  1  0.525677  0.051354  0.525677  1
  Pr  Pr1  1  0.523166  0.720093  0.671656  1
  Pr  Pr2  1  0.196928  0.720093  0.048439  1
  Pr  Pr3  1  0.671656  0.720093  0.196928  1
  Pr  Pr4  1  0.048439  0.720093  0.523166  1
  Pr  Pr5  1  0.451676  0.279478  0.302561  1
  Pr  Pr6  1  0.827801  0.279478  0.976915  1
  Pr  Pr7  1  0.302561  0.279478  0.827801  1
  Pr  Pr8  1  0.976915  0.279478  0.451676  1
  Nd  Nd9  1  0.976327  0.952654  0.976327  1
  Cd  Cd10  1  0.751232  0.502465  0.751232  1
  Si  Si11  1  0.885209  0.999288  0.615228  1
  Si  Si12  1  0.114079  0.999288  0.384060  1
  Si  Si13  1  0.615228  0.999288  0.114079  1
  Si  Si14  1  0.384060  0.999288  0.885209  1
  Ge  Ge15  1  0.249045  0.498090  0.249045  1
