# generated using pymatgen
data_DyHo3(Si3Rh)2
_symmetry_space_group_name_H-M   'P 1'
_cell_length_a   8.16656300
_cell_length_b   8.16656323
_cell_length_c   7.86829700
_cell_angle_alpha   90.00000000
_cell_angle_beta   90.00000000
_cell_angle_gamma   120.00000311
_symmetry_Int_Tables_number   1
_chemical_formula_structural   DyHo3(Si3Rh)2
_chemical_formula_sum   'Dy2 Ho6 Si12 Rh4'
_cell_volume   454.45408186
_cell_formula_units_Z   2
loop_
 _symmetry_equiv_pos_site_id
 _symmetry_equiv_pos_as_xyz
  1  'x, y, z'
loop_
 _atom_site_type_symbol
 _atom_site_label
 _atom_site_symmetry_multiplicity
 _atom_site_fract_x
 _atom_site_fract_y
 _atom_site_fract_z
 _atom_site_occupancy
  Dy  Dy0  1  0.000000  0.000000  0.250000  1
  Dy  Dy1  1  0.000000  0.000000  0.750000  1
  Ho  Ho2  1  0.508951  0.491049  0.250000  1
  Ho  Ho3  1  0.508951  0.017902  0.250000  1
  Ho  Ho4  1  0.982098  0.491049  0.250000  1
  Ho  Ho5  1  0.491049  0.508951  0.750000  1
  Ho  Ho6  1  0.491049  0.982098  0.750000  1
  Ho  Ho7  1  0.017902  0.508951  0.750000  1
  Si  Si8  1  0.166899  0.833101  0.499412  1
  Si  Si9  1  0.166899  0.333797  0.499412  1
  Si  Si10  1  0.666203  0.833101  0.499412  1
  Si  Si11  1  0.833101  0.166899  0.500588  1
  Si  Si12  1  0.833101  0.666203  0.500588  1
  Si  Si13  1  0.333797  0.166899  0.500588  1
  Si  Si14  1  0.833101  0.166899  0.999412  1
  Si  Si15  1  0.833101  0.666203  0.999412  1
  Si  Si16  1  0.333797  0.166899  0.999412  1
  Si  Si17  1  0.166899  0.833101  0.000588  1
  Si  Si18  1  0.166899  0.333797  0.000588  1
  Si  Si19  1  0.666203  0.833101  0.000588  1
  Rh  Rh20  1  0.333333  0.666667  0.466570  1
  Rh  Rh21  1  0.666667  0.333333  0.533430  1
  Rh  Rh22  1  0.666667  0.333333  0.966570  1
  Rh  Rh23  1  0.333333  0.666667  0.033430  1
