# generated using pymatgen
data_Tb4Dy4Ti9Si16W3
_symmetry_space_group_name_H-M   'P 1'
_cell_length_a   7.01119762
_cell_length_b   7.01103061
_cell_length_c   12.90556708
_cell_angle_alpha   90.02001589
_cell_angle_beta   89.98340688
_cell_angle_gamma   89.92857571
_symmetry_Int_Tables_number   1
_chemical_formula_structural   Tb4Dy4Ti9Si16W3
_chemical_formula_sum   'Tb4 Dy4 Ti9 Si16 W3'
_cell_volume   634.38189779
_cell_formula_units_Z   1
loop_
 _symmetry_equiv_pos_site_id
 _symmetry_equiv_pos_as_xyz
  1  'x, y, z'
loop_
 _atom_site_type_symbol
 _atom_site_label
 _atom_site_symmetry_multiplicity
 _atom_site_fract_x
 _atom_site_fract_y
 _atom_site_fract_z
 _atom_site_occupancy
  Tb  Tb0  1  0.159534  0.500831  0.783193  1
  Tb  Tb1  1  0.660074  0.999134  0.967118  1
  Tb  Tb2  1  0.002265  0.339635  0.533174  1
  Tb  Tb3  1  0.999115  0.660107  0.032960  1
  Dy  Dy4  1  0.339851  0.002019  0.466626  1
  Dy  Dy5  1  0.498454  0.841167  0.718060  1
  Dy  Dy6  1  0.500498  0.159358  0.216807  1
  Dy  Dy7  1  0.841074  0.498461  0.281889  1
  Ti  Ti8  1  0.672814  0.672977  0.499936  1
  Ti  Ti9  1  0.153569  0.009334  0.876476  1
  Ti  Ti10  1  0.490388  0.653605  0.125808  1
  Ti  Ti11  1  0.508350  0.345327  0.627672  1
  Ti  Ti12  1  0.653669  0.490332  0.874257  1
  Ti  Ti13  1  0.345466  0.508425  0.372230  1
  Ti  Ti14  1  0.847657  0.991527  0.375168  1
  Ti  Ti15  1  0.009351  0.153558  0.123576  1
  Ti  Ti16  1  0.991506  0.847670  0.624746  1
  Si  Si17  1  0.200732  0.128794  0.685096  1
  Si  Si18  1  0.370580  0.699887  0.935040  1
  Si  Si19  1  0.629349  0.298068  0.434837  1
  Si  Si20  1  0.699664  0.370400  0.065166  1
  Si  Si21  1  0.298357  0.629848  0.564930  1
  Si  Si22  1  0.799831  0.870887  0.185536  1
  Si  Si23  1  0.129266  0.200471  0.314947  1
  Si  Si24  1  0.870714  0.800074  0.814506  1
  Si  Si25  1  0.291613  0.953969  0.065268  1
  Si  Si26  1  0.545580  0.791106  0.315026  1
  Si  Si27  1  0.453263  0.208500  0.815549  1
  Si  Si28  1  0.790713  0.545775  0.685012  1
  Si  Si29  1  0.208734  0.453101  0.184493  1
  Si  Si30  1  0.708043  0.047688  0.566173  1
  Si  Si31  1  0.953803  0.291395  0.934863  1
  Si  Si32  1  0.047930  0.708518  0.433697  1
  W  W33  1  0.327055  0.326940  0.000106  1
  W  W34  1  0.173971  0.827308  0.249348  1
  W  W35  1  0.827164  0.173802  0.750713  1
