# generated using pymatgen
data_Zr10Bi6Se
_symmetry_space_group_name_H-M   'P 1'
_cell_length_a   5.97971300
_cell_length_b   8.77026918
_cell_length_c   8.77030100
_cell_angle_alpha   119.99786900
_cell_angle_beta   90.00047300
_cell_angle_gamma   90.00016217
_symmetry_Int_Tables_number   1
_chemical_formula_structural   Zr10Bi6Se
_chemical_formula_sum   'Zr10 Bi6 Se1'
_cell_volume   398.33431337
_cell_formula_units_Z   1
loop_
 _symmetry_equiv_pos_site_id
 _symmetry_equiv_pos_as_xyz
  1  'x, y, z'
loop_
 _atom_site_type_symbol
 _atom_site_label
 _atom_site_symmetry_multiplicity
 _atom_site_fract_x
 _atom_site_fract_y
 _atom_site_fract_z
 _atom_site_occupancy
  Zr  Zr0  1  0.500001  0.333335  0.666666  1
  Zr  Zr1  1  0.500000  0.666666  0.333334  1
  Zr  Zr2  1  0.000001  0.666663  0.333335  1
  Zr  Zr3  1  0.000000  0.333338  0.666665  1
  Zr  Zr4  1  0.772377  0.253293  0.000002  1
  Zr  Zr5  1  0.772377  0.746708  0.746712  1
  Zr  Zr6  1  0.772368  0.000005  0.253300  1
  Zr  Zr7  1  0.227626  0.746707  0.999996  1
  Zr  Zr8  1  0.227621  0.253291  0.253291  1
  Zr  Zr9  1  0.227629  0.999998  0.746702  1
  Bi  Bi10  1  0.747725  0.608161  0.999999  1
  Bi  Bi11  1  0.747717  0.391837  0.391837  1
  Bi  Bi12  1  0.747723  0.999997  0.608162  1
  Bi  Bi13  1  0.252279  0.391839  0.000002  1
  Bi  Bi14  1  0.252281  0.608161  0.608161  1
  Bi  Bi15  1  0.252274  0.000003  0.391838  1
  Se  Se16  1  0.500000  0.000001  0.999999  1
