# generated using pymatgen
data_Tb5(TcB3)2
_symmetry_space_group_name_H-M   'P 1'
_cell_length_a   8.53057947
_cell_length_b   8.53057954
_cell_length_c   8.53057990
_cell_angle_alpha   37.86090597
_cell_angle_beta   37.86090628
_cell_angle_gamma   37.86090668
_symmetry_Int_Tables_number   1
_chemical_formula_structural   Tb5(TcB3)2
_chemical_formula_sum   'Tb5 Tc2 B6'
_cell_volume   209.84935710
_cell_formula_units_Z   1
loop_
 _symmetry_equiv_pos_site_id
 _symmetry_equiv_pos_as_xyz
  1  'x, y, z'
loop_
 _atom_site_type_symbol
 _atom_site_label
 _atom_site_symmetry_multiplicity
 _atom_site_fract_x
 _atom_site_fract_y
 _atom_site_fract_z
 _atom_site_occupancy
  Tb  Tb0  1  0.581503  0.581503  0.581503  1
  Tb  Tb1  1  0.418497  0.418497  0.418497  1
  Tb  Tb2  1  0.751989  0.751989  0.751989  1
  Tb  Tb3  1  0.248011  0.248011  0.248011  1
  Tb  Tb4  1  0.000000  0.000000  0.000000  1
  Tc  Tc5  1  0.888595  0.888595  0.888595  1
  Tc  Tc6  1  0.111405  0.111405  0.111405  1
  B  B7  1  0.500000  0.829322  0.170678  1
  B  B8  1  0.170678  0.500000  0.829322  1
  B  B9  1  0.829322  0.170678  0.500000  1
  B  B10  1  0.500000  0.170678  0.829322  1
  B  B11  1  0.829322  0.500000  0.170678  1
  B  B12  1  0.170678  0.829322  0.500000  1
