# generated using pymatgen
data_Tb2Pr7Rh6
_symmetry_space_group_name_H-M   'P 1'
_cell_length_a   7.63744605
_cell_length_b   7.63744554
_cell_length_c   7.63744489
_cell_angle_alpha   71.08434897
_cell_angle_beta   71.08435035
_cell_angle_gamma   71.08434322
_symmetry_Int_Tables_number   1
_chemical_formula_structural   Tb2Pr7Rh6
_chemical_formula_sum   'Tb2 Pr7 Rh6'
_cell_volume   386.54762816
_cell_formula_units_Z   1
loop_
 _symmetry_equiv_pos_site_id
 _symmetry_equiv_pos_as_xyz
  1  'x, y, z'
loop_
 _atom_site_type_symbol
 _atom_site_label
 _atom_site_symmetry_multiplicity
 _atom_site_fract_x
 _atom_site_fract_y
 _atom_site_fract_z
 _atom_site_occupancy
  Tb  Tb0  1  0.999507  0.999507  0.999507  1
  Tb  Tb1  1  0.800112  0.800112  0.800112  1
  Pr  Pr2  1  0.201442  0.201442  0.201442  1
  Pr  Pr3  1  0.161166  0.392957  0.666533  1
  Pr  Pr4  1  0.666533  0.161166  0.392957  1
  Pr  Pr5  1  0.392957  0.666533  0.161166  1
  Pr  Pr6  1  0.835949  0.610720  0.334174  1
  Pr  Pr7  1  0.334174  0.835949  0.610720  1
  Pr  Pr8  1  0.610720  0.334174  0.835949  1
  Rh  Rh9  1  0.957099  0.153935  0.599207  1
  Rh  Rh10  1  0.599207  0.957099  0.153935  1
  Rh  Rh11  1  0.153935  0.599207  0.957099  1
  Rh  Rh12  1  0.036228  0.840072  0.410897  1
  Rh  Rh13  1  0.410897  0.036228  0.840072  1
  Rh  Rh14  1  0.840072  0.410897  0.036228  1
