# generated using pymatgen
data_CdSn15Pd8
_symmetry_space_group_name_H-M   'P 1'
_cell_length_a   6.56045066
_cell_length_b   6.56044989
_cell_length_c   13.36499500
_cell_angle_alpha   104.28454683
_cell_angle_beta   104.34589017
_cell_angle_gamma   89.57457630
_symmetry_Int_Tables_number   1
_chemical_formula_structural   CdSn15Pd8
_chemical_formula_sum   'Cd1 Sn15 Pd8'
_cell_volume   539.17152320
_cell_formula_units_Z   1
loop_
 _symmetry_equiv_pos_site_id
 _symmetry_equiv_pos_as_xyz
  1  'x, y, z'
loop_
 _atom_site_type_symbol
 _atom_site_label
 _atom_site_symmetry_multiplicity
 _atom_site_fract_x
 _atom_site_fract_y
 _atom_site_fract_z
 _atom_site_occupancy
  Cd  Cd0  1  0.841826  0.341826  0.000000  1
  Sn  Sn1  1  0.337484  0.164271  0.000184  1
  Sn  Sn2  1  0.156725  0.656725  0.000000  1
  Sn  Sn3  1  0.664087  0.837299  0.999816  1
  Sn  Sn4  1  0.873912  0.369309  0.247082  1
  Sn  Sn5  1  0.374578  0.379201  0.250273  1
  Sn  Sn6  1  0.875696  0.870506  0.250256  1
  Sn  Sn7  1  0.376040  0.879773  0.250842  1
  Sn  Sn8  1  0.090227  0.090227  0.500000  1
  Sn  Sn9  1  0.410135  0.410135  0.500000  1
  Sn  Sn10  1  0.909984  0.588891  0.498745  1
  Sn  Sn11  1  0.590147  0.911239  0.501255  1
  Sn  Sn12  1  0.120248  0.125438  0.749744  1
  Sn  Sn13  1  0.622227  0.126829  0.752918  1
  Sn  Sn14  1  0.128931  0.625198  0.749158  1
  Sn  Sn15  1  0.628928  0.624306  0.749727  1
  Pd  Pd16  1  0.062833  0.055944  0.119357  1
  Pd  Pd17  1  0.555720  0.561666  0.118557  1
  Pd  Pd18  1  0.690501  0.189900  0.380221  1
  Pd  Pd19  1  0.191292  0.690761  0.381658  1
  Pd  Pd20  1  0.809105  0.309634  0.618342  1
  Pd  Pd21  1  0.309679  0.810281  0.619779  1
  Pd  Pd22  1  0.436586  0.443475  0.880643  1
  Pd  Pd23  1  0.943110  0.937163  0.881443  1
