# generated using pymatgen
data_Tb5YAl24Os7Pd
_symmetry_space_group_name_H-M   'P 1'
_cell_length_a   8.84439097
_cell_length_b   8.84439087
_cell_length_c   9.55864184
_cell_angle_alpha   89.69270698
_cell_angle_beta   90.30728754
_cell_angle_gamma   119.79671967
_symmetry_Int_Tables_number   1
_chemical_formula_structural   Tb5YAl24Os7Pd
_chemical_formula_sum   'Tb5 Y1 Al24 Os7 Pd1'
_cell_volume   648.84400888
_cell_formula_units_Z   1
loop_
 _symmetry_equiv_pos_site_id
 _symmetry_equiv_pos_as_xyz
  1  'x, y, z'
loop_
 _atom_site_type_symbol
 _atom_site_label
 _atom_site_symmetry_multiplicity
 _atom_site_fract_x
 _atom_site_fract_y
 _atom_site_fract_z
 _atom_site_occupancy
  Tb  Tb0  1  0.188979  0.384664  0.251718  1
  Tb  Tb1  1  0.811008  0.615471  0.748263  1
  Tb  Tb2  1  0.615336  0.811021  0.251718  1
  Tb  Tb3  1  0.384529  0.188992  0.748263  1
  Tb  Tb4  1  0.193677  0.806323  0.252476  1
  Y  Y5  1  0.806255  0.193745  0.747555  1
  Al  Al6  1  0.330921  0.669079  0.017633  1
  Al  Al7  1  0.669107  0.330893  0.982409  1
  Al  Al8  1  0.666547  0.333453  0.515522  1
  Al  Al9  1  0.333491  0.666509  0.484475  1
  Al  Al10  1  0.163380  0.325791  0.576598  1
  Al  Al11  1  0.836605  0.674172  0.423403  1
  Al  Al12  1  0.674209  0.836620  0.576598  1
  Al  Al13  1  0.843507  0.676556  0.078570  1
  Al  Al14  1  0.325828  0.163395  0.423403  1
  Al  Al15  1  0.156450  0.323426  0.921437  1
  Al  Al16  1  0.163231  0.836769  0.575125  1
  Al  Al17  1  0.323444  0.156493  0.078570  1
  Al  Al18  1  0.836773  0.163227  0.424931  1
  Al  Al19  1  0.676574  0.843550  0.921437  1
  Al  Al20  1  0.836712  0.163288  0.074838  1
  Al  Al21  1  0.163272  0.836728  0.925089  1
  Al  Al22  1  0.560493  0.121637  0.249344  1
  Al  Al23  1  0.439649  0.878538  0.750627  1
  Al  Al24  1  0.878363  0.439507  0.249344  1
  Al  Al25  1  0.121462  0.560351  0.750627  1
  Al  Al26  1  0.561406  0.438594  0.252283  1
  Al  Al27  1  0.438610  0.561390  0.747731  1
  Al  Al28  1  0.999576  0.000424  0.250229  1
  Al  Al29  1  0.000443  0.999557  0.749793  1
  Os  Os30  1  0.500066  0.000026  0.999941  1
  Os  Os31  1  0.999974  0.499934  0.999941  1
  Os  Os32  1  0.500096  0.000047  0.500028  1
  Os  Os33  1  0.999953  0.499904  0.500028  1
  Os  Os34  1  0.500048  0.499952  0.500039  1
  Os  Os35  1  0.000002  0.999998  0.999905  1
  Os  Os36  1  0.000001  0.999999  0.500124  1
  Pd  Pd37  1  0.500023  0.499977  0.999986  1
