# generated using pymatgen
data_Y3Er(SiAu2)8
_symmetry_space_group_name_H-M   'P 1'
_cell_length_a   4.41637600
_cell_length_b   4.41637600
_cell_length_c   27.01718800
_cell_angle_alpha   90.00000000
_cell_angle_beta   90.00000000
_cell_angle_gamma   90.00000000
_symmetry_Int_Tables_number   1
_chemical_formula_structural   Y3Er(SiAu2)8
_chemical_formula_sum   'Y3 Er1 Si8 Au16'
_cell_volume   526.95341951
_cell_formula_units_Z   1
loop_
 _symmetry_equiv_pos_site_id
 _symmetry_equiv_pos_as_xyz
  1  'x, y, z'
loop_
 _atom_site_type_symbol
 _atom_site_label
 _atom_site_symmetry_multiplicity
 _atom_site_fract_x
 _atom_site_fract_y
 _atom_site_fract_z
 _atom_site_occupancy
  Y  Y0  1  0.000000  0.500000  0.749401  1
  Y  Y1  1  0.500000  0.000000  0.250599  1
  Y  Y2  1  0.500000  0.500000  0.500000  1
  Er  Er3  1  0.500000  0.500000  0.000000  1
  Si  Si4  1  0.000000  0.000000  0.956934  1
  Si  Si5  1  0.000000  0.000000  0.456855  1
  Si  Si6  1  0.500000  0.000000  0.792725  1
  Si  Si7  1  0.500000  0.000000  0.706113  1
  Si  Si8  1  0.000000  0.500000  0.207275  1
  Si  Si9  1  0.000000  0.500000  0.293887  1
  Si  Si10  1  0.000000  0.000000  0.043066  1
  Si  Si11  1  0.000000  0.000000  0.543145  1
  Au  Au12  1  0.500000  0.000000  0.085705  1
  Au  Au13  1  0.500000  0.500000  0.663022  1
  Au  Au14  1  0.500000  0.500000  0.835918  1
  Au  Au15  1  0.000000  0.500000  0.085010  1
  Au  Au16  1  0.500000  0.000000  0.914990  1
  Au  Au17  1  0.000000  0.000000  0.664280  1
  Au  Au18  1  0.000000  0.500000  0.415047  1
  Au  Au19  1  0.500000  0.500000  0.336978  1
  Au  Au20  1  0.500000  0.000000  0.414327  1
  Au  Au21  1  0.000000  0.000000  0.335720  1
  Au  Au22  1  0.000000  0.000000  0.165205  1
  Au  Au23  1  0.500000  0.000000  0.584953  1
  Au  Au24  1  0.000000  0.000000  0.834795  1
  Au  Au25  1  0.500000  0.500000  0.164082  1
  Au  Au26  1  0.000000  0.500000  0.585673  1
  Au  Au27  1  0.000000  0.500000  0.914295  1
