# generated using pymatgen
data_TmLu3(ZrGa5)2
_symmetry_space_group_name_H-M   'P 1'
_cell_length_a   5.85490400
_cell_length_b   9.37426100
_cell_length_c   11.33970500
_cell_angle_alpha   90.00000000
_cell_angle_beta   90.00000000
_cell_angle_gamma   89.99707501
_symmetry_Int_Tables_number   1
_chemical_formula_structural   TmLu3(ZrGa5)2
_chemical_formula_sum   'Tm2 Lu6 Zr4 Ga20'
_cell_volume   622.38422428
_cell_formula_units_Z   2
loop_
 _symmetry_equiv_pos_site_id
 _symmetry_equiv_pos_as_xyz
  1  'x, y, z'
loop_
 _atom_site_type_symbol
 _atom_site_label
 _atom_site_symmetry_multiplicity
 _atom_site_fract_x
 _atom_site_fract_y
 _atom_site_fract_z
 _atom_site_occupancy
  Tm  Tm0  1  0.885901  0.500814  0.352656  1
  Tm  Tm1  1  0.614099  0.999186  0.852656  1
  Lu  Lu2  1  0.114014  0.000806  0.647216  1
  Lu  Lu3  1  0.385986  0.499194  0.147216  1
  Lu  Lu4  1  0.114019  0.499182  0.647470  1
  Lu  Lu5  1  0.385981  0.000818  0.147470  1
  Lu  Lu6  1  0.886043  0.999231  0.352678  1
  Lu  Lu7  1  0.613957  0.500769  0.852678  1
  Zr  Zr8  1  0.858147  0.749921  0.072783  1
  Zr  Zr9  1  0.641853  0.750079  0.572783  1
  Zr  Zr10  1  0.141673  0.250030  0.927255  1
  Zr  Zr11  1  0.358327  0.249970  0.427255  1
  Ga  Ga12  1  0.874931  0.053180  0.090424  1
  Ga  Ga13  1  0.625069  0.446820  0.590424  1
  Ga  Ga14  1  0.125069  0.553106  0.909659  1
  Ga  Ga15  1  0.374931  0.946894  0.409659  1
  Ga  Ga16  1  0.124918  0.946768  0.909749  1
  Ga  Ga17  1  0.375082  0.553232  0.409749  1
  Ga  Ga18  1  0.874870  0.446804  0.090135  1
  Ga  Ga19  1  0.625130  0.053196  0.590135  1
  Ga  Ga20  1  0.152913  0.750181  0.258029  1
  Ga  Ga21  1  0.347087  0.749819  0.758029  1
  Ga  Ga22  1  0.847457  0.250206  0.741789  1
  Ga  Ga23  1  0.652543  0.249794  0.241789  1
  Ga  Ga24  1  0.395251  0.749922  0.999839  1
  Ga  Ga25  1  0.104749  0.750078  0.499839  1
  Ga  Ga26  1  0.604549  0.250280  0.000431  1
  Ga  Ga27  1  0.895451  0.249720  0.500431  1
  Ga  Ga28  1  0.614639  0.750288  0.294425  1
  Ga  Ga29  1  0.885361  0.749712  0.794425  1
  Ga  Ga30  1  0.384993  0.250081  0.705463  1
  Ga  Ga31  1  0.115007  0.249919  0.205463  1
