# generated using pymatgen
data_Nd3Al12(RuRh)2
_symmetry_space_group_name_H-M   'P 1'
_cell_length_a   8.94536236
_cell_length_b   8.89229940
_cell_length_c   9.66002200
_cell_angle_alpha   90.00000000
_cell_angle_beta   90.00000000
_cell_angle_gamma   119.80396793
_symmetry_Int_Tables_number   1
_chemical_formula_structural   Nd3Al12(RuRh)2
_chemical_formula_sum   'Nd6 Al24 Ru4 Rh4'
_cell_volume   666.76878478
_cell_formula_units_Z   2
loop_
 _symmetry_equiv_pos_site_id
 _symmetry_equiv_pos_as_xyz
  1  'x, y, z'
loop_
 _atom_site_type_symbol
 _atom_site_label
 _atom_site_symmetry_multiplicity
 _atom_site_fract_x
 _atom_site_fract_y
 _atom_site_fract_z
 _atom_site_occupancy
  Nd  Nd0  1  0.188251  0.381397  0.250000  1
  Nd  Nd1  1  0.811749  0.618603  0.750000  1
  Nd  Nd2  1  0.620724  0.810362  0.250000  1
  Nd  Nd3  1  0.379276  0.189638  0.750000  1
  Nd  Nd4  1  0.188251  0.806853  0.250000  1
  Nd  Nd5  1  0.811749  0.193147  0.750000  1
  Al  Al6  1  0.331179  0.665590  0.018431  1
  Al  Al7  1  0.668821  0.334410  0.981569  1
  Al  Al8  1  0.668821  0.334410  0.518431  1
  Al  Al9  1  0.331179  0.665590  0.481569  1
  Al  Al10  1  0.162216  0.326826  0.576525  1
  Al  Al11  1  0.837784  0.673174  0.423475  1
  Al  Al12  1  0.674031  0.837015  0.575792  1
  Al  Al13  1  0.837784  0.673174  0.076525  1
  Al  Al14  1  0.325969  0.162985  0.424208  1
  Al  Al15  1  0.162216  0.326826  0.923475  1
  Al  Al16  1  0.162216  0.835390  0.576525  1
  Al  Al17  1  0.325969  0.162985  0.075792  1
  Al  Al18  1  0.837784  0.164610  0.423475  1
  Al  Al19  1  0.674031  0.837015  0.924208  1
  Al  Al20  1  0.837784  0.164610  0.076525  1
  Al  Al21  1  0.162216  0.835390  0.923475  1
  Al  Al22  1  0.561627  0.124625  0.250000  1
  Al  Al23  1  0.438373  0.875375  0.750000  1
  Al  Al24  1  0.874723  0.437362  0.250000  1
  Al  Al25  1  0.125277  0.562638  0.750000  1
  Al  Al26  1  0.561627  0.437002  0.250000  1
  Al  Al27  1  0.438373  0.562998  0.750000  1
  Al  Al28  1  0.997873  0.998936  0.250000  1
  Al  Al29  1  0.002127  0.001064  0.750000  1
  Ru  Ru30  1  0.000000  0.500000  0.000000  1
  Ru  Ru31  1  0.000000  0.500000  0.500000  1
  Ru  Ru32  1  0.000000  0.000000  0.000000  1
  Ru  Ru33  1  0.000000  0.000000  0.500000  1
  Rh  Rh34  1  0.500000  0.000000  0.000000  1
  Rh  Rh35  1  0.500000  0.000000  0.500000  1
  Rh  Rh36  1  0.500000  0.500000  0.000000  1
  Rh  Rh37  1  0.500000  0.500000  0.500000  1
