# generated using pymatgen
data_Dy3Y7(IrRu)2
_symmetry_space_group_name_H-M   'P 1'
_cell_length_a   6.45529402
_cell_length_b   7.28902148
_cell_length_c   8.53463840
_cell_angle_alpha   96.75996919
_cell_angle_beta   112.04604505
_cell_angle_gamma   89.95964353
_symmetry_Int_Tables_number   1
_chemical_formula_structural   Dy3Y7(IrRu)2
_chemical_formula_sum   'Dy3 Y7 Ir2 Ru2'
_cell_volume   369.21577315
_cell_formula_units_Z   1
loop_
 _symmetry_equiv_pos_site_id
 _symmetry_equiv_pos_as_xyz
  1  'x, y, z'
loop_
 _atom_site_type_symbol
 _atom_site_label
 _atom_site_symmetry_multiplicity
 _atom_site_fract_x
 _atom_site_fract_y
 _atom_site_fract_z
 _atom_site_occupancy
  Dy  Dy0  1  0.352933  0.682896  0.563862  1
  Dy  Dy1  1  0.427161  0.250359  0.000113  1
  Dy  Dy2  1  0.573816  0.749995  0.000226  1
  Y  Y3  1  0.792069  0.085323  0.816033  1
  Y  Y4  1  0.975694  0.415362  0.184876  1
  Y  Y5  1  0.207411  0.917335  0.185336  1
  Y  Y6  1  0.022206  0.582085  0.814562  1
  Y  Y7  1  0.211292  0.184630  0.561829  1
  Y  Y8  1  0.649034  0.315042  0.437809  1
  Y  Y9  1  0.789735  0.816489  0.436908  1
  Ir  Ir10  1  0.396772  0.575060  0.220625  1
  Ir  Ir11  1  0.177032  0.924496  0.779225  1
  Ru  Ru12  1  0.602103  0.428329  0.779960  1
  Ru  Ru13  1  0.822743  0.072598  0.218636  1
