# generated using pymatgen
data_Ba3Tl2Sn7
_symmetry_space_group_name_H-M   'P 1'
_cell_length_a   9.31436714
_cell_length_b   9.31436724
_cell_length_c   9.30739600
_cell_angle_alpha   46.74408797
_cell_angle_beta   46.74408739
_cell_angle_gamma   46.72105972
_symmetry_Int_Tables_number   1
_chemical_formula_structural   Ba3Tl2Sn7
_chemical_formula_sum   'Ba3 Tl2 Sn7'
_cell_volume   391.19565766
_cell_formula_units_Z   1
loop_
 _symmetry_equiv_pos_site_id
 _symmetry_equiv_pos_as_xyz
  1  'x, y, z'
loop_
 _atom_site_type_symbol
 _atom_site_label
 _atom_site_symmetry_multiplicity
 _atom_site_fract_x
 _atom_site_fract_y
 _atom_site_fract_z
 _atom_site_occupancy
  Ba  Ba0  1  0.785676  0.785676  0.786317  1
  Ba  Ba1  1  0.214324  0.214324  0.213683  1
  Ba  Ba2  1  0.000000  0.000000  0.000000  1
  Tl  Tl3  1  0.500000  0.000000  0.500000  1
  Tl  Tl4  1  0.000000  0.500000  0.500000  1
  Sn  Sn5  1  0.305525  0.722614  0.304023  1
  Sn  Sn6  1  0.722614  0.305525  0.304023  1
  Sn  Sn7  1  0.305281  0.305281  0.724402  1
  Sn  Sn8  1  0.500000  0.500000  0.000000  1
  Sn  Sn9  1  0.694475  0.277386  0.695977  1
  Sn  Sn10  1  0.694719  0.694719  0.275598  1
  Sn  Sn11  1  0.277386  0.694475  0.695977  1
