# generated using pymatgen
data_LiNdPt3Rh
_symmetry_space_group_name_H-M   'P 1'
_cell_length_a   5.37374834
_cell_length_b   5.37491937
_cell_length_c   5.37491900
_cell_angle_alpha   59.99999610
_cell_angle_beta   59.99278721
_cell_angle_gamma   59.99278460
_symmetry_Int_Tables_number   1
_chemical_formula_structural   LiNdPt3Rh
_chemical_formula_sum   'Li1 Nd1 Pt3 Rh1'
_cell_volume   109.76372217
_cell_formula_units_Z   1
loop_
 _symmetry_equiv_pos_site_id
 _symmetry_equiv_pos_as_xyz
  1  'x, y, z'
loop_
 _atom_site_type_symbol
 _atom_site_label
 _atom_site_symmetry_multiplicity
 _atom_site_fract_x
 _atom_site_fract_y
 _atom_site_fract_z
 _atom_site_occupancy
  Li  Li0  1  0.749645  0.750118  0.750118  1
  Nd  Nd1  1  0.500606  0.499798  0.499798  1
  Pt  Pt2  1  0.124614  0.124468  0.626450  1
  Pt  Pt3  1  0.124614  0.626450  0.124468  1
  Pt  Pt4  1  0.124614  0.124468  0.124468  1
  Rh  Rh5  1  0.625906  0.124698  0.124698  1
