# generated using pymatgen
data_Er4Mg3ScRh4
_symmetry_space_group_name_H-M   'P 1'
_cell_length_a   4.12262700
_cell_length_b   7.06007965
_cell_length_c   8.56752180
_cell_angle_alpha   88.92726365
_cell_angle_beta   90.00000000
_cell_angle_gamma   90.00000000
_symmetry_Int_Tables_number   1
_chemical_formula_structural   Er4Mg3ScRh4
_chemical_formula_sum   'Er4 Mg3 Sc1 Rh4'
_cell_volume   249.32322622
_cell_formula_units_Z   1
loop_
 _symmetry_equiv_pos_site_id
 _symmetry_equiv_pos_as_xyz
  1  'x, y, z'
loop_
 _atom_site_type_symbol
 _atom_site_label
 _atom_site_symmetry_multiplicity
 _atom_site_fract_x
 _atom_site_fract_y
 _atom_site_fract_z
 _atom_site_occupancy
  Er  Er0  1  0.250000  0.960054  0.330805  1
  Er  Er1  1  0.250000  0.472944  0.179263  1
  Er  Er2  1  0.750000  0.027678  0.672628  1
  Er  Er3  1  0.750000  0.541882  0.822500  1
  Mg  Mg4  1  0.250000  0.361067  0.559135  1
  Mg  Mg5  1  0.250000  0.857783  0.935905  1
  Mg  Mg6  1  0.750000  0.635441  0.439470  1
  Sc  Sc7  1  0.750000  0.134841  0.058639  1
  Rh  Rh8  1  0.250000  0.255237  0.882810  1
  Rh  Rh9  1  0.250000  0.744742  0.627257  1
  Rh  Rh10  1  0.750000  0.759079  0.126315  1
  Rh  Rh11  1  0.750000  0.249253  0.365271  1
