# generated using pymatgen
data_Gd4Hf4Ir3Rh
_symmetry_space_group_name_H-M   'P 1'
_cell_length_a   4.53109300
_cell_length_b   7.03007975
_cell_length_c   8.27976300
_cell_angle_alpha   89.95955925
_cell_angle_beta   90.00000000
_cell_angle_gamma   90.00000000
_symmetry_Int_Tables_number   1
_chemical_formula_structural   Gd4Hf4Ir3Rh
_chemical_formula_sum   'Gd4 Hf4 Ir3 Rh1'
_cell_volume   263.74305076
_cell_formula_units_Z   1
loop_
 _symmetry_equiv_pos_site_id
 _symmetry_equiv_pos_as_xyz
  1  'x, y, z'
loop_
 _atom_site_type_symbol
 _atom_site_label
 _atom_site_symmetry_multiplicity
 _atom_site_fract_x
 _atom_site_fract_y
 _atom_site_fract_z
 _atom_site_occupancy
  Gd  Gd0  1  0.250000  0.984800  0.321456  1
  Gd  Gd1  1  0.250000  0.484434  0.177249  1
  Gd  Gd2  1  0.750000  0.014125  0.678635  1
  Gd  Gd3  1  0.750000  0.518430  0.819887  1
  Hf  Hf4  1  0.250000  0.357245  0.572424  1
  Hf  Hf5  1  0.250000  0.859185  0.926946  1
  Hf  Hf6  1  0.750000  0.641127  0.426724  1
  Hf  Hf7  1  0.750000  0.141801  0.074186  1
  Ir  Ir8  1  0.250000  0.730226  0.594338  1
  Ir  Ir9  1  0.750000  0.769974  0.091641  1
  Ir  Ir10  1  0.750000  0.268439  0.408060  1
  Rh  Rh11  1  0.250000  0.230213  0.908452  1
