# generated using pymatgen
data_Dy3Tm3Al17Si7Os8
_symmetry_space_group_name_H-M   'P 1'
_cell_length_a   8.68804909
_cell_length_b   8.67825795
_cell_length_c   9.46247700
_cell_angle_alpha   90.00000000
_cell_angle_beta   90.00000000
_cell_angle_gamma   120.07494999
_symmetry_Int_Tables_number   1
_chemical_formula_structural   Dy3Tm3Al17Si7Os8
_chemical_formula_sum   'Dy3 Tm3 Al17 Si7 Os8'
_cell_volume   617.39313329
_cell_formula_units_Z   1
loop_
 _symmetry_equiv_pos_site_id
 _symmetry_equiv_pos_as_xyz
  1  'x, y, z'
loop_
 _atom_site_type_symbol
 _atom_site_label
 _atom_site_symmetry_multiplicity
 _atom_site_fract_x
 _atom_site_fract_y
 _atom_site_fract_z
 _atom_site_occupancy
  Dy  Dy0  1  0.807583  0.615241  0.750000  1
  Dy  Dy1  1  0.386830  0.190686  0.750000  1
  Dy  Dy2  1  0.803278  0.191184  0.750000  1
  Tm  Tm3  1  0.193824  0.390457  0.250000  1
  Tm  Tm4  1  0.608663  0.806135  0.250000  1
  Tm  Tm5  1  0.196879  0.804072  0.250000  1
  Al  Al6  1  0.164474  0.329783  0.577986  1
  Al  Al7  1  0.834261  0.671251  0.420584  1
  Al  Al8  1  0.671092  0.834830  0.577544  1
  Al  Al9  1  0.834261  0.671251  0.079416  1
  Al  Al10  1  0.329658  0.165949  0.421778  1
  Al  Al11  1  0.164474  0.329783  0.922014  1
  Al  Al12  1  0.163769  0.834167  0.576599  1
  Al  Al13  1  0.329658  0.165949  0.078222  1
  Al  Al14  1  0.835583  0.164143  0.420949  1
  Al  Al15  1  0.671092  0.834830  0.922456  1
  Al  Al16  1  0.835583  0.164143  0.079051  1
  Al  Al17  1  0.163769  0.834167  0.923401  1
  Al  Al18  1  0.126070  0.565663  0.750000  1
  Al  Al19  1  0.564316  0.435305  0.250000  1
  Al  Al20  1  0.438479  0.566482  0.750000  1
  Al  Al21  1  0.999439  0.999191  0.250000  1
  Al  Al22  1  0.000030  0.000976  0.750000  1
  Si  Si23  1  0.333356  0.664658  0.040283  1
  Si  Si24  1  0.666502  0.335764  0.960774  1
  Si  Si25  1  0.666502  0.335764  0.539226  1
  Si  Si26  1  0.333356  0.664658  0.459717  1
  Si  Si27  1  0.564397  0.123809  0.250000  1
  Si  Si28  1  0.436210  0.872691  0.750000  1
  Si  Si29  1  0.875239  0.435092  0.250000  1
  Os  Os30  1  0.500394  0.999964  0.002197  1
  Os  Os31  1  0.999542  0.499927  0.007891  1
  Os  Os32  1  0.500394  0.999964  0.497803  1
  Os  Os33  1  0.500211  0.500644  0.001562  1
  Os  Os34  1  0.999542  0.499927  0.492109  1
  Os  Os35  1  0.500211  0.500644  0.498438  1
  Os  Os36  1  0.000540  0.000428  0.000503  1
  Os  Os37  1  0.000540  0.000428  0.499497  1
