# generated using pymatgen
data_YHo4VMoO12
_symmetry_space_group_name_H-M   'P 1'
_cell_length_a   6.78972736
_cell_length_b   6.78980365
_cell_length_c   7.29656975
_cell_angle_alpha   74.38602509
_cell_angle_beta   74.37992060
_cell_angle_gamma   51.80077943
_symmetry_Int_Tables_number   1
_chemical_formula_structural   YHo4VMoO12
_chemical_formula_sum   'Y1 Ho4 V1 Mo1 O12'
_cell_volume   252.23308643
_cell_formula_units_Z   1
loop_
 _symmetry_equiv_pos_site_id
 _symmetry_equiv_pos_as_xyz
  1  'x, y, z'
loop_
 _atom_site_type_symbol
 _atom_site_label
 _atom_site_symmetry_multiplicity
 _atom_site_fract_x
 _atom_site_fract_y
 _atom_site_fract_z
 _atom_site_occupancy
  Y  Y0  1  0.312510  0.294408  0.361840  1
  Ho  Ho1  1  0.705512  0.687241  0.638885  1
  Ho  Ho2  1  0.313076  0.307365  0.826044  1
  Ho  Ho3  1  0.692584  0.687056  0.174301  1
  Ho  Ho4  1  0.002577  0.996987  0.500312  1
  V  V5  1  0.745556  0.254839  0.999539  1
  Mo  Mo6  1  0.231797  0.768565  0.999609  1
  O  O7  1  0.897556  0.425481  0.918266  1
  O  O8  1  0.429524  0.899075  0.917142  1
  O  O9  1  0.100382  0.571287  0.081631  1
  O  O10  1  0.575351  0.101951  0.080237  1
  O  O11  1  0.101776  0.592754  0.575835  1
  O  O12  1  0.600959  0.089313  0.577785  1
  O  O13  1  0.907578  0.400795  0.424122  1
  O  O14  1  0.408716  0.895337  0.425901  1
  O  O15  1  0.990853  0.010770  0.813323  1
  O  O16  1  0.989593  0.009606  0.186222  1
  O  O17  1  0.496274  0.502788  0.810417  1
  O  O18  1  0.497826  0.504384  0.188590  1
