# generated using pymatgen
data_Lu3MnNb(ReN4)3
_symmetry_space_group_name_H-M   'P 1'
_cell_length_a   10.94495439
_cell_length_b   10.94495449
_cell_length_c   10.94495500
_cell_angle_alpha   109.47121973
_cell_angle_beta   109.47121992
_cell_angle_gamma   109.47122116
_symmetry_Int_Tables_number   1
_chemical_formula_structural   Lu3MnNb(ReN4)3
_chemical_formula_sum   'Lu12 Mn4 Nb4 Re12 N48'
_cell_volume   1009.29939146
_cell_formula_units_Z   4
loop_
 _symmetry_equiv_pos_site_id
 _symmetry_equiv_pos_as_xyz
  1  'x, y, z'
loop_
 _atom_site_type_symbol
 _atom_site_label
 _atom_site_symmetry_multiplicity
 _atom_site_fract_x
 _atom_site_fract_y
 _atom_site_fract_z
 _atom_site_occupancy
  Lu  Lu0  1  0.250000  0.374982  0.124982  1
  Lu  Lu1  1  0.375018  0.750000  0.125018  1
  Lu  Lu2  1  0.374982  0.124982  0.250000  1
  Lu  Lu3  1  0.874982  0.624982  0.250000  1
  Lu  Lu4  1  0.750000  0.125018  0.375018  1
  Lu  Lu5  1  0.124982  0.250000  0.374982  1
  Lu  Lu6  1  0.875017  0.750000  0.625018  1
  Lu  Lu7  1  0.250000  0.874982  0.624982  1
  Lu  Lu8  1  0.125018  0.375018  0.750000  1
  Lu  Lu9  1  0.625018  0.875017  0.750000  1
  Lu  Lu10  1  0.624982  0.250000  0.874982  1
  Lu  Lu11  1  0.750000  0.625018  0.875017  1
  Mn  Mn12  1  0.500001  0.000000  0.000000  1
  Mn  Mn13  1  0.000000  0.500001  0.000000  1
  Mn  Mn14  1  0.000000  0.000000  0.500001  1
  Mn  Mn15  1  0.500001  0.500001  0.500001  1
  Nb  Nb16  1  0.000000  0.000000  0.000000  1
  Nb  Nb17  1  0.500000  0.500000  0.000000  1
  Nb  Nb18  1  0.500000  0.000000  0.500000  1
  Nb  Nb19  1  0.000000  0.500000  0.500000  1
  Re  Re20  1  0.871255  0.249999  0.121255  1
  Re  Re21  1  0.750000  0.878744  0.128744  1
  Re  Re22  1  0.621256  0.371256  0.250000  1
  Re  Re23  1  0.121255  0.871255  0.249999  1
  Re  Re24  1  0.250000  0.621256  0.371256  1
  Re  Re25  1  0.628744  0.750000  0.378744  1
  Re  Re26  1  0.371256  0.250000  0.621256  1
  Re  Re27  1  0.750000  0.378744  0.628744  1
  Re  Re28  1  0.878744  0.128744  0.750000  1
  Re  Re29  1  0.378744  0.628744  0.750000  1
  Re  Re30  1  0.249999  0.121255  0.871255  1
  Re  Re31  1  0.128744  0.750000  0.878744  1
  N  N32  1  0.209641  0.119136  0.022931  1
  N  N33  1  0.316535  0.903160  0.027522  1
  N  N34  1  0.875639  0.403160  0.086625  1
  N  N35  1  0.709642  0.686712  0.090506  1
  N  N36  1  0.619136  0.409495  0.096205  1
  N  N37  1  0.972480  0.683466  0.096841  1
  N  N38  1  0.022931  0.209641  0.119136  1
  N  N39  1  0.596840  0.913375  0.124362  1
  N  N40  1  0.477069  0.596205  0.186712  1
  N  N41  1  0.210987  0.586625  0.183466  1
  N  N42  1  0.119136  0.022931  0.209641  1
  N  N43  1  0.586625  0.183466  0.210987  1
  N  N44  1  0.472479  0.375638  0.289013  1
  N  N45  1  0.313289  0.909495  0.290358  1
  N  N46  1  0.903160  0.027522  0.316535  1
  N  N47  1  0.909495  0.290358  0.313289  1
  N  N48  1  0.289013  0.472479  0.375638  1
  N  N49  1  0.590505  0.903795  0.380864  1
  N  N50  1  0.813289  0.522931  0.403795  1
  N  N51  1  0.086625  0.875639  0.403160  1
  N  N52  1  0.096205  0.619136  0.409495  1
  N  N53  1  0.816535  0.789014  0.413375  1
  N  N54  1  0.596205  0.186712  0.477069  1
  N  N55  1  0.375638  0.289013  0.472479  1
  N  N56  1  0.624361  0.710987  0.527521  1
  N  N57  1  0.403795  0.813289  0.522931  1
  N  N58  1  0.183466  0.210987  0.586625  1
  N  N59  1  0.903795  0.380864  0.590505  1
  N  N60  1  0.186712  0.477069  0.596205  1
  N  N61  1  0.913375  0.124362  0.596840  1
  N  N62  1  0.409495  0.096205  0.619136  1
  N  N63  1  0.710987  0.527521  0.624361  1
  N  N64  1  0.090506  0.709642  0.686712  1
  N  N65  1  0.096841  0.972480  0.683466  1
  N  N66  1  0.686712  0.090506  0.709642  1
  N  N67  1  0.527521  0.624361  0.710987  1
  N  N68  1  0.413375  0.816535  0.789014  1
  N  N69  1  0.880864  0.977069  0.790358  1
  N  N70  1  0.522931  0.403795  0.813289  1
  N  N71  1  0.789014  0.413375  0.816535  1
  N  N72  1  0.403160  0.086625  0.875639  1
  N  N73  1  0.977069  0.790358  0.880864  1
  N  N74  1  0.380864  0.590505  0.903795  1
  N  N75  1  0.027522  0.316535  0.903160  1
  N  N76  1  0.290358  0.313289  0.909495  1
  N  N77  1  0.124362  0.596840  0.913375  1
  N  N78  1  0.683466  0.096841  0.972480  1
  N  N79  1  0.790358  0.880864  0.977069  1
