# generated using pymatgen
data_Ti8Al15Os5Pd2
_symmetry_space_group_name_H-M   'P 1'
_cell_length_a   8.68270311
_cell_length_b   8.68270188
_cell_length_c   8.68270233
_cell_angle_alpha   119.86731168
_cell_angle_beta   119.77082282
_cell_angle_gamma   90.31369602
_symmetry_Int_Tables_number   1
_chemical_formula_structural   Ti8Al15Os5Pd2
_chemical_formula_sum   'Ti8 Al15 Os5 Pd2'
_cell_volume   464.11798023
_cell_formula_units_Z   1
loop_
 _symmetry_equiv_pos_site_id
 _symmetry_equiv_pos_as_xyz
  1  'x, y, z'
loop_
 _atom_site_type_symbol
 _atom_site_label
 _atom_site_symmetry_multiplicity
 _atom_site_fract_x
 _atom_site_fract_y
 _atom_site_fract_z
 _atom_site_occupancy
  Ti  Ti0  1  0.787082  0.293171  0.070379  1
  Ti  Ti1  1  0.222792  0.293171  0.506089  1
  Ti  Ti2  1  0.210193  0.710193  0.500000  1
  Ti  Ti3  1  0.222792  0.716702  0.929621  1
  Ti  Ti4  1  0.787082  0.716702  0.493911  1
  Ti  Ti5  1  0.781233  0.281233  0.500000  1
  Ti  Ti6  1  0.375259  0.123785  0.748526  1
  Ti  Ti7  1  0.375259  0.626732  0.251474  1
  Al  Al8  1  0.996605  0.496605  0.500000  1
  Al  Al9  1  0.153200  0.346223  0.193021  1
  Al  Al10  1  0.153200  0.960179  0.806979  1
  Al  Al11  1  0.151146  0.346405  0.804742  1
  Al  Al12  1  0.541661  0.346405  0.195258  1
  Al  Al13  1  0.846920  0.650053  0.803134  1
  Al  Al14  1  0.846920  0.043787  0.196866  1
  Al  Al15  1  0.843287  0.656309  0.186977  1
  Al  Al16  1  0.469332  0.656309  0.813023  1
  Al  Al17  1  0.382779  0.124369  0.258410  1
  Al  Al18  1  0.865960  0.124369  0.741590  1
  Al  Al19  1  0.621626  0.873828  0.252204  1
  Al  Al20  1  0.621626  0.369422  0.747796  1
  Al  Al21  1  0.614181  0.874606  0.739575  1
  Al  Al22  1  0.135028  0.874606  0.260425  1
  Os  Os23  1  0.001028  0.999840  0.502224  1
  Os  Os24  1  0.497616  0.999840  0.998812  1
  Os  Os25  1  0.497722  0.497722  0.000000  1
  Os  Os26  1  0.497616  0.498804  0.497776  1
  Os  Os27  1  0.001028  0.498804  0.001188  1
  Pd  Pd28  1  0.998988  0.998988  0.000000  1
  Pd  Pd29  1  0.500834  0.000834  0.500000  1
