# generated using pymatgen
data_SrPr3(Sn4Pt3)2
_symmetry_space_group_name_H-M   'P 1'
_cell_length_a   14.82341100
_cell_length_b   14.80613994
_cell_length_c   4.49029600
_cell_angle_alpha   90.00000000
_cell_angle_beta   90.00000000
_cell_angle_gamma   120.03859212
_symmetry_Int_Tables_number   1
_chemical_formula_structural   SrPr3(Sn4Pt3)2
_chemical_formula_sum   'Sr2 Pr6 Sn16 Pt12'
_cell_volume   853.15233248
_cell_formula_units_Z   2
loop_
 _symmetry_equiv_pos_site_id
 _symmetry_equiv_pos_as_xyz
  1  'x, y, z'
loop_
 _atom_site_type_symbol
 _atom_site_label
 _atom_site_symmetry_multiplicity
 _atom_site_fract_x
 _atom_site_fract_y
 _atom_site_fract_z
 _atom_site_occupancy
  Sr  Sr0  1  0.815432  0.815451  0.500000  1
  Sr  Sr1  1  0.999981  0.184549  0.500000  1
  Pr  Pr2  1  0.183967  0.000000  0.500000  1
  Pr  Pr3  1  0.666625  0.333620  0.000000  1
  Pr  Pr4  1  0.333004  0.666380  0.000000  1
  Pr  Pr5  1  0.563468  0.000000  0.000000  1
  Pr  Pr6  1  0.435318  0.435401  0.000000  1
  Pr  Pr7  1  0.999917  0.564599  0.000000  1
  Sn  Sn8  1  0.495734  0.126101  0.500000  1
  Sn  Sn9  1  0.873129  0.369599  0.500000  1
  Sn  Sn10  1  0.630798  0.503836  0.500000  1
  Sn  Sn11  1  0.503531  0.630401  0.500000  1
  Sn  Sn12  1  0.369633  0.873899  0.500000  1
  Sn  Sn13  1  0.126962  0.496164  0.500000  1
  Sn  Sn14  1  0.374433  0.186199  0.000000  1
  Sn  Sn15  1  0.813946  0.188275  0.000000  1
  Sn  Sn16  1  0.812388  0.627455  0.000000  1
  Sn  Sn17  1  0.625671  0.811725  0.000000  1
  Sn  Sn18  1  0.001483  0.000000  0.000000  1
  Sn  Sn19  1  0.188235  0.813801  0.000000  1
  Sn  Sn20  1  0.723317  0.000000  0.500000  1
  Sn  Sn21  1  0.275961  0.275494  0.500000  1
  Sn  Sn22  1  0.000467  0.724506  0.500000  1
  Sn  Sn23  1  0.184934  0.372545  0.000000  1
  Pt  Pt24  1  0.999855  0.366059  0.000000  1
  Pt  Pt25  1  0.362432  0.000000  0.000000  1
  Pt  Pt26  1  0.477736  0.300013  0.500000  1
  Pt  Pt27  1  0.699572  0.177527  0.500000  1
  Pt  Pt28  1  0.822368  0.522573  0.500000  1
  Pt  Pt29  1  0.522045  0.822473  0.500000  1
  Pt  Pt30  1  0.177723  0.699987  0.500000  1
  Pt  Pt31  1  0.299795  0.477427  0.500000  1
  Pt  Pt32  1  0.004252  0.823521  0.000000  1
  Pt  Pt33  1  0.180731  0.176479  0.000000  1
  Pt  Pt34  1  0.821358  0.000000  0.000000  1
  Pt  Pt35  1  0.633796  0.633941  0.000000  1
