# generated using pymatgen
data_ZrSc8Ti3Ga20
_symmetry_space_group_name_H-M   'P 1'
_cell_length_a   5.70755556
_cell_length_b   9.08761100
_cell_length_c   10.93370581
_cell_angle_alpha   90.00000000
_cell_angle_beta   90.18017524
_cell_angle_gamma   90.00000000
_symmetry_Int_Tables_number   1
_chemical_formula_structural   ZrSc8Ti3Ga20
_chemical_formula_sum   'Zr1 Sc8 Ti3 Ga20'
_cell_volume   567.10713785
_cell_formula_units_Z   1
loop_
 _symmetry_equiv_pos_site_id
 _symmetry_equiv_pos_as_xyz
  1  'x, y, z'
loop_
 _atom_site_type_symbol
 _atom_site_label
 _atom_site_symmetry_multiplicity
 _atom_site_fract_x
 _atom_site_fract_y
 _atom_site_fract_z
 _atom_site_occupancy
  Zr  Zr0  1  0.353605  0.250000  0.434240  1
  Sc  Sc1  1  0.887384  0.503297  0.354902  1
  Sc  Sc2  1  0.616134  0.993499  0.855999  1
  Sc  Sc3  1  0.112129  0.004905  0.646163  1
  Sc  Sc4  1  0.388285  0.495594  0.146206  1
  Sc  Sc5  1  0.112129  0.495095  0.646163  1
  Sc  Sc6  1  0.388285  0.004406  0.146206  1
  Sc  Sc7  1  0.887384  0.996703  0.354902  1
  Sc  Sc8  1  0.616134  0.506501  0.855999  1
  Ti  Ti9  1  0.860224  0.750000  0.065151  1
  Ti  Ti10  1  0.641785  0.750000  0.567218  1
  Ti  Ti11  1  0.141363  0.250000  0.935074  1
  Ga  Ga12  1  0.874392  0.046373  0.091723  1
  Ga  Ga13  1  0.622893  0.454870  0.596434  1
  Ga  Ga14  1  0.127801  0.548128  0.906709  1
  Ga  Ga15  1  0.375315  0.943593  0.406866  1
  Ga  Ga16  1  0.127801  0.951872  0.906709  1
  Ga  Ga17  1  0.375315  0.556407  0.406866  1
  Ga  Ga18  1  0.874392  0.453627  0.091723  1
  Ga  Ga19  1  0.622893  0.045130  0.596434  1
  Ga  Ga20  1  0.146640  0.750000  0.248082  1
  Ga  Ga21  1  0.352658  0.750000  0.748259  1
  Ga  Ga22  1  0.853274  0.250000  0.753059  1
  Ga  Ga23  1  0.657152  0.250000  0.247266  1
  Ga  Ga24  1  0.403012  0.750000  0.002309  1
  Ga  Ga25  1  0.091769  0.750000  0.502318  1
  Ga  Ga26  1  0.599093  0.250000  0.996077  1
  Ga  Ga27  1  0.883479  0.250000  0.500418  1
  Ga  Ga28  1  0.624030  0.750000  0.282377  1
  Ga  Ga29  1  0.882149  0.750000  0.785360  1
  Ga  Ga30  1  0.380163  0.250000  0.718888  1
  Ga  Ga31  1  0.120941  0.250000  0.203899  1
