# generated using pymatgen
data_Yb5As3O12F
_symmetry_space_group_name_H-M   'P 1'
_cell_length_a   6.86565624
_cell_length_b   9.53670819
_cell_length_c   9.59388700
_cell_angle_alpha   119.69217949
_cell_angle_beta   91.32336093
_cell_angle_gamma   89.35367245
_symmetry_Int_Tables_number   1
_chemical_formula_structural   Yb5As3O12F
_chemical_formula_sum   'Yb10 As6 O24 F2'
_cell_volume   545.54260865
_cell_formula_units_Z   2
loop_
 _symmetry_equiv_pos_site_id
 _symmetry_equiv_pos_as_xyz
  1  'x, y, z'
loop_
 _atom_site_type_symbol
 _atom_site_label
 _atom_site_symmetry_multiplicity
 _atom_site_fract_x
 _atom_site_fract_y
 _atom_site_fract_z
 _atom_site_occupancy
  Yb  Yb0  1  0.999472  0.356750  0.697230  1
  Yb  Yb1  1  0.000528  0.643250  0.302770  1
  Yb  Yb2  1  0.766872  0.228416  0.995146  1
  Yb  Yb3  1  0.263473  0.245564  0.243781  1
  Yb  Yb4  1  0.736527  0.754436  0.756219  1
  Yb  Yb5  1  0.498763  0.689142  0.347627  1
  Yb  Yb6  1  0.501237  0.310858  0.652373  1
  Yb  Yb7  1  0.743963  0.003811  0.240455  1
  Yb  Yb8  1  0.256037  0.996189  0.759545  1
  Yb  Yb9  1  0.233128  0.771584  0.004854  1
  As  As10  1  0.236857  0.026044  0.396086  1
  As  As11  1  0.236790  0.609513  0.631521  1
  As  As12  1  0.275924  0.372825  0.974029  1
  As  As13  1  0.724076  0.627175  0.025971  1
  As  As14  1  0.763143  0.973956  0.603914  1
  As  As15  1  0.763210  0.390487  0.368479  1
  O  O16  1  0.067298  0.076951  0.295891  1
  O  O17  1  0.938047  0.733602  0.089810  1
  O  O18  1  0.547825  0.899685  0.630195  1
  O  O19  1  0.587649  0.284757  0.225858  1
  O  O20  1  0.718118  0.514598  0.821307  1
  O  O21  1  0.281882  0.485402  0.178693  1
  O  O22  1  0.759285  0.178287  0.687674  1
  O  O23  1  0.035587  0.638092  0.746859  1
  O  O24  1  0.932702  0.923049  0.704109  1
  O  O25  1  0.224620  0.687605  0.505388  1
  O  O26  1  0.061953  0.266398  0.910190  1
  O  O27  1  0.964413  0.361908  0.253141  1
  O  O28  1  0.412351  0.715243  0.774142  1
  O  O29  1  0.452175  0.100315  0.369805  1
  O  O30  1  0.789175  0.872051  0.398803  1
  O  O31  1  0.544268  0.770120  0.104311  1
  O  O32  1  0.272253  0.403633  0.530154  1
  O  O33  1  0.455732  0.229880  0.895689  1
  O  O34  1  0.240715  0.821713  0.312326  1
  O  O35  1  0.727747  0.596367  0.469846  1
  O  O36  1  0.717785  0.517165  0.124243  1
  O  O37  1  0.282215  0.482835  0.875757  1
  O  O38  1  0.210825  0.127949  0.601197  1
  O  O39  1  0.775380  0.312395  0.494612  1
  F  F40  1  0.754385  0.986834  0.996005  1
  F  F41  1  0.245615  0.013166  0.003995  1
