# generated using pymatgen
data_Hf6Ta4Ge6S
_symmetry_space_group_name_H-M   'P 1'
_cell_length_a   7.87649000
_cell_length_b   7.87648913
_cell_length_c   5.42648800
_cell_angle_alpha   90.00000000
_cell_angle_beta   90.00000000
_cell_angle_gamma   119.99999527
_symmetry_Int_Tables_number   1
_chemical_formula_structural   Hf6Ta4Ge6S
_chemical_formula_sum   'Hf6 Ta4 Ge6 S1'
_cell_volume   291.55124683
_cell_formula_units_Z   1
loop_
 _symmetry_equiv_pos_site_id
 _symmetry_equiv_pos_as_xyz
  1  'x, y, z'
loop_
 _atom_site_type_symbol
 _atom_site_label
 _atom_site_symmetry_multiplicity
 _atom_site_fract_x
 _atom_site_fract_y
 _atom_site_fract_z
 _atom_site_occupancy
  Hf  Hf0  1  0.000000  0.741017  0.236898  1
  Hf  Hf1  1  0.258983  0.258983  0.236898  1
  Hf  Hf2  1  0.741017  0.000000  0.236898  1
  Hf  Hf3  1  0.000000  0.258983  0.763102  1
  Hf  Hf4  1  0.741017  0.741017  0.763102  1
  Hf  Hf5  1  0.258983  0.000000  0.763102  1
  Ta  Ta6  1  0.333333  0.666667  0.000000  1
  Ta  Ta7  1  0.666667  0.333333  0.000000  1
  Ta  Ta8  1  0.666667  0.333333  0.500000  1
  Ta  Ta9  1  0.333333  0.666667  0.500000  1
  Ge  Ge10  1  0.000000  0.393712  0.249384  1
  Ge  Ge11  1  0.606288  0.606288  0.249384  1
  Ge  Ge12  1  0.393712  0.000000  0.249384  1
  Ge  Ge13  1  0.000000  0.606288  0.750616  1
  Ge  Ge14  1  0.393712  0.393712  0.750616  1
  Ge  Ge15  1  0.606288  0.000000  0.750616  1
  S  S16  1  0.000000  0.000000  0.500000  1
