# generated using pymatgen
data_SrCaLaNbO6
_symmetry_space_group_name_H-M   'P 1'
_cell_length_a   8.35869393
_cell_length_b   8.35871275
_cell_length_c   10.13522843
_cell_angle_alpha   66.66369786
_cell_angle_beta   66.66385815
_cell_angle_gamma   92.22099530
_symmetry_Int_Tables_number   1
_chemical_formula_structural   SrCaLaNbO6
_chemical_formula_sum   'Sr4 Ca4 La4 Nb4 O24'
_cell_volume   580.70941072
_cell_formula_units_Z   4
loop_
 _symmetry_equiv_pos_site_id
 _symmetry_equiv_pos_as_xyz
  1  'x, y, z'
loop_
 _atom_site_type_symbol
 _atom_site_label
 _atom_site_symmetry_multiplicity
 _atom_site_fract_x
 _atom_site_fract_y
 _atom_site_fract_z
 _atom_site_occupancy
  Sr  Sr0  1  0.394412  0.346965  0.247919  1
  Sr  Sr1  1  0.894411  0.846962  0.247920  1
  Sr  Sr2  1  0.096971  0.644412  0.747916  1
  Sr  Sr3  1  0.596968  0.144413  0.747918  1
  Ca  Ca4  1  0.998506  0.504511  0.498257  1
  Ca  Ca5  1  0.254506  0.248505  0.998259  1
  Ca  Ca6  1  0.498508  0.004509  0.498258  1
  Ca  Ca7  1  0.754510  0.748506  0.998257  1
  La  La8  1  0.414374  0.857663  0.242659  1
  La  La9  1  0.914370  0.357659  0.242662  1
  La  La10  1  0.107657  0.164369  0.742657  1
  La  La11  1  0.607663  0.664371  0.742660  1
  Nb  Nb12  1  0.750335  0.252318  0.998757  1
  Nb  Nb13  1  0.250336  0.752313  0.998759  1
  Nb  Nb14  1  0.002313  0.000333  0.498760  1
  Nb  Nb15  1  0.502311  0.500331  0.498762  1
  O  O16  1  0.342907  0.796003  0.768715  1
  O  O17  1  0.842908  0.296009  0.768711  1
  O  O18  1  0.546002  0.592907  0.268714  1
  O  O19  1  0.046003  0.092907  0.268716  1
  O  O20  1  0.757638  0.990008  0.062172  1
  O  O21  1  0.257634  0.490007  0.062177  1
  O  O22  1  0.240007  0.507636  0.562177  1
  O  O23  1  0.740008  0.007638  0.562176  1
  O  O24  1  0.568426  0.755159  0.456021  1
  O  O25  1  0.068422  0.255157  0.456022  1
  O  O26  1  0.005159  0.318427  0.956022  1
  O  O27  1  0.505163  0.818425  0.956019  1
  O  O28  1  0.488559  0.167388  0.056203  1
  O  O29  1  0.988560  0.667387  0.056208  1
  O  O30  1  0.917388  0.738560  0.556206  1
  O  O31  1  0.417387  0.238561  0.556205  1
  O  O32  1  0.258894  0.967290  0.438670  1
  O  O33  1  0.758894  0.467292  0.438670  1
  O  O34  1  0.717288  0.508895  0.938673  1
  O  O35  1  0.217290  0.008894  0.938670  1
  O  O36  1  0.965517  0.923135  0.730618  1
  O  O37  1  0.465517  0.423136  0.730616  1
  O  O38  1  0.173137  0.715522  0.230617  1
  O  O39  1  0.673137  0.215520  0.230616  1
