# generated using pymatgen
data_Ce2B4Ir4Ru
_symmetry_space_group_name_H-M   'P 1'
_cell_length_a   7.55550853
_cell_length_b   6.35674150
_cell_length_c   5.63628877
_cell_angle_alpha   77.84308912
_cell_angle_beta   55.33296014
_cell_angle_gamma   47.30105029
_symmetry_Int_Tables_number   1
_chemical_formula_structural   Ce2B4Ir4Ru
_chemical_formula_sum   'Ce2 B4 Ir4 Ru1'
_cell_volume   156.60809568
_cell_formula_units_Z   1
loop_
 _symmetry_equiv_pos_site_id
 _symmetry_equiv_pos_as_xyz
  1  'x, y, z'
loop_
 _atom_site_type_symbol
 _atom_site_label
 _atom_site_symmetry_multiplicity
 _atom_site_fract_x
 _atom_site_fract_y
 _atom_site_fract_z
 _atom_site_occupancy
  Ce  Ce0  1  0.864375  0.864374  0.135626  1
  Ce  Ce1  1  0.135625  0.135625  0.864375  1
  B  B2  1  0.467143  0.794169  0.213617  1
  B  B3  1  0.205831  0.532856  0.474930  1
  B  B4  1  0.794169  0.467143  0.525071  1
  B  B5  1  0.532857  0.205830  0.786384  1
  Ir  Ir6  1  0.500000  0.500000  0.000000  1
  Ir  Ir7  1  0.250472  0.250473  0.249527  1
  Ir  Ir8  1  0.500000  0.500000  0.500000  1
  Ir  Ir9  1  0.749527  0.749527  0.750473  1
  Ru  Ru10  1  0.000000  0.000000  0.500000  1
