# generated using pymatgen
data_Tb7ThS12
_symmetry_space_group_name_H-M   'P 1'
_cell_length_a   3.90113800
_cell_length_b   10.51713025
_cell_length_c   10.72648229
_cell_angle_alpha   89.88583465
_cell_angle_beta   90.00000000
_cell_angle_gamma   90.00000000
_symmetry_Int_Tables_number   1
_chemical_formula_structural   Tb7ThS12
_chemical_formula_sum   'Tb7 Th1 S12'
_cell_volume   440.09357062
_cell_formula_units_Z   1
loop_
 _symmetry_equiv_pos_site_id
 _symmetry_equiv_pos_as_xyz
  1  'x, y, z'
loop_
 _atom_site_type_symbol
 _atom_site_label
 _atom_site_symmetry_multiplicity
 _atom_site_fract_x
 _atom_site_fract_y
 _atom_site_fract_z
 _atom_site_occupancy
  Tb  Tb0  1  0.750000  0.002854  0.195368  1
  Tb  Tb1  1  0.750000  0.494480  0.691411  1
  Tb  Tb2  1  0.250000  0.503635  0.308572  1
  Tb  Tb3  1  0.250000  0.189610  0.485065  1
  Tb  Tb4  1  0.750000  0.810305  0.506943  1
  Tb  Tb5  1  0.750000  0.684338  0.012553  1
  Tb  Tb6  1  0.250000  0.316627  0.991356  1
  Th  Th7  1  0.250000  0.000605  0.807830  1
  S  S8  1  0.250000  0.298832  0.729208  1
  S  S9  1  0.750000  0.697780  0.271645  1
  S  S10  1  0.750000  0.802018  0.772532  1
  S  S11  1  0.250000  0.196033  0.226061  1
  S  S12  1  0.250000  0.945775  0.380613  1
  S  S13  1  0.750000  0.054764  0.616403  1
  S  S14  1  0.750000  0.445321  0.121590  1
  S  S15  1  0.250000  0.555277  0.879068  1
  S  S16  1  0.250000  0.872044  0.047050  1
  S  S17  1  0.750000  0.129421  0.955962  1
  S  S18  1  0.750000  0.373593  0.453585  1
  S  S19  1  0.250000  0.626689  0.547184  1
