# generated using pymatgen
data_Y13Er(Tm3Sn8)2
_symmetry_space_group_name_H-M   'P 1'
_cell_length_a   8.00070712
_cell_length_b   8.14305121
_cell_length_c   15.40312900
_cell_angle_alpha   90.00742314
_cell_angle_beta   89.98997412
_cell_angle_gamma   90.03039749
_symmetry_Int_Tables_number   1
_chemical_formula_structural   Y13Er(Tm3Sn8)2
_chemical_formula_sum   'Y13 Er1 Tm6 Sn16'
_cell_volume   1003.51627474
_cell_formula_units_Z   1
loop_
 _symmetry_equiv_pos_site_id
 _symmetry_equiv_pos_as_xyz
  1  'x, y, z'
loop_
 _atom_site_type_symbol
 _atom_site_label
 _atom_site_symmetry_multiplicity
 _atom_site_fract_x
 _atom_site_fract_y
 _atom_site_fract_z
 _atom_site_occupancy
  Y  Y0  1  0.132853  0.336690  0.122085  1
  Y  Y1  1  0.632386  0.163396  0.122408  1
  Y  Y2  1  0.132236  0.336795  0.377928  1
  Y  Y3  1  0.367802  0.836850  0.622497  1
  Y  Y4  1  0.867783  0.663210  0.877470  1
  Y  Y5  1  0.521089  0.320777  0.902464  1
  Y  Y6  1  0.021422  0.179400  0.597544  1
  Y  Y7  1  0.478805  0.679637  0.402921  1
  Y  Y8  1  0.978721  0.820678  0.097281  1
  Y  Y9  1  0.479159  0.679531  0.096993  1
  Y  Y10  1  0.979026  0.820700  0.403263  1
  Y  Y11  1  0.521034  0.320803  0.597200  1
  Y  Y12  1  0.020895  0.178960  0.902148  1
  Er  Er13  1  0.367312  0.836996  0.876759  1
  Tm  Tm14  1  0.866834  0.662965  0.622716  1
  Tm  Tm15  1  0.633012  0.162864  0.377755  1
  Tm  Tm16  1  0.198389  0.503435  0.750004  1
  Tm  Tm17  1  0.698659  0.996662  0.749600  1
  Tm  Tm18  1  0.801236  0.496728  0.250595  1
  Tm  Tm19  1  0.301883  0.003255  0.250041  1
  Sn  Sn20  1  0.293123  0.035149  0.041258  1
  Sn  Sn21  1  0.792201  0.463180  0.458837  1
  Sn  Sn22  1  0.707914  0.963074  0.541565  1
  Sn  Sn23  1  0.207921  0.537154  0.957436  1
  Sn  Sn24  1  0.705181  0.963649  0.957389  1
  Sn  Sn25  1  0.204555  0.536488  0.542749  1
  Sn  Sn26  1  0.295278  0.036507  0.457694  1
  Sn  Sn27  1  0.793065  0.464261  0.042245  1
  Sn  Sn28  1  0.564725  0.619322  0.749756  1
  Sn  Sn29  1  0.064228  0.880374  0.749600  1
  Sn  Sn30  1  0.436244  0.380822  0.250826  1
  Sn  Sn31  1  0.934885  0.118437  0.250672  1
  Sn  Sn32  1  0.330416  0.148520  0.750185  1
  Sn  Sn33  1  0.830327  0.351978  0.749550  1
  Sn  Sn34  1  0.669651  0.851960  0.250448  1
  Sn  Sn35  1  0.169754  0.648797  0.250118  1
