# generated using pymatgen
data_Be3Co2SiMo6C
_symmetry_space_group_name_H-M   'P 1'
_cell_length_a   7.57296655
_cell_length_b   7.58678643
_cell_length_c   7.58678565
_cell_angle_alpha   60.15728308
_cell_angle_beta   60.06022562
_cell_angle_gamma   60.06023101
_symmetry_Int_Tables_number   1
_chemical_formula_structural   Be3Co2SiMo6C
_chemical_formula_sum   'Be6 Co4 Si2 Mo12 C2'
_cell_volume   308.87018544
_cell_formula_units_Z   2
loop_
 _symmetry_equiv_pos_site_id
 _symmetry_equiv_pos_as_xyz
  1  'x, y, z'
loop_
 _atom_site_type_symbol
 _atom_site_label
 _atom_site_symmetry_multiplicity
 _atom_site_fract_x
 _atom_site_fract_y
 _atom_site_fract_z
 _atom_site_occupancy
  Be  Be0  1  0.742895  0.417598  0.417598  1
  Be  Be1  1  0.421909  0.417598  0.417598  1
  Be  Be2  1  0.828292  0.827307  0.516109  1
  Be  Be3  1  0.828292  0.516109  0.827307  1
  Be  Be4  1  0.516573  0.827944  0.827944  1
  Be  Be5  1  0.827538  0.827944  0.827944  1
  Co  Co6  1  0.626842  0.622547  0.123769  1
  Co  Co7  1  0.626842  0.123769  0.622547  1
  Co  Co8  1  0.126763  0.623755  0.623755  1
  Co  Co9  1  0.625727  0.623755  0.623755  1
  Si  Si10  1  0.421507  0.413647  0.743339  1
  Si  Si11  1  0.421507  0.743339  0.413647  1
  Mo  Mo12  1  0.044963  0.054025  0.450659  1
  Mo  Mo13  1  0.450353  0.054025  0.450659  1
  Mo  Mo14  1  0.048364  0.451636  0.451636  1
  Mo  Mo15  1  0.450353  0.450659  0.054025  1
  Mo  Mo16  1  0.044963  0.450659  0.054025  1
  Mo  Mo17  1  0.448941  0.051059  0.051059  1
  Mo  Mo18  1  0.197267  0.197240  0.799533  1
  Mo  Mo19  1  0.805961  0.197240  0.799533  1
  Mo  Mo20  1  0.195529  0.804471  0.804471  1
  Mo  Mo21  1  0.805961  0.799533  0.197240  1
  Mo  Mo22  1  0.197267  0.799533  0.197240  1
  Mo  Mo23  1  0.799645  0.200355  0.200355  1
  C  C24  1  0.247722  0.252278  0.252278  1
  C  C25  1  0.998022  0.001978  0.001978  1
