# generated using pymatgen
data_Na4TmMoO6
_symmetry_space_group_name_H-M   'P 1'
_cell_length_a   5.67818080
_cell_length_b   5.67815228
_cell_length_c   5.80968785
_cell_angle_alpha   99.34170169
_cell_angle_beta   99.34151356
_cell_angle_gamma   120.19171345
_symmetry_Int_Tables_number   1
_chemical_formula_structural   Na4TmMoO6
_chemical_formula_sum   'Na4 Tm1 Mo1 O6'
_cell_volume   153.08226936
_cell_formula_units_Z   1
loop_
 _symmetry_equiv_pos_site_id
 _symmetry_equiv_pos_as_xyz
  1  'x, y, z'
loop_
 _atom_site_type_symbol
 _atom_site_label
 _atom_site_symmetry_multiplicity
 _atom_site_fract_x
 _atom_site_fract_y
 _atom_site_fract_z
 _atom_site_occupancy
  Na  Na0  1  0.498129  0.501874  0.000000  1
  Na  Na1  1  0.000485  0.999514  0.499998  1
  Na  Na2  1  0.659193  0.340808  0.500000  1
  Na  Na3  1  0.340413  0.659588  0.500000  1
  Tm  Tm4  1  0.836927  0.163075  0.000005  1
  Mo  Mo5  1  0.166526  0.833472  0.999999  1
  O  O6  1  0.957622  0.603888  0.201942  1
  O  O7  1  0.551078  0.928333  0.214626  1
  O  O8  1  0.216976  0.195125  0.216543  1
  O  O9  1  0.804880  0.783030  0.783456  1
  O  O10  1  0.071665  0.448918  0.785373  1
  O  O11  1  0.396107  0.042383  0.798057  1
