# generated using pymatgen
data_Cs4GaFe7F24
_symmetry_space_group_name_H-M   'P 1'
_cell_length_a   7.39549472
_cell_length_b   7.65715515
_cell_length_c   10.68246500
_cell_angle_alpha   89.74186281
_cell_angle_beta   89.97465054
_cell_angle_gamma   89.98061050
_symmetry_Int_Tables_number   1
_chemical_formula_structural   Cs4GaFe7F24
_chemical_formula_sum   'Cs4 Ga1 Fe7 F24'
_cell_volume   604.92520737
_cell_formula_units_Z   1
loop_
 _symmetry_equiv_pos_site_id
 _symmetry_equiv_pos_as_xyz
  1  'x, y, z'
loop_
 _atom_site_type_symbol
 _atom_site_label
 _atom_site_symmetry_multiplicity
 _atom_site_fract_x
 _atom_site_fract_y
 _atom_site_fract_z
 _atom_site_occupancy
  Cs  Cs0  1  0.489501  0.249923  0.124223  1
  Cs  Cs1  1  0.989412  0.251120  0.375395  1
  Cs  Cs2  1  0.510499  0.750077  0.875777  1
  Cs  Cs3  1  0.010588  0.748880  0.624605  1
  Ga  Ga4  1  0.500000  0.000000  0.500000  1
  Fe  Fe5  1  0.278714  0.249723  0.761970  1
  Fe  Fe6  1  0.777853  0.249660  0.737380  1
  Fe  Fe7  1  0.721286  0.750277  0.238030  1
  Fe  Fe8  1  0.222147  0.750340  0.262620  1
  Fe  Fe9  1  0.000000  0.500000  0.000000  1
  Fe  Fe10  1  0.500000  0.500000  0.500000  1
  Fe  Fe11  1  0.000000  0.000000  0.000000  1
  F  F12  1  0.645907  0.973032  0.354002  1
  F  F13  1  0.148943  0.526976  0.148805  1
  F  F14  1  0.351150  0.472024  0.648662  1
  F  F15  1  0.851388  0.027749  0.851036  1
  F  F16  1  0.354093  0.026968  0.645998  1
  F  F17  1  0.851057  0.473024  0.851195  1
  F  F18  1  0.648850  0.527976  0.351338  1
  F  F19  1  0.148612  0.972251  0.148964  1
  F  F20  1  0.216827  0.441138  0.904584  1
  F  F21  1  0.712400  0.058739  0.593717  1
  F  F22  1  0.782878  0.940173  0.095198  1
  F  F23  1  0.283545  0.560455  0.404844  1
  F  F24  1  0.783173  0.558862  0.095416  1
  F  F25  1  0.287600  0.941261  0.406283  1
  F  F26  1  0.217122  0.059827  0.904802  1
  F  F27  1  0.716455  0.439545  0.595156  1
  F  F28  1  0.959286  0.249585  0.047900  1
  F  F29  1  0.459324  0.248327  0.452371  1
  F  F30  1  0.040714  0.750415  0.952100  1
  F  F31  1  0.540676  0.751673  0.547629  1
  F  F32  1  0.037941  0.250854  0.672797  1
  F  F33  1  0.538017  0.250225  0.828063  1
  F  F34  1  0.962059  0.749146  0.327203  1
  F  F35  1  0.461983  0.749775  0.171937  1
