# generated using pymatgen
data_Ti7VSbAs5
_symmetry_space_group_name_H-M   'P 1'
_cell_length_a   7.46210826
_cell_length_b   7.46210788
_cell_length_c   18.92220700
_cell_angle_alpha   90.00000000
_cell_angle_beta   90.00000000
_cell_angle_gamma   152.88008674
_symmetry_Int_Tables_number   1
_chemical_formula_structural   Ti7VSbAs5
_chemical_formula_sum   'Ti14 V2 Sb2 As10'
_cell_volume   480.30918321
_cell_formula_units_Z   2
loop_
 _symmetry_equiv_pos_site_id
 _symmetry_equiv_pos_as_xyz
  1  'x, y, z'
loop_
 _atom_site_type_symbol
 _atom_site_label
 _atom_site_symmetry_multiplicity
 _atom_site_fract_x
 _atom_site_fract_y
 _atom_site_fract_z
 _atom_site_occupancy
  Ti  Ti0  1  0.074288  0.925711  0.750000  1
  Ti  Ti1  1  0.925712  0.074289  0.250000  1
  Ti  Ti2  1  0.735041  0.264959  0.156144  1
  Ti  Ti3  1  0.264959  0.735041  0.843856  1
  Ti  Ti4  1  0.264959  0.735041  0.656144  1
  Ti  Ti5  1  0.735041  0.264959  0.343856  1
  Ti  Ti6  1  0.533107  0.466893  0.107317  1
  Ti  Ti7  1  0.466893  0.533107  0.892683  1
  Ti  Ti8  1  0.466893  0.533107  0.607317  1
  Ti  Ti9  1  0.533107  0.466893  0.392683  1
  Ti  Ti10  1  0.667033  0.332967  0.971683  1
  Ti  Ti11  1  0.332967  0.667033  0.028317  1
  Ti  Ti12  1  0.332967  0.667033  0.471683  1
  Ti  Ti13  1  0.667033  0.332967  0.528317  1
  V  V14  1  0.000000  0.000000  0.000000  1
  V  V15  1  0.000000  0.000000  0.500000  1
  Sb  Sb16  1  0.420007  0.579993  0.750000  1
  Sb  Sb17  1  0.579993  0.420007  0.250000  1
  As  As18  1  0.706126  0.293874  0.750000  1
  As  As19  1  0.293874  0.706126  0.250000  1
  As  As20  1  0.902195  0.097804  0.114965  1
  As  As21  1  0.097805  0.902196  0.885035  1
  As  As22  1  0.097805  0.902196  0.614965  1
  As  As23  1  0.902195  0.097804  0.385035  1
  As  As24  1  0.841065  0.158935  0.927930  1
  As  As25  1  0.158935  0.841065  0.072070  1
  As  As26  1  0.158935  0.841065  0.427930  1
  As  As27  1  0.841065  0.158935  0.572070  1
