# generated using pymatgen
data_Cs2VTc6Mo5Se14
_symmetry_space_group_name_H-M   'P 1'
_cell_length_a   9.91072608
_cell_length_b   9.87913324
_cell_length_c   9.90655106
_cell_angle_alpha   60.88700109
_cell_angle_beta   61.20650802
_cell_angle_gamma   60.86085657
_symmetry_Int_Tables_number   1
_chemical_formula_structural   Cs2VTc6Mo5Se14
_chemical_formula_sum   'Cs2 V1 Tc6 Mo5 Se14'
_cell_volume   701.05414966
_cell_formula_units_Z   1
loop_
 _symmetry_equiv_pos_site_id
 _symmetry_equiv_pos_as_xyz
  1  'x, y, z'
loop_
 _atom_site_type_symbol
 _atom_site_label
 _atom_site_symmetry_multiplicity
 _atom_site_fract_x
 _atom_site_fract_y
 _atom_site_fract_z
 _atom_site_occupancy
  Cs  Cs0  1  0.382220  0.376995  0.382713  1
  Cs  Cs1  1  0.617180  0.620912  0.620683  1
  V  V2  1  0.001594  0.291730  0.123293  1
  Tc  Tc3  1  0.297865  0.124967  0.996540  1
  Tc  Tc4  1  0.192579  0.888422  0.062865  1
  Tc  Tc5  1  0.887228  0.060575  0.195030  1
  Tc  Tc6  1  0.937738  0.806344  0.112727  1
  Tc  Tc7  1  0.805079  0.112775  0.940583  1
  Tc  Tc8  1  0.111915  0.938871  0.805712  1
  Mo  Mo9  1  0.875552  0.003862  0.702047  1
  Mo  Mo10  1  0.122846  0.999757  0.295933  1
  Mo  Mo11  1  0.004008  0.702312  0.876440  1
  Mo  Mo12  1  0.703798  0.875443  0.001521  1
  Mo  Mo13  1  0.060814  0.191655  0.890733  1
  Se  Se14  1  0.978830  0.235538  0.647815  1
  Se  Se15  1  0.234386  0.649311  0.984602  1
  Se  Se16  1  0.647749  0.982989  0.233215  1
  Se  Se17  1  0.016851  0.764926  0.352520  1
  Se  Se18  1  0.762210  0.350633  0.022888  1
  Se  Se19  1  0.354869  0.015349  0.769509  1
  Se  Se20  1  0.171122  0.413785  0.817876  1
  Se  Se21  1  0.415487  0.819836  0.166392  1
  Se  Se22  1  0.818692  0.172440  0.411355  1
  Se  Se23  1  0.833616  0.581480  0.180157  1
  Se  Se24  1  0.583438  0.185541  0.829410  1
  Se  Se25  1  0.182983  0.832035  0.583594  1
  Se  Se26  1  0.778097  0.774306  0.775237  1
  Se  Se27  1  0.221255  0.227210  0.218608  1
