# generated using pymatgen
data_Sm12Si12AgAu11
_symmetry_space_group_name_H-M   'P 1'
_cell_length_a   4.35580100
_cell_length_b   7.52682336
_cell_length_c   23.86839453
_cell_angle_alpha   89.99524228
_cell_angle_beta   90.00000000
_cell_angle_gamma   90.00000000
_symmetry_Int_Tables_number   1
_chemical_formula_structural   Sm12Si12AgAu11
_chemical_formula_sum   'Sm12 Si12 Ag1 Au11'
_cell_volume   782.53353929
_cell_formula_units_Z   1
loop_
 _symmetry_equiv_pos_site_id
 _symmetry_equiv_pos_as_xyz
  1  'x, y, z'
loop_
 _atom_site_type_symbol
 _atom_site_label
 _atom_site_symmetry_multiplicity
 _atom_site_fract_x
 _atom_site_fract_y
 _atom_site_fract_z
 _atom_site_occupancy
  Sm  Sm0  1  0.250000  0.750094  0.333989  1
  Sm  Sm1  1  0.750000  0.252579  0.666709  1
  Sm  Sm2  1  0.750000  0.249959  0.166794  1
  Sm  Sm3  1  0.250000  0.750346  0.832922  1
  Sm  Sm4  1  0.250000  0.749308  0.166881  1
  Sm  Sm5  1  0.750000  0.250395  0.832829  1
  Sm  Sm6  1  0.750000  0.249403  0.334157  1
  Sm  Sm7  1  0.250000  0.748189  0.666306  1
  Sm  Sm8  1  0.250000  0.750366  0.999596  1
  Sm  Sm9  1  0.750000  0.248861  0.999521  1
  Sm  Sm10  1  0.750000  0.251534  0.500284  1
  Sm  Sm11  1  0.250000  0.748467  0.500267  1
  Si  Si12  1  0.250000  0.084185  0.080096  1
  Si  Si13  1  0.750000  0.915634  0.918972  1
  Si  Si14  1  0.750000  0.584257  0.420656  1
  Si  Si15  1  0.250000  0.417716  0.580511  1
  Si  Si16  1  0.250000  0.083411  0.251007  1
  Si  Si17  1  0.750000  0.917618  0.749412  1
  Si  Si18  1  0.750000  0.583196  0.251048  1
  Si  Si19  1  0.250000  0.416214  0.749512  1
  Si  Si20  1  0.250000  0.084003  0.421798  1
  Si  Si21  1  0.750000  0.914472  0.580865  1
  Si  Si22  1  0.750000  0.583808  0.080083  1
  Si  Si23  1  0.250000  0.415657  0.919111  1
  Ag  Ag24  1  0.250000  0.083533  0.585259  1
  Au  Au25  1  0.250000  0.416399  0.250482  1
  Au  Au26  1  0.750000  0.584386  0.750195  1
  Au  Au27  1  0.750000  0.916544  0.250252  1
  Au  Au28  1  0.250000  0.083005  0.748719  1
  Au  Au29  1  0.250000  0.416590  0.413742  1
  Au  Au30  1  0.750000  0.583069  0.586459  1
  Au  Au31  1  0.750000  0.916622  0.086165  1
  Au  Au32  1  0.250000  0.083151  0.912505  1
  Au  Au33  1  0.250000  0.416939  0.085801  1
  Au  Au34  1  0.750000  0.582912  0.912989  1
  Au  Au35  1  0.750000  0.917178  0.414109  1
