# generated using pymatgen
data_Tb4Co4HgBr
_symmetry_space_group_name_H-M   'P 1'
_cell_length_a   3.91230100
_cell_length_b   3.91230020
_cell_length_c   16.50742300
_cell_angle_alpha   90.00000000
_cell_angle_beta   90.00000000
_cell_angle_gamma   119.99998137
_symmetry_Int_Tables_number   1
_chemical_formula_structural   Tb4Co4HgBr
_chemical_formula_sum   'Tb4 Co4 Hg1 Br1'
_cell_volume   218.81365791
_cell_formula_units_Z   1
loop_
 _symmetry_equiv_pos_site_id
 _symmetry_equiv_pos_as_xyz
  1  'x, y, z'
loop_
 _atom_site_type_symbol
 _atom_site_label
 _atom_site_symmetry_multiplicity
 _atom_site_fract_x
 _atom_site_fract_y
 _atom_site_fract_z
 _atom_site_occupancy
  Tb  Tb0  1  0.000000  0.000000  0.113513  1
  Tb  Tb1  1  0.000000  0.000000  0.894120  1
  Tb  Tb2  1  0.000000  0.000000  0.605880  1
  Tb  Tb3  1  0.000000  0.000000  0.386487  1
  Co  Co4  1  0.333333  0.666667  0.500181  1
  Co  Co5  1  0.666667  0.333333  0.498796  1
  Co  Co6  1  0.666667  0.333333  0.001204  1
  Co  Co7  1  0.333333  0.666667  0.999819  1
  Hg  Hg8  1  0.333333  0.666667  0.250000  1
  Br  Br9  1  0.666667  0.333333  0.750000  1
