# generated using pymatgen
data_Ca2La3(Sn5Pd2)2
_symmetry_space_group_name_H-M   'P 1'
_cell_length_a   14.41870600
_cell_length_b   14.41870600
_cell_length_c   4.65726400
_cell_angle_alpha   90.00000000
_cell_angle_beta   90.00000000
_cell_angle_gamma   90.00000000
_symmetry_Int_Tables_number   1
_chemical_formula_structural   Ca2La3(Sn5Pd2)2
_chemical_formula_sum   'Ca4 La6 Sn20 Pd8'
_cell_volume   968.24091356
_cell_formula_units_Z   2
loop_
 _symmetry_equiv_pos_site_id
 _symmetry_equiv_pos_as_xyz
  1  'x, y, z'
loop_
 _atom_site_type_symbol
 _atom_site_label
 _atom_site_symmetry_multiplicity
 _atom_site_fract_x
 _atom_site_fract_y
 _atom_site_fract_z
 _atom_site_occupancy
  Ca  Ca0  1  0.677623  0.177623  0.500000  1
  Ca  Ca1  1  0.322377  0.822377  0.500000  1
  Ca  Ca2  1  0.177623  0.322377  0.500000  1
  Ca  Ca3  1  0.822377  0.677623  0.500000  1
  La  La4  1  0.500000  0.500000  0.000000  1
  La  La5  1  0.000000  0.000000  0.000000  1
  La  La6  1  0.890666  0.390666  0.500000  1
  La  La7  1  0.109334  0.609334  0.500000  1
  La  La8  1  0.390666  0.109334  0.500000  1
  La  La9  1  0.609334  0.890666  0.500000  1
  Sn  Sn10  1  0.569135  0.069135  0.000000  1
  Sn  Sn11  1  0.430865  0.930865  0.000000  1
  Sn  Sn12  1  0.069135  0.430865  0.000000  1
  Sn  Sn13  1  0.930865  0.569135  0.000000  1
  Sn  Sn14  1  0.654005  0.697692  0.000000  1
  Sn  Sn15  1  0.345995  0.302308  0.000000  1
  Sn  Sn16  1  0.154005  0.802308  0.000000  1
  Sn  Sn17  1  0.845995  0.197692  0.000000  1
  Sn  Sn18  1  0.302308  0.654005  0.000000  1
  Sn  Sn19  1  0.697692  0.345995  0.000000  1
  Sn  Sn20  1  0.197692  0.154005  0.000000  1
  Sn  Sn21  1  0.802308  0.845995  0.000000  1
  Sn  Sn22  1  0.662439  0.502358  0.500000  1
  Sn  Sn23  1  0.337561  0.497642  0.500000  1
  Sn  Sn24  1  0.162439  0.997642  0.500000  1
  Sn  Sn25  1  0.837561  0.002358  0.500000  1
  Sn  Sn26  1  0.497642  0.662439  0.500000  1
  Sn  Sn27  1  0.502358  0.337561  0.500000  1
  Sn  Sn28  1  0.002358  0.162439  0.500000  1
  Sn  Sn29  1  0.997642  0.837561  0.500000  1
  Pd  Pd30  1  0.746840  0.529284  0.000000  1
  Pd  Pd31  1  0.253160  0.470716  0.000000  1
  Pd  Pd32  1  0.246840  0.970716  0.000000  1
  Pd  Pd33  1  0.753160  0.029284  0.000000  1
  Pd  Pd34  1  0.470716  0.746840  0.000000  1
  Pd  Pd35  1  0.529284  0.253160  0.000000  1
  Pd  Pd36  1  0.029284  0.246840  0.000000  1
  Pd  Pd37  1  0.970716  0.753160  0.000000  1
