# generated using pymatgen
data_Nb4Si4Os3Pd
_symmetry_space_group_name_H-M   'P 1'
_cell_length_a   3.86229800
_cell_length_b   6.42405670
_cell_length_c   7.34808995
_cell_angle_alpha   90.53940097
_cell_angle_beta   90.00000000
_cell_angle_gamma   90.00000000
_symmetry_Int_Tables_number   1
_chemical_formula_structural   Nb4Si4Os3Pd
_chemical_formula_sum   'Nb4 Si4 Os3 Pd1'
_cell_volume   182.30994604
_cell_formula_units_Z   1
loop_
 _symmetry_equiv_pos_site_id
 _symmetry_equiv_pos_as_xyz
  1  'x, y, z'
loop_
 _atom_site_type_symbol
 _atom_site_label
 _atom_site_symmetry_multiplicity
 _atom_site_fract_x
 _atom_site_fract_y
 _atom_site_fract_z
 _atom_site_occupancy
  Nb  Nb0  1  0.750000  0.525336  0.820461  1
  Nb  Nb1  1  0.250000  0.967096  0.328149  1
  Nb  Nb2  1  0.750000  0.019486  0.671725  1
  Nb  Nb3  1  0.250000  0.481896  0.179202  1
  Si  Si4  1  0.250000  0.229728  0.869529  1
  Si  Si5  1  0.250000  0.723891  0.628577  1
  Si  Si6  1  0.750000  0.768353  0.121333  1
  Si  Si7  1  0.750000  0.270691  0.378977  1
  Os  Os8  1  0.250000  0.855800  0.940811  1
  Os  Os9  1  0.250000  0.351364  0.558194  1
  Os  Os10  1  0.750000  0.652374  0.438067  1
  Pd  Pd11  1  0.750000  0.153986  0.064974  1
