# generated using pymatgen
data_Li8Tb6Dy2Sn7Sb
_symmetry_space_group_name_H-M   'P 1'
_cell_length_a   9.39606300
_cell_length_b   9.39648152
_cell_length_c   7.31316500
_cell_angle_alpha   90.07140726
_cell_angle_beta   90.00000000
_cell_angle_gamma   119.99853014
_symmetry_Int_Tables_number   1
_chemical_formula_structural   Li8Tb6Dy2Sn7Sb
_chemical_formula_sum   'Li8 Tb6 Dy2 Sn7 Sb1'
_cell_volume   559.18198401
_cell_formula_units_Z   1
loop_
 _symmetry_equiv_pos_site_id
 _symmetry_equiv_pos_as_xyz
  1  'x, y, z'
loop_
 _atom_site_type_symbol
 _atom_site_label
 _atom_site_symmetry_multiplicity
 _atom_site_fract_x
 _atom_site_fract_y
 _atom_site_fract_z
 _atom_site_occupancy
  Li  Li0  1  0.166652  0.333304  0.288673  1
  Li  Li1  1  0.166727  0.833303  0.289128  1
  Li  Li2  1  0.666575  0.833303  0.289128  1
  Li  Li3  1  0.833420  0.666841  0.788748  1
  Li  Li4  1  0.832653  0.166260  0.789618  1
  Li  Li5  1  0.333606  0.166260  0.789618  1
  Li  Li6  1  0.333646  0.667293  0.668232  1
  Li  Li7  1  0.666696  0.333392  0.169135  1
  Tb  Tb8  1  0.512508  0.025015  0.494036  1
  Tb  Tb9  1  0.515087  0.489403  0.492033  1
  Tb  Tb10  1  0.974318  0.489403  0.492033  1
  Tb  Tb11  1  0.487597  0.975195  0.994503  1
  Tb  Tb12  1  0.489611  0.512863  0.995190  1
  Tb  Tb13  1  0.023251  0.512863  0.995190  1
  Dy  Dy14  1  0.998908  0.997815  0.498759  1
  Dy  Dy15  1  0.999008  0.998015  0.001711  1
  Sn  Sn16  1  0.166396  0.832898  0.729650  1
  Sn  Sn17  1  0.666501  0.832898  0.729650  1
  Sn  Sn18  1  0.833394  0.666790  0.230378  1
  Sn  Sn19  1  0.833909  0.167063  0.229957  1
  Sn  Sn20  1  0.333153  0.167063  0.229957  1
  Sn  Sn21  1  0.332912  0.665826  0.262135  1
  Sn  Sn22  1  0.666883  0.333766  0.762521  1
  Sb  Sb23  1  0.166586  0.333172  0.732013  1
