# generated using pymatgen
data_Er4Tm9Th3(CdIr)4
_symmetry_space_group_name_H-M   'P 1'
_cell_length_a   9.64216131
_cell_length_b   9.64312201
_cell_length_c   9.64312346
_cell_angle_alpha   59.84161583
_cell_angle_beta   59.82079197
_cell_angle_gamma   59.82080320
_symmetry_Int_Tables_number   1
_chemical_formula_structural   Er4Tm9Th3(CdIr)4
_chemical_formula_sum   'Er4 Tm9 Th3 Cd4 Ir4'
_cell_volume   631.52913833
_cell_formula_units_Z   1
loop_
 _symmetry_equiv_pos_site_id
 _symmetry_equiv_pos_as_xyz
  1  'x, y, z'
loop_
 _atom_site_type_symbol
 _atom_site_label
 _atom_site_symmetry_multiplicity
 _atom_site_fract_x
 _atom_site_fract_y
 _atom_site_fract_z
 _atom_site_occupancy
  Er  Er0  1  0.816565  0.184770  0.816196  1
  Er  Er1  1  0.186252  0.813771  0.186722  1
  Er  Er2  1  0.816565  0.816196  0.184770  1
  Er  Er3  1  0.186252  0.186722  0.813771  1
  Tm  Tm4  1  0.197452  0.601456  0.601456  1
  Tm  Tm5  1  0.060890  0.439432  0.439432  1
  Tm  Tm6  1  0.435337  0.063921  0.063921  1
  Tm  Tm7  1  0.436847  0.062351  0.437299  1
  Tm  Tm8  1  0.062498  0.437464  0.060821  1
  Tm  Tm9  1  0.436847  0.437299  0.062351  1
  Tm  Tm10  1  0.062498  0.060821  0.437464  1
  Tm  Tm11  1  0.187029  0.814084  0.814084  1
  Tm  Tm12  1  0.815768  0.184835  0.184835  1
  Th  Th13  1  0.597752  0.599885  0.599885  1
  Th  Th14  1  0.599225  0.601478  0.199304  1
  Th  Th15  1  0.599225  0.199304  0.601478  1
  Cd  Cd16  1  0.835788  0.830406  0.830406  1
  Cd  Cd17  1  0.834953  0.830885  0.501830  1
  Cd  Cd18  1  0.834953  0.501830  0.830885  1
  Cd  Cd19  1  0.499596  0.832663  0.832663  1
  Ir  Ir20  1  0.391467  0.392577  0.392577  1
  Ir  Ir21  1  0.391557  0.392182  0.823587  1
  Ir  Ir22  1  0.391557  0.823587  0.392182  1
  Ir  Ir23  1  0.823124  0.392079  0.392079  1
