# generated using pymatgen
data_Pr2Dy6Si12Ir3Rh
_symmetry_space_group_name_H-M   'P 1'
_cell_length_a   8.20740200
_cell_length_b   8.20740182
_cell_length_c   8.07606900
_cell_angle_alpha   90.00000000
_cell_angle_beta   90.00000000
_cell_angle_gamma   119.99999267
_symmetry_Int_Tables_number   1
_chemical_formula_structural   Pr2Dy6Si12Ir3Rh
_chemical_formula_sum   'Pr2 Dy6 Si12 Ir3 Rh1'
_cell_volume   471.13143956
_cell_formula_units_Z   1
loop_
 _symmetry_equiv_pos_site_id
 _symmetry_equiv_pos_as_xyz
  1  'x, y, z'
loop_
 _atom_site_type_symbol
 _atom_site_label
 _atom_site_symmetry_multiplicity
 _atom_site_fract_x
 _atom_site_fract_y
 _atom_site_fract_z
 _atom_site_occupancy
  Pr  Pr0  1  0.000000  0.000000  0.248756  1
  Pr  Pr1  1  0.000000  0.000000  0.750203  1
  Dy  Dy2  1  0.509193  0.490807  0.250353  1
  Dy  Dy3  1  0.509193  0.018385  0.250353  1
  Dy  Dy4  1  0.981615  0.490807  0.250353  1
  Dy  Dy5  1  0.491548  0.508452  0.749751  1
  Dy  Dy6  1  0.491548  0.983095  0.749751  1
  Dy  Dy7  1  0.016905  0.508452  0.749751  1
  Si  Si8  1  0.168249  0.831751  0.500732  1
  Si  Si9  1  0.168249  0.336500  0.500732  1
  Si  Si10  1  0.663500  0.831751  0.500732  1
  Si  Si11  1  0.831854  0.168146  0.498699  1
  Si  Si12  1  0.831854  0.663705  0.498699  1
  Si  Si13  1  0.336295  0.168146  0.498699  1
  Si  Si14  1  0.831916  0.168084  0.001269  1
  Si  Si15  1  0.831916  0.663831  0.001269  1
  Si  Si16  1  0.336169  0.168084  0.001269  1
  Si  Si17  1  0.169035  0.830965  0.998004  1
  Si  Si18  1  0.169035  0.338071  0.998004  1
  Si  Si19  1  0.661929  0.830965  0.998004  1
  Ir  Ir20  1  0.333333  0.666667  0.467851  1
  Ir  Ir21  1  0.666667  0.333333  0.533476  1
  Ir  Ir22  1  0.666667  0.333333  0.965088  1
  Rh  Rh23  1  0.333333  0.666667  0.038202  1
