# generated using pymatgen
data_NbCr2B6Ru4W5
_symmetry_space_group_name_H-M   'P 1'
_cell_length_a   3.05374000
_cell_length_b   6.36992700
_cell_length_c   10.71371800
_cell_angle_alpha   90.00000000
_cell_angle_beta   90.00000000
_cell_angle_gamma   90.00000000
_symmetry_Int_Tables_number   1
_chemical_formula_structural   NbCr2B6Ru4W5
_chemical_formula_sum   'Nb1 Cr2 B6 Ru4 W5'
_cell_volume   208.40432330
_cell_formula_units_Z   1
loop_
 _symmetry_equiv_pos_site_id
 _symmetry_equiv_pos_as_xyz
  1  'x, y, z'
loop_
 _atom_site_type_symbol
 _atom_site_label
 _atom_site_symmetry_multiplicity
 _atom_site_fract_x
 _atom_site_fract_y
 _atom_site_fract_z
 _atom_site_occupancy
  Nb  Nb0  1  0.000000  0.644407  0.750000  1
  Cr  Cr1  1  0.500000  0.691595  0.250000  1
  Cr  Cr2  1  0.500000  0.308294  0.750000  1
  B  B3  1  0.000000  0.933211  0.250000  1
  B  B4  1  0.000000  0.070366  0.750000  1
  B  B5  1  0.500000  0.444080  0.087498  1
  B  B6  1  0.500000  0.552133  0.917365  1
  B  B7  1  0.500000  0.444080  0.412502  1
  B  B8  1  0.500000  0.552133  0.582635  1
  Ru  Ru9  1  0.500000  0.063129  0.123222  1
  Ru  Ru10  1  0.500000  0.938231  0.879201  1
  Ru  Ru11  1  0.500000  0.063129  0.376778  1
  Ru  Ru12  1  0.500000  0.938231  0.620799  1
  W  W13  1  0.000000  0.288977  0.953266  1
  W  W14  1  0.000000  0.709093  0.048321  1
  W  W15  1  0.000000  0.288977  0.546734  1
  W  W16  1  0.000000  0.709093  0.451679  1
  W  W17  1  0.000000  0.360838  0.250000  1
