# generated using pymatgen
data_Mn4Cu5Pd4Pt3
_symmetry_space_group_name_H-M   'P 1'
_cell_length_a   6.66367555
_cell_length_b   6.65483183
_cell_length_c   6.66367557
_cell_angle_alpha   107.32450254
_cell_angle_beta   114.57535632
_cell_angle_gamma   106.68461636
_symmetry_Int_Tables_number   1
_chemical_formula_structural   Mn4Cu5Pd4Pt3
_chemical_formula_sum   'Mn4 Cu5 Pd4 Pt3'
_cell_volume   225.98306818
_cell_formula_units_Z   1
loop_
 _symmetry_equiv_pos_site_id
 _symmetry_equiv_pos_as_xyz
  1  'x, y, z'
loop_
 _atom_site_type_symbol
 _atom_site_label
 _atom_site_symmetry_multiplicity
 _atom_site_fract_x
 _atom_site_fract_y
 _atom_site_fract_z
 _atom_site_occupancy
  Mn  Mn0  1  0.248238  0.249595  0.499782  1
  Mn  Mn1  1  0.749044  0.750431  0.497756  1
  Mn  Mn2  1  0.252674  0.750431  0.001387  1
  Mn  Mn3  1  0.749815  0.249595  0.001357  1
  Cu  Cu4  1  0.500444  0.247100  0.247220  1
  Cu  Cu5  1  0.499253  0.752774  0.752572  1
  Cu  Cu6  1  0.999881  0.247100  0.746657  1
  Cu  Cu7  1  0.250182  0.999766  0.749582  1
  Cu  Cu8  1  0.000202  0.752774  0.253520  1
  Pd  Pd9  1  0.750630  0.000239  0.249610  1
  Pd  Pd10  1  0.249341  0.499222  0.249880  1
  Pd  Pd11  1  0.750405  0.500814  0.750410  1
  Pd  Pd12  1  0.003843  0.999084  0.995241  1
  Pt  Pt13  1  0.496330  0.000915  0.504585  1
  Pt  Pt14  1  0.003845  0.509023  0.505178  1
  Pt  Pt15  1  0.495874  0.491137  0.995262  1
