# generated using pymatgen
data_Tb20Cd6NiRu
_symmetry_space_group_name_H-M   'P 1'
_cell_length_a   9.62195200
_cell_length_b   9.62195262
_cell_length_c   9.89445800
_cell_angle_alpha   90.00000000
_cell_angle_beta   90.00000000
_cell_angle_gamma   120.00000476
_symmetry_Int_Tables_number   1
_chemical_formula_structural   Tb20Cd6NiRu
_chemical_formula_sum   'Tb20 Cd6 Ni1 Ru1'
_cell_volume   793.32112694
_cell_formula_units_Z   1
loop_
 _symmetry_equiv_pos_site_id
 _symmetry_equiv_pos_as_xyz
  1  'x, y, z'
loop_
 _atom_site_type_symbol
 _atom_site_label
 _atom_site_symmetry_multiplicity
 _atom_site_fract_x
 _atom_site_fract_y
 _atom_site_fract_z
 _atom_site_occupancy
  Tb  Tb0  1  0.000000  0.000000  0.500264  1
  Tb  Tb1  1  0.000000  0.000000  0.999736  1
  Tb  Tb2  1  0.211174  0.788826  0.437535  1
  Tb  Tb3  1  0.211174  0.422349  0.437535  1
  Tb  Tb4  1  0.577651  0.788826  0.437535  1
  Tb  Tb5  1  0.790497  0.209503  0.560206  1
  Tb  Tb6  1  0.790497  0.580993  0.560206  1
  Tb  Tb7  1  0.419007  0.209503  0.560206  1
  Tb  Tb8  1  0.790497  0.209503  0.939794  1
  Tb  Tb9  1  0.790497  0.580993  0.939794  1
  Tb  Tb10  1  0.419007  0.209503  0.939794  1
  Tb  Tb11  1  0.211174  0.788826  0.062465  1
  Tb  Tb12  1  0.211174  0.422349  0.062465  1
  Tb  Tb13  1  0.577651  0.788826  0.062465  1
  Tb  Tb14  1  0.542845  0.457155  0.250000  1
  Tb  Tb15  1  0.542845  0.085690  0.250000  1
  Tb  Tb16  1  0.914310  0.457155  0.250000  1
  Tb  Tb17  1  0.458093  0.541907  0.750000  1
  Tb  Tb18  1  0.458093  0.916187  0.750000  1
  Tb  Tb19  1  0.083813  0.541907  0.750000  1
  Cd  Cd20  1  0.885195  0.114805  0.250000  1
  Cd  Cd21  1  0.885195  0.770392  0.250000  1
  Cd  Cd22  1  0.229608  0.114805  0.250000  1
  Cd  Cd23  1  0.114763  0.885237  0.750000  1
  Cd  Cd24  1  0.114763  0.229527  0.750000  1
  Cd  Cd25  1  0.770473  0.885237  0.750000  1
  Ni  Ni26  1  0.333333  0.666667  0.250000  1
  Ru  Ru27  1  0.666667  0.333333  0.750000  1
