# generated using pymatgen
data_TbY9(IrRh)2
_symmetry_space_group_name_H-M   'P 1'
_cell_length_a   6.49953895
_cell_length_b   7.22656258
_cell_length_c   8.64161990
_cell_angle_alpha   96.59728407
_cell_angle_beta   112.08986524
_cell_angle_gamma   89.99999209
_symmetry_Int_Tables_number   1
_chemical_formula_structural   TbY9(IrRh)2
_chemical_formula_sum   'Tb1 Y9 Ir2 Rh2'
_cell_volume   373.19444988
_cell_formula_units_Z   1
loop_
 _symmetry_equiv_pos_site_id
 _symmetry_equiv_pos_as_xyz
  1  'x, y, z'
loop_
 _atom_site_type_symbol
 _atom_site_label
 _atom_site_symmetry_multiplicity
 _atom_site_fract_x
 _atom_site_fract_y
 _atom_site_fract_z
 _atom_site_occupancy
  Tb  Tb0  1  0.571968  0.250000  0.000000  1
  Y  Y1  1  0.978372  0.915931  0.186082  1
  Y  Y2  1  0.792289  0.584069  0.813918  1
  Y  Y3  1  0.025189  0.083388  0.815627  1
  Y  Y4  1  0.209563  0.416612  0.184373  1
  Y  Y5  1  0.651589  0.817338  0.438728  1
  Y  Y6  1  0.212861  0.682662  0.561272  1
  Y  Y7  1  0.346878  0.184301  0.559407  1
  Y  Y8  1  0.787471  0.315699  0.440593  1
  Y  Y9  1  0.426009  0.750000  0.000000  1
  Ir  Ir10  1  0.176004  0.425809  0.778050  1
  Ir  Ir11  1  0.397953  0.074191  0.221950  1
  Rh  Rh12  1  0.821792  0.571851  0.219727  1
  Rh  Rh13  1  0.602065  0.928149  0.780273  1
