# generated using pymatgen
data_Ho16Mg3HgPd4
_symmetry_space_group_name_H-M   'P 1'
_cell_length_a   9.66241003
_cell_length_b   9.72117438
_cell_length_c   9.72117500
_cell_angle_alpha   60.00000129
_cell_angle_beta   59.79861392
_cell_angle_gamma   59.79860676
_symmetry_Int_Tables_number   1
_chemical_formula_structural   Ho16Mg3HgPd4
_chemical_formula_sum   'Ho16 Mg3 Hg1 Pd4'
_cell_volume   643.69367476
_cell_formula_units_Z   1
loop_
 _symmetry_equiv_pos_site_id
 _symmetry_equiv_pos_as_xyz
  1  'x, y, z'
loop_
 _atom_site_type_symbol
 _atom_site_label
 _atom_site_symmetry_multiplicity
 _atom_site_fract_x
 _atom_site_fract_y
 _atom_site_fract_z
 _atom_site_occupancy
  Ho  Ho0  1  0.351024  0.352947  0.352947  1
  Ho  Ho1  1  0.351024  0.352947  0.943082  1
  Ho  Ho2  1  0.351024  0.943082  0.352947  1
  Ho  Ho3  1  0.945934  0.351355  0.351355  1
  Ho  Ho4  1  0.813147  0.187323  0.187323  1
  Ho  Ho5  1  0.189809  0.811261  0.811261  1
  Ho  Ho6  1  0.189809  0.811261  0.187670  1
  Ho  Ho7  1  0.813147  0.187323  0.812209  1
  Ho  Ho8  1  0.189809  0.187670  0.811261  1
  Ho  Ho9  1  0.813147  0.812209  0.187323  1
  Ho  Ho10  1  0.938044  0.565988  0.565988  1
  Ho  Ho11  1  0.568298  0.932268  0.932268  1
  Ho  Ho12  1  0.568298  0.932268  0.567166  1
  Ho  Ho13  1  0.938044  0.565988  0.929981  1
  Ho  Ho14  1  0.568298  0.567166  0.932268  1
  Ho  Ho15  1  0.938044  0.929981  0.565988  1
  Mg  Mg16  1  0.575353  0.581101  0.581101  1
  Mg  Mg17  1  0.575353  0.581101  0.262445  1
  Mg  Mg18  1  0.575353  0.262445  0.581101  1
  Hg  Hg19  1  0.246675  0.584441  0.584441  1
  Pd  Pd20  1  0.144581  0.143883  0.143883  1
  Pd  Pd21  1  0.144581  0.143883  0.567655  1
  Pd  Pd22  1  0.144581  0.567655  0.143883  1
  Pd  Pd23  1  0.566627  0.144458  0.144458  1
