# generated using pymatgen
data_Nd3GeAuSe7
_symmetry_space_group_name_H-M   'P 1'
_cell_length_a   6.18788900
_cell_length_b   10.72559188
_cell_length_c   10.72559200
_cell_angle_alpha   59.99999962
_cell_angle_beta   90.00000000
_cell_angle_gamma   90.00000000
_symmetry_Int_Tables_number   1
_chemical_formula_structural   Nd3GeAuSe7
_chemical_formula_sum   'Nd6 Ge2 Au2 Se14'
_cell_volume   616.47530552
_cell_formula_units_Z   2
loop_
 _symmetry_equiv_pos_site_id
 _symmetry_equiv_pos_as_xyz
  1  'x, y, z'
loop_
 _atom_site_type_symbol
 _atom_site_label
 _atom_site_symmetry_multiplicity
 _atom_site_fract_x
 _atom_site_fract_y
 _atom_site_fract_z
 _atom_site_occupancy
  Nd  Nd0  1  0.755342  0.644573  0.127179  1
  Nd  Nd1  1  0.755342  0.127178  0.228249  1
  Nd  Nd2  1  0.255341  0.771752  0.355427  1
  Nd  Nd3  1  0.755342  0.228248  0.644574  1
  Nd  Nd4  1  0.255341  0.872821  0.771751  1
  Nd  Nd5  1  0.255341  0.355427  0.872822  1
  Ge  Ge6  1  0.170115  0.333333  0.333333  1
  Ge  Ge7  1  0.670116  0.666667  0.666667  1
  Au  Au8  1  0.295677  0.000000  0.000000  1
  Au  Au9  1  0.795677  0.000000  0.000000  1
  Se  Se10  1  0.276097  0.728176  0.098213  1
  Se  Se11  1  0.006958  0.417459  0.100538  1
  Se  Se12  1  0.276097  0.098213  0.173611  1
  Se  Se13  1  0.776096  0.826389  0.271824  1
  Se  Se14  1  0.551974  0.333333  0.333333  1
  Se  Se15  1  0.006958  0.482003  0.417458  1
  Se  Se16  1  0.006958  0.100539  0.482001  1
  Se  Se17  1  0.506957  0.899460  0.517998  1
  Se  Se18  1  0.506957  0.517998  0.582541  1
  Se  Se19  1  0.051974  0.666667  0.666667  1
  Se  Se20  1  0.276097  0.173610  0.728177  1
  Se  Se21  1  0.776096  0.901787  0.826389  1
  Se  Se22  1  0.506957  0.582541  0.899461  1
  Se  Se23  1  0.776096  0.271824  0.901787  1
