# generated using pymatgen
data_Hf2Zr2SiP3Rh4
_symmetry_space_group_name_H-M   'P 1'
_cell_length_a   3.82906100
_cell_length_b   6.51685299
_cell_length_c   7.47278800
_cell_angle_alpha   89.71936456
_cell_angle_beta   90.00000000
_cell_angle_gamma   90.00000000
_symmetry_Int_Tables_number   1
_chemical_formula_structural   Hf2Zr2SiP3Rh4
_chemical_formula_sum   'Hf2 Zr2 Si1 P3 Rh4'
_cell_volume   186.46943769
_cell_formula_units_Z   1
loop_
 _symmetry_equiv_pos_site_id
 _symmetry_equiv_pos_as_xyz
  1  'x, y, z'
loop_
 _atom_site_type_symbol
 _atom_site_label
 _atom_site_symmetry_multiplicity
 _atom_site_fract_x
 _atom_site_fract_y
 _atom_site_fract_z
 _atom_site_occupancy
  Hf  Hf0  1  0.250000  0.525873  0.177035  1
  Hf  Hf1  1  0.250000  0.031002  0.319488  1
  Zr  Zr2  1  0.750000  0.473921  0.820286  1
  Zr  Zr3  1  0.750000  0.974235  0.683207  1
  Si  Si4  1  0.750000  0.734086  0.379801  1
  P  P5  1  0.250000  0.760788  0.876477  1
  P  P6  1  0.750000  0.239147  0.122654  1
  P  P7  1  0.250000  0.264541  0.621736  1
  Rh  Rh8  1  0.750000  0.853438  0.066511  1
  Rh  Rh9  1  0.250000  0.146626  0.940683  1
  Rh  Rh10  1  0.750000  0.352393  0.434038  1
  Rh  Rh11  1  0.250000  0.643951  0.558086  1
