# generated using pymatgen
data_Th2Be23Au3
_symmetry_space_group_name_H-M   'P 1'
_cell_length_a   7.52946310
_cell_length_b   7.53131123
_cell_length_c   7.63125012
_cell_angle_alpha   119.55580821
_cell_angle_beta   89.98427159
_cell_angle_gamma   119.98997262
_symmetry_Int_Tables_number   1
_chemical_formula_structural   Th2Be23Au3
_chemical_formula_sum   'Th2 Be23 Au3'
_cell_volume   308.12123321
_cell_formula_units_Z   1
loop_
 _symmetry_equiv_pos_site_id
 _symmetry_equiv_pos_as_xyz
  1  'x, y, z'
loop_
 _atom_site_type_symbol
 _atom_site_label
 _atom_site_symmetry_multiplicity
 _atom_site_fract_x
 _atom_site_fract_y
 _atom_site_fract_z
 _atom_site_occupancy
  Th  Th0  1  0.756429  0.512833  0.269416  1
  Th  Th1  1  0.246970  0.494036  0.740946  1
  Be  Be2  1  0.997163  0.994287  0.991507  1
  Be  Be3  1  0.437042  0.009883  0.233368  1
  Be  Be4  1  0.223663  0.660793  0.233535  1
  Be  Be5  1  0.572575  0.796117  0.233325  1
  Be  Be6  1  0.291680  0.231228  0.304803  1
  Be  Be7  1  0.073518  0.365064  0.304635  1
  Be  Be8  1  0.939785  0.013572  0.305129  1
  Be  Be9  1  0.217078  0.004442  0.444267  1
  Be  Be10  1  0.439957  0.656992  0.444449  1
  Be  Be11  1  0.787560  0.227287  0.444334  1
  Be  Be12  1  0.501621  0.003191  0.504902  1
  Be  Be13  1  0.562063  0.348588  0.564455  1
  Be  Be14  1  0.215853  0.777975  0.564541  1
  Be  Be15  1  0.786636  0.002710  0.564700  1
  Be  Be16  1  0.054675  0.989634  0.696244  1
  Be  Be17  1  0.706537  0.761170  0.696371  1
  Be  Be18  1  0.935107  0.641829  0.696481  1
  Be  Be19  1  0.559623  0.995389  0.770942  1
  Be  Be20  1  0.436053  0.211723  0.771099  1
  Be  Be21  1  0.775377  0.334878  0.770849  1
  Be  Be22  1  0.939293  0.240788  0.927935  1
  Be  Be23  1  0.687276  0.626324  0.927545  1
  Be  Be24  1  0.301314  0.988732  0.927809  1
  Au  Au25  1  0.697840  0.005657  0.055406  1
  Au  Au26  1  0.307854  0.357555  0.055630  1
  Au  Au27  1  0.049456  0.747312  0.055372  1
