# generated using pymatgen
data_Ac2DyY(AsPt)4
_symmetry_space_group_name_H-M   'P 1'
_cell_length_a   4.36969900
_cell_length_b   4.36969932
_cell_length_c   16.36110100
_cell_angle_alpha   90.00000000
_cell_angle_beta   90.00000000
_cell_angle_gamma   119.99999000
_symmetry_Int_Tables_number   1
_chemical_formula_structural   Ac2DyY(AsPt)4
_chemical_formula_sum   'Ac2 Dy1 Y1 As4 Pt4'
_cell_volume   270.54921462
_cell_formula_units_Z   1
loop_
 _symmetry_equiv_pos_site_id
 _symmetry_equiv_pos_as_xyz
  1  'x, y, z'
loop_
 _atom_site_type_symbol
 _atom_site_label
 _atom_site_symmetry_multiplicity
 _atom_site_fract_x
 _atom_site_fract_y
 _atom_site_fract_z
 _atom_site_occupancy
  Ac  Ac0  1  0.000000  0.000000  0.500161  1
  Ac  Ac1  1  0.000000  0.000000  0.999838  1
  Dy  Dy2  1  0.000000  0.000000  0.749990  1
  Y  Y3  1  0.000000  0.000000  0.250006  1
  As  As4  1  0.333333  0.666667  0.873507  1
  As  As5  1  0.666667  0.333333  0.126563  1
  As  As6  1  0.666667  0.333333  0.373444  1
  As  As7  1  0.333333  0.666667  0.626492  1
  Pt  Pt8  1  0.333333  0.666667  0.355502  1
  Pt  Pt9  1  0.666667  0.333333  0.645617  1
  Pt  Pt10  1  0.666667  0.333333  0.854395  1
  Pt  Pt11  1  0.333333  0.666667  0.144486  1
