# generated using pymatgen
data_Ho4ErLu3(ReB6)4
_symmetry_space_group_name_H-M   'P 1'
_cell_length_a   3.64577500
_cell_length_b   9.10861702
_cell_length_c   11.48833002
_cell_angle_alpha   90.00744936
_cell_angle_beta   90.00000000
_cell_angle_gamma   90.00000000
_symmetry_Int_Tables_number   1
_chemical_formula_structural   Ho4ErLu3(ReB6)4
_chemical_formula_sum   'Ho4 Er1 Lu3 Re4 B24'
_cell_volume   381.50409505
_cell_formula_units_Z   1
loop_
 _symmetry_equiv_pos_site_id
 _symmetry_equiv_pos_as_xyz
  1  'x, y, z'
loop_
 _atom_site_type_symbol
 _atom_site_label
 _atom_site_symmetry_multiplicity
 _atom_site_fract_x
 _atom_site_fract_y
 _atom_site_fract_z
 _atom_site_occupancy
  Ho  Ho0  1  0.000000  0.323339  0.413879  1
  Ho  Ho1  1  0.000000  0.676615  0.586157  1
  Ho  Ho2  1  0.000000  0.823231  0.086073  1
  Ho  Ho3  1  0.000000  0.176704  0.913864  1
  Er  Er4  1  0.000000  0.943791  0.370547  1
  Lu  Lu5  1  0.000000  0.056456  0.629992  1
  Lu  Lu6  1  0.000000  0.443739  0.129549  1
  Lu  Lu7  1  0.000000  0.556286  0.870397  1
  Re  Re8  1  0.000000  0.638879  0.320069  1
  Re  Re9  1  0.000000  0.360615  0.679958  1
  Re  Re10  1  0.000000  0.139794  0.179473  1
  Re  Re11  1  0.000000  0.860643  0.820138  1
  B  B12  1  0.500000  0.553399  0.432882  1
  B  B13  1  0.500000  0.446342  0.567175  1
  B  B14  1  0.500000  0.053645  0.066989  1
  B  B15  1  0.500000  0.946373  0.932823  1
  B  B16  1  0.500000  0.750132  0.418772  1
  B  B17  1  0.500000  0.249077  0.581267  1
  B  B18  1  0.500000  0.251073  0.081168  1
  B  B19  1  0.500000  0.749004  0.918753  1
  B  B20  1  0.500000  0.792752  0.265158  1
  B  B21  1  0.500000  0.206593  0.734609  1
  B  B22  1  0.500000  0.293655  0.234539  1
  B  B23  1  0.500000  0.706553  0.765411  1
  B  B24  1  0.500000  0.630284  0.184644  1
  B  B25  1  0.500000  0.369538  0.815225  1
  B  B26  1  0.500000  0.131121  0.314884  1
  B  B27  1  0.500000  0.869494  0.684842  1
  B  B28  1  0.500000  0.982153  0.212126  1
  B  B29  1  0.500000  0.018157  0.787408  1
  B  B30  1  0.500000  0.481704  0.287323  1
  B  B31  1  0.500000  0.518199  0.712605  1
  B  B32  1  0.500000  0.598324  0.027332  1
  B  B33  1  0.500000  0.401674  0.972623  1
  B  B34  1  0.500000  0.099221  0.473187  1
  B  B35  1  0.500000  0.901439  0.528160  1
