# generated using pymatgen
data_Ca4TlPd4Pb
_symmetry_space_group_name_H-M   'P 1'
_cell_length_a   5.89920713
_cell_length_b   5.89920834
_cell_length_c   8.32789500
_cell_angle_alpha   76.81938623
_cell_angle_beta   76.81938346
_cell_angle_gamma   58.20655271
_symmetry_Int_Tables_number   1
_chemical_formula_structural   Ca4TlPd4Pb
_chemical_formula_sum   'Ca4 Tl1 Pd4 Pb1'
_cell_volume   237.79398491
_cell_formula_units_Z   1
loop_
 _symmetry_equiv_pos_site_id
 _symmetry_equiv_pos_as_xyz
  1  'x, y, z'
loop_
 _atom_site_type_symbol
 _atom_site_label
 _atom_site_symmetry_multiplicity
 _atom_site_fract_x
 _atom_site_fract_y
 _atom_site_fract_z
 _atom_site_occupancy
  Ca  Ca0  1  0.500528  0.798739  0.349605  1
  Ca  Ca1  1  0.201261  0.499472  0.150395  1
  Ca  Ca2  1  0.500114  0.200073  0.649139  1
  Ca  Ca3  1  0.799927  0.499886  0.850861  1
  Tl  Tl4  1  0.166848  0.833152  0.750000  1
  Pd  Pd5  1  0.724976  0.003213  0.998861  1
  Pd  Pd6  1  0.996787  0.275024  0.501139  1
  Pd  Pd7  1  0.273467  0.995916  0.997668  1
  Pd  Pd8  1  0.004084  0.726533  0.502332  1
  Pb  Pb9  1  0.832013  0.167987  0.250000  1
