# generated using pymatgen
data_La2Y14Cd4IrPd3
_symmetry_space_group_name_H-M   'P 1'
_cell_length_a   9.80843711
_cell_length_b   9.76766818
_cell_length_c   9.72878600
_cell_angle_alpha   60.13158668
_cell_angle_beta   60.26826136
_cell_angle_gamma   60.37035999
_symmetry_Int_Tables_number   1
_chemical_formula_structural   La2Y14Cd4IrPd3
_chemical_formula_sum   'La2 Y14 Cd4 Ir1 Pd3'
_cell_volume   662.89864023
_cell_formula_units_Z   1
loop_
 _symmetry_equiv_pos_site_id
 _symmetry_equiv_pos_as_xyz
  1  'x, y, z'
loop_
 _atom_site_type_symbol
 _atom_site_label
 _atom_site_symmetry_multiplicity
 _atom_site_fract_x
 _atom_site_fract_y
 _atom_site_fract_z
 _atom_site_occupancy
  La  La0  1  0.354084  0.348555  0.350021  1
  La  La1  1  0.354084  0.348555  0.947340  1
  Y  Y2  1  0.359849  0.936727  0.351712  1
  Y  Y3  1  0.928299  0.359300  0.356201  1
  Y  Y4  1  0.809373  0.188241  0.187740  1
  Y  Y5  1  0.190840  0.811515  0.809855  1
  Y  Y6  1  0.190840  0.811515  0.187790  1
  Y  Y7  1  0.809373  0.188241  0.814645  1
  Y  Y8  1  0.189115  0.186059  0.812413  1
  Y  Y9  1  0.807108  0.816404  0.188244  1
  Y  Y10  1  0.936887  0.565637  0.565530  1
  Y  Y11  1  0.567858  0.935972  0.933611  1
  Y  Y12  1  0.567858  0.935972  0.562560  1
  Y  Y13  1  0.936887  0.565637  0.931946  1
  Y  Y14  1  0.569902  0.564761  0.932668  1
  Y  Y15  1  0.937760  0.936642  0.562799  1
  Cd  Cd16  1  0.583788  0.584259  0.578935  1
  Cd  Cd17  1  0.583788  0.584259  0.253019  1
  Cd  Cd18  1  0.586570  0.249931  0.581750  1
  Cd  Cd19  1  0.252139  0.585655  0.581103  1
  Ir  Ir20  1  0.573207  0.139834  0.143480  1
  Pd  Pd21  1  0.137992  0.141232  0.152654  1
  Pd  Pd22  1  0.137992  0.141232  0.568121  1
  Pd  Pd23  1  0.134410  0.573866  0.145862  1
