# generated using pymatgen
data_Er3Sc2InSb2
_symmetry_space_group_name_H-M   'P 1'
_cell_length_a   8.76904377
_cell_length_b   8.75940093
_cell_length_c   6.19117800
_cell_angle_alpha   90.00000000
_cell_angle_beta   90.00000000
_cell_angle_gamma   119.96362243
_symmetry_Int_Tables_number   1
_chemical_formula_structural   Er3Sc2InSb2
_chemical_formula_sum   'Er6 Sc4 In2 Sb4'
_cell_volume   411.99281799
_cell_formula_units_Z   2
loop_
 _symmetry_equiv_pos_site_id
 _symmetry_equiv_pos_as_xyz
  1  'x, y, z'
loop_
 _atom_site_type_symbol
 _atom_site_label
 _atom_site_symmetry_multiplicity
 _atom_site_fract_x
 _atom_site_fract_y
 _atom_site_fract_z
 _atom_site_occupancy
  Er  Er0  1  0.001891  0.758871  0.750000  1
  Er  Er1  1  0.001891  0.243019  0.250000  1
  Er  Er2  1  0.756151  0.757777  0.250000  1
  Er  Er3  1  0.756151  0.998374  0.750000  1
  Er  Er4  1  0.242074  0.238688  0.750000  1
  Er  Er5  1  0.242074  0.003385  0.250000  1
  Sc  Sc6  1  0.333655  0.666828  0.500000  1
  Sc  Sc7  1  0.665557  0.332778  0.000000  1
  Sc  Sc8  1  0.665557  0.332778  0.500000  1
  Sc  Sc9  1  0.333655  0.666828  0.000000  1
  In  In10  1  0.397747  0.998731  0.750000  1
  In  In11  1  0.397747  0.399016  0.250000  1
  Sb  Sb12  1  0.999644  0.605207  0.250000  1
  Sb  Sb13  1  0.999644  0.394437  0.750000  1
  Sb  Sb14  1  0.603281  0.603020  0.750000  1
  Sb  Sb15  1  0.603281  0.000261  0.250000  1
