# generated using pymatgen
data_La2PtBr
_symmetry_space_group_name_H-M   'P 1'
_cell_length_a   8.27917929
_cell_length_b   8.27917910
_cell_length_c   8.27917957
_cell_angle_alpha   30.07713345
_cell_angle_beta   30.07713493
_cell_angle_gamma   30.07713816
_symmetry_Int_Tables_number   1
_chemical_formula_structural   La2PtBr
_chemical_formula_sum   'La2 Pt1 Br1'
_cell_volume   126.27014140
_cell_formula_units_Z   1
loop_
 _symmetry_equiv_pos_site_id
 _symmetry_equiv_pos_as_xyz
  1  'x, y, z'
loop_
 _atom_site_type_symbol
 _atom_site_label
 _atom_site_symmetry_multiplicity
 _atom_site_fract_x
 _atom_site_fract_y
 _atom_site_fract_z
 _atom_site_occupancy
  La  La0  1  0.232230  0.232230  0.232230  1
  La  La1  1  0.767770  0.767770  0.767770  1
  Pt  Pt2  1  0.500000  0.500000  0.500000  1
  Br  Br3  1  0.000000  0.000000  0.000000  1
