# generated using pymatgen
data_V5GaAs2
_symmetry_space_group_name_H-M   'P 1'
_cell_length_a   4.86622173
_cell_length_b   7.16206255
_cell_length_c   7.16206232
_cell_angle_alpha   83.37266325
_cell_angle_beta   70.14007062
_cell_angle_gamma   70.14005524
_symmetry_Int_Tables_number   1
_chemical_formula_structural   V5GaAs2
_chemical_formula_sum   'V10 Ga2 As4'
_cell_volume   220.80536362
_cell_formula_units_Z   2
loop_
 _symmetry_equiv_pos_site_id
 _symmetry_equiv_pos_as_xyz
  1  'x, y, z'
loop_
 _atom_site_type_symbol
 _atom_site_label
 _atom_site_symmetry_multiplicity
 _atom_site_fract_x
 _atom_site_fract_y
 _atom_site_fract_z
 _atom_site_occupancy
  V  V0  1  0.576361  0.692206  0.155073  1
  V  V1  1  0.768566  0.307793  0.155073  1
  V  V2  1  0.923640  0.844927  0.307793  1
  V  V3  1  0.268567  0.155073  0.307793  1
  V  V4  1  0.250002  0.500000  0.500000  1
  V  V5  1  0.750000  0.500000  0.500000  1
  V  V6  1  0.076362  0.155073  0.692206  1
  V  V7  1  0.731435  0.844927  0.692206  1
  V  V8  1  0.231434  0.692206  0.844927  1
  V  V9  1  0.423639  0.307793  0.844927  1
  Ga  Ga10  1  0.250000  0.000000  0.000000  1
  Ga  Ga11  1  0.749999  0.000000  0.000000  1
  As  As12  1  0.165763  0.500000  0.168476  1
  As  As13  1  0.334238  0.831524  0.500000  1
  As  As14  1  0.665762  0.168476  0.500000  1
  As  As15  1  0.834239  0.500000  0.831524  1
