# generated using pymatgen
data_HgPt4Pb3O13
_symmetry_space_group_name_H-M   'P 1'
_cell_length_a   7.37078062
_cell_length_b   7.36818653
_cell_length_c   7.36818800
_cell_angle_alpha   60.00000237
_cell_angle_beta   60.01164385
_cell_angle_gamma   60.01163064
_symmetry_Int_Tables_number   1
_chemical_formula_structural   HgPt4Pb3O13
_chemical_formula_sum   'Hg1 Pt4 Pb3 O13'
_cell_volume   283.00634587
_cell_formula_units_Z   1
loop_
 _symmetry_equiv_pos_site_id
 _symmetry_equiv_pos_as_xyz
  1  'x, y, z'
loop_
 _atom_site_type_symbol
 _atom_site_label
 _atom_site_symmetry_multiplicity
 _atom_site_fract_x
 _atom_site_fract_y
 _atom_site_fract_z
 _atom_site_occupancy
  Hg  Hg0  1  0.872677  0.375775  0.375775  1
  Pt  Pt1  1  0.877376  0.374092  0.874265  1
  Pt  Pt2  1  0.877376  0.874265  0.374092  1
  Pt  Pt3  1  0.877376  0.874265  0.874265  1
  Pt  Pt4  1  0.380141  0.873286  0.873286  1
  Pb  Pb5  1  0.368277  0.373670  0.373670  1
  Pb  Pb6  1  0.368277  0.373670  0.884385  1
  Pb  Pb7  1  0.368277  0.884385  0.373670  1
  O  O8  1  0.207872  0.794133  0.794133  1
  O  O9  1  0.207872  0.794133  0.203861  1
  O  O10  1  0.549948  0.952485  0.952485  1
  O  O11  1  0.549948  0.952485  0.545082  1
  O  O12  1  0.955073  0.958968  0.542980  1
  O  O13  1  0.800049  0.788144  0.205904  1
  O  O14  1  0.549948  0.545082  0.952485  1
  O  O15  1  0.800049  0.205904  0.788144  1
  O  O16  1  0.800049  0.205904  0.205904  1
  O  O17  1  0.955073  0.542980  0.958968  1
  O  O18  1  0.955073  0.542980  0.542980  1
  O  O19  1  0.207872  0.203861  0.794133  1
  O  O20  1  0.471400  0.509533  0.509533  1
