# generated using pymatgen
data_Zr6InSn5Ir6
_symmetry_space_group_name_H-M   'P 1'
_cell_length_a   7.45330100
_cell_length_b   7.45615222
_cell_length_c   7.31092247
_cell_angle_alpha   90.09552130
_cell_angle_beta   90.00010229
_cell_angle_gamma   119.98806873
_symmetry_Int_Tables_number   1
_chemical_formula_structural   Zr6InSn5Ir6
_chemical_formula_sum   'Zr6 In1 Sn5 Ir6'
_cell_volume   351.89867573
_cell_formula_units_Z   1
loop_
 _symmetry_equiv_pos_site_id
 _symmetry_equiv_pos_as_xyz
  1  'x, y, z'
loop_
 _atom_site_type_symbol
 _atom_site_label
 _atom_site_symmetry_multiplicity
 _atom_site_fract_x
 _atom_site_fract_y
 _atom_site_fract_z
 _atom_site_occupancy
  Zr  Zr0  1  0.404421  0.015422  0.248478  1
  Zr  Zr1  1  0.982604  0.385524  0.248600  1
  Zr  Zr2  1  0.612670  0.600028  0.247120  1
  Zr  Zr3  1  0.388983  0.984567  0.751519  1
  Zr  Zr4  1  0.597088  0.614485  0.751398  1
  Zr  Zr5  1  0.012651  0.399968  0.752889  1
  In  In6  1  0.729801  0.000021  0.999999  1
  Sn  Sn7  1  0.999272  0.732905  0.999717  1
  Sn  Sn8  1  0.266387  0.267080  0.000290  1
  Sn  Sn9  1  0.000567  0.726142  0.500073  1
  Sn  Sn10  1  0.274437  0.273837  0.499930  1
  Sn  Sn11  1  0.729163  0.000022  0.499995  1
  Ir  Ir12  1  0.328932  0.663348  0.029958  1
  Ir  Ir13  1  0.665583  0.336656  0.969979  1
  Ir  Ir14  1  0.667280  0.332336  0.533416  1
  Ir  Ir15  1  0.334943  0.667662  0.466644  1
  Ir  Ir16  1  0.002577  0.000029  0.254605  1
  Ir  Ir17  1  0.002543  0.999964  0.745398  1
