# generated using pymatgen
data_NdTm4(In2Au)2
_symmetry_space_group_name_H-M   'P 1'
_cell_length_a   3.65061800
_cell_length_b   8.23310800
_cell_length_c   18.48074600
_cell_angle_alpha   90.00000000
_cell_angle_beta   90.00000000
_cell_angle_gamma   90.00000000
_symmetry_Int_Tables_number   1
_chemical_formula_structural   NdTm4(In2Au)2
_chemical_formula_sum   'Nd2 Tm8 In8 Au4'
_cell_volume   555.45604990
_cell_formula_units_Z   2
loop_
 _symmetry_equiv_pos_site_id
 _symmetry_equiv_pos_as_xyz
  1  'x, y, z'
loop_
 _atom_site_type_symbol
 _atom_site_label
 _atom_site_symmetry_multiplicity
 _atom_site_fract_x
 _atom_site_fract_y
 _atom_site_fract_z
 _atom_site_occupancy
  Nd  Nd0  1  0.000000  0.500000  0.500000  1
  Nd  Nd1  1  0.000000  0.000000  0.000000  1
  Tm  Tm2  1  0.000000  0.736290  0.282819  1
  Tm  Tm3  1  0.000000  0.263710  0.717181  1
  Tm  Tm4  1  0.000000  0.763710  0.782819  1
  Tm  Tm5  1  0.000000  0.236290  0.217181  1
  Tm  Tm6  1  0.000000  0.622209  0.080960  1
  Tm  Tm7  1  0.000000  0.377791  0.919040  1
  Tm  Tm8  1  0.000000  0.877791  0.580960  1
  Tm  Tm9  1  0.000000  0.122209  0.419040  1
  In  In10  1  0.500000  0.701669  0.932710  1
  In  In11  1  0.500000  0.298331  0.067290  1
  In  In12  1  0.500000  0.798331  0.432710  1
  In  In13  1  0.500000  0.201669  0.567290  1
  In  In14  1  0.500000  0.583553  0.650207  1
  In  In15  1  0.500000  0.416447  0.349793  1
  In  In16  1  0.500000  0.916447  0.150207  1
  In  In17  1  0.500000  0.083553  0.849793  1
  Au  Au18  1  0.500000  0.526737  0.196671  1
  Au  Au19  1  0.500000  0.473263  0.803329  1
  Au  Au20  1  0.500000  0.973263  0.696671  1
  Au  Au21  1  0.500000  0.026737  0.303329  1
