# generated using pymatgen
data_LiCa3Ag2Pb3
_symmetry_space_group_name_H-M   'P 1'
_cell_length_a   4.97985000
_cell_length_b   4.97984947
_cell_length_c   11.08621100
_cell_angle_alpha   90.00000000
_cell_angle_beta   90.00000000
_cell_angle_gamma   120.00000349
_symmetry_Int_Tables_number   1
_chemical_formula_structural   LiCa3Ag2Pb3
_chemical_formula_sum   'Li1 Ca3 Ag2 Pb3'
_cell_volume   238.09278415
_cell_formula_units_Z   1
loop_
 _symmetry_equiv_pos_site_id
 _symmetry_equiv_pos_as_xyz
  1  'x, y, z'
loop_
 _atom_site_type_symbol
 _atom_site_label
 _atom_site_symmetry_multiplicity
 _atom_site_fract_x
 _atom_site_fract_y
 _atom_site_fract_z
 _atom_site_occupancy
  Li  Li0  1  0.333333  0.666667  0.500000  1
  Ca  Ca1  1  0.000000  0.000000  0.334233  1
  Ca  Ca2  1  0.000000  0.000000  0.665767  1
  Ca  Ca3  1  0.000000  0.000000  0.000000  1
  Ag  Ag4  1  0.666667  0.333333  0.802541  1
  Ag  Ag5  1  0.666667  0.333333  0.197459  1
  Pb  Pb6  1  0.333333  0.666667  0.153908  1
  Pb  Pb7  1  0.333333  0.666667  0.846092  1
  Pb  Pb8  1  0.666667  0.333333  0.500000  1
