# generated using pymatgen
data_La9Pr7Cd4(OsPt)2
_symmetry_space_group_name_H-M   'P 1'
_cell_length_a   10.09218126
_cell_length_b   10.09218133
_cell_length_c   10.18269600
_cell_angle_alpha   59.70286204
_cell_angle_beta   59.70286179
_cell_angle_gamma   60.14530478
_symmetry_Int_Tables_number   1
_chemical_formula_structural   La9Pr7Cd4(OsPt)2
_chemical_formula_sum   'La9 Pr7 Cd4 Os2 Pt2'
_cell_volume   730.84112070
_cell_formula_units_Z   1
loop_
 _symmetry_equiv_pos_site_id
 _symmetry_equiv_pos_as_xyz
  1  'x, y, z'
loop_
 _atom_site_type_symbol
 _atom_site_label
 _atom_site_symmetry_multiplicity
 _atom_site_fract_x
 _atom_site_fract_y
 _atom_site_fract_z
 _atom_site_occupancy
  La  La0  1  0.346086  0.346086  0.353848  1
  La  La1  1  0.346086  0.346086  0.953980  1
  La  La2  1  0.343529  0.960854  0.347808  1
  La  La3  1  0.960854  0.343529  0.347808  1
  La  La4  1  0.815148  0.188381  0.192224  1
  La  La5  1  0.188381  0.815148  0.804247  1
  La  La6  1  0.188381  0.815148  0.192224  1
  La  La7  1  0.815148  0.188381  0.804247  1
  La  La8  1  0.189295  0.189295  0.810705  1
  Pr  Pr9  1  0.802678  0.802678  0.197322  1
  Pr  Pr10  1  0.936490  0.560546  0.566056  1
  Pr  Pr11  1  0.560546  0.936490  0.936907  1
  Pr  Pr12  1  0.560546  0.936490  0.566056  1
  Pr  Pr13  1  0.936490  0.560546  0.936907  1
  Pr  Pr14  1  0.563768  0.563768  0.936232  1
  Pr  Pr15  1  0.937532  0.937532  0.562468  1
  Cd  Cd16  1  0.580176  0.580176  0.579513  1
  Cd  Cd17  1  0.580176  0.580176  0.260136  1
  Cd  Cd18  1  0.580761  0.258633  0.580302  1
  Cd  Cd19  1  0.258633  0.580761  0.580302  1
  Os  Os20  1  0.142253  0.142253  0.136440  1
  Os  Os21  1  0.142253  0.142253  0.579056  1
  Pt  Pt22  1  0.148243  0.576546  0.137605  1
  Pt  Pt23  1  0.576546  0.148243  0.137605  1
