# generated using pymatgen
data_Zr5Sc3(Si4Ru3)4
_symmetry_space_group_name_H-M   'P 1'
_cell_length_a   9.93100293
_cell_length_b   9.93011694
_cell_length_c   13.39468556
_cell_angle_alpha   53.89961334
_cell_angle_beta   53.87034678
_cell_angle_gamma   31.25817823
_symmetry_Int_Tables_number   1
_chemical_formula_structural   Zr5Sc3(Si4Ru3)4
_chemical_formula_sum   'Zr5 Sc3 Si16 Ru12'
_cell_volume   542.05316883
_cell_formula_units_Z   1
loop_
 _symmetry_equiv_pos_site_id
 _symmetry_equiv_pos_as_xyz
  1  'x, y, z'
loop_
 _atom_site_type_symbol
 _atom_site_label
 _atom_site_symmetry_multiplicity
 _atom_site_fract_x
 _atom_site_fract_y
 _atom_site_fract_z
 _atom_site_occupancy
  Zr  Zr0  1  0.556170  0.294381  0.149430  1
  Zr  Zr1  1  0.038443  0.296371  0.635551  1
  Zr  Zr2  1  0.704028  0.961400  0.863988  1
  Zr  Zr3  1  0.961802  0.704448  0.363691  1
  Zr  Zr4  1  0.295470  0.038782  0.135793  1
  Sc  Sc5  1  0.293153  0.560973  0.646138  1
  Sc  Sc6  1  0.439846  0.705894  0.853669  1
  Sc  Sc7  1  0.706750  0.438967  0.353813  1
  Si  Si8  1  0.875213  0.125050  0.250222  1
  Si  Si9  1  0.125158  0.875065  0.749819  1
  Si  Si10  1  0.382606  0.616255  0.250488  1
  Si  Si11  1  0.618113  0.382040  0.749641  1
  Si  Si12  1  0.971164  0.255884  0.893049  1
  Si  Si13  1  0.745668  0.027689  0.606925  1
  Si  Si14  1  0.027851  0.746290  0.105792  1
  Si  Si15  1  0.253681  0.973088  0.392427  1
  Si  Si16  1  0.574759  0.083237  0.065536  1
  Si  Si17  1  0.913389  0.427332  0.433972  1
  Si  Si18  1  0.426693  0.915780  0.932715  1
  Si  Si19  1  0.086102  0.572814  0.566052  1
  Si  Si20  1  0.388128  0.141405  0.396924  1
  Si  Si21  1  0.857126  0.611559  0.104956  1
  Si  Si22  1  0.612988  0.856117  0.604936  1
  Si  Si23  1  0.143688  0.388353  0.894649  1
  Ru  Ru24  1  0.646736  0.829471  0.280700  1
  Ru  Ru25  1  0.170072  0.353566  0.218741  1
  Ru  Ru26  1  0.758285  0.485659  0.069052  1
  Ru  Ru27  1  0.830012  0.647551  0.781135  1
  Ru  Ru28  1  0.900969  0.140547  0.584905  1
  Ru  Ru29  1  0.858165  0.100986  0.914466  1
  Ru  Ru30  1  0.099885  0.858440  0.414422  1
  Ru  Ru31  1  0.142601  0.901009  0.083921  1
  Ru  Ru32  1  0.241212  0.515337  0.931538  1
  Ru  Ru33  1  0.484608  0.759255  0.569528  1
  Ru  Ru34  1  0.516612  0.238725  0.432933  1
  Ru  Ru35  1  0.352856  0.170282  0.718484  1
