# generated using pymatgen
data_Y2Lu18Cd3Ru2Au3
_symmetry_space_group_name_H-M   'P 1'
_cell_length_a   9.38172581
_cell_length_b   9.38172465
_cell_length_c   9.43379300
_cell_angle_alpha   90.00000000
_cell_angle_beta   90.00000000
_cell_angle_gamma   119.95234184
_symmetry_Int_Tables_number   1
_chemical_formula_structural   Y2Lu18Cd3Ru2Au3
_chemical_formula_sum   'Y2 Lu18 Cd3 Ru2 Au3'
_cell_volume   719.43366512
_cell_formula_units_Z   1
loop_
 _symmetry_equiv_pos_site_id
 _symmetry_equiv_pos_as_xyz
  1  'x, y, z'
loop_
 _atom_site_type_symbol
 _atom_site_label
 _atom_site_symmetry_multiplicity
 _atom_site_fract_x
 _atom_site_fract_y
 _atom_site_fract_z
 _atom_site_occupancy
  Y  Y0  1  0.459718  0.918275  0.750000  1
  Y  Y1  1  0.081725  0.540282  0.750000  1
  Lu  Lu2  1  0.999893  0.000107  0.461270  1
  Lu  Lu3  1  0.999893  0.000107  0.038730  1
  Lu  Lu4  1  0.209156  0.790844  0.440021  1
  Lu  Lu5  1  0.210697  0.419289  0.440739  1
  Lu  Lu6  1  0.580711  0.789303  0.440739  1
  Lu  Lu7  1  0.791189  0.208811  0.554903  1
  Lu  Lu8  1  0.790090  0.582528  0.555784  1
  Lu  Lu9  1  0.417472  0.209910  0.555784  1
  Lu  Lu10  1  0.791189  0.208811  0.945097  1
  Lu  Lu11  1  0.790090  0.582528  0.944216  1
  Lu  Lu12  1  0.417472  0.209910  0.944216  1
  Lu  Lu13  1  0.209156  0.790844  0.059979  1
  Lu  Lu14  1  0.210697  0.419289  0.059261  1
  Lu  Lu15  1  0.580711  0.789303  0.059261  1
  Lu  Lu16  1  0.539155  0.460845  0.250000  1
  Lu  Lu17  1  0.538737  0.077528  0.250000  1
  Lu  Lu18  1  0.922472  0.461263  0.250000  1
  Lu  Lu19  1  0.460301  0.539699  0.750000  1
  Cd  Cd20  1  0.109706  0.890294  0.750000  1
  Cd  Cd21  1  0.110461  0.219997  0.750000  1
  Cd  Cd22  1  0.780003  0.889539  0.750000  1
  Ru  Ru23  1  0.333286  0.666714  0.250000  1
  Ru  Ru24  1  0.666110  0.333890  0.750000  1
  Au  Au25  1  0.870095  0.129905  0.250000  1
  Au  Au26  1  0.870006  0.740188  0.250000  1
  Au  Au27  1  0.259812  0.129994  0.250000  1
