# generated using pymatgen
data_CeDyTm10Co5Sn
_symmetry_space_group_name_H-M   'P 1'
_cell_length_a   8.19466605
_cell_length_b   8.19466477
_cell_length_c   8.19836268
_cell_angle_alpha   107.56649522
_cell_angle_beta   110.42142187
_cell_angle_gamma   110.42442217
_symmetry_Int_Tables_number   1
_chemical_formula_structural   CeDyTm10Co5Sn
_chemical_formula_sum   'Ce1 Dy1 Tm10 Co5 Sn1'
_cell_volume   423.55220393
_cell_formula_units_Z   1
loop_
 _symmetry_equiv_pos_site_id
 _symmetry_equiv_pos_as_xyz
  1  'x, y, z'
loop_
 _atom_site_type_symbol
 _atom_site_label
 _atom_site_symmetry_multiplicity
 _atom_site_fract_x
 _atom_site_fract_y
 _atom_site_fract_z
 _atom_site_occupancy
  Ce  Ce0  1  0.196138  0.804527  0.000664  1
  Dy  Dy1  1  0.812141  0.196764  0.008905  1
  Tm  Tm2  1  0.484070  0.299539  0.190523  1
  Tm  Tm3  1  0.111767  0.296165  0.816094  1
  Tm  Tm4  1  0.890984  0.706453  0.190523  1
  Tm  Tm5  1  0.519930  0.704328  0.816094  1
  Tm  Tm6  1  0.308341  0.621326  0.320050  1
  Tm  Tm7  1  0.309589  0.992280  0.683759  1
  Tm  Tm8  1  0.691479  0.374169  0.683759  1
  Tm  Tm9  1  0.698724  0.011707  0.320050  1
  Tm  Tm10  1  0.197031  0.221631  0.418663  1
  Tm  Tm11  1  0.803039  0.794801  0.597839  1
  Co  Co12  1  0.503876  0.614442  0.118318  1
  Co  Co13  1  0.493358  0.385919  0.879278  1
  Co  Co14  1  0.345384  0.988900  0.334283  1
  Co  Co15  1  0.610837  0.996637  0.607476  1
  Co  Co16  1  0.022906  0.986817  0.009723  1
  Sn  Sn17  1  0.000405  0.503596  0.504001  1
