# generated using pymatgen
data_Lu8AgHgRh2
_symmetry_space_group_name_H-M   'P 1'
_cell_length_a   9.37010274
_cell_length_b   9.37010372
_cell_length_c   9.36989000
_cell_angle_alpha   60.00076156
_cell_angle_beta   60.00075811
_cell_angle_gamma   59.95698872
_symmetry_Int_Tables_number   1
_chemical_formula_structural   Lu8AgHgRh2
_chemical_formula_sum   'Lu16 Ag2 Hg2 Rh4'
_cell_volume   581.52964705
_cell_formula_units_Z   2
loop_
 _symmetry_equiv_pos_site_id
 _symmetry_equiv_pos_as_xyz
  1  'x, y, z'
loop_
 _atom_site_type_symbol
 _atom_site_label
 _atom_site_symmetry_multiplicity
 _atom_site_fract_x
 _atom_site_fract_y
 _atom_site_fract_z
 _atom_site_occupancy
  Lu  Lu0  1  0.602166  0.602166  0.603231  1
  Lu  Lu1  1  0.602166  0.602166  0.192439  1
  Lu  Lu2  1  0.601121  0.195315  0.601782  1
  Lu  Lu3  1  0.195315  0.601121  0.601782  1
  Lu  Lu4  1  0.060830  0.438809  0.439741  1
  Lu  Lu5  1  0.438809  0.060830  0.060620  1
  Lu  Lu6  1  0.438809  0.060830  0.439741  1
  Lu  Lu7  1  0.060830  0.438809  0.060620  1
  Lu  Lu8  1  0.439560  0.439560  0.060440  1
  Lu  Lu9  1  0.061103  0.061103  0.438897  1
  Lu  Lu10  1  0.184208  0.813531  0.814519  1
  Lu  Lu11  1  0.813531  0.184208  0.187743  1
  Lu  Lu12  1  0.813531  0.184208  0.814519  1
  Lu  Lu13  1  0.184208  0.813531  0.187743  1
  Lu  Lu14  1  0.812787  0.812787  0.187213  1
  Lu  Lu15  1  0.185246  0.185246  0.814754  1
  Ag  Ag16  1  0.834412  0.834412  0.830731  1
  Ag  Ag17  1  0.834412  0.834412  0.500445  1
  Hg  Hg18  1  0.837074  0.498062  0.832431  1
  Hg  Hg19  1  0.498062  0.837074  0.832431  1
  Rh  Rh20  1  0.393736  0.393736  0.391930  1
  Rh  Rh21  1  0.393736  0.393736  0.820598  1
  Rh  Rh22  1  0.394253  0.820095  0.392827  1
  Rh  Rh23  1  0.820095  0.394253  0.392827  1
