# generated using pymatgen
data_LuThReC2
_symmetry_space_group_name_H-M   'P 1'
_cell_length_a   5.22005200
_cell_length_b   6.63722300
_cell_length_c   9.78038900
_cell_angle_alpha   90.00000000
_cell_angle_beta   90.00000000
_cell_angle_gamma   90.00000000
_symmetry_Int_Tables_number   1
_chemical_formula_structural   LuThReC2
_chemical_formula_sum   'Lu4 Th4 Re4 C8'
_cell_volume   338.85770668
_cell_formula_units_Z   4
loop_
 _symmetry_equiv_pos_site_id
 _symmetry_equiv_pos_as_xyz
  1  'x, y, z'
loop_
 _atom_site_type_symbol
 _atom_site_label
 _atom_site_symmetry_multiplicity
 _atom_site_fract_x
 _atom_site_fract_y
 _atom_site_fract_z
 _atom_site_occupancy
  Lu  Lu0  1  0.250000  0.830104  0.946150  1
  Lu  Lu1  1  0.250000  0.330104  0.553850  1
  Lu  Lu2  1  0.750000  0.169896  0.053850  1
  Lu  Lu3  1  0.750000  0.669896  0.446150  1
  Th  Th4  1  0.250000  0.467591  0.213407  1
  Th  Th5  1  0.250000  0.967591  0.286593  1
  Th  Th6  1  0.750000  0.532409  0.786593  1
  Th  Th7  1  0.750000  0.032409  0.713407  1
  Re  Re8  1  0.250000  0.274034  0.865126  1
  Re  Re9  1  0.250000  0.774034  0.634874  1
  Re  Re10  1  0.750000  0.725966  0.134874  1
  Re  Re11  1  0.750000  0.225966  0.365126  1
  C  C12  1  0.250000  0.043931  0.737344  1
  C  C13  1  0.250000  0.543931  0.762656  1
  C  C14  1  0.750000  0.956069  0.262656  1
  C  C15  1  0.750000  0.456069  0.237344  1
  C  C16  1  0.250000  0.664378  0.446664  1
  C  C17  1  0.250000  0.164378  0.053336  1
  C  C18  1  0.750000  0.335622  0.553336  1
  C  C19  1  0.750000  0.835622  0.946664  1
