# generated using pymatgen
data_TlGaCoF6
_symmetry_space_group_name_H-M   'P 1'
_cell_length_a   7.38772780
_cell_length_b   7.38772741
_cell_length_c   7.38772700
_cell_angle_alpha   120.95912231
_cell_angle_beta   119.42132867
_cell_angle_gamma   89.67602490
_symmetry_Int_Tables_number   1
_chemical_formula_structural   TlGaCoF6
_chemical_formula_sum   'Tl2 Ga2 Co2 F12'
_cell_volume   284.22422128
_cell_formula_units_Z   2
loop_
 _symmetry_equiv_pos_site_id
 _symmetry_equiv_pos_as_xyz
  1  'x, y, z'
loop_
 _atom_site_type_symbol
 _atom_site_label
 _atom_site_symmetry_multiplicity
 _atom_site_fract_x
 _atom_site_fract_y
 _atom_site_fract_z
 _atom_site_occupancy
  Tl  Tl0  1  0.360362  0.110362  0.250000  1
  Tl  Tl1  1  0.639638  0.889638  0.750000  1
  Ga  Ga2  1  0.000000  0.500000  0.500000  1
  Ga  Ga3  1  0.500000  0.500000  0.000000  1
  Co  Co4  1  0.000000  0.500000  0.000000  1
  Co  Co5  1  0.000000  0.000000  0.500000  1
  F  F6  1  0.307776  0.557776  0.750000  1
  F  F7  1  0.916547  0.166547  0.750000  1
  F  F8  1  0.332497  0.190339  0.767287  1
  F  F9  1  0.923052  0.565211  0.732713  1
  F  F10  1  0.332497  0.565211  0.142159  1
  F  F11  1  0.923052  0.190339  0.357841  1
  F  F12  1  0.692224  0.442224  0.250000  1
  F  F13  1  0.083453  0.833453  0.250000  1
  F  F14  1  0.667503  0.809661  0.232713  1
  F  F15  1  0.076948  0.434789  0.267287  1
  F  F16  1  0.667503  0.434789  0.857841  1
  F  F17  1  0.076948  0.809661  0.642159  1
