# generated using pymatgen
data_Ba3TbRhO6
_symmetry_space_group_name_H-M   'P 1'
_cell_length_a   7.17437126
_cell_length_b   7.17437070
_cell_length_c   7.17437238
_cell_angle_alpha   93.18818746
_cell_angle_beta   93.18818532
_cell_angle_gamma   93.18819306
_symmetry_Int_Tables_number   1
_chemical_formula_structural   Ba3TbRhO6
_chemical_formula_sum   'Ba6 Tb2 Rh2 O12'
_cell_volume   367.49528234
_cell_formula_units_Z   2
loop_
 _symmetry_equiv_pos_site_id
 _symmetry_equiv_pos_as_xyz
  1  'x, y, z'
loop_
 _atom_site_type_symbol
 _atom_site_label
 _atom_site_symmetry_multiplicity
 _atom_site_fract_x
 _atom_site_fract_y
 _atom_site_fract_z
 _atom_site_occupancy
  Ba  Ba0  1  0.250000  0.880971  0.619029  1
  Ba  Ba1  1  0.880971  0.619029  0.250000  1
  Ba  Ba2  1  0.750000  0.119029  0.380971  1
  Ba  Ba3  1  0.380971  0.750000  0.119029  1
  Ba  Ba4  1  0.119029  0.380971  0.750000  1
  Ba  Ba5  1  0.619029  0.250000  0.880971  1
  Tb  Tb6  1  0.750000  0.750000  0.750000  1
  Tb  Tb7  1  0.250000  0.250000  0.250000  1
  Rh  Rh8  1  0.500000  0.500000  0.500000  1
  Rh  Rh9  1  0.000000  0.000000  0.000000  1
  O  O10  1  0.593070  0.783713  0.464548  1
  O  O11  1  0.464548  0.593070  0.783713  1
  O  O12  1  0.783713  0.464548  0.593070  1
  O  O13  1  0.906930  0.035452  0.716287  1
  O  O14  1  0.716287  0.906930  0.035452  1
  O  O15  1  0.035452  0.716287  0.906930  1
  O  O16  1  0.406930  0.216287  0.535452  1
  O  O17  1  0.535452  0.406930  0.216287  1
  O  O18  1  0.216287  0.535452  0.406930  1
  O  O19  1  0.093070  0.964548  0.283713  1
  O  O20  1  0.964548  0.283713  0.093070  1
  O  O21  1  0.283713  0.093070  0.964548  1
