# generated using pymatgen
data_Tb4Ho12MgIn3Co4
_symmetry_space_group_name_H-M   'P 1'
_cell_length_a   9.55590827
_cell_length_b   9.50547055
_cell_length_c   9.50547000
_cell_angle_alpha   60.00000192
_cell_angle_beta   60.17444935
_cell_angle_gamma   60.17445013
_symmetry_Int_Tables_number   1
_chemical_formula_structural   Tb4Ho12MgIn3Co4
_chemical_formula_sum   'Tb4 Ho12 Mg1 In3 Co4'
_cell_volume   612.13093685
_cell_formula_units_Z   1
loop_
 _symmetry_equiv_pos_site_id
 _symmetry_equiv_pos_as_xyz
  1  'x, y, z'
loop_
 _atom_site_type_symbol
 _atom_site_label
 _atom_site_symmetry_multiplicity
 _atom_site_fract_x
 _atom_site_fract_y
 _atom_site_fract_z
 _atom_site_occupancy
  Tb  Tb0  1  0.347553  0.345978  0.345978  1
  Tb  Tb1  1  0.347553  0.345978  0.960492  1
  Tb  Tb2  1  0.347553  0.960492  0.345978  1
  Tb  Tb3  1  0.957820  0.347394  0.347394  1
  Ho  Ho4  1  0.810108  0.188656  0.188656  1
  Ho  Ho5  1  0.185117  0.814201  0.814201  1
  Ho  Ho6  1  0.185117  0.814201  0.186482  1
  Ho  Ho7  1  0.810108  0.188656  0.812581  1
  Ho  Ho8  1  0.185117  0.186482  0.814201  1
  Ho  Ho9  1  0.810108  0.812581  0.188656  1
  Ho  Ho10  1  0.938544  0.561789  0.561789  1
  Ho  Ho11  1  0.562517  0.938106  0.938106  1
  Ho  Ho12  1  0.562517  0.938106  0.561270  1
  Ho  Ho13  1  0.938544  0.561789  0.937877  1
  Ho  Ho14  1  0.562517  0.561270  0.938106  1
  Ho  Ho15  1  0.938544  0.937877  0.561789  1
  Mg  Mg16  1  0.270825  0.576391  0.576391  1
  In  In17  1  0.581964  0.582705  0.582705  1
  In  In18  1  0.581964  0.582705  0.252626  1
  In  In19  1  0.581964  0.252626  0.582705  1
  Co  Co20  1  0.138493  0.140948  0.140948  1
  Co  Co21  1  0.138493  0.140948  0.579612  1
  Co  Co22  1  0.138493  0.579612  0.140948  1
  Co  Co23  1  0.578471  0.140510  0.140510  1
