# generated using pymatgen
data_Tb5In2NiHg2Pd
_symmetry_space_group_name_H-M   'P 1'
_cell_length_a   7.98963389
_cell_length_b   18.28657522
_cell_length_c   3.62336700
_cell_angle_alpha   90.00000000
_cell_angle_beta   90.00000000
_cell_angle_gamma   90.24917220
_symmetry_Int_Tables_number   1
_chemical_formula_structural   Tb5In2NiHg2Pd
_chemical_formula_sum   'Tb10 In4 Ni2 Hg4 Pd2'
_cell_volume   529.37993191
_cell_formula_units_Z   2
loop_
 _symmetry_equiv_pos_site_id
 _symmetry_equiv_pos_as_xyz
  1  'x, y, z'
loop_
 _atom_site_type_symbol
 _atom_site_label
 _atom_site_symmetry_multiplicity
 _atom_site_fract_x
 _atom_site_fract_y
 _atom_site_fract_z
 _atom_site_occupancy
  Tb  Tb0  1  0.500000  0.500000  0.000000  1
  Tb  Tb1  1  0.000000  0.000000  0.000000  1
  Tb  Tb2  1  0.737981  0.280233  0.000000  1
  Tb  Tb3  1  0.262019  0.719767  0.000000  1
  Tb  Tb4  1  0.744525  0.784387  0.000000  1
  Tb  Tb5  1  0.255475  0.215613  0.000000  1
  Tb  Tb6  1  0.607264  0.086983  0.000000  1
  Tb  Tb7  1  0.392736  0.913017  0.000000  1
  Tb  Tb8  1  0.889180  0.583808  0.000000  1
  Tb  Tb9  1  0.110820  0.416192  0.000000  1
  In  In10  1  0.576654  0.651824  0.500000  1
  In  In11  1  0.423346  0.348176  0.500000  1
  In  In12  1  0.921599  0.149408  0.500000  1
  In  In13  1  0.078401  0.850592  0.500000  1
  Ni  Ni14  1  0.530069  0.196832  0.500000  1
  Ni  Ni15  1  0.469931  0.803168  0.500000  1
  Hg  Hg16  1  0.711747  0.931398  0.500000  1
  Hg  Hg17  1  0.288253  0.068602  0.500000  1
  Hg  Hg18  1  0.786119  0.431717  0.500000  1
  Hg  Hg19  1  0.213881  0.568283  0.500000  1
  Pd  Pd20  1  0.967726  0.698523  0.500000  1
  Pd  Pd21  1  0.032274  0.301477  0.500000  1
