# generated using pymatgen
data_Pr6Al7ZnCl2
_symmetry_space_group_name_H-M   'P 1'
_cell_length_a   8.12942334
_cell_length_b   8.12942386
_cell_length_c   8.15363582
_cell_angle_alpha   119.12906233
_cell_angle_beta   119.12907464
_cell_angle_gamma   91.48791655
_symmetry_Int_Tables_number   1
_chemical_formula_structural   Pr6Al7ZnCl2
_chemical_formula_sum   'Pr6 Al7 Zn1 Cl2'
_cell_volume   385.99127857
_cell_formula_units_Z   1
loop_
 _symmetry_equiv_pos_site_id
 _symmetry_equiv_pos_as_xyz
  1  'x, y, z'
loop_
 _atom_site_type_symbol
 _atom_site_label
 _atom_site_symmetry_multiplicity
 _atom_site_fract_x
 _atom_site_fract_y
 _atom_site_fract_z
 _atom_site_occupancy
  Pr  Pr0  1  0.658273  0.158273  0.818056  1
  Pr  Pr1  1  0.158899  0.341165  0.499920  1
  Pr  Pr2  1  0.841165  0.658899  0.499920  1
  Pr  Pr3  1  0.750803  0.749953  0.000700  1
  Pr  Pr4  1  0.339901  0.839901  0.180761  1
  Pr  Pr5  1  0.249953  0.250803  0.000700  1
  Al  Al6  1  0.844888  0.061655  0.503571  1
  Al  Al7  1  0.342572  0.842572  0.787380  1
  Al  Al8  1  0.443697  0.655002  0.499309  1
  Al  Al9  1  0.561655  0.344888  0.503571  1
  Al  Al10  1  0.054050  0.554050  0.206678  1
  Al  Al11  1  0.155002  0.943697  0.499309  1
  Al  Al12  1  0.654612  0.154612  0.209228  1
  Zn  Zn13  1  0.944961  0.444961  0.791049  1
  Cl  Cl14  1  0.499305  0.500263  0.999925  1
  Cl  Cl15  1  0.000263  0.999305  0.999925  1
