# generated using pymatgen
data_LaTm5FeI10
_symmetry_space_group_name_H-M   'P 1'
_cell_length_a   7.71126339
_cell_length_b   9.72772873
_cell_length_c   9.58443444
_cell_angle_alpha   106.76325274
_cell_angle_beta   96.04725845
_cell_angle_gamma   105.31461978
_symmetry_Int_Tables_number   1
_chemical_formula_structural   LaTm5FeI10
_chemical_formula_sum   'La1 Tm5 Fe1 I10'
_cell_volume   651.00745145
_cell_formula_units_Z   1
loop_
 _symmetry_equiv_pos_site_id
 _symmetry_equiv_pos_as_xyz
  1  'x, y, z'
loop_
 _atom_site_type_symbol
 _atom_site_label
 _atom_site_symmetry_multiplicity
 _atom_site_fract_x
 _atom_site_fract_y
 _atom_site_fract_z
 _atom_site_occupancy
  La  La0  1  0.606087  0.038928  0.280693  1
  Tm  Tm1  1  0.472610  0.281777  0.587923  1
  Tm  Tm2  1  0.527740  0.717459  0.416204  1
  Tm  Tm3  1  0.844191  0.122998  0.663471  1
  Tm  Tm4  1  0.154534  0.874491  0.334479  1
  Tm  Tm5  1  0.394093  0.960616  0.713214  1
  Fe  Fe6  1  0.508678  0.003564  0.484232  1
  I  I7  1  0.412645  0.638334  0.684546  1
  I  I8  1  0.580721  0.384080  0.329576  1
  I  I9  1  0.284232  0.249892  0.845995  1
  I  I10  1  0.724163  0.730070  0.158156  1
  I  I11  1  0.853086  0.448791  0.771172  1
  I  I12  1  0.148854  0.549933  0.230046  1
  I  I13  1  0.055986  0.184656  0.414075  1
  I  I14  1  0.222121  0.907456  0.037707  1
  I  I15  1  0.746416  0.083248  0.950758  1
  I  I16  1  0.963842  0.823707  0.597753  1
