# generated using pymatgen
data_Er3MgCd2Ga3
_symmetry_space_group_name_H-M   'P 1'
_cell_length_a   4.39687800
_cell_length_b   7.20391267
_cell_length_c   7.20373100
_cell_angle_alpha   120.00083326
_cell_angle_beta   90.00000000
_cell_angle_gamma   90.00000000
_symmetry_Int_Tables_number   1
_chemical_formula_structural   Er3MgCd2Ga3
_chemical_formula_sum   'Er3 Mg1 Cd2 Ga3'
_cell_volume   197.60472609
_cell_formula_units_Z   1
loop_
 _symmetry_equiv_pos_site_id
 _symmetry_equiv_pos_as_xyz
  1  'x, y, z'
loop_
 _atom_site_type_symbol
 _atom_site_label
 _atom_site_symmetry_multiplicity
 _atom_site_fract_x
 _atom_site_fract_y
 _atom_site_fract_z
 _atom_site_occupancy
  Er  Er0  1  0.000000  0.426640  0.427776  1
  Er  Er1  1  0.000000  0.998864  0.572224  1
  Er  Er2  1  0.000000  0.575378  0.000000  1
  Mg  Mg3  1  0.500000  0.241286  0.000000  1
  Cd  Cd4  1  0.500000  0.752455  0.750487  1
  Cd  Cd5  1  0.500000  0.001968  0.249513  1
  Ga  Ga6  1  0.500000  0.663338  0.328625  1
  Ga  Ga7  1  0.500000  0.334712  0.671375  1
  Ga  Ga8  1  0.000000  0.005358  0.000000  1
