# generated using pymatgen
data_La4Pr4MgHgIr2
_symmetry_space_group_name_H-M   'P 1'
_cell_length_a   10.05748430
_cell_length_b   10.05748540
_cell_length_c   10.15149700
_cell_angle_alpha   59.69030820
_cell_angle_beta   59.69030454
_cell_angle_gamma   60.55401368
_symmetry_Int_Tables_number   1
_chemical_formula_structural   La4Pr4MgHgIr2
_chemical_formula_sum   'La8 Pr8 Mg2 Hg2 Ir4'
_cell_volume   725.62625736
_cell_formula_units_Z   2
loop_
 _symmetry_equiv_pos_site_id
 _symmetry_equiv_pos_as_xyz
  1  'x, y, z'
loop_
 _atom_site_type_symbol
 _atom_site_label
 _atom_site_symmetry_multiplicity
 _atom_site_fract_x
 _atom_site_fract_y
 _atom_site_fract_z
 _atom_site_occupancy
  La  La0  1  0.345772  0.345772  0.347481  1
  La  La1  1  0.345772  0.345772  0.960974  1
  La  La2  1  0.350168  0.957840  0.345997  1
  La  La3  1  0.957840  0.350168  0.345997  1
  La  La4  1  0.810493  0.187374  0.190287  1
  La  La5  1  0.187374  0.810493  0.811846  1
  La  La6  1  0.187374  0.810493  0.190287  1
  La  La7  1  0.810493  0.187374  0.811846  1
  Pr  Pr8  1  0.190051  0.190051  0.809949  1
  Pr  Pr9  1  0.801000  0.801000  0.199000  1
  Pr  Pr10  1  0.936430  0.561876  0.564912  1
  Pr  Pr11  1  0.561876  0.936430  0.936781  1
  Pr  Pr12  1  0.561876  0.936430  0.564912  1
  Pr  Pr13  1  0.936430  0.561876  0.936781  1
  Pr  Pr14  1  0.560539  0.560539  0.939461  1
  Pr  Pr15  1  0.937840  0.937840  0.562160  1
  Mg  Mg16  1  0.578913  0.273531  0.573778  1
  Mg  Mg17  1  0.273531  0.578913  0.573778  1
  Hg  Hg18  1  0.581961  0.581961  0.587485  1
  Hg  Hg19  1  0.581961  0.581961  0.248594  1
  Ir  Ir20  1  0.139282  0.139282  0.145162  1
  Ir  Ir21  1  0.139282  0.139282  0.576273  1
  Ir  Ir22  1  0.146733  0.577009  0.138129  1
  Ir  Ir23  1  0.577009  0.146733  0.138129  1
