# generated using pymatgen
data_ErAl10ReRh
_symmetry_space_group_name_H-M   'P 1'
_cell_length_a   6.87451740
_cell_length_b   6.88697537
_cell_length_c   9.16957300
_cell_angle_alpha   90.00000000
_cell_angle_beta   90.00000000
_cell_angle_gamma   96.62154505
_symmetry_Int_Tables_number   1
_chemical_formula_structural   ErAl10ReRh
_chemical_formula_sum   'Er2 Al20 Re2 Rh2'
_cell_volume   431.23418452
_cell_formula_units_Z   2
loop_
 _symmetry_equiv_pos_site_id
 _symmetry_equiv_pos_as_xyz
  1  'x, y, z'
loop_
 _atom_site_type_symbol
 _atom_site_label
 _atom_site_symmetry_multiplicity
 _atom_site_fract_x
 _atom_site_fract_y
 _atom_site_fract_z
 _atom_site_occupancy
  Er  Er0  1  0.864433  0.122029  0.750000  1
  Er  Er1  1  0.135567  0.877971  0.250000  1
  Al  Al2  1  0.620698  0.375630  0.548630  1
  Al  Al3  1  0.379302  0.624370  0.451370  1
  Al  Al4  1  0.379302  0.624370  0.048630  1
  Al  Al5  1  0.620698  0.375630  0.951370  1
  Al  Al6  1  0.224094  0.223927  0.498479  1
  Al  Al7  1  0.775906  0.776073  0.501521  1
  Al  Al8  1  0.775906  0.776073  0.998479  1
  Al  Al9  1  0.224094  0.223927  0.001521  1
  Al  Al10  1  0.844755  0.155611  0.100266  1
  Al  Al11  1  0.155245  0.844389  0.899734  1
  Al  Al12  1  0.155245  0.844389  0.600266  1
  Al  Al13  1  0.844755  0.155611  0.399734  1
  Al  Al14  1  0.857545  0.586741  0.750000  1
  Al  Al15  1  0.142455  0.413259  0.250000  1
  Al  Al16  1  0.410870  0.141955  0.750000  1
  Al  Al17  1  0.589130  0.858045  0.250000  1
  Al  Al18  1  0.221658  0.479429  0.750000  1
  Al  Al19  1  0.778342  0.520571  0.250000  1
  Al  Al20  1  0.519866  0.780606  0.750000  1
  Al  Al21  1  0.480134  0.219394  0.250000  1
  Re  Re22  1  0.500000  0.000000  0.000000  1
  Re  Re23  1  0.500000  0.000000  0.500000  1
  Rh  Rh24  1  0.000000  0.500000  0.500000  1
  Rh  Rh25  1  0.000000  0.500000  0.000000  1
