# generated using pymatgen
data_Ti2Fe5B2W
_symmetry_space_group_name_H-M   'P 1'
_cell_length_a   8.71110900
_cell_length_b   8.71110900
_cell_length_c   2.89652000
_cell_angle_alpha   90.00000000
_cell_angle_beta   90.00000000
_cell_angle_gamma   90.00000000
_symmetry_Int_Tables_number   1
_chemical_formula_structural   Ti2Fe5B2W
_chemical_formula_sum   'Ti4 Fe10 B4 W2'
_cell_volume   219.79784373
_cell_formula_units_Z   2
loop_
 _symmetry_equiv_pos_site_id
 _symmetry_equiv_pos_as_xyz
  1  'x, y, z'
loop_
 _atom_site_type_symbol
 _atom_site_label
 _atom_site_symmetry_multiplicity
 _atom_site_fract_x
 _atom_site_fract_y
 _atom_site_fract_z
 _atom_site_occupancy
  Ti  Ti0  1  0.826285  0.326285  0.000000  1
  Ti  Ti1  1  0.326285  0.173715  0.000000  1
  Ti  Ti2  1  0.673715  0.826285  0.000000  1
  Ti  Ti3  1  0.173715  0.673715  0.000000  1
  Fe  Fe4  1  0.500000  0.000000  0.500000  1
  Fe  Fe5  1  0.000000  0.500000  0.500000  1
  Fe  Fe6  1  0.070680  0.219103  0.500000  1
  Fe  Fe7  1  0.219103  0.929320  0.500000  1
  Fe  Fe8  1  0.780897  0.070680  0.500000  1
  Fe  Fe9  1  0.929320  0.780897  0.500000  1
  Fe  Fe10  1  0.429320  0.719103  0.500000  1
  Fe  Fe11  1  0.570680  0.280897  0.500000  1
  Fe  Fe12  1  0.719103  0.570680  0.500000  1
  Fe  Fe13  1  0.280897  0.429320  0.500000  1
  B  B14  1  0.619755  0.119755  0.000000  1
  B  B15  1  0.119755  0.380245  0.000000  1
  B  B16  1  0.880245  0.619755  0.000000  1
  B  B17  1  0.380245  0.880245  0.000000  1
  W  W18  1  0.000000  0.000000  0.000000  1
  W  W19  1  0.500000  0.500000  0.000000  1
