# generated using pymatgen
data_Tb2HoTl5
_symmetry_space_group_name_H-M   'P 1'
_cell_length_a   6.67875500
_cell_length_b   10.56487900
_cell_length_c   12.43176000
_cell_angle_alpha   90.00000000
_cell_angle_beta   90.00000000
_cell_angle_gamma   90.00000000
_symmetry_Int_Tables_number   1
_chemical_formula_structural   Tb2HoTl5
_chemical_formula_sum   'Tb8 Ho4 Tl20'
_cell_volume   877.18794990
_cell_formula_units_Z   4
loop_
 _symmetry_equiv_pos_site_id
 _symmetry_equiv_pos_as_xyz
  1  'x, y, z'
loop_
 _atom_site_type_symbol
 _atom_site_label
 _atom_site_symmetry_multiplicity
 _atom_site_fract_x
 _atom_site_fract_y
 _atom_site_fract_z
 _atom_site_occupancy
  Tb  Tb0  1  0.887982  0.508450  0.356872  1
  Tb  Tb1  1  0.612018  0.991550  0.856872  1
  Tb  Tb2  1  0.112018  0.008450  0.643128  1
  Tb  Tb3  1  0.387982  0.491550  0.143128  1
  Tb  Tb4  1  0.112018  0.491550  0.643128  1
  Tb  Tb5  1  0.387982  0.008450  0.143128  1
  Tb  Tb6  1  0.887982  0.991550  0.356872  1
  Tb  Tb7  1  0.612018  0.508450  0.856872  1
  Ho  Ho8  1  0.854627  0.750000  0.056961  1
  Ho  Ho9  1  0.645373  0.750000  0.556961  1
  Ho  Ho10  1  0.145373  0.250000  0.943039  1
  Ho  Ho11  1  0.354627  0.250000  0.443039  1
  Tl  Tl12  1  0.865955  0.039626  0.098873  1
  Tl  Tl13  1  0.634045  0.460374  0.598873  1
  Tl  Tl14  1  0.134045  0.539626  0.901127  1
  Tl  Tl15  1  0.365955  0.960374  0.401127  1
  Tl  Tl16  1  0.134045  0.960374  0.901127  1
  Tl  Tl17  1  0.365955  0.539626  0.401127  1
  Tl  Tl18  1  0.865955  0.460374  0.098873  1
  Tl  Tl19  1  0.634045  0.039626  0.598873  1
  Tl  Tl20  1  0.152434  0.750000  0.242643  1
  Tl  Tl21  1  0.347566  0.750000  0.742643  1
  Tl  Tl22  1  0.847566  0.250000  0.757357  1
  Tl  Tl23  1  0.652434  0.250000  0.257357  1
  Tl  Tl24  1  0.399255  0.750000  0.011491  1
  Tl  Tl25  1  0.100745  0.750000  0.511491  1
  Tl  Tl26  1  0.600745  0.250000  0.988509  1
  Tl  Tl27  1  0.899255  0.250000  0.488509  1
  Tl  Tl28  1  0.629203  0.750000  0.287052  1
  Tl  Tl29  1  0.870797  0.750000  0.787052  1
  Tl  Tl30  1  0.370797  0.250000  0.712948  1
  Tl  Tl31  1  0.129203  0.250000  0.212948  1
