# generated using pymatgen
data_CdSi2Pb2O7
_symmetry_space_group_name_H-M   'P 1'
_cell_length_a   8.45200300
_cell_length_b   8.45200300
_cell_length_c   5.39717400
_cell_angle_alpha   90.00000000
_cell_angle_beta   90.00000000
_cell_angle_gamma   90.00000000
_symmetry_Int_Tables_number   1
_chemical_formula_structural   CdSi2Pb2O7
_chemical_formula_sum   'Cd2 Si4 Pb4 O14'
_cell_volume   385.55443631
_cell_formula_units_Z   2
loop_
 _symmetry_equiv_pos_site_id
 _symmetry_equiv_pos_as_xyz
  1  'x, y, z'
loop_
 _atom_site_type_symbol
 _atom_site_label
 _atom_site_symmetry_multiplicity
 _atom_site_fract_x
 _atom_site_fract_y
 _atom_site_fract_z
 _atom_site_occupancy
  Cd  Cd0  1  0.000000  0.000000  0.000000  1
  Cd  Cd1  1  0.500000  0.500000  0.000000  1
  Si  Si2  1  0.637244  0.862756  0.931240  1
  Si  Si3  1  0.362756  0.137244  0.931240  1
  Si  Si4  1  0.137244  0.637244  0.068760  1
  Si  Si5  1  0.862756  0.362756  0.068760  1
  Pb  Pb6  1  0.185720  0.314280  0.486726  1
  Pb  Pb7  1  0.814280  0.685720  0.486726  1
  Pb  Pb8  1  0.685720  0.185720  0.513274  1
  Pb  Pb9  1  0.314280  0.814280  0.513274  1
  O  O10  1  0.000000  0.500000  0.112354  1
  O  O11  1  0.500000  0.000000  0.887646  1
  O  O12  1  0.664838  0.835162  0.224744  1
  O  O13  1  0.335162  0.164838  0.224744  1
  O  O14  1  0.164838  0.664838  0.775256  1
  O  O15  1  0.835162  0.335162  0.775256  1
  O  O16  1  0.075496  0.795134  0.224048  1
  O  O17  1  0.924504  0.204866  0.224048  1
  O  O18  1  0.204866  0.075496  0.775952  1
  O  O19  1  0.424504  0.295134  0.775952  1
  O  O20  1  0.795134  0.924504  0.775952  1
  O  O21  1  0.575496  0.704866  0.775952  1
  O  O22  1  0.295134  0.575496  0.224048  1
  O  O23  1  0.704866  0.424504  0.224048  1
