# generated using pymatgen
data_YLuNpO6
_symmetry_space_group_name_H-M   'P 1'
_cell_length_a   5.51063100
_cell_length_b   7.78751722
_cell_length_c   11.70785243
_cell_angle_alpha   74.08016844
_cell_angle_beta   90.00000000
_cell_angle_gamma   90.00000000
_symmetry_Int_Tables_number   1
_chemical_formula_structural   YLuNpO6
_chemical_formula_sum   'Y4 Lu4 Np4 O24'
_cell_volume   483.16227032
_cell_formula_units_Z   4
loop_
 _symmetry_equiv_pos_site_id
 _symmetry_equiv_pos_as_xyz
  1  'x, y, z'
loop_
 _atom_site_type_symbol
 _atom_site_label
 _atom_site_symmetry_multiplicity
 _atom_site_fract_x
 _atom_site_fract_y
 _atom_site_fract_z
 _atom_site_occupancy
  Y  Y0  1  0.253031  0.000000  0.750000  1
  Y  Y1  1  0.746969  0.000000  0.250000  1
  Y  Y2  1  0.303077  0.500000  0.750000  1
  Y  Y3  1  0.696923  0.500000  0.250000  1
  Lu  Lu4  1  0.185658  0.793466  0.080602  1
  Lu  Lu5  1  0.185658  0.206534  0.419398  1
  Lu  Lu6  1  0.814342  0.206534  0.919398  1
  Lu  Lu7  1  0.814342  0.793466  0.580602  1
  Np  Np8  1  0.743417  0.721492  0.887512  1
  Np  Np9  1  0.256583  0.721492  0.387512  1
  Np  Np10  1  0.743417  0.278508  0.612488  1
  Np  Np11  1  0.256583  0.278508  0.112488  1
  O  O12  1  0.880084  0.371058  0.444401  1
  O  O13  1  0.440244  0.845863  0.934320  1
  O  O14  1  0.880084  0.628942  0.055599  1
  O  O15  1  0.034077  0.284951  0.734124  1
  O  O16  1  0.965923  0.284951  0.234124  1
  O  O17  1  0.119916  0.371058  0.944401  1
  O  O18  1  0.615821  0.478592  0.884618  1
  O  O19  1  0.559756  0.154137  0.065680  1
  O  O20  1  0.119916  0.628942  0.555599  1
  O  O21  1  0.034077  0.715049  0.765876  1
  O  O22  1  0.447315  0.199065  0.275416  1
  O  O23  1  0.049314  0.947236  0.398199  1
  O  O24  1  0.440244  0.154137  0.565680  1
  O  O25  1  0.965923  0.715049  0.265876  1
  O  O26  1  0.950686  0.052764  0.601801  1
  O  O27  1  0.552685  0.199065  0.775416  1
  O  O28  1  0.552685  0.800935  0.724584  1
  O  O29  1  0.049314  0.052764  0.101801  1
  O  O30  1  0.615821  0.521408  0.615382  1
  O  O31  1  0.384179  0.521408  0.115382  1
  O  O32  1  0.447315  0.800935  0.224584  1
  O  O33  1  0.384179  0.478592  0.384618  1
  O  O34  1  0.559756  0.845863  0.434320  1
  O  O35  1  0.950686  0.947236  0.898199  1
