# generated using pymatgen
data_Lu10Tl6CuS
_symmetry_space_group_name_H-M   'P 1'
_cell_length_a   8.99079300
_cell_length_b   8.99079313
_cell_length_c   6.51730700
_cell_angle_alpha   90.00000000
_cell_angle_beta   90.00000000
_cell_angle_gamma   120.00000320
_symmetry_Int_Tables_number   1
_chemical_formula_structural   Lu10Tl6CuS
_chemical_formula_sum   'Lu10 Tl6 Cu1 S1'
_cell_volume   456.24151491
_cell_formula_units_Z   1
loop_
 _symmetry_equiv_pos_site_id
 _symmetry_equiv_pos_as_xyz
  1  'x, y, z'
loop_
 _atom_site_type_symbol
 _atom_site_label
 _atom_site_symmetry_multiplicity
 _atom_site_fract_x
 _atom_site_fract_y
 _atom_site_fract_z
 _atom_site_occupancy
  Lu  Lu0  1  0.247784  0.000000  0.737016  1
  Lu  Lu1  1  0.752216  0.000000  0.262984  1
  Lu  Lu2  1  0.000000  0.247784  0.737016  1
  Lu  Lu3  1  0.000000  0.752216  0.262984  1
  Lu  Lu4  1  0.752216  0.752216  0.737016  1
  Lu  Lu5  1  0.247784  0.247784  0.262984  1
  Lu  Lu6  1  0.333333  0.666667  0.500000  1
  Lu  Lu7  1  0.666667  0.333333  0.500000  1
  Lu  Lu8  1  0.666667  0.333333  0.000000  1
  Lu  Lu9  1  0.333333  0.666667  0.000000  1
  Tl  Tl10  1  0.601944  0.000000  0.746900  1
  Tl  Tl11  1  0.398056  0.000000  0.253100  1
  Tl  Tl12  1  0.000000  0.601944  0.746900  1
  Tl  Tl13  1  0.000000  0.398056  0.253100  1
  Tl  Tl14  1  0.398056  0.398056  0.746900  1
  Tl  Tl15  1  0.601944  0.601944  0.253100  1
  Cu  Cu16  1  0.000000  0.000000  0.000000  1
  S  S17  1  0.000000  0.000000  0.500000  1
