# generated using pymatgen
data_Tm3Lu2(OsO6)2
_symmetry_space_group_name_H-M   'P 1'
_cell_length_a   6.76908739
_cell_length_b   6.76908896
_cell_length_c   7.35641503
_cell_angle_alpha   74.06329930
_cell_angle_beta   74.06329907
_cell_angle_gamma   48.91598394
_symmetry_Int_Tables_number   1
_chemical_formula_structural   Tm3Lu2(OsO6)2
_chemical_formula_sum   'Tm3 Lu2 Os2 O12'
_cell_volume   242.23488627
_cell_formula_units_Z   1
loop_
 _symmetry_equiv_pos_site_id
 _symmetry_equiv_pos_as_xyz
  1  'x, y, z'
loop_
 _atom_site_type_symbol
 _atom_site_label
 _atom_site_symmetry_multiplicity
 _atom_site_fract_x
 _atom_site_fract_y
 _atom_site_fract_z
 _atom_site_occupancy
  Tm  Tm0  1  0.700014  0.700014  0.641039  1
  Tm  Tm1  1  0.299939  0.299939  0.359661  1
  Tm  Tm2  1  0.687597  0.687597  0.173127  1
  Lu  Lu3  1  0.312239  0.312239  0.826185  1
  Lu  Lu4  1  0.999934  0.999934  0.500329  1
  Os  Os5  1  0.780139  0.219989  0.999803  1
  Os  Os6  1  0.219989  0.780139  0.999803  1
  O  O7  1  0.001570  0.001570  0.206764  1
  O  O8  1  0.998425  0.998425  0.793359  1
  O  O9  1  0.575799  0.087358  0.087550  1
  O  O10  1  0.422594  0.915277  0.911025  1
  O  O11  1  0.915277  0.422594  0.911025  1
  O  O12  1  0.087358  0.575799  0.087550  1
  O  O13  1  0.499116  0.499116  0.179352  1
  O  O14  1  0.500057  0.500057  0.820231  1
  O  O15  1  0.401878  0.900795  0.429052  1
  O  O16  1  0.597112  0.100169  0.572546  1
  O  O17  1  0.100169  0.597112  0.572546  1
  O  O18  1  0.900795  0.401878  0.429052  1
