# generated using pymatgen
data_NdDy2Th3Si4
_symmetry_space_group_name_H-M   'P 1'
_cell_length_a   7.66545900
_cell_length_b   7.66545877
_cell_length_c   4.27748300
_cell_angle_alpha   90.00000000
_cell_angle_beta   90.00000000
_cell_angle_gamma   90.18474157
_symmetry_Int_Tables_number   1
_chemical_formula_structural   NdDy2Th3Si4
_chemical_formula_sum   'Nd1 Dy2 Th3 Si4'
_cell_volume   251.34042891
_cell_formula_units_Z   1
loop_
 _symmetry_equiv_pos_site_id
 _symmetry_equiv_pos_as_xyz
  1  'x, y, z'
loop_
 _atom_site_type_symbol
 _atom_site_label
 _atom_site_symmetry_multiplicity
 _atom_site_fract_x
 _atom_site_fract_y
 _atom_site_fract_z
 _atom_site_occupancy
  Nd  Nd0  1  0.823013  0.676987  0.500000  1
  Dy  Dy1  1  0.999152  0.000329  0.000000  1
  Dy  Dy2  1  0.499671  0.500848  0.000000  1
  Th  Th3  1  0.678094  0.178726  0.500000  1
  Th  Th4  1  0.321274  0.821906  0.500000  1
  Th  Th5  1  0.178395  0.321605  0.500000  1
  Si  Si6  1  0.118458  0.615169  0.000000  1
  Si  Si7  1  0.884831  0.381542  0.000000  1
  Si  Si8  1  0.614221  0.885779  0.000000  1
  Si  Si9  1  0.382891  0.117109  0.000000  1
