# generated using pymatgen
data_Tm4GaSi3Ni4
_symmetry_space_group_name_H-M   'P 1'
_cell_length_a   4.15120000
_cell_length_b   6.76462308
_cell_length_c   7.16848109
_cell_angle_alpha   90.01770677
_cell_angle_beta   90.00000000
_cell_angle_gamma   90.00000000
_symmetry_Int_Tables_number   1
_chemical_formula_structural   Tm4GaSi3Ni4
_chemical_formula_sum   'Tm4 Ga1 Si3 Ni4'
_cell_volume   201.30028219
_cell_formula_units_Z   1
loop_
 _symmetry_equiv_pos_site_id
 _symmetry_equiv_pos_as_xyz
  1  'x, y, z'
loop_
 _atom_site_type_symbol
 _atom_site_label
 _atom_site_symmetry_multiplicity
 _atom_site_fract_x
 _atom_site_fract_y
 _atom_site_fract_z
 _atom_site_occupancy
  Tm  Tm0  1  0.250000  0.006937  0.795644  1
  Tm  Tm1  1  0.250000  0.509417  0.700114  1
  Tm  Tm2  1  0.750000  0.987468  0.205272  1
  Tm  Tm3  1  0.750000  0.491760  0.300632  1
  Ga  Ga4  1  0.750000  0.305566  0.913589  1
  Si  Si5  1  0.250000  0.190561  0.411954  1
  Si  Si6  1  0.250000  0.685511  0.084413  1
  Si  Si7  1  0.750000  0.807497  0.587615  1
  Ni  Ni8  1  0.250000  0.807601  0.415886  1
  Ni  Ni9  1  0.250000  0.313239  0.093551  1
  Ni  Ni10  1  0.750000  0.187005  0.575326  1
  Ni  Ni11  1  0.750000  0.707439  0.916003  1
