# generated using pymatgen
data_Pr2Nd7Er11Pb16
_symmetry_space_group_name_H-M   'P 1'
_cell_length_a   8.27285103
_cell_length_b   8.39931761
_cell_length_c   15.80718504
_cell_angle_alpha   90.02566773
_cell_angle_beta   90.16723183
_cell_angle_gamma   89.99978620
_symmetry_Int_Tables_number   1
_chemical_formula_structural   Pr2Nd7Er11Pb16
_chemical_formula_sum   'Pr2 Nd7 Er11 Pb16'
_cell_volume   1098.37806711
_cell_formula_units_Z   1
loop_
 _symmetry_equiv_pos_site_id
 _symmetry_equiv_pos_as_xyz
  1  'x, y, z'
loop_
 _atom_site_type_symbol
 _atom_site_label
 _atom_site_symmetry_multiplicity
 _atom_site_fract_x
 _atom_site_fract_y
 _atom_site_fract_z
 _atom_site_occupancy
  Pr  Pr0  1  0.477312  0.678786  0.904097  1
  Pr  Pr1  1  0.974833  0.822336  0.597386  1
  Nd  Nd2  1  0.130818  0.339597  0.619879  1
  Nd  Nd3  1  0.473296  0.679329  0.597844  1
  Nd  Nd4  1  0.975396  0.822152  0.904076  1
  Nd  Nd5  1  0.524813  0.321363  0.097391  1
  Nd  Nd6  1  0.026726  0.176858  0.399576  1
  Nd  Nd7  1  0.524499  0.322772  0.401397  1
  Nd  Nd8  1  0.025132  0.177513  0.097839  1
  Er  Er9  1  0.634382  0.159132  0.623112  1
  Er  Er10  1  0.134688  0.341630  0.878164  1
  Er  Er11  1  0.364971  0.842679  0.122661  1
  Er  Er12  1  0.866333  0.657124  0.377485  1
  Er  Er13  1  0.367827  0.842357  0.375070  1
  Er  Er14  1  0.865769  0.658773  0.122905  1
  Er  Er15  1  0.633610  0.157540  0.879219  1
  Er  Er16  1  0.798609  0.494662  0.750899  1
  Er  Er17  1  0.300456  0.004302  0.751025  1
  Er  Er18  1  0.200700  0.505591  0.248941  1
  Er  Er19  1  0.700929  0.995240  0.250079  1
  Pb  Pb20  1  0.706549  0.961056  0.455940  1
  Pb  Pb21  1  0.204728  0.540118  0.043952  1
  Pb  Pb22  1  0.293776  0.041354  0.957255  1
  Pb  Pb23  1  0.783900  0.462880  0.542901  1
  Pb  Pb24  1  0.298859  0.035207  0.542032  1
  Pb  Pb25  1  0.796506  0.458705  0.957377  1
  Pb  Pb26  1  0.706036  0.958974  0.044223  1
  Pb  Pb27  1  0.207707  0.543310  0.452840  1
  Pb  Pb28  1  0.439303  0.370408  0.752180  1
  Pb  Pb29  1  0.935737  0.126469  0.752353  1
  Pb  Pb30  1  0.562779  0.628409  0.249050  1
  Pb  Pb31  1  0.061808  0.870637  0.249963  1
  Pb  Pb32  1  0.664393  0.850140  0.750502  1
  Pb  Pb33  1  0.163960  0.651881  0.751847  1
  Pb  Pb34  1  0.336397  0.151155  0.249208  1
  Pb  Pb35  1  0.836461  0.349562  0.249332  1
