# generated using pymatgen
data_Ho16Al4Fe3Cu
_symmetry_space_group_name_H-M   'P 1'
_cell_length_a   9.36619241
_cell_length_b   9.38644580
_cell_length_c   9.38644500
_cell_angle_alpha   60.00000634
_cell_angle_beta   59.92844916
_cell_angle_gamma   59.92845027
_symmetry_Int_Tables_number   1
_chemical_formula_structural   Ho16Al4Fe3Cu
_chemical_formula_sum   'Ho16 Al4 Fe3 Cu1'
_cell_volume   582.88098168
_cell_formula_units_Z   1
loop_
 _symmetry_equiv_pos_site_id
 _symmetry_equiv_pos_as_xyz
  1  'x, y, z'
loop_
 _atom_site_type_symbol
 _atom_site_label
 _atom_site_symmetry_multiplicity
 _atom_site_fract_x
 _atom_site_fract_y
 _atom_site_fract_z
 _atom_site_occupancy
  Ho  Ho0  1  0.343437  0.354813  0.354813  1
  Ho  Ho1  1  0.343437  0.354813  0.946938  1
  Ho  Ho2  1  0.343437  0.946938  0.354813  1
  Ho  Ho3  1  0.955791  0.348070  0.348070  1
  Ho  Ho4  1  0.816688  0.192858  0.192858  1
  Ho  Ho5  1  0.190543  0.807952  0.807952  1
  Ho  Ho6  1  0.190543  0.807952  0.193553  1
  Ho  Ho7  1  0.816688  0.192858  0.797596  1
  Ho  Ho8  1  0.190543  0.193553  0.807952  1
  Ho  Ho9  1  0.816688  0.797596  0.192858  1
  Ho  Ho10  1  0.937107  0.561369  0.561368  1
  Ho  Ho11  1  0.557291  0.939010  0.939009  1
  Ho  Ho12  1  0.557292  0.939010  0.564690  1
  Ho  Ho13  1  0.937107  0.561369  0.940155  1
  Ho  Ho14  1  0.557291  0.564691  0.939009  1
  Ho  Ho15  1  0.937107  0.940156  0.561368  1
  Al  Al16  1  0.578419  0.576112  0.576112  1
  Al  Al17  1  0.578419  0.576112  0.269357  1
  Al  Al18  1  0.578419  0.269357  0.576112  1
  Al  Al19  1  0.266980  0.577673  0.577673  1
  Fe  Fe20  1  0.143801  0.138325  0.138325  1
  Fe  Fe21  1  0.143801  0.138325  0.579549  1
  Fe  Fe22  1  0.143801  0.579549  0.138325  1
  Cu  Cu23  1  0.575376  0.141541  0.141541  1
