# generated using pymatgen
data_Hf6Al7Pd16S
_symmetry_space_group_name_H-M   'P 1'
_cell_length_a   8.80275299
_cell_length_b   8.80275218
_cell_length_c   8.80275200
_cell_angle_alpha   60.00000069
_cell_angle_beta   60.00000373
_cell_angle_gamma   59.99999945
_symmetry_Int_Tables_number   1
_chemical_formula_structural   Hf6Al7Pd16S
_chemical_formula_sum   'Hf6 Al7 Pd16 S1'
_cell_volume   482.32577713
_cell_formula_units_Z   1
loop_
 _symmetry_equiv_pos_site_id
 _symmetry_equiv_pos_as_xyz
  1  'x, y, z'
loop_
 _atom_site_type_symbol
 _atom_site_label
 _atom_site_symmetry_multiplicity
 _atom_site_fract_x
 _atom_site_fract_y
 _atom_site_fract_z
 _atom_site_occupancy
  Hf  Hf0  1  0.708528  0.291472  0.291472  1
  Hf  Hf1  1  0.291472  0.708528  0.708528  1
  Hf  Hf2  1  0.291472  0.708528  0.291472  1
  Hf  Hf3  1  0.708528  0.291472  0.708528  1
  Hf  Hf4  1  0.291472  0.291472  0.708528  1
  Hf  Hf5  1  0.708528  0.708528  0.291472  1
  Al  Al6  1  0.000000  0.000000  0.000000  1
  Al  Al7  1  0.500000  0.000000  0.000000  1
  Al  Al8  1  0.000000  0.500000  0.500000  1
  Al  Al9  1  0.000000  0.500000  0.000000  1
  Al  Al10  1  0.500000  0.000000  0.500000  1
  Al  Al11  1  0.000000  0.000000  0.500000  1
  Al  Al12  1  0.500000  0.500000  0.000000  1
  Pd  Pd13  1  0.117083  0.117083  0.117083  1
  Pd  Pd14  1  0.882917  0.882917  0.882917  1
  Pd  Pd15  1  0.117083  0.117083  0.648752  1
  Pd  Pd16  1  0.117083  0.648752  0.117083  1
  Pd  Pd17  1  0.882917  0.882917  0.351248  1
  Pd  Pd18  1  0.882917  0.351248  0.882917  1
  Pd  Pd19  1  0.648752  0.117083  0.117083  1
  Pd  Pd20  1  0.351248  0.882917  0.882917  1
  Pd  Pd21  1  0.338219  0.338219  0.338219  1
  Pd  Pd22  1  0.661781  0.661781  0.661781  1
  Pd  Pd23  1  0.338219  0.338219  0.985343  1
  Pd  Pd24  1  0.338219  0.985343  0.338219  1
  Pd  Pd25  1  0.661781  0.661781  0.014657  1
  Pd  Pd26  1  0.661781  0.014657  0.661781  1
  Pd  Pd27  1  0.985343  0.338219  0.338219  1
  Pd  Pd28  1  0.014657  0.661781  0.661781  1
  S  S29  1  0.500000  0.500000  0.500000  1
