# generated using pymatgen
data_SmErB6Os
_symmetry_space_group_name_H-M   'P 1'
_cell_length_a   3.67297100
_cell_length_b   9.17569100
_cell_length_c   11.59189700
_cell_angle_alpha   90.00000000
_cell_angle_beta   90.00000000
_cell_angle_gamma   90.00000000
_symmetry_Int_Tables_number   1
_chemical_formula_structural   SmErB6Os
_chemical_formula_sum   'Sm4 Er4 B24 Os4'
_cell_volume   390.67065691
_cell_formula_units_Z   4
loop_
 _symmetry_equiv_pos_site_id
 _symmetry_equiv_pos_as_xyz
  1  'x, y, z'
loop_
 _atom_site_type_symbol
 _atom_site_label
 _atom_site_symmetry_multiplicity
 _atom_site_fract_x
 _atom_site_fract_y
 _atom_site_fract_z
 _atom_site_occupancy
  Sm  Sm0  1  0.000000  0.322323  0.414117  1
  Sm  Sm1  1  0.000000  0.677677  0.585883  1
  Sm  Sm2  1  0.000000  0.822323  0.085883  1
  Sm  Sm3  1  0.000000  0.177677  0.914117  1
  Er  Er4  1  0.000000  0.944229  0.372643  1
  Er  Er5  1  0.000000  0.055771  0.627357  1
  Er  Er6  1  0.000000  0.444229  0.127357  1
  Er  Er7  1  0.000000  0.555771  0.872643  1
  B  B8  1  0.500000  0.555307  0.431490  1
  B  B9  1  0.500000  0.444693  0.568510  1
  B  B10  1  0.500000  0.055307  0.068510  1
  B  B11  1  0.500000  0.944693  0.931490  1
  B  B12  1  0.500000  0.749408  0.418288  1
  B  B13  1  0.500000  0.250592  0.581712  1
  B  B14  1  0.500000  0.249408  0.081712  1
  B  B15  1  0.500000  0.750592  0.918288  1
  B  B16  1  0.500000  0.791105  0.266715  1
  B  B17  1  0.500000  0.208895  0.733285  1
  B  B18  1  0.500000  0.291105  0.233285  1
  B  B19  1  0.500000  0.708895  0.766715  1
  B  B20  1  0.500000  0.630980  0.185177  1
  B  B21  1  0.500000  0.369020  0.814823  1
  B  B22  1  0.500000  0.130980  0.314823  1
  B  B23  1  0.500000  0.869020  0.685177  1
  B  B24  1  0.500000  0.984653  0.213889  1
  B  B25  1  0.500000  0.015347  0.786111  1
  B  B26  1  0.500000  0.484653  0.286111  1
  B  B27  1  0.500000  0.515347  0.713889  1
  B  B28  1  0.500000  0.603371  0.028426  1
  B  B29  1  0.500000  0.396629  0.971574  1
  B  B30  1  0.500000  0.103371  0.471574  1
  B  B31  1  0.500000  0.896629  0.528426  1
  Os  Os32  1  0.000000  0.638658  0.320033  1
  Os  Os33  1  0.000000  0.361342  0.679967  1
  Os  Os34  1  0.000000  0.138658  0.179967  1
  Os  Os35  1  0.000000  0.861342  0.820033  1
