# generated using pymatgen
data_SrAl4GeAu2
_symmetry_space_group_name_H-M   'P 1'
_cell_length_a   6.17077600
_cell_length_b   6.17077600
_cell_length_c   8.53014300
_cell_angle_alpha   90.00000000
_cell_angle_beta   90.00000000
_cell_angle_gamma   90.00000000
_symmetry_Int_Tables_number   1
_chemical_formula_structural   SrAl4GeAu2
_chemical_formula_sum   'Sr2 Al8 Ge2 Au4'
_cell_volume   324.81484927
_cell_formula_units_Z   2
loop_
 _symmetry_equiv_pos_site_id
 _symmetry_equiv_pos_as_xyz
  1  'x, y, z'
loop_
 _atom_site_type_symbol
 _atom_site_label
 _atom_site_symmetry_multiplicity
 _atom_site_fract_x
 _atom_site_fract_y
 _atom_site_fract_z
 _atom_site_occupancy
  Sr  Sr0  1  0.750000  0.250000  0.500000  1
  Sr  Sr1  1  0.250000  0.750000  0.500000  1
  Al  Al2  1  0.497374  0.497374  0.174224  1
  Al  Al3  1  0.002626  0.497374  0.174224  1
  Al  Al4  1  0.497374  0.002626  0.174224  1
  Al  Al5  1  0.002626  0.002626  0.174224  1
  Al  Al6  1  0.997374  0.997374  0.825777  1
  Al  Al7  1  0.502625  0.997374  0.825777  1
  Al  Al8  1  0.997374  0.502625  0.825777  1
  Al  Al9  1  0.502625  0.502625  0.825777  1
  Ge  Ge10  1  0.750000  0.750000  0.346960  1
  Ge  Ge11  1  0.250000  0.250000  0.653039  1
  Au  Au12  1  0.750000  0.250000  0.000000  1
  Au  Au13  1  0.250000  0.750000  0.000000  1
  Au  Au14  1  0.250000  0.250000  0.341892  1
  Au  Au15  1  0.750000  0.750000  0.658107  1
