# generated using pymatgen
data_K3In(AsS2)6
_symmetry_space_group_name_H-M   'P 1'
_cell_length_a   9.47583000
_cell_length_b   9.47582907
_cell_length_c   7.83107500
_cell_angle_alpha   90.00000000
_cell_angle_beta   90.00000000
_cell_angle_gamma   119.99999628
_symmetry_Int_Tables_number   1
_chemical_formula_structural   K3In(AsS2)6
_chemical_formula_sum   'K3 In1 As6 S12'
_cell_volume   608.95683567
_cell_formula_units_Z   1
loop_
 _symmetry_equiv_pos_site_id
 _symmetry_equiv_pos_as_xyz
  1  'x, y, z'
loop_
 _atom_site_type_symbol
 _atom_site_label
 _atom_site_symmetry_multiplicity
 _atom_site_fract_x
 _atom_site_fract_y
 _atom_site_fract_z
 _atom_site_occupancy
  K  K0  1  0.000000  0.000000  0.000000  1
  K  K1  1  0.333333  0.666667  0.850680  1
  K  K2  1  0.666667  0.333333  0.149320  1
  In  In3  1  0.000000  0.000000  0.500000  1
  As  As4  1  0.282836  0.832977  0.378627  1
  As  As5  1  0.167023  0.449859  0.378627  1
  As  As6  1  0.550141  0.717164  0.378627  1
  As  As7  1  0.717164  0.167023  0.621373  1
  As  As8  1  0.832977  0.550141  0.621373  1
  As  As9  1  0.449859  0.282836  0.621373  1
  S  S10  1  0.244698  0.035857  0.295449  1
  S  S11  1  0.964143  0.208841  0.295449  1
  S  S12  1  0.791159  0.755302  0.295449  1
  S  S13  1  0.755302  0.964143  0.704551  1
  S  S14  1  0.035857  0.791159  0.704551  1
  S  S15  1  0.208841  0.244698  0.704551  1
  S  S16  1  0.516714  0.906300  0.217619  1
  S  S17  1  0.093700  0.610413  0.217619  1
  S  S18  1  0.389587  0.483286  0.217619  1
  S  S19  1  0.483286  0.093700  0.782381  1
  S  S20  1  0.906300  0.389587  0.782381  1
  S  S21  1  0.610413  0.516714  0.782381  1
