# generated using pymatgen
data_Ca5Sn2BiF
_symmetry_space_group_name_H-M   'P 1'
_cell_length_a   9.48758907
_cell_length_b   9.48758888
_cell_length_c   9.48758939
_cell_angle_alpha   128.53584823
_cell_angle_beta   128.53584554
_cell_angle_gamma   75.75856494
_symmetry_Int_Tables_number   1
_chemical_formula_structural   Ca5Sn2BiF
_chemical_formula_sum   'Ca10 Sn4 Bi2 F2'
_cell_volume   508.25265567
_cell_formula_units_Z   2
loop_
 _symmetry_equiv_pos_site_id
 _symmetry_equiv_pos_as_xyz
  1  'x, y, z'
loop_
 _atom_site_type_symbol
 _atom_site_label
 _atom_site_symmetry_multiplicity
 _atom_site_fract_x
 _atom_site_fract_y
 _atom_site_fract_z
 _atom_site_occupancy
  Ca  Ca0  1  0.500000  0.500000  0.000000  1
  Ca  Ca1  1  0.000000  0.000000  0.000000  1
  Ca  Ca2  1  0.510428  0.010428  0.815492  1
  Ca  Ca3  1  0.194936  0.694936  0.184508  1
  Ca  Ca4  1  0.010428  0.194936  0.500000  1
  Ca  Ca5  1  0.694936  0.510428  0.500000  1
  Ca  Ca6  1  0.489572  0.989572  0.184508  1
  Ca  Ca7  1  0.805064  0.305064  0.815492  1
  Ca  Ca8  1  0.989572  0.805064  0.500000  1
  Ca  Ca9  1  0.305064  0.489572  0.500000  1
  Sn  Sn10  1  0.868982  0.368982  0.237965  1
  Sn  Sn11  1  0.131018  0.631018  0.762036  1
  Sn  Sn12  1  0.368982  0.131018  0.500000  1
  Sn  Sn13  1  0.631018  0.868982  0.500000  1
  Bi  Bi14  1  0.250000  0.250000  0.000000  1
  Bi  Bi15  1  0.750000  0.750000  0.000000  1
  F  F16  1  0.250000  0.750000  0.500000  1
  F  F17  1  0.750000  0.250000  0.500000  1
