# generated using pymatgen
data_Tm8Cu3Si12Ir
_symmetry_space_group_name_H-M   'P 1'
_cell_length_a   8.01011500
_cell_length_b   8.01011468
_cell_length_c   7.99871200
_cell_angle_alpha   90.00000000
_cell_angle_beta   90.00000000
_cell_angle_gamma   119.99999718
_symmetry_Int_Tables_number   1
_chemical_formula_structural   Tm8Cu3Si12Ir
_chemical_formula_sum   'Tm8 Cu3 Si12 Ir1'
_cell_volume   444.45540220
_cell_formula_units_Z   1
loop_
 _symmetry_equiv_pos_site_id
 _symmetry_equiv_pos_as_xyz
  1  'x, y, z'
loop_
 _atom_site_type_symbol
 _atom_site_label
 _atom_site_symmetry_multiplicity
 _atom_site_fract_x
 _atom_site_fract_y
 _atom_site_fract_z
 _atom_site_occupancy
  Tm  Tm0  1  0.499001  0.998002  0.251934  1
  Tm  Tm1  1  0.498412  0.996822  0.748053  1
  Tm  Tm2  1  0.001998  0.500999  0.251934  1
  Tm  Tm3  1  0.003178  0.501588  0.748053  1
  Tm  Tm4  1  0.499001  0.500999  0.251934  1
  Tm  Tm5  1  0.498412  0.501588  0.748053  1
  Tm  Tm6  1  0.000000  0.000000  0.248434  1
  Tm  Tm7  1  0.000000  0.000000  0.751187  1
  Cu  Cu8  1  0.333333  0.666667  0.001556  1
  Cu  Cu9  1  0.666667  0.333333  0.000030  1
  Cu  Cu10  1  0.666667  0.333333  0.500459  1
  Si  Si11  1  0.168938  0.337876  0.999741  1
  Si  Si12  1  0.831223  0.662448  0.999930  1
  Si  Si13  1  0.662124  0.831062  0.999741  1
  Si  Si14  1  0.831658  0.663316  0.500279  1
  Si  Si15  1  0.337552  0.168777  0.999930  1
  Si  Si16  1  0.166636  0.333272  0.499681  1
  Si  Si17  1  0.168938  0.831062  0.999741  1
  Si  Si18  1  0.336684  0.168342  0.500279  1
  Si  Si19  1  0.831223  0.168777  0.999930  1
  Si  Si20  1  0.666728  0.833364  0.499681  1
  Si  Si21  1  0.831658  0.168342  0.500279  1
  Si  Si22  1  0.166636  0.833364  0.499681  1
  Ir  Ir23  1  0.333333  0.666667  0.499485  1
