# generated using pymatgen
data_Tb(Ti3Pb2)2
_symmetry_space_group_name_H-M   'P 1'
_cell_length_a   8.49629563
_cell_length_b   8.49629550
_cell_length_c   8.49629551
_cell_angle_alpha   40.28961418
_cell_angle_beta   40.28961599
_cell_angle_gamma   40.28961369
_symmetry_Int_Tables_number   1
_chemical_formula_structural   Tb(Ti3Pb2)2
_chemical_formula_sum   'Tb1 Ti6 Pb4'
_cell_volume   231.21167907
_cell_formula_units_Z   1
loop_
 _symmetry_equiv_pos_site_id
 _symmetry_equiv_pos_as_xyz
  1  'x, y, z'
loop_
 _atom_site_type_symbol
 _atom_site_label
 _atom_site_symmetry_multiplicity
 _atom_site_fract_x
 _atom_site_fract_y
 _atom_site_fract_z
 _atom_site_occupancy
  Tb  Tb0  1  0.000000  0.000000  0.000000  1
  Ti  Ti1  1  0.601258  0.601258  0.117257  1
  Ti  Ti2  1  0.882744  0.398742  0.398741  1
  Ti  Ti3  1  0.398742  0.882744  0.398741  1
  Ti  Ti4  1  0.601258  0.117256  0.601259  1
  Ti  Ti5  1  0.117256  0.601258  0.601259  1
  Ti  Ti6  1  0.398742  0.398742  0.882743  1
  Pb  Pb7  1  0.126891  0.126891  0.126891  1
  Pb  Pb8  1  0.331951  0.331951  0.331951  1
  Pb  Pb9  1  0.668049  0.668049  0.668049  1
  Pb  Pb10  1  0.873109  0.873109  0.873109  1
