# generated using pymatgen
data_YPa3(Al8Pt3)3
_symmetry_space_group_name_H-M   'P 1'
_cell_length_a   7.57090762
_cell_length_b   7.58548883
_cell_length_c   13.15846716
_cell_angle_alpha   84.48806975
_cell_angle_beta   78.95365755
_cell_angle_gamma   59.92097644
_symmetry_Int_Tables_number   1
_chemical_formula_structural   YPa3(Al8Pt3)3
_chemical_formula_sum   'Y1 Pa3 Al24 Pt9'
_cell_volume   641.79927840
_cell_formula_units_Z   1
loop_
 _symmetry_equiv_pos_site_id
 _symmetry_equiv_pos_as_xyz
  1  'x, y, z'
loop_
 _atom_site_type_symbol
 _atom_site_label
 _atom_site_symmetry_multiplicity
 _atom_site_fract_x
 _atom_site_fract_y
 _atom_site_fract_z
 _atom_site_occupancy
  Y  Y0  1  0.266629  0.501248  0.191959  1
  Pa  Pa1  1  0.394043  0.167591  0.805704  1
  Pa  Pa2  1  0.604486  0.832304  0.195739  1
  Pa  Pa3  1  0.736158  0.498241  0.805704  1
  Al  Al4  1  0.682850  0.834013  0.947909  1
  Al  Al5  1  0.316635  0.165860  0.054697  1
  Al  Al6  1  0.145825  0.832831  0.560225  1
  Al  Al7  1  0.854606  0.166406  0.437957  1
  Al  Al8  1  0.480612  0.167438  0.557662  1
  Al  Al9  1  0.519102  0.833237  0.441392  1
  Al  Al10  1  0.214939  0.168019  0.330953  1
  Al  Al11  1  0.785317  0.834817  0.668113  1
  Al  Al12  1  0.435440  0.509202  0.668437  1
  Al  Al13  1  0.562166  0.491177  0.330601  1
  Al  Al14  1  0.110676  0.156721  0.666856  1
  Al  Al15  1  0.892443  0.839795  0.331857  1
  Al  Al16  1  0.352870  0.499126  0.944625  1
  Al  Al17  1  0.647678  0.500723  0.054859  1
  Al  Al18  1  0.015430  0.167818  0.953793  1
  Al  Al19  1  0.983618  0.832483  0.048729  1
  Al  Al20  1  0.186749  0.500160  0.440683  1
  Al  Al21  1  0.814407  0.499833  0.557540  1
  Al  Al22  1  0.735930  0.162261  0.182956  1
  Al  Al23  1  0.263534  0.835987  0.817462  1
  Al  Al24  1  0.060324  0.632883  0.816631  1
  Al  Al25  1  0.936967  0.369405  0.184254  1
  Al  Al26  1  0.856025  0.040083  0.817276  1
  Al  Al27  1  0.144888  0.960198  0.183377  1
  Pt  Pt28  1  0.120011  0.491385  0.639834  1
  Pt  Pt29  1  0.879556  0.508696  0.360740  1
  Pt  Pt30  1  0.657827  0.171838  0.000107  1
  Pt  Pt31  1  0.340741  0.827677  0.000376  1
  Pt  Pt32  1  0.537857  0.166301  0.360897  1
  Pt  Pt33  1  0.462389  0.832902  0.639112  1
  Pt  Pt34  1  0.777817  0.175517  0.638411  1
  Pt  Pt35  1  0.221854  0.824990  0.361684  1
  Pt  Pt36  1  0.001602  0.500832  0.000889  1
