# generated using pymatgen
data_Er2Lu2MnOsC4
_symmetry_space_group_name_H-M   'P 1'
_cell_length_a   4.98604900
_cell_length_b   6.37199263
_cell_length_c   9.54337508
_cell_angle_alpha   90.58380239
_cell_angle_beta   90.00000000
_cell_angle_gamma   90.00000000
_symmetry_Int_Tables_number   1
_chemical_formula_structural   Er2Lu2MnOsC4
_chemical_formula_sum   'Er4 Lu4 Mn2 Os2 C8'
_cell_volume   303.18747425
_cell_formula_units_Z   2
loop_
 _symmetry_equiv_pos_site_id
 _symmetry_equiv_pos_as_xyz
  1  'x, y, z'
loop_
 _atom_site_type_symbol
 _atom_site_label
 _atom_site_symmetry_multiplicity
 _atom_site_fract_x
 _atom_site_fract_y
 _atom_site_fract_z
 _atom_site_occupancy
  Er  Er0  1  0.250000  0.527068  0.214106  1
  Er  Er1  1  0.750000  0.472932  0.785894  1
  Er  Er2  1  0.750000  0.972869  0.713437  1
  Er  Er3  1  0.250000  0.027131  0.286563  1
  Lu  Lu4  1  0.250000  0.677758  0.557881  1
  Lu  Lu5  1  0.750000  0.322242  0.442119  1
  Lu  Lu6  1  0.750000  0.826091  0.053742  1
  Lu  Lu7  1  0.250000  0.173909  0.946258  1
  Mn  Mn8  1  0.250000  0.726125  0.863809  1
  Mn  Mn9  1  0.750000  0.273875  0.136191  1
  Os  Os10  1  0.750000  0.776825  0.363015  1
  Os  Os11  1  0.250000  0.223175  0.636985  1
  C  C12  1  0.250000  0.464998  0.766508  1
  C  C13  1  0.750000  0.535002  0.233492  1
  C  C14  1  0.750000  0.049683  0.255528  1
  C  C15  1  0.250000  0.950317  0.744472  1
  C  C16  1  0.250000  0.819938  0.042542  1
  C  C17  1  0.750000  0.180062  0.957458  1
  C  C18  1  0.750000  0.671190  0.553114  1
  C  C19  1  0.250000  0.328810  0.446886  1
