# generated using pymatgen
data_ErTm5(B7Os)2
_symmetry_space_group_name_H-M   'P 1'
_cell_length_a   7.95663500
_cell_length_b   7.95663504
_cell_length_c   9.25496100
_cell_angle_alpha   90.00000000
_cell_angle_beta   90.00000000
_cell_angle_gamma   154.67689855
_symmetry_Int_Tables_number   1
_chemical_formula_structural   ErTm5(B7Os)2
_chemical_formula_sum   'Er1 Tm5 B14 Os2'
_cell_volume   250.60827813
_cell_formula_units_Z   1
loop_
 _symmetry_equiv_pos_site_id
 _symmetry_equiv_pos_as_xyz
  1  'x, y, z'
loop_
 _atom_site_type_symbol
 _atom_site_label
 _atom_site_symmetry_multiplicity
 _atom_site_fract_x
 _atom_site_fract_y
 _atom_site_fract_z
 _atom_site_occupancy
  Er  Er0  1  0.245329  0.754671  0.250000  1
  Tm  Tm1  1  0.893754  0.106246  0.440810  1
  Tm  Tm2  1  0.106337  0.893663  0.559457  1
  Tm  Tm3  1  0.893754  0.106246  0.059190  1
  Tm  Tm4  1  0.106337  0.893663  0.940543  1
  Tm  Tm5  1  0.754964  0.245036  0.750000  1
  B  B6  1  0.727492  0.272508  0.466452  1
  B  B7  1  0.272474  0.727526  0.534426  1
  B  B8  1  0.727492  0.272508  0.033548  1
  B  B9  1  0.272474  0.727526  0.965574  1
  B  B10  1  0.632402  0.367598  0.150212  1
  B  B11  1  0.367494  0.632506  0.849620  1
  B  B12  1  0.632402  0.367598  0.349788  1
  B  B13  1  0.367494  0.632506  0.650380  1
  B  B14  1  0.519903  0.480097  0.095455  1
  B  B15  1  0.480077  0.519923  0.904506  1
  B  B16  1  0.519903  0.480097  0.404545  1
  B  B17  1  0.480077  0.519923  0.595494  1
  B  B18  1  0.454029  0.545971  0.250000  1
  B  B19  1  0.545905  0.454095  0.750000  1
  Os  Os20  1  0.053280  0.946720  0.250000  1
  Os  Os21  1  0.946629  0.053371  0.750000  1
