# generated using pymatgen
data_Zr10In4CuSb2Se
_symmetry_space_group_name_H-M   'P 1'
_cell_length_a   8.70790731
_cell_length_b   8.71697119
_cell_length_c   5.90515899
_cell_angle_alpha   89.90579006
_cell_angle_beta   90.04715184
_cell_angle_gamma   120.03443274
_symmetry_Int_Tables_number   1
_chemical_formula_structural   Zr10In4CuSb2Se
_chemical_formula_sum   'Zr10 In4 Cu1 Sb2 Se1'
_cell_volume   388.05229585
_cell_formula_units_Z   1
loop_
 _symmetry_equiv_pos_site_id
 _symmetry_equiv_pos_as_xyz
  1  'x, y, z'
loop_
 _atom_site_type_symbol
 _atom_site_label
 _atom_site_symmetry_multiplicity
 _atom_site_fract_x
 _atom_site_fract_y
 _atom_site_fract_z
 _atom_site_occupancy
  Zr  Zr0  1  0.735837  0.739301  0.248477  1
  Zr  Zr1  1  0.264163  0.003464  0.248477  1
  Zr  Zr2  1  0.000000  0.258900  0.246920  1
  Zr  Zr3  1  0.264526  0.265476  0.752756  1
  Zr  Zr4  1  0.735474  0.000950  0.752756  1
  Zr  Zr5  1  0.000000  0.735973  0.751884  1
  Zr  Zr6  1  0.664906  0.331666  0.501149  1
  Zr  Zr7  1  0.335094  0.666762  0.501149  1
  Zr  Zr8  1  0.334379  0.665970  0.999584  1
  Zr  Zr9  1  0.665621  0.331590  0.999584  1
  In  In10  1  0.000000  0.610555  0.249222  1
  In  In11  1  0.613441  0.612631  0.751971  1
  In  In12  1  0.386559  0.999190  0.751971  1
  In  In13  1  0.000000  0.390163  0.752698  1
  Cu  Cu14  1  0.000000  0.995838  0.991748  1
  Sb  Sb15  1  0.391855  0.392055  0.247489  1
  Sb  Sb16  1  0.608145  0.000200  0.247489  1
  Se  Se17  1  0.000000  0.999315  0.504676  1
