# generated using pymatgen
data_GdPa3Ni4SnPt
_symmetry_space_group_name_H-M   'P 1'
_cell_length_a   7.25413100
_cell_length_b   7.26682968
_cell_length_c   3.57561100
_cell_angle_alpha   90.00000000
_cell_angle_beta   90.00000000
_cell_angle_gamma   90.38690635
_symmetry_Int_Tables_number   1
_chemical_formula_structural   GdPa3Ni4SnPt
_chemical_formula_sum   'Gd1 Pa3 Ni4 Sn1 Pt1'
_cell_volume   188.48237185
_cell_formula_units_Z   1
loop_
 _symmetry_equiv_pos_site_id
 _symmetry_equiv_pos_as_xyz
  1  'x, y, z'
loop_
 _atom_site_type_symbol
 _atom_site_label
 _atom_site_symmetry_multiplicity
 _atom_site_fract_x
 _atom_site_fract_y
 _atom_site_fract_z
 _atom_site_occupancy
  Gd  Gd0  1  0.816142  0.669493  0.500000  1
  Pa  Pa1  1  0.665248  0.192846  0.500000  1
  Pa  Pa2  1  0.339702  0.809914  0.500000  1
  Pa  Pa3  1  0.179913  0.329951  0.500000  1
  Ni  Ni4  1  0.881462  0.365106  0.000000  1
  Ni  Ni5  1  0.137733  0.620426  0.000000  1
  Ni  Ni6  1  0.370207  0.132437  0.000000  1
  Ni  Ni7  1  0.610549  0.888847  0.000000  1
  Sn  Sn8  1  0.996387  0.991165  0.000000  1
  Pt  Pt9  1  0.502659  0.499814  0.000000  1
