# generated using pymatgen
data_Er4Ta5TiSi8
_symmetry_space_group_name_H-M   'P 1'
_cell_length_a   7.02575303
_cell_length_b   7.01873903
_cell_length_c   12.92095700
_cell_angle_alpha   90.00000000
_cell_angle_beta   90.00000000
_cell_angle_gamma   89.98971943
_symmetry_Int_Tables_number   1
_chemical_formula_structural   Er4Ta5TiSi8
_chemical_formula_sum   'Er8 Ta10 Ti2 Si16'
_cell_volume   637.15727787
_cell_formula_units_Z   2
loop_
 _symmetry_equiv_pos_site_id
 _symmetry_equiv_pos_as_xyz
  1  'x, y, z'
loop_
 _atom_site_type_symbol
 _atom_site_label
 _atom_site_symmetry_multiplicity
 _atom_site_fract_x
 _atom_site_fract_y
 _atom_site_fract_z
 _atom_site_occupancy
  Er  Er0  1  0.341958  0.002301  0.467677  1
  Er  Er1  1  0.498590  0.842122  0.717834  1
  Er  Er2  1  0.501410  0.157878  0.217834  1
  Er  Er3  1  0.842170  0.498413  0.282402  1
  Er  Er4  1  0.157830  0.501587  0.782402  1
  Er  Er5  1  0.658042  0.997700  0.967677  1
  Er  Er6  1  0.002373  0.341072  0.532083  1
  Er  Er7  1  0.997628  0.658928  0.032083  1
  Ta  Ta8  1  0.328824  0.329100  0.999659  1
  Ta  Ta9  1  0.173012  0.826539  0.250085  1
  Ta  Ta10  1  0.826988  0.173461  0.750085  1
  Ta  Ta11  1  0.671176  0.670900  0.499659  1
  Ta  Ta12  1  0.152459  0.006948  0.873969  1
  Ta  Ta13  1  0.493325  0.652131  0.124306  1
  Ta  Ta14  1  0.506675  0.347869  0.624306  1
  Ta  Ta15  1  0.651781  0.492269  0.875915  1
  Ta  Ta16  1  0.348219  0.507731  0.375915  1
  Ta  Ta17  1  0.847541  0.993052  0.373969  1
  Ti  Ti18  1  0.007586  0.152993  0.125919  1
  Ti  Ti19  1  0.992414  0.847007  0.625919  1
  Si  Si20  1  0.202045  0.132392  0.681396  1
  Si  Si21  1  0.365246  0.704797  0.931557  1
  Si  Si22  1  0.634754  0.295203  0.431557  1
  Si  Si23  1  0.704970  0.363857  0.068892  1
  Si  Si24  1  0.295030  0.636143  0.568892  1
  Si  Si25  1  0.797955  0.867608  0.181396  1
  Si  Si26  1  0.134641  0.202946  0.317912  1
  Si  Si27  1  0.865359  0.797054  0.817912  1
  Si  Si28  1  0.292722  0.954615  0.064569  1
  Si  Si29  1  0.546675  0.795089  0.313804  1
  Si  Si30  1  0.453325  0.204911  0.813804  1
  Si  Si31  1  0.796591  0.547815  0.685153  1
  Si  Si32  1  0.203409  0.452185  0.185153  1
  Si  Si33  1  0.707278  0.045385  0.564569  1
  Si  Si34  1  0.954012  0.294389  0.936867  1
  Si  Si35  1  0.045988  0.705611  0.436867  1
