# generated using pymatgen
data_Lu12Tc3AgTe
_symmetry_space_group_name_H-M   'P 1'
_cell_length_a   8.24274524
_cell_length_b   8.24274495
_cell_length_c   8.24274500
_cell_angle_alpha   111.20703755
_cell_angle_beta   107.29862162
_cell_angle_gamma   109.93226301
_symmetry_Int_Tables_number   1
_chemical_formula_structural   Lu12Tc3AgTe
_chemical_formula_sum   'Lu12 Tc3 Ag1 Te1'
_cell_volume   430.59736187
_cell_formula_units_Z   1
loop_
 _symmetry_equiv_pos_site_id
 _symmetry_equiv_pos_as_xyz
  1  'x, y, z'
loop_
 _atom_site_type_symbol
 _atom_site_label
 _atom_site_symmetry_multiplicity
 _atom_site_fract_x
 _atom_site_fract_y
 _atom_site_fract_z
 _atom_site_occupancy
  Lu  Lu0  1  0.320253  0.322308  0.642562  1
  Lu  Lu1  1  0.679747  0.677692  0.357438  1
  Lu  Lu2  1  0.679747  0.322308  0.002056  1
  Lu  Lu3  1  0.320253  0.677692  0.997944  1
  Lu  Lu4  1  0.185528  0.438260  0.252733  1
  Lu  Lu5  1  0.814472  0.561740  0.747267  1
  Lu  Lu6  1  0.185528  0.932793  0.747267  1
  Lu  Lu7  1  0.951350  0.186387  0.764964  1
  Lu  Lu8  1  0.814472  0.067207  0.252733  1
  Lu  Lu9  1  0.048650  0.813613  0.235036  1
  Lu  Lu10  1  0.421423  0.186387  0.235036  1
  Lu  Lu11  1  0.578577  0.813613  0.764964  1
  Tc  Tc12  1  0.337588  0.337588  0.000000  1
  Tc  Tc13  1  0.662412  0.662412  0.000000  1
  Tc  Tc14  1  0.000000  0.000000  0.000000  1
  Ag  Ag15  1  0.000000  0.500000  0.500000  1
  Te  Te16  1  0.500000  0.000000  0.500000  1
