# generated using pymatgen
data_Ta3AlIrN
_symmetry_space_group_name_H-M   'P 1'
_cell_length_a   7.01417200
_cell_length_b   7.01417200
_cell_length_c   7.01417200
_cell_angle_alpha   90.00000000
_cell_angle_beta   90.00000000
_cell_angle_gamma   90.00000000
_symmetry_Int_Tables_number   1
_chemical_formula_structural   Ta3AlIrN
_chemical_formula_sum   'Ta12 Al4 Ir4 N4'
_cell_volume   345.08750460
_cell_formula_units_Z   4
loop_
 _symmetry_equiv_pos_site_id
 _symmetry_equiv_pos_as_xyz
  1  'x, y, z'
loop_
 _atom_site_type_symbol
 _atom_site_label
 _atom_site_symmetry_multiplicity
 _atom_site_fract_x
 _atom_site_fract_y
 _atom_site_fract_z
 _atom_site_occupancy
  Ta  Ta0  1  0.793724  0.954983  0.376710  1
  Ta  Ta1  1  0.706276  0.045017  0.876710  1
  Ta  Ta2  1  0.206276  0.454983  0.123290  1
  Ta  Ta3  1  0.293724  0.545017  0.623290  1
  Ta  Ta4  1  0.954983  0.376710  0.793724  1
  Ta  Ta5  1  0.045017  0.876710  0.706276  1
  Ta  Ta6  1  0.454983  0.123290  0.206276  1
  Ta  Ta7  1  0.545017  0.623290  0.293724  1
  Ta  Ta8  1  0.376710  0.793724  0.954983  1
  Ta  Ta9  1  0.876710  0.706276  0.045017  1
  Ta  Ta10  1  0.123290  0.206276  0.454983  1
  Ta  Ta11  1  0.623290  0.293724  0.545017  1
  Al  Al12  1  0.570013  0.429987  0.929987  1
  Al  Al13  1  0.429987  0.929987  0.570013  1
  Al  Al14  1  0.929987  0.570013  0.429987  1
  Al  Al15  1  0.070013  0.070013  0.070013  1
  Ir  Ir16  1  0.177907  0.822093  0.322093  1
  Ir  Ir17  1  0.322093  0.177907  0.822093  1
  Ir  Ir18  1  0.822093  0.322093  0.177907  1
  Ir  Ir19  1  0.677907  0.677907  0.677907  1
  N  N20  1  0.874254  0.125746  0.625746  1
  N  N21  1  0.625746  0.874254  0.125746  1
  N  N22  1  0.125746  0.625746  0.874254  1
  N  N23  1  0.374254  0.374254  0.374254  1
