# generated using pymatgen
data_Dy2Er8GaSb5
_symmetry_space_group_name_H-M   'P 1'
_cell_length_a   8.86266800
_cell_length_b   8.84885881
_cell_length_c   6.35092800
_cell_angle_alpha   90.00000000
_cell_angle_beta   90.00000000
_cell_angle_gamma   120.05163642
_symmetry_Int_Tables_number   1
_chemical_formula_structural   Dy2Er8GaSb5
_chemical_formula_sum   'Dy2 Er8 Ga1 Sb5'
_cell_volume   431.11522313
_cell_formula_units_Z   1
loop_
 _symmetry_equiv_pos_site_id
 _symmetry_equiv_pos_as_xyz
  1  'x, y, z'
loop_
 _atom_site_type_symbol
 _atom_site_label
 _atom_site_symmetry_multiplicity
 _atom_site_fract_x
 _atom_site_fract_y
 _atom_site_fract_z
 _atom_site_occupancy
  Dy  Dy0  1  0.999172  0.243793  0.250000  1
  Dy  Dy1  1  0.755380  0.756207  0.250000  1
  Er  Er2  1  0.011694  0.764928  0.750000  1
  Er  Er3  1  0.750665  0.000000  0.750000  1
  Er  Er4  1  0.246767  0.235072  0.750000  1
  Er  Er5  1  0.244186  0.000000  0.250000  1
  Er  Er6  1  0.334739  0.675183  0.501583  1
  Er  Er7  1  0.659557  0.324817  0.998417  1
  Er  Er8  1  0.659557  0.324817  0.501583  1
  Er  Er9  1  0.334739  0.675183  0.998417  1
  Ga  Ga10  1  0.394329  0.000000  0.750000  1
  Sb  Sb11  1  0.390185  0.392526  0.250000  1
  Sb  Sb12  1  0.997659  0.607474  0.250000  1
  Sb  Sb13  1  0.002251  0.390145  0.750000  1
  Sb  Sb14  1  0.612106  0.609855  0.750000  1
  Sb  Sb15  1  0.607012  0.000000  0.250000  1
