# generated using pymatgen
data_Ca10AlSi9O
_symmetry_space_group_name_H-M   'P 1'
_cell_length_a   10.78807881
_cell_length_b   10.79284336
_cell_length_c   10.79284400
_cell_angle_alpha   155.33112527
_cell_angle_beta   110.35213351
_cell_angle_gamma   75.13848476
_symmetry_Int_Tables_number   1
_chemical_formula_structural   Ca10AlSi9O
_chemical_formula_sum   'Ca10 Al1 Si9 O1'
_cell_volume   486.02142556
_cell_formula_units_Z   1
loop_
 _symmetry_equiv_pos_site_id
 _symmetry_equiv_pos_as_xyz
  1  'x, y, z'
loop_
 _atom_site_type_symbol
 _atom_site_label
 _atom_site_symmetry_multiplicity
 _atom_site_fract_x
 _atom_site_fract_y
 _atom_site_fract_z
 _atom_site_occupancy
  Ca  Ca0  1  0.848183  0.848107  0.000076  1
  Ca  Ca1  1  0.188850  0.998451  0.190399  1
  Ca  Ca2  1  0.476991  0.811290  0.665700  1
  Ca  Ca3  1  0.855382  0.188515  0.666869  1
  Ca  Ca4  1  0.805781  0.999972  0.805809  1
  Ca  Ca5  1  0.000299  0.500731  0.499569  1
  Ca  Ca6  1  0.154137  0.153305  0.000832  1
  Ca  Ca7  1  0.524365  0.191994  0.332373  1
  Ca  Ca8  1  0.502260  0.998105  0.504154  1
  Ca  Ca9  1  0.143735  0.809903  0.333832  1
  Al  Al10  1  0.412438  0.570212  0.842228  1
  Si  Si11  1  0.272929  0.428880  0.844049  1
  Si  Si12  1  0.587580  0.431115  0.156465  1
  Si  Si13  1  0.728378  0.570686  0.157692  1
  Si  Si14  1  0.691718  0.367129  0.324589  1
  Si  Si15  1  0.654451  0.651036  0.003414  1
  Si  Si16  1  0.304807  0.635610  0.669197  1
  Si  Si17  1  0.350192  0.349799  0.000393  1
  Si  Si18  1  0.040281  0.364898  0.675383  1
  Si  Si19  1  0.959430  0.632598  0.326833  1
  O  O20  1  0.997813  0.997668  0.000146  1
