# generated using pymatgen
data_Lu5Sc3Re3B24Ru
_symmetry_space_group_name_H-M   'P 1'
_cell_length_a   3.56645200
_cell_length_b   8.97833249
_cell_length_c   11.33675405
_cell_angle_alpha   90.07358889
_cell_angle_beta   90.00000000
_cell_angle_gamma   90.00000000
_symmetry_Int_Tables_number   1
_chemical_formula_structural   Lu5Sc3Re3B24Ru
_chemical_formula_sum   'Lu5 Sc3 Re3 B24 Ru1'
_cell_volume   363.01154240
_cell_formula_units_Z   1
loop_
 _symmetry_equiv_pos_site_id
 _symmetry_equiv_pos_as_xyz
  1  'x, y, z'
loop_
 _atom_site_type_symbol
 _atom_site_label
 _atom_site_symmetry_multiplicity
 _atom_site_fract_x
 _atom_site_fract_y
 _atom_site_fract_z
 _atom_site_occupancy
  Lu  Lu0  1  0.000000  0.320836  0.414380  1
  Lu  Lu1  1  0.000000  0.678566  0.588273  1
  Lu  Lu2  1  0.000000  0.822222  0.083517  1
  Lu  Lu3  1  0.000000  0.178930  0.912964  1
  Lu  Lu4  1  0.000000  0.942670  0.371468  1
  Sc  Sc5  1  0.000000  0.056186  0.630345  1
  Sc  Sc6  1  0.000000  0.443550  0.128166  1
  Sc  Sc7  1  0.000000  0.556481  0.871459  1
  Re  Re8  1  0.000000  0.361364  0.680511  1
  Re  Re9  1  0.000000  0.141375  0.179688  1
  Re  Re10  1  0.000000  0.860756  0.819817  1
  B  B11  1  0.500000  0.553300  0.433402  1
  B  B12  1  0.500000  0.446487  0.566129  1
  B  B13  1  0.500000  0.054113  0.065699  1
  B  B14  1  0.500000  0.946893  0.933322  1
  B  B15  1  0.500000  0.749383  0.419450  1
  B  B16  1  0.500000  0.246522  0.580633  1
  B  B17  1  0.500000  0.254202  0.079976  1
  B  B18  1  0.500000  0.746926  0.919725  1
  B  B19  1  0.500000  0.791315  0.263925  1
  B  B20  1  0.500000  0.205844  0.735457  1
  B  B21  1  0.500000  0.295399  0.235430  1
  B  B22  1  0.500000  0.705590  0.765110  1
  B  B23  1  0.500000  0.628579  0.182858  1
  B  B24  1  0.500000  0.371498  0.817028  1
  B  B25  1  0.500000  0.130943  0.316419  1
  B  B26  1  0.500000  0.870611  0.683489  1
  B  B27  1  0.500000  0.980733  0.211647  1
  B  B28  1  0.500000  0.019905  0.786671  1
  B  B29  1  0.500000  0.480829  0.286935  1
  B  B30  1  0.500000  0.520247  0.713398  1
  B  B31  1  0.500000  0.597880  0.027248  1
  B  B32  1  0.500000  0.403360  0.973356  1
  B  B33  1  0.500000  0.098694  0.474469  1
  B  B34  1  0.500000  0.900890  0.528902  1
  Ru  Ru35  1  0.000000  0.636917  0.318734  1
