# generated using pymatgen
data_Li4Er3ThPt4
_symmetry_space_group_name_H-M   'P 1'
_cell_length_a   4.00306800
_cell_length_b   7.04662619
_cell_length_c   8.45347343
_cell_angle_alpha   90.07916442
_cell_angle_beta   90.00000000
_cell_angle_gamma   90.00000000
_symmetry_Int_Tables_number   1
_chemical_formula_structural   Li4Er3ThPt4
_chemical_formula_sum   'Li4 Er3 Th1 Pt4'
_cell_volume   238.45639733
_cell_formula_units_Z   1
loop_
 _symmetry_equiv_pos_site_id
 _symmetry_equiv_pos_as_xyz
  1  'x, y, z'
loop_
 _atom_site_type_symbol
 _atom_site_label
 _atom_site_symmetry_multiplicity
 _atom_site_fract_x
 _atom_site_fract_y
 _atom_site_fract_z
 _atom_site_occupancy
  Li  Li0  1  0.250000  0.628811  0.562928  1
  Li  Li1  1  0.250000  0.132067  0.937723  1
  Li  Li2  1  0.750000  0.377103  0.443458  1
  Li  Li3  1  0.750000  0.863837  0.053768  1
  Er  Er4  1  0.250000  0.544710  0.177928  1
  Er  Er5  1  0.750000  0.956839  0.689554  1
  Er  Er6  1  0.750000  0.456182  0.816763  1
  Th  Th7  1  0.250000  0.041978  0.312531  1
  Pt  Pt8  1  0.250000  0.245493  0.622215  1
  Pt  Pt9  1  0.250000  0.743871  0.877911  1
  Pt  Pt10  1  0.750000  0.754363  0.381024  1
  Pt  Pt11  1  0.750000  0.254746  0.124193  1
