# generated using pymatgen
data_Co4TcB4Mo3
_symmetry_space_group_name_H-M   'P 1'
_cell_length_a   3.23466600
_cell_length_b   5.73679228
_cell_length_c   6.60424705
_cell_angle_alpha   90.41857013
_cell_angle_beta   90.00000000
_cell_angle_gamma   90.00000000
_symmetry_Int_Tables_number   1
_chemical_formula_structural   Co4TcB4Mo3
_chemical_formula_sum   'Co4 Tc1 B4 Mo3'
_cell_volume   122.54914633
_cell_formula_units_Z   1
loop_
 _symmetry_equiv_pos_site_id
 _symmetry_equiv_pos_as_xyz
  1  'x, y, z'
loop_
 _atom_site_type_symbol
 _atom_site_label
 _atom_site_symmetry_multiplicity
 _atom_site_fract_x
 _atom_site_fract_y
 _atom_site_fract_z
 _atom_site_occupancy
  Co  Co0  1  0.750000  0.856249  0.556192  1
  Co  Co1  1  0.250000  0.146255  0.445160  1
  Co  Co2  1  0.750000  0.353142  0.943551  1
  Co  Co3  1  0.250000  0.644506  0.055310  1
  Tc  Tc4  1  0.250000  0.529914  0.672064  1
  B  B5  1  0.250000  0.773046  0.377287  1
  B  B6  1  0.750000  0.229374  0.627076  1
  B  B7  1  0.250000  0.272964  0.124659  1
  B  B8  1  0.750000  0.723427  0.871999  1
  Mo  Mo9  1  0.750000  0.472063  0.326910  1
  Mo  Mo10  1  0.250000  0.027086  0.826442  1
  Mo  Mo11  1  0.750000  0.971974  0.173350  1
