# generated using pymatgen
data_Nd2CuSn4
_symmetry_space_group_name_H-M   'P 1'
_cell_length_a   4.49812900
_cell_length_b   9.06657700
_cell_length_c   17.81311900
_cell_angle_alpha   90.00000000
_cell_angle_beta   90.00000000
_cell_angle_gamma   90.00000000
_symmetry_Int_Tables_number   1
_chemical_formula_structural   Nd2CuSn4
_chemical_formula_sum   'Nd8 Cu4 Sn16'
_cell_volume   726.46589359
_cell_formula_units_Z   4
loop_
 _symmetry_equiv_pos_site_id
 _symmetry_equiv_pos_as_xyz
  1  'x, y, z'
loop_
 _atom_site_type_symbol
 _atom_site_label
 _atom_site_symmetry_multiplicity
 _atom_site_fract_x
 _atom_site_fract_y
 _atom_site_fract_z
 _atom_site_occupancy
  Nd  Nd0  1  0.250000  0.610391  0.647407  1
  Nd  Nd1  1  0.250000  0.366427  0.146896  1
  Nd  Nd2  1  0.250000  0.889609  0.147407  1
  Nd  Nd3  1  0.750000  0.110391  0.852593  1
  Nd  Nd4  1  0.750000  0.633573  0.853104  1
  Nd  Nd5  1  0.250000  0.133573  0.646896  1
  Nd  Nd6  1  0.750000  0.866427  0.353104  1
  Nd  Nd7  1  0.750000  0.389609  0.352593  1
  Cu  Cu8  1  0.750000  0.356533  0.569351  1
  Cu  Cu9  1  0.250000  0.643467  0.430649  1
  Cu  Cu10  1  0.750000  0.143467  0.069351  1
  Cu  Cu11  1  0.250000  0.856533  0.930649  1
  Sn  Sn12  1  0.250000  0.608828  0.007532  1
  Sn  Sn13  1  0.750000  0.868426  0.009875  1
  Sn  Sn14  1  0.750000  0.626731  0.177973  1
  Sn  Sn15  1  0.250000  0.126731  0.322027  1
  Sn  Sn16  1  0.750000  0.391172  0.992468  1
  Sn  Sn17  1  0.750000  0.371912  0.713661  1
  Sn  Sn18  1  0.750000  0.631574  0.509875  1
  Sn  Sn19  1  0.250000  0.871912  0.786339  1
  Sn  Sn20  1  0.750000  0.108828  0.492468  1
  Sn  Sn21  1  0.250000  0.373269  0.822027  1
  Sn  Sn22  1  0.750000  0.128088  0.213661  1
  Sn  Sn23  1  0.250000  0.368426  0.490125  1
  Sn  Sn24  1  0.250000  0.628088  0.286339  1
  Sn  Sn25  1  0.750000  0.873269  0.677973  1
  Sn  Sn26  1  0.250000  0.891172  0.507532  1
  Sn  Sn27  1  0.250000  0.131574  0.990125  1
