# generated using pymatgen
data_DyCo2(SiRh)3
_symmetry_space_group_name_H-M   'P 1'
_cell_length_a   3.79492600
_cell_length_b   10.90648600
_cell_length_c   12.38493400
_cell_angle_alpha   90.00000000
_cell_angle_beta   90.00000000
_cell_angle_gamma   90.00000000
_symmetry_Int_Tables_number   1
_chemical_formula_structural   DyCo2(SiRh)3
_chemical_formula_sum   'Dy4 Co8 Si12 Rh12'
_cell_volume   512.60383909
_cell_formula_units_Z   4
loop_
 _symmetry_equiv_pos_site_id
 _symmetry_equiv_pos_as_xyz
  1  'x, y, z'
loop_
 _atom_site_type_symbol
 _atom_site_label
 _atom_site_symmetry_multiplicity
 _atom_site_fract_x
 _atom_site_fract_y
 _atom_site_fract_z
 _atom_site_occupancy
  Dy  Dy0  1  0.250000  0.583302  0.707389  1
  Dy  Dy1  1  0.250000  0.916698  0.207389  1
  Dy  Dy2  1  0.750000  0.416698  0.292611  1
  Dy  Dy3  1  0.750000  0.083302  0.792611  1
  Co  Co4  1  0.250000  0.887654  0.696971  1
  Co  Co5  1  0.250000  0.612346  0.196971  1
  Co  Co6  1  0.750000  0.112346  0.303029  1
  Co  Co7  1  0.750000  0.387654  0.803029  1
  Co  Co8  1  0.250000  0.468248  0.931325  1
  Co  Co9  1  0.250000  0.031752  0.431325  1
  Co  Co10  1  0.750000  0.531752  0.068675  1
  Co  Co11  1  0.750000  0.968248  0.568675  1
  Si  Si12  1  0.250000  0.424555  0.108089  1
  Si  Si13  1  0.250000  0.075445  0.608089  1
  Si  Si14  1  0.750000  0.575445  0.891911  1
  Si  Si15  1  0.750000  0.924555  0.391911  1
  Si  Si16  1  0.250000  0.276988  0.873092  1
  Si  Si17  1  0.250000  0.223012  0.373092  1
  Si  Si18  1  0.750000  0.723012  0.126908  1
  Si  Si19  1  0.750000  0.776988  0.626908  1
  Si  Si20  1  0.250000  0.603815  0.387164  1
  Si  Si21  1  0.250000  0.896185  0.887164  1
  Si  Si22  1  0.750000  0.396185  0.612836  1
  Si  Si23  1  0.750000  0.103815  0.112836  1
  Rh  Rh24  1  0.250000  0.705591  0.990793  1
  Rh  Rh25  1  0.250000  0.794409  0.490793  1
  Rh  Rh26  1  0.750000  0.294409  0.009207  1
  Rh  Rh27  1  0.750000  0.205591  0.509207  1
  Rh  Rh28  1  0.250000  0.406101  0.485929  1
  Rh  Rh29  1  0.250000  0.093899  0.985929  1
  Rh  Rh30  1  0.750000  0.593899  0.514071  1
  Rh  Rh31  1  0.750000  0.906101  0.014071  1
  Rh  Rh32  1  0.250000  0.223282  0.181116  1
  Rh  Rh33  1  0.250000  0.276718  0.681116  1
  Rh  Rh34  1  0.750000  0.776718  0.818884  1
  Rh  Rh35  1  0.750000  0.723282  0.318884  1
