# generated using pymatgen
data_Ho3Pa(Co5P3)4
_symmetry_space_group_name_H-M   'P 1'
_cell_length_a   3.66286200
_cell_length_b   10.29724300
_cell_length_c   11.71628200
_cell_angle_alpha   90.00113903
_cell_angle_beta   90.00000000
_cell_angle_gamma   90.00000000
_symmetry_Int_Tables_number   1
_chemical_formula_structural   Ho3Pa(Co5P3)4
_chemical_formula_sum   'Ho3 Pa1 Co20 P12'
_cell_volume   441.90746139
_cell_formula_units_Z   1
loop_
 _symmetry_equiv_pos_site_id
 _symmetry_equiv_pos_as_xyz
  1  'x, y, z'
loop_
 _atom_site_type_symbol
 _atom_site_label
 _atom_site_symmetry_multiplicity
 _atom_site_fract_x
 _atom_site_fract_y
 _atom_site_fract_z
 _atom_site_occupancy
  Ho  Ho0  1  0.250000  0.916824  0.201952  1
  Ho  Ho1  1  0.750000  0.416845  0.298530  1
  Ho  Ho2  1  0.750000  0.082797  0.797496  1
  Pa  Pa3  1  0.250000  0.582593  0.702915  1
  Co  Co4  1  0.250000  0.716850  0.989850  1
  Co  Co5  1  0.250000  0.781921  0.491169  1
  Co  Co6  1  0.750000  0.282588  0.006199  1
  Co  Co7  1  0.750000  0.216127  0.506199  1
  Co  Co8  1  0.250000  0.407943  0.488362  1
  Co  Co9  1  0.250000  0.092604  0.988141  1
  Co  Co10  1  0.750000  0.592813  0.516980  1
  Co  Co11  1  0.750000  0.906243  0.011429  1
  Co  Co12  1  0.250000  0.221615  0.176424  1
  Co  Co13  1  0.250000  0.278142  0.677431  1
  Co  Co14  1  0.750000  0.776981  0.821985  1
  Co  Co15  1  0.750000  0.720981  0.324150  1
  Co  Co16  1  0.250000  0.882886  0.698435  1
  Co  Co17  1  0.250000  0.617350  0.198784  1
  Co  Co18  1  0.750000  0.116476  0.300445  1
  Co  Co19  1  0.750000  0.387194  0.800313  1
  Co  Co20  1  0.250000  0.467353  0.931652  1
  Co  Co21  1  0.250000  0.032062  0.431208  1
  Co  Co22  1  0.750000  0.530901  0.070313  1
  Co  Co23  1  0.750000  0.970628  0.567889  1
  P  P24  1  0.250000  0.418328  0.113788  1
  P  P25  1  0.250000  0.081922  0.612499  1
  P  P26  1  0.750000  0.583195  0.892056  1
  P  P27  1  0.750000  0.918701  0.387145  1
  P  P28  1  0.250000  0.269559  0.870830  1
  P  P29  1  0.250000  0.228830  0.369096  1
  P  P30  1  0.750000  0.729186  0.129998  1
  P  P31  1  0.750000  0.775913  0.628703  1
  P  P32  1  0.250000  0.601690  0.390168  1
  P  P33  1  0.250000  0.899425  0.891228  1
  P  P34  1  0.750000  0.393223  0.607860  1
  P  P35  1  0.750000  0.101314  0.108378  1
