# generated using pymatgen
data_PmCuPF
_symmetry_space_group_name_H-M   'P 1'
_cell_length_a   5.45289994
_cell_length_b   5.45426306
_cell_length_c   10.09295473
_cell_angle_alpha   90.00881381
_cell_angle_beta   122.70595103
_cell_angle_gamma   89.98345060
_symmetry_Int_Tables_number   1
_chemical_formula_structural   PmCuPF
_chemical_formula_sum   'Pm4 Cu4 P4 F4'
_cell_volume   252.58795587
_cell_formula_units_Z   4
loop_
 _symmetry_equiv_pos_site_id
 _symmetry_equiv_pos_as_xyz
  1  'x, y, z'
loop_
 _atom_site_type_symbol
 _atom_site_label
 _atom_site_symmetry_multiplicity
 _atom_site_fract_x
 _atom_site_fract_y
 _atom_site_fract_z
 _atom_site_occupancy
  Pm  Pm0  1  0.190497  0.737972  0.190580  1
  Pm  Pm1  1  0.690688  0.237852  0.190338  1
  Pm  Pm2  1  0.309313  0.737852  0.809661  1
  Pm  Pm3  1  0.809509  0.237975  0.809419  1
  Cu  Cu4  1  0.250858  0.485006  0.499866  1
  Cu  Cu5  1  0.752027  0.485136  0.499956  1
  Cu  Cu6  1  0.248000  0.985130  0.500071  1
  Cu  Cu7  1  0.749093  0.984985  0.500108  1
  P  P8  1  0.827455  0.736535  0.327629  1
  P  P9  1  0.328418  0.236489  0.328238  1
  P  P10  1  0.671579  0.736487  0.671759  1
  P  P11  1  0.172554  0.236543  0.672372  1
  F  F12  1  0.750623  0.990443  0.999872  1
  F  F13  1  0.249392  0.490439  0.000135  1
  F  F14  1  0.249967  0.990557  0.999807  1
  F  F15  1  0.750028  0.490557  0.000188  1
