# generated using pymatgen
data_Li3PrDy2(TeO6)2
_symmetry_space_group_name_H-M   'P 1'
_cell_length_a   10.86703803
_cell_length_b   10.82000591
_cell_length_c   10.84689659
_cell_angle_alpha   109.34018001
_cell_angle_beta   109.51604065
_cell_angle_gamma   109.54493798
_symmetry_Int_Tables_number   1
_chemical_formula_structural   Li3PrDy2(TeO6)2
_chemical_formula_sum   'Li12 Pr4 Dy8 Te8 O48'
_cell_volume   981.94705660
_cell_formula_units_Z   4
loop_
 _symmetry_equiv_pos_site_id
 _symmetry_equiv_pos_as_xyz
  1  'x, y, z'
loop_
 _atom_site_type_symbol
 _atom_site_label
 _atom_site_symmetry_multiplicity
 _atom_site_fract_x
 _atom_site_fract_y
 _atom_site_fract_z
 _atom_site_occupancy
  Li  Li0  1  0.876606  0.750308  0.127191  1
  Li  Li1  1  0.250582  0.876882  0.127185  1
  Li  Li2  1  0.875869  0.125907  0.250888  1
  Li  Li3  1  0.375019  0.624982  0.250890  1
  Li  Li4  1  0.749981  0.625024  0.374316  1
  Li  Li5  1  0.624339  0.249296  0.374320  1
  Li  Li6  1  0.373613  0.749493  0.622577  1
  Li  Li7  1  0.248964  0.373085  0.622579  1
  Li  Li8  1  0.124855  0.875656  0.749599  1
  Li  Li9  1  0.624743  0.373943  0.749597  1
  Li  Li10  1  0.124377  0.249301  0.875296  1
  Li  Li11  1  0.750922  0.125997  0.875299  1
  Pr  Pr12  1  0.375037  0.125038  0.750075  1
  Pr  Pr13  1  0.874098  0.624098  0.748196  1
  Pr  Pr14  1  0.250023  0.624166  0.875878  1
  Pr  Pr15  1  0.625856  0.751712  0.875879  1
  Dy  Dy16  1  0.751295  0.375942  0.126709  1
  Dy  Dy17  1  0.375416  0.250769  0.126710  1
  Dy  Dy18  1  0.626245  0.876244  0.252489  1
  Dy  Dy19  1  0.125009  0.375008  0.250018  1
  Dy  Dy20  1  0.249112  0.124562  0.373117  1
  Dy  Dy21  1  0.124007  0.748557  0.373116  1
  Dy  Dy22  1  0.749947  0.876298  0.623616  1
  Dy  Dy23  1  0.873669  0.247319  0.623617  1
  Te  Te24  1  0.003281  0.004512  0.001548  1
  Te  Te25  1  0.502129  0.004421  0.005834  1
  Te  Te26  1  0.503705  0.501413  0.005834  1
  Te  Te27  1  0.998267  0.497036  0.001547  1
  Te  Te28  1  0.997391  0.998148  0.497135  1
  Te  Te29  1  0.496591  0.498575  0.495481  1
  Te  Te30  1  0.499743  0.998986  0.497134  1
  Te  Te31  1  0.998890  0.496906  0.495481  1
  O  O32  1  0.906187  0.327543  0.029680  1
  O  O33  1  0.123493  0.202139  0.029681  1
  O  O34  1  0.411441  0.886463  0.086124  1
  O  O35  1  0.674685  0.699661  0.086125  1
  O  O36  1  0.671693  0.977053  0.099455  1
  O  O37  1  0.427762  0.622403  0.099455  1
  O  O38  1  0.922716  0.592905  0.122325  1
  O  O39  1  0.199610  0.029421  0.122326  1
  O  O40  1  0.579093  0.202615  0.173619  1
  O  O41  1  0.594527  0.471007  0.173621  1
  O  O42  1  0.170720  0.576096  0.198429  1
  O  O43  1  0.027710  0.122332  0.198430  1
  O  O44  1  0.376437  0.470645  0.298356  1
  O  O45  1  0.921919  0.327712  0.298356  1
  O  O46  1  0.301205  0.922637  0.328053  1
  O  O47  1  0.026848  0.905416  0.328053  1
  O  O48  1  0.905367  0.575943  0.377383  1
  O  O49  1  0.472016  0.301441  0.377384  1
  O  O50  1  0.527197  0.828714  0.404642  1
  O  O51  1  0.877445  0.075928  0.404643  1
  O  O52  1  0.800035  0.828635  0.422538  1
  O  O53  1  0.622501  0.093902  0.422536  1
  O  O54  1  0.300067  0.378091  0.470589  1
  O  O55  1  0.170522  0.592499  0.470590  1
  O  O56  1  0.693697  0.621284  0.522480  1
  O  O57  1  0.828783  0.401197  0.522480  1
  O  O58  1  0.193517  0.169678  0.571941  1
  O  O59  1  0.378425  0.902263  0.571941  1
  O  O60  1  0.112759  0.916182  0.588496  1
  O  O61  1  0.475739  0.172316  0.588497  1
  O  O62  1  0.523171  0.697017  0.612622  1
  O  O63  1  0.089450  0.415605  0.612622  1
  O  O64  1  0.973111  0.094223  0.669663  1
  O  O65  1  0.696554  0.075441  0.669663  1
  O  O66  1  0.612449  0.519878  0.690860  1
  O  O67  1  0.078411  0.670982  0.690861  1
  O  O68  1  0.977054  0.887656  0.803491  1
  O  O69  1  0.826437  0.415835  0.803491  1
  O  O70  1  0.407742  0.519922  0.829601  1
  O  O71  1  0.421861  0.809679  0.829603  1
  O  O72  1  0.806489  0.977507  0.878682  1
  O  O73  1  0.072194  0.401176  0.878682  1
  O  O74  1  0.585161  0.386784  0.913024  1
  O  O75  1  0.327862  0.026238  0.913022  1
  O  O76  1  0.330177  0.305794  0.928376  1
  O  O77  1  0.598200  0.122582  0.928375  1
  O  O78  1  0.092697  0.671459  0.979989  1
  O  O79  1  0.887293  0.808530  0.979988  1
