# generated using pymatgen
data_YbDyRe4(SiC)2
_symmetry_space_group_name_H-M   'P 1'
_cell_length_a   5.75835872
_cell_length_b   5.75835873
_cell_length_c   7.34981000
_cell_angle_alpha   90.00000000
_cell_angle_beta   90.00000000
_cell_angle_gamma   139.73612693
_symmetry_Int_Tables_number   1
_chemical_formula_structural   YbDyRe4(SiC)2
_chemical_formula_sum   'Yb1 Dy1 Re4 Si2 C2'
_cell_volume   157.51197949
_cell_formula_units_Z   1
loop_
 _symmetry_equiv_pos_site_id
 _symmetry_equiv_pos_as_xyz
  1  'x, y, z'
loop_
 _atom_site_type_symbol
 _atom_site_label
 _atom_site_symmetry_multiplicity
 _atom_site_fract_x
 _atom_site_fract_y
 _atom_site_fract_z
 _atom_site_occupancy
  Yb  Yb0  1  0.540660  0.459340  0.250000  1
  Dy  Dy1  1  0.459515  0.540485  0.750000  1
  Re  Re2  1  0.826194  0.173806  0.061289  1
  Re  Re3  1  0.175334  0.824666  0.940167  1
  Re  Re4  1  0.175334  0.824666  0.559833  1
  Re  Re5  1  0.826194  0.173806  0.438711  1
  Si  Si6  1  0.263111  0.736889  0.250000  1
  Si  Si7  1  0.733177  0.266823  0.750000  1
  C  C8  1  0.000241  0.999759  0.997720  1
  C  C9  1  0.000241  0.999759  0.502280  1
