# generated using pymatgen
data_TbDy5(Ho3Ir2)2
_symmetry_space_group_name_H-M   'P 1'
_cell_length_a   6.37830009
_cell_length_b   7.23529301
_cell_length_c   9.23122537
_cell_angle_alpha   89.99996484
_cell_angle_beta   90.15978514
_cell_angle_gamma   89.99499936
_symmetry_Int_Tables_number   1
_chemical_formula_structural   TbDy5(Ho3Ir2)2
_chemical_formula_sum   'Tb1 Dy5 Ho6 Ir4'
_cell_volume   426.00896182
_cell_formula_units_Z   1
loop_
 _symmetry_equiv_pos_site_id
 _symmetry_equiv_pos_as_xyz
  1  'x, y, z'
loop_
 _atom_site_type_symbol
 _atom_site_label
 _atom_site_symmetry_multiplicity
 _atom_site_fract_x
 _atom_site_fract_y
 _atom_site_fract_z
 _atom_site_occupancy
  Tb  Tb0  1  0.369669  0.965871  0.750077  1
  Dy  Dy1  1  0.328055  0.676958  0.062529  1
  Dy  Dy2  1  0.171855  0.177034  0.437427  1
  Dy  Dy3  1  0.868791  0.534178  0.250235  1
  Dy  Dy4  1  0.631194  0.034260  0.249783  1
  Dy  Dy5  1  0.130438  0.465788  0.749901  1
  Ho  Ho6  1  0.671491  0.323428  0.563138  1
  Ho  Ho7  1  0.828647  0.823313  0.937014  1
  Ho  Ho8  1  0.671574  0.323158  0.936907  1
  Ho  Ho9  1  0.828564  0.823101  0.562961  1
  Ho  Ho10  1  0.328697  0.676540  0.437301  1
  Ho  Ho11  1  0.171232  0.176677  0.062719  1
  Ir  Ir12  1  0.047630  0.882768  0.249957  1
  Ir  Ir13  1  0.452310  0.382772  0.250018  1
  Ir  Ir14  1  0.951096  0.117355  0.750847  1
  Ir  Ir15  1  0.548756  0.616798  0.749184  1
