# generated using pymatgen
data_ErLuFe4Co8P7
_symmetry_space_group_name_H-M   'P 1'
_cell_length_a   8.94565600
_cell_length_b   8.95274363
_cell_length_c   3.59604300
_cell_angle_alpha   90.00000000
_cell_angle_beta   90.00000000
_cell_angle_gamma   119.91381323
_symmetry_Int_Tables_number   1
_chemical_formula_structural   ErLuFe4Co8P7
_chemical_formula_sum   'Er1 Lu1 Fe4 Co8 P7'
_cell_volume   249.63206490
_cell_formula_units_Z   1
loop_
 _symmetry_equiv_pos_site_id
 _symmetry_equiv_pos_as_xyz
  1  'x, y, z'
loop_
 _atom_site_type_symbol
 _atom_site_label
 _atom_site_symmetry_multiplicity
 _atom_site_fract_x
 _atom_site_fract_y
 _atom_site_fract_z
 _atom_site_occupancy
  Er  Er0  1  0.000837  0.000310  0.000000  1
  Lu  Lu1  1  0.333245  0.666279  0.500000  1
  Fe  Fe2  1  0.391761  0.176320  0.000000  1
  Fe  Fe3  1  0.884426  0.457029  0.500000  1
  Fe  Fe4  1  0.542240  0.429989  0.500000  1
  Fe  Fe5  1  0.569761  0.110952  0.500000  1
  Co  Co6  1  0.099936  0.705123  0.000000  1
  Co  Co7  1  0.295332  0.395289  0.000000  1
  Co  Co8  1  0.605149  0.899939  0.000000  1
  Co  Co9  1  0.823512  0.215463  0.000000  1
  Co  Co10  1  0.784741  0.609372  0.000000  1
  Co  Co11  1  0.051828  0.282855  0.500000  1
  Co  Co12  1  0.717421  0.769313  0.500000  1
  Co  Co13  1  0.231721  0.948246  0.500000  1
  P  P14  1  0.077238  0.447967  0.000000  1
  P  P15  1  0.551978  0.628810  0.000000  1
  P  P16  1  0.370525  0.923035  0.000000  1
  P  P17  1  0.780194  0.044035  0.500000  1
  P  P18  1  0.956888  0.736001  0.500000  1
  P  P19  1  0.265556  0.219939  0.500000  1
  P  P20  1  0.665714  0.333730  0.000000  1
