# generated using pymatgen
data_Pr12IrOs(RhBr6)2
_symmetry_space_group_name_H-M   'P 1'
_cell_length_a   10.56752138
_cell_length_b   10.56752226
_cell_length_c   10.56832916
_cell_angle_alpha   109.43394975
_cell_angle_beta   109.43395271
_cell_angle_gamma   109.45526607
_symmetry_Int_Tables_number   1
_chemical_formula_structural   Pr12IrOs(RhBr6)2
_chemical_formula_sum   'Pr12 Ir1 Os1 Rh2 Br12'
_cell_volume   909.52535345
_cell_formula_units_Z   1
loop_
 _symmetry_equiv_pos_site_id
 _symmetry_equiv_pos_as_xyz
  1  'x, y, z'
loop_
 _atom_site_type_symbol
 _atom_site_label
 _atom_site_symmetry_multiplicity
 _atom_site_fract_x
 _atom_site_fract_y
 _atom_site_fract_z
 _atom_site_occupancy
  Pr  Pr0  1  0.468521  0.481524  0.236198  1
  Pr  Pr1  1  0.749398  0.233117  0.266278  1
  Pr  Pr2  1  0.749344  0.015265  0.483988  1
  Pr  Pr3  1  0.236017  0.468334  0.481469  1
  Pr  Pr4  1  0.266883  0.750602  0.233722  1
  Pr  Pr5  1  0.031666  0.263983  0.018531  1
  Pr  Pr6  1  0.018476  0.031479  0.263802  1
  Pr  Pr7  1  0.484735  0.750656  0.016012  1
  Pr  Pr8  1  0.481946  0.235542  0.468272  1
  Pr  Pr9  1  0.015433  0.484567  0.750000  1
  Pr  Pr10  1  0.264458  0.018054  0.031728  1
  Pr  Pr11  1  0.233527  0.266473  0.750000  1
  Ir  Ir12  1  0.501027  0.998973  0.250000  1
  Os  Os13  1  0.249554  0.250446  0.250000  1
  Rh  Rh14  1  0.999586  0.250455  0.501708  1
  Rh  Rh15  1  0.249545  0.500414  0.998292  1
  Br  Br16  1  0.249802  0.753516  0.746125  1
  Br  Br17  1  0.509113  0.504545  0.755151  1
  Br  Br18  1  0.990676  0.744746  0.995326  1
  Br  Br19  1  0.746484  0.250198  0.753875  1
  Br  Br20  1  0.995455  0.990887  0.744849  1
  Br  Br21  1  0.249809  0.995362  0.504659  1
  Br  Br22  1  0.755254  0.509324  0.504674  1
  Br  Br23  1  0.504638  0.250191  0.995341  1
  Br  Br24  1  0.753718  0.746282  0.250000  1
  Br  Br25  1  0.744966  0.995414  0.990796  1
  Br  Br26  1  0.995382  0.504618  0.250000  1
  Br  Br27  1  0.504586  0.755034  0.509204  1
