# generated using pymatgen
data_Yb3LuTh6(Si3C)2
_symmetry_space_group_name_H-M   'P 1'
_cell_length_a   8.77071801
_cell_length_b   8.77060821
_cell_length_c   6.37174106
_cell_angle_alpha   89.99059384
_cell_angle_beta   89.99448602
_cell_angle_gamma   119.99999296
_symmetry_Int_Tables_number   1
_chemical_formula_structural   Yb3LuTh6(Si3C)2
_chemical_formula_sum   'Yb3 Lu1 Th6 Si6 C2'
_cell_volume   424.47647376
_cell_formula_units_Z   1
loop_
 _symmetry_equiv_pos_site_id
 _symmetry_equiv_pos_as_xyz
  1  'x, y, z'
loop_
 _atom_site_type_symbol
 _atom_site_label
 _atom_site_symmetry_multiplicity
 _atom_site_fract_x
 _atom_site_fract_y
 _atom_site_fract_z
 _atom_site_occupancy
  Yb  Yb0  1  0.666676  0.333308  0.499995  1
  Yb  Yb1  1  0.333307  0.666701  0.500001  1
  Yb  Yb2  1  0.333347  0.666673  0.000007  1
  Lu  Lu3  1  0.666694  0.333365  0.999983  1
  Th  Th4  1  0.763870  0.765030  0.250438  1
  Th  Th5  1  0.234928  0.998825  0.250044  1
  Th  Th6  1  0.001154  0.236067  0.249996  1
  Th  Th7  1  0.234959  0.236132  0.749556  1
  Th  Th8  1  0.763927  0.998831  0.749953  1
  Th  Th9  1  0.001177  0.765072  0.750016  1
  Si  Si10  1  0.402469  0.394608  0.239534  1
  Si  Si11  1  0.605383  0.007852  0.239510  1
  Si  Si12  1  0.992129  0.597523  0.239522  1
  Si  Si13  1  0.605387  0.597526  0.760472  1
  Si  Si14  1  0.402467  0.007870  0.760485  1
  Si  Si15  1  0.992136  0.394615  0.760482  1
  C  C16  1  0.999991  0.999997  0.500002  1
  C  C17  1  0.999997  0.000002  0.000002  1
