# generated using pymatgen
data_Sm2Fe2SiGeC
_symmetry_space_group_name_H-M   'P 1'
_cell_length_a   4.00586781
_cell_length_b   5.74784255
_cell_length_c   5.83464548
_cell_angle_alpha   73.46248626
_cell_angle_beta   69.92297828
_cell_angle_gamma   69.60642110
_symmetry_Int_Tables_number   1
_chemical_formula_structural   Sm2Fe2SiGeC
_chemical_formula_sum   'Sm2 Fe2 Si1 Ge1 C1'
_cell_volume   116.17435185
_cell_formula_units_Z   1
loop_
 _symmetry_equiv_pos_site_id
 _symmetry_equiv_pos_as_xyz
  1  'x, y, z'
loop_
 _atom_site_type_symbol
 _atom_site_label
 _atom_site_symmetry_multiplicity
 _atom_site_fract_x
 _atom_site_fract_y
 _atom_site_fract_z
 _atom_site_occupancy
  Sm  Sm0  1  0.442601  0.822328  0.292470  1
  Sm  Sm1  1  0.557891  0.178365  0.705852  1
  Fe  Fe2  1  0.800838  0.303264  0.095061  1
  Fe  Fe3  1  0.193222  0.697005  0.916552  1
  Si  Si4  1  0.172727  0.385663  0.268884  1
  Ge  Ge5  1  0.834545  0.612465  0.718444  1
  C  C6  1  0.998177  0.000910  0.002736  1
