# generated using pymatgen
data_PrY2Cu2Ir7
_symmetry_space_group_name_H-M   'P 1'
_cell_length_a   9.01157252
_cell_length_b   9.01157326
_cell_length_c   9.01157258
_cell_angle_alpha   34.63168340
_cell_angle_beta   34.63168040
_cell_angle_gamma   34.63167425
_symmetry_Int_Tables_number   1
_chemical_formula_structural   PrY2Cu2Ir7
_chemical_formula_sum   'Pr1 Y2 Cu2 Ir7'
_cell_volume   210.90003351
_cell_formula_units_Z   1
loop_
 _symmetry_equiv_pos_site_id
 _symmetry_equiv_pos_as_xyz
  1  'x, y, z'
loop_
 _atom_site_type_symbol
 _atom_site_label
 _atom_site_symmetry_multiplicity
 _atom_site_fract_x
 _atom_site_fract_y
 _atom_site_fract_z
 _atom_site_occupancy
  Pr  Pr0  1  0.000000  0.000000  0.000000  1
  Y  Y1  1  0.858989  0.858989  0.858989  1
  Y  Y2  1  0.141011  0.141011  0.141011  1
  Cu  Cu3  1  0.665733  0.665733  0.665733  1
  Cu  Cu4  1  0.334267  0.334267  0.334267  1
  Ir  Ir5  1  0.414628  0.414628  0.922122  1
  Ir  Ir6  1  0.922122  0.414628  0.414628  1
  Ir  Ir7  1  0.414628  0.922122  0.414628  1
  Ir  Ir8  1  0.500000  0.500000  0.500000  1
  Ir  Ir9  1  0.585372  0.077878  0.585372  1
  Ir  Ir10  1  0.077878  0.585372  0.585372  1
  Ir  Ir11  1  0.585372  0.585372  0.077878  1
