# generated using pymatgen
data_LuCd(CuO2)4
_symmetry_space_group_name_H-M   'P 1'
_cell_length_a   6.22714495
_cell_length_b   6.22714522
_cell_length_c   6.22714557
_cell_angle_alpha   125.85576129
_cell_angle_beta   125.85575928
_cell_angle_gamma   80.12533514
_symmetry_Int_Tables_number   1
_chemical_formula_structural   LuCd(CuO2)4
_chemical_formula_sum   'Lu1 Cd1 Cu4 O8'
_cell_volume   153.11504767
_cell_formula_units_Z   1
loop_
 _symmetry_equiv_pos_site_id
 _symmetry_equiv_pos_as_xyz
  1  'x, y, z'
loop_
 _atom_site_type_symbol
 _atom_site_label
 _atom_site_symmetry_multiplicity
 _atom_site_fract_x
 _atom_site_fract_y
 _atom_site_fract_z
 _atom_site_occupancy
  Lu  Lu0  1  0.750000  0.250000  0.500000  1
  Cd  Cd1  1  0.000000  0.000000  0.000000  1
  Cu  Cu2  1  0.873138  0.630589  0.254340  1
  Cu  Cu3  1  0.376248  0.618798  0.745660  1
  Cu  Cu4  1  0.381202  0.126862  0.757450  1
  Cu  Cu5  1  0.369411  0.623752  0.242550  1
  O  O6  1  0.416539  0.261354  0.572280  1
  O  O7  1  0.041980  0.415998  0.056552  1
  O  O8  1  0.014573  0.958020  0.374019  1
  O  O9  1  0.155741  0.583461  0.844814  1
  O  O10  1  0.584002  0.640554  0.625981  1
  O  O11  1  0.738646  0.310927  0.155186  1
  O  O12  1  0.689073  0.844259  0.427720  1
  O  O13  1  0.359446  0.985427  0.943448  1
