# generated using pymatgen
data_PrEu3(AlPt)4
_symmetry_space_group_name_H-M   'P 1'
_cell_length_a   4.42352100
_cell_length_b   7.26726720
_cell_length_c   7.94854542
_cell_angle_alpha   90.28364147
_cell_angle_beta   90.00000000
_cell_angle_gamma   90.00000000
_symmetry_Int_Tables_number   1
_chemical_formula_structural   PrEu3(AlPt)4
_chemical_formula_sum   'Pr1 Eu3 Al4 Pt4'
_cell_volume   255.51803576
_cell_formula_units_Z   1
loop_
 _symmetry_equiv_pos_site_id
 _symmetry_equiv_pos_as_xyz
  1  'x, y, z'
loop_
 _atom_site_type_symbol
 _atom_site_label
 _atom_site_symmetry_multiplicity
 _atom_site_fract_x
 _atom_site_fract_y
 _atom_site_fract_z
 _atom_site_occupancy
  Pr  Pr0  1  0.750000  0.472190  0.179793  1
  Eu  Eu1  1  0.250000  0.526151  0.817818  1
  Eu  Eu2  1  0.250000  0.025952  0.680121  1
  Eu  Eu3  1  0.750000  0.974906  0.320488  1
  Al  Al4  1  0.250000  0.142778  0.067207  1
  Al  Al5  1  0.750000  0.353894  0.568633  1
  Al  Al6  1  0.250000  0.646045  0.432748  1
  Al  Al7  1  0.750000  0.856309  0.932506  1
  Pt  Pt8  1  0.250000  0.786067  0.114130  1
  Pt  Pt9  1  0.250000  0.289898  0.386378  1
  Pt  Pt10  1  0.750000  0.711808  0.612295  1
  Pt  Pt11  1  0.750000  0.214002  0.887883  1
