# generated using pymatgen
data_Y4Ho6CoHg3
_symmetry_space_group_name_H-M   'P 1'
_cell_length_a   9.62983000
_cell_length_b   9.62983051
_cell_length_c   9.54467700
_cell_angle_alpha   90.00000000
_cell_angle_beta   90.00000000
_cell_angle_gamma   119.99999826
_symmetry_Int_Tables_number   1
_chemical_formula_structural   Y4Ho6CoHg3
_chemical_formula_sum   'Y8 Ho12 Co2 Hg6'
_cell_volume   766.52996889
_cell_formula_units_Z   2
loop_
 _symmetry_equiv_pos_site_id
 _symmetry_equiv_pos_as_xyz
  1  'x, y, z'
loop_
 _atom_site_type_symbol
 _atom_site_label
 _atom_site_symmetry_multiplicity
 _atom_site_fract_x
 _atom_site_fract_y
 _atom_site_fract_z
 _atom_site_occupancy
  Y  Y0  1  0.000000  0.000000  0.500000  1
  Y  Y1  1  0.000000  0.000000  0.000000  1
  Y  Y2  1  0.542017  0.457983  0.250000  1
  Y  Y3  1  0.542017  0.084035  0.250000  1
  Y  Y4  1  0.915965  0.457983  0.250000  1
  Y  Y5  1  0.457983  0.542017  0.750000  1
  Y  Y6  1  0.457983  0.915965  0.750000  1
  Y  Y7  1  0.084035  0.542017  0.750000  1
  Ho  Ho8  1  0.211415  0.788585  0.435225  1
  Ho  Ho9  1  0.211415  0.422831  0.435225  1
  Ho  Ho10  1  0.577169  0.788585  0.435225  1
  Ho  Ho11  1  0.788585  0.211415  0.564775  1
  Ho  Ho12  1  0.788585  0.577169  0.564775  1
  Ho  Ho13  1  0.422831  0.211415  0.564775  1
  Ho  Ho14  1  0.788585  0.211415  0.935225  1
  Ho  Ho15  1  0.788585  0.577169  0.935225  1
  Ho  Ho16  1  0.422831  0.211415  0.935225  1
  Ho  Ho17  1  0.211415  0.788585  0.064775  1
  Ho  Ho18  1  0.211415  0.422831  0.064775  1
  Ho  Ho19  1  0.577169  0.788585  0.064775  1
  Co  Co20  1  0.333333  0.666667  0.250000  1
  Co  Co21  1  0.666667  0.333333  0.750000  1
  Hg  Hg22  1  0.880629  0.119371  0.250000  1
  Hg  Hg23  1  0.880629  0.761258  0.250000  1
  Hg  Hg24  1  0.238742  0.119371  0.250000  1
  Hg  Hg25  1  0.119371  0.880629  0.750000  1
  Hg  Hg26  1  0.119371  0.238742  0.750000  1
  Hg  Hg27  1  0.761258  0.880629  0.750000  1
