# generated using pymatgen
data_TbYHo3Sn4
_symmetry_space_group_name_H-M   'P 1'
_cell_length_a   8.03012200
_cell_length_b   8.17020600
_cell_length_c   15.44111100
_cell_angle_alpha   90.00000000
_cell_angle_beta   90.00000000
_cell_angle_gamma   90.00000000
_symmetry_Int_Tables_number   1
_chemical_formula_structural   TbYHo3Sn4
_chemical_formula_sum   'Tb4 Y4 Ho12 Sn16'
_cell_volume   1013.05656480
_cell_formula_units_Z   4
loop_
 _symmetry_equiv_pos_site_id
 _symmetry_equiv_pos_as_xyz
  1  'x, y, z'
loop_
 _atom_site_type_symbol
 _atom_site_label
 _atom_site_symmetry_multiplicity
 _atom_site_fract_x
 _atom_site_fract_y
 _atom_site_fract_z
 _atom_site_occupancy
  Tb  Tb0  1  0.521047  0.320504  0.902532  1
  Tb  Tb1  1  0.021047  0.179496  0.597468  1
  Tb  Tb2  1  0.478953  0.679496  0.402532  1
  Tb  Tb3  1  0.978953  0.820504  0.097468  1
  Y  Y4  1  0.478821  0.679464  0.097616  1
  Y  Y5  1  0.978821  0.820536  0.402384  1
  Y  Y6  1  0.521179  0.320536  0.597616  1
  Y  Y7  1  0.021179  0.179464  0.902384  1
  Ho  Ho8  1  0.367514  0.836572  0.877844  1
  Ho  Ho9  1  0.867514  0.663428  0.622156  1
  Ho  Ho10  1  0.632486  0.163428  0.377844  1
  Ho  Ho11  1  0.132486  0.336572  0.122156  1
  Ho  Ho12  1  0.632426  0.163471  0.122160  1
  Ho  Ho13  1  0.132426  0.336529  0.377840  1
  Ho  Ho14  1  0.367574  0.836529  0.622160  1
  Ho  Ho15  1  0.867574  0.663471  0.877840  1
  Ho  Ho16  1  0.198618  0.503209  0.749962  1
  Ho  Ho17  1  0.698618  0.996791  0.750038  1
  Ho  Ho18  1  0.801382  0.496791  0.249962  1
  Ho  Ho19  1  0.301382  0.003209  0.250038  1
  Sn  Sn20  1  0.293288  0.036621  0.041596  1
  Sn  Sn21  1  0.793288  0.463379  0.458404  1
  Sn  Sn22  1  0.706712  0.963379  0.541596  1
  Sn  Sn23  1  0.206712  0.536621  0.958404  1
  Sn  Sn24  1  0.706895  0.963598  0.958233  1
  Sn  Sn25  1  0.206895  0.536402  0.541767  1
  Sn  Sn26  1  0.293105  0.036402  0.458233  1
  Sn  Sn27  1  0.793105  0.463598  0.041767  1
  Sn  Sn28  1  0.565124  0.619329  0.750006  1
  Sn  Sn29  1  0.065124  0.880671  0.749994  1
  Sn  Sn30  1  0.434876  0.380671  0.250006  1
  Sn  Sn31  1  0.934876  0.119329  0.249994  1
  Sn  Sn32  1  0.329756  0.147301  0.749866  1
  Sn  Sn33  1  0.829756  0.352699  0.750134  1
  Sn  Sn34  1  0.670244  0.852699  0.249866  1
  Sn  Sn35  1  0.170244  0.647301  0.250134  1
