# generated using pymatgen
data_Er3Mg3TlAgIr
_symmetry_space_group_name_H-M   'P 1'
_cell_length_a   7.97925500
_cell_length_b   7.97925379
_cell_length_c   3.81369300
_cell_angle_alpha   90.00000000
_cell_angle_beta   90.00000000
_cell_angle_gamma   119.99999259
_symmetry_Int_Tables_number   1
_chemical_formula_structural   Er3Mg3TlAgIr
_chemical_formula_sum   'Er3 Mg3 Tl1 Ag1 Ir1'
_cell_volume   210.28147598
_cell_formula_units_Z   1
loop_
 _symmetry_equiv_pos_site_id
 _symmetry_equiv_pos_as_xyz
  1  'x, y, z'
loop_
 _atom_site_type_symbol
 _atom_site_label
 _atom_site_symmetry_multiplicity
 _atom_site_fract_x
 _atom_site_fract_y
 _atom_site_fract_z
 _atom_site_occupancy
  Er  Er0  1  0.434652  0.390753  0.500000  1
  Er  Er1  1  0.609247  0.043900  0.500000  1
  Er  Er2  1  0.956100  0.565348  0.500000  1
  Mg  Mg3  1  0.746825  0.745071  0.000000  1
  Mg  Mg4  1  0.254929  0.001754  0.000000  1
  Mg  Mg5  1  0.998246  0.253175  0.000000  1
  Tl  Tl6  1  0.333333  0.666667  0.000000  1
  Ag  Ag7  1  0.000000  0.000000  0.500000  1
  Ir  Ir8  1  0.666667  0.333333  0.000000  1
