# generated using pymatgen
data_HoLu3(GaRu)4
_symmetry_space_group_name_H-M   'P 1'
_cell_length_a   4.47075700
_cell_length_b   7.07149502
_cell_length_c   7.09304637
_cell_angle_alpha   89.97767761
_cell_angle_beta   90.00000000
_cell_angle_gamma   90.00000000
_symmetry_Int_Tables_number   1
_chemical_formula_structural   HoLu3(GaRu)4
_chemical_formula_sum   'Ho1 Lu3 Ga4 Ru4'
_cell_volume   224.24618887
_cell_formula_units_Z   1
loop_
 _symmetry_equiv_pos_site_id
 _symmetry_equiv_pos_as_xyz
  1  'x, y, z'
loop_
 _atom_site_type_symbol
 _atom_site_label
 _atom_site_symmetry_multiplicity
 _atom_site_fract_x
 _atom_site_fract_y
 _atom_site_fract_z
 _atom_site_occupancy
  Ho  Ho0  1  0.750000  0.804867  0.982872  1
  Lu  Lu1  1  0.250000  0.302677  0.518386  1
  Lu  Lu2  1  0.250000  0.198865  0.018526  1
  Lu  Lu3  1  0.750000  0.697062  0.482344  1
  Ga  Ga4  1  0.250000  0.894410  0.698302  1
  Ga  Ga5  1  0.250000  0.604356  0.201552  1
  Ga  Ga6  1  0.750000  0.106415  0.300565  1
  Ga  Ga7  1  0.750000  0.393397  0.799893  1
  Ru  Ru8  1  0.250000  0.938008  0.339497  1
  Ru  Ru9  1  0.250000  0.560464  0.839245  1
  Ru  Ru10  1  0.750000  0.062904  0.658108  1
  Ru  Ru11  1  0.750000  0.436573  0.160708  1
