# generated using pymatgen
data_Er5S6
_symmetry_space_group_name_H-M   'P 1'
_cell_length_a   5.44916622
_cell_length_b   6.66431693
_cell_length_c   8.67903324
_cell_angle_alpha   105.20676761
_cell_angle_beta   71.26944055
_cell_angle_gamma   66.24145672
_symmetry_Int_Tables_number   1
_chemical_formula_structural   Er5S6
_chemical_formula_sum   'Er5 S6'
_cell_volume   243.70792585
_cell_formula_units_Z   1
loop_
 _symmetry_equiv_pos_site_id
 _symmetry_equiv_pos_as_xyz
  1  'x, y, z'
loop_
 _atom_site_type_symbol
 _atom_site_label
 _atom_site_symmetry_multiplicity
 _atom_site_fract_x
 _atom_site_fract_y
 _atom_site_fract_z
 _atom_site_occupancy
  Er  Er0  1  0.526414  0.492035  0.717823  1
  Er  Er1  1  0.198087  0.485791  0.382066  1
  Er  Er2  1  0.854228  0.499422  0.054852  1
  Er  Er3  1  0.692924  0.985074  0.894981  1
  Er  Er4  1  0.363294  0.996096  0.542930  1
  S  S5  1  0.527304  0.992481  0.219630  1
  S  S6  1  0.196872  0.994382  0.878348  1
  S  S7  1  0.857170  0.990063  0.560651  1
  S  S8  1  0.694478  0.491024  0.383913  1
  S  S9  1  0.026975  0.490622  0.717734  1
  S  S10  1  0.361895  0.488376  0.050525  1
