# generated using pymatgen
data_Dy5Tm3Sc12Ga14SiGe
_symmetry_space_group_name_H-M   'P 1'
_cell_length_a   7.25109412
_cell_length_b   7.47498958
_cell_length_c   14.47850908
_cell_angle_alpha   90.07208450
_cell_angle_beta   90.04647358
_cell_angle_gamma   90.29948801
_symmetry_Int_Tables_number   1
_chemical_formula_structural   Dy5Tm3Sc12Ga14SiGe
_chemical_formula_sum   'Dy5 Tm3 Sc12 Ga14 Si1 Ge1'
_cell_volume   784.75041706
_cell_formula_units_Z   1
loop_
 _symmetry_equiv_pos_site_id
 _symmetry_equiv_pos_as_xyz
  1  'x, y, z'
loop_
 _atom_site_type_symbol
 _atom_site_label
 _atom_site_symmetry_multiplicity
 _atom_site_fract_x
 _atom_site_fract_y
 _atom_site_fract_z
 _atom_site_occupancy
  Dy  Dy0  1  0.987312  0.820898  0.597172  1
  Dy  Dy1  1  0.512255  0.321616  0.094537  1
  Dy  Dy2  1  0.011321  0.176879  0.404629  1
  Dy  Dy3  1  0.511683  0.321937  0.404265  1
  Dy  Dy4  1  0.489236  0.678230  0.596179  1
  Tm  Tm5  1  0.011643  0.177566  0.094961  1
  Tm  Tm6  1  0.987338  0.819578  0.903266  1
  Tm  Tm7  1  0.489131  0.679512  0.903942  1
  Sc  Sc8  1  0.160429  0.503121  0.750647  1
  Sc  Sc9  1  0.837515  0.497583  0.249562  1
  Sc  Sc10  1  0.336558  0.003037  0.249519  1
  Sc  Sc11  1  0.664262  0.994464  0.750852  1
  Sc  Sc12  1  0.331761  0.173370  0.623503  1
  Sc  Sc13  1  0.669294  0.827385  0.377334  1
  Sc  Sc14  1  0.171006  0.671162  0.376230  1
  Sc  Sc15  1  0.669997  0.827228  0.121636  1
  Sc  Sc16  1  0.828370  0.330669  0.624755  1
  Sc  Sc17  1  0.331231  0.173295  0.877552  1
  Sc  Sc18  1  0.828594  0.330411  0.876568  1
  Sc  Sc19  1  0.170782  0.671451  0.122938  1
  Ga  Ga20  1  0.032648  0.119056  0.750662  1
  Ga  Ga21  1  0.967393  0.880585  0.249449  1
  Ga  Ga22  1  0.469005  0.616855  0.249545  1
  Ga  Ga23  1  0.531962  0.387757  0.750780  1
  Ga  Ga24  1  0.285168  0.871686  0.751130  1
  Ga  Ga25  1  0.715275  0.127671  0.249214  1
  Ga  Ga26  1  0.158756  0.464203  0.540958  1
  Ga  Ga27  1  0.841143  0.535838  0.459403  1
  Ga  Ga28  1  0.339108  0.963988  0.459545  1
  Ga  Ga29  1  0.841793  0.535235  0.040400  1
  Ga  Ga30  1  0.661389  0.036653  0.541079  1
  Ga  Ga31  1  0.159659  0.465672  0.958911  1
  Ga  Ga32  1  0.662697  0.033854  0.958205  1
  Ga  Ga33  1  0.337918  0.964576  0.040424  1
  Si  Si34  1  0.784388  0.626198  0.751108  1
  Ge  Ge35  1  0.211980  0.370783  0.249140  1
