# generated using pymatgen
data_TbSc15(Ga3Ni)2
_symmetry_space_group_name_H-M   'P 1'
_cell_length_a   9.48856100
_cell_length_b   9.48856136
_cell_length_c   6.38784300
_cell_angle_alpha   90.00000000
_cell_angle_beta   90.00000000
_cell_angle_gamma   120.00000223
_symmetry_Int_Tables_number   1
_chemical_formula_structural   TbSc15(Ga3Ni)2
_chemical_formula_sum   'Tb1 Sc15 Ga6 Ni2'
_cell_volume   498.06449058
_cell_formula_units_Z   1
loop_
 _symmetry_equiv_pos_site_id
 _symmetry_equiv_pos_as_xyz
  1  'x, y, z'
loop_
 _atom_site_type_symbol
 _atom_site_label
 _atom_site_symmetry_multiplicity
 _atom_site_fract_x
 _atom_site_fract_y
 _atom_site_fract_z
 _atom_site_occupancy
  Tb  Tb0  1  0.000000  0.000000  0.271090  1
  Sc  Sc1  1  0.825356  0.650712  0.504445  1
  Sc  Sc2  1  0.349288  0.174644  0.504445  1
  Sc  Sc3  1  0.825356  0.174644  0.504445  1
  Sc  Sc4  1  0.174339  0.348676  0.996009  1
  Sc  Sc5  1  0.651324  0.825661  0.996009  1
  Sc  Sc6  1  0.174339  0.825661  0.996009  1
  Sc  Sc7  1  0.666667  0.333333  0.160262  1
  Sc  Sc8  1  0.333333  0.666667  0.664368  1
  Sc  Sc9  1  0.529055  0.058109  0.792558  1
  Sc  Sc10  1  0.941891  0.470945  0.792558  1
  Sc  Sc11  1  0.529055  0.470945  0.792558  1
  Sc  Sc12  1  0.470595  0.941191  0.292520  1
  Sc  Sc13  1  0.058809  0.529405  0.292520  1
  Sc  Sc14  1  0.470595  0.529405  0.292520  1
  Sc  Sc15  1  0.000000  0.000000  0.770678  1
  Ga  Ga16  1  0.834632  0.669266  0.027032  1
  Ga  Ga17  1  0.330734  0.165368  0.027032  1
  Ga  Ga18  1  0.834632  0.165368  0.027032  1
  Ga  Ga19  1  0.165116  0.330231  0.535560  1
  Ga  Ga20  1  0.669769  0.834884  0.535560  1
  Ga  Ga21  1  0.165116  0.834884  0.535560  1
  Ni  Ni22  1  0.666667  0.333333  0.554972  1
  Ni  Ni23  1  0.333333  0.666667  0.060338  1
