# generated using pymatgen
data_Na2Zr4GeSe10
_symmetry_space_group_name_H-M   'P 1'
_cell_length_a   6.70679275
_cell_length_b   10.70725933
_cell_length_c   8.29831864
_cell_angle_alpha   64.08942402
_cell_angle_beta   65.98491689
_cell_angle_gamma   89.87407343
_symmetry_Int_Tables_number   1
_chemical_formula_structural   Na2Zr4GeSe10
_chemical_formula_sum   'Na2 Zr4 Ge1 Se10'
_cell_volume   478.29470038
_cell_formula_units_Z   1
loop_
 _symmetry_equiv_pos_site_id
 _symmetry_equiv_pos_as_xyz
  1  'x, y, z'
loop_
 _atom_site_type_symbol
 _atom_site_label
 _atom_site_symmetry_multiplicity
 _atom_site_fract_x
 _atom_site_fract_y
 _atom_site_fract_z
 _atom_site_occupancy
  Na  Na0  1  0.793041  0.087703  0.412546  1
  Na  Na1  1  0.003723  0.513761  0.992749  1
  Zr  Zr2  1  0.399349  0.797831  0.200949  1
  Zr  Zr3  1  0.201494  0.401904  0.591520  1
  Zr  Zr4  1  0.603362  0.205166  0.801002  1
  Zr  Zr5  1  0.998087  0.993258  0.000916  1
  Ge  Ge6  1  0.801014  0.603235  0.404028  1
  Se  Se7  1  0.987803  0.848502  0.362783  1
  Se  Se8  1  0.582582  0.041535  0.172327  1
  Se  Se9  1  0.180585  0.243555  0.970372  1
  Se  Se10  1  0.781183  0.435980  0.778237  1
  Se  Se11  1  0.369383  0.640940  0.568131  1
  Se  Se12  1  0.416904  0.957908  0.830576  1
  Se  Se13  1  0.017017  0.157404  0.627460  1
  Se  Se14  1  0.614542  0.348453  0.437678  1
  Se  Se15  1  0.230980  0.558521  0.226598  1
  Se  Se16  1  0.818952  0.764344  0.022129  1
