# generated using pymatgen
data_Tb3Hf(PPt)4
_symmetry_space_group_name_H-M   'P 1'
_cell_length_a   4.10254600
_cell_length_b   4.10254595
_cell_length_c   15.43090400
_cell_angle_alpha   90.00000000
_cell_angle_beta   90.00000000
_cell_angle_gamma   120.00000039
_symmetry_Int_Tables_number   1
_chemical_formula_structural   Tb3Hf(PPt)4
_chemical_formula_sum   'Tb3 Hf1 P4 Pt4'
_cell_volume   224.92043399
_cell_formula_units_Z   1
loop_
 _symmetry_equiv_pos_site_id
 _symmetry_equiv_pos_as_xyz
  1  'x, y, z'
loop_
 _atom_site_type_symbol
 _atom_site_label
 _atom_site_symmetry_multiplicity
 _atom_site_fract_x
 _atom_site_fract_y
 _atom_site_fract_z
 _atom_site_occupancy
  Tb  Tb0  1  0.000000  0.000000  0.750000  1
  Tb  Tb1  1  0.000000  0.000000  0.009385  1
  Tb  Tb2  1  0.000000  0.000000  0.490615  1
  Hf  Hf3  1  0.000000  0.000000  0.250000  1
  P  P4  1  0.333333  0.666667  0.618187  1
  P  P5  1  0.666667  0.333333  0.381578  1
  P  P6  1  0.666667  0.333333  0.118422  1
  P  P7  1  0.333333  0.666667  0.881813  1
  Pt  Pt8  1  0.333333  0.666667  0.153861  1
  Pt  Pt9  1  0.666667  0.333333  0.877118  1
  Pt  Pt10  1  0.666667  0.333333  0.622882  1
  Pt  Pt11  1  0.333333  0.666667  0.346139  1
