# generated using pymatgen
data_Dy17Mg2SnIr12
_symmetry_space_group_name_H-M   'P 1'
_cell_length_a   10.76285100
_cell_length_b   10.76285100
_cell_length_c   6.28466300
_cell_angle_alpha   90.00000000
_cell_angle_beta   90.00000000
_cell_angle_gamma   90.00000000
_symmetry_Int_Tables_number   1
_chemical_formula_structural   Dy17Mg2SnIr12
_chemical_formula_sum   'Dy17 Mg2 Sn1 Ir12'
_cell_volume   728.00883623
_cell_formula_units_Z   1
loop_
 _symmetry_equiv_pos_site_id
 _symmetry_equiv_pos_as_xyz
  1  'x, y, z'
loop_
 _atom_site_type_symbol
 _atom_site_label
 _atom_site_symmetry_multiplicity
 _atom_site_fract_x
 _atom_site_fract_y
 _atom_site_fract_z
 _atom_site_occupancy
  Dy  Dy0  1  0.284244  0.086930  0.383100  1
  Dy  Dy1  1  0.284071  0.914558  0.879619  1
  Dy  Dy2  1  0.715929  0.085442  0.879619  1
  Dy  Dy3  1  0.715756  0.913070  0.383100  1
  Dy  Dy4  1  0.586923  0.786133  0.878121  1
  Dy  Dy5  1  0.590449  0.206586  0.379938  1
  Dy  Dy6  1  0.409551  0.793414  0.379938  1
  Dy  Dy7  1  0.413077  0.213867  0.878121  1
  Dy  Dy8  1  0.206586  0.409551  0.620062  1
  Dy  Dy9  1  0.213867  0.586923  0.121879  1
  Dy  Dy10  1  0.786133  0.413077  0.121879  1
  Dy  Dy11  1  0.793414  0.590449  0.620062  1
  Dy  Dy12  1  0.914558  0.715929  0.120381  1
  Dy  Dy13  1  0.913070  0.284244  0.616900  1
  Dy  Dy14  1  0.086930  0.715756  0.616900  1
  Dy  Dy15  1  0.085442  0.284071  0.120381  1
  Dy  Dy16  1  0.500000  0.500000  0.500000  1
  Mg  Mg17  1  0.000000  0.000000  0.500000  1
  Mg  Mg18  1  0.000000  0.000000  0.000000  1
  Sn  Sn19  1  0.500000  0.500000  0.000000  1
  Ir  Ir20  1  0.847718  0.153077  0.246940  1
  Ir  Ir21  1  0.846923  0.847718  0.753060  1
  Ir  Ir22  1  0.153077  0.152282  0.753060  1
  Ir  Ir23  1  0.152282  0.846923  0.246940  1
  Ir  Ir24  1  0.655869  0.345847  0.748378  1
  Ir  Ir25  1  0.654153  0.655869  0.251622  1
  Ir  Ir26  1  0.345847  0.344131  0.251622  1
  Ir  Ir27  1  0.344131  0.654153  0.748378  1
  Ir  Ir28  1  0.500000  0.000000  0.119558  1
  Ir  Ir29  1  0.500000  0.000000  0.625588  1
  Ir  Ir30  1  0.000000  0.500000  0.880442  1
  Ir  Ir31  1  0.000000  0.500000  0.374412  1
