# generated using pymatgen
data_Tb3Sm3(Si3Ru)8
_symmetry_space_group_name_H-M   'P 1'
_cell_length_a   10.13682096
_cell_length_b   10.13682124
_cell_length_c   8.18254041
_cell_angle_alpha   90.03342724
_cell_angle_beta   89.96657242
_cell_angle_gamma   132.41507271
_symmetry_Int_Tables_number   1
_chemical_formula_structural   Tb3Sm3(Si3Ru)8
_chemical_formula_sum   'Tb3 Sm3 Si24 Ru8'
_cell_volume   620.74255459
_cell_formula_units_Z   1
loop_
 _symmetry_equiv_pos_site_id
 _symmetry_equiv_pos_as_xyz
  1  'x, y, z'
loop_
 _atom_site_type_symbol
 _atom_site_label
 _atom_site_symmetry_multiplicity
 _atom_site_fract_x
 _atom_site_fract_y
 _atom_site_fract_z
 _atom_site_occupancy
  Tb  Tb0  1  0.500010  0.499995  0.500115  1
  Tb  Tb1  1  0.999995  0.000010  0.999885  1
  Tb  Tb2  1  0.002470  0.502470  0.750000  1
  Sm  Sm3  1  0.502439  0.002439  0.750000  1
  Sm  Sm4  1  0.997511  0.497511  0.250000  1
  Sm  Sm5  1  0.497232  0.997232  0.250000  1
  Si  Si6  1  0.795518  0.206224  0.500987  1
  Si  Si7  1  0.293695  0.704350  0.998947  1
  Si  Si8  1  0.204350  0.793695  0.501053  1
  Si  Si9  1  0.706224  0.295518  0.999013  1
  Si  Si10  1  0.332717  0.332765  0.833214  1
  Si  Si11  1  0.667248  0.667231  0.166873  1
  Si  Si12  1  0.167231  0.167248  0.333127  1
  Si  Si13  1  0.832765  0.832717  0.666786  1
  Si  Si14  1  0.121284  0.887754  0.728067  1
  Si  Si15  1  0.112058  0.878385  0.271511  1
  Si  Si16  1  0.611564  0.377840  0.228440  1
  Si  Si17  1  0.622566  0.388856  0.771650  1
  Si  Si18  1  0.877840  0.111564  0.271560  1
  Si  Si19  1  0.888856  0.122566  0.728350  1
  Si  Si20  1  0.387754  0.621284  0.771933  1
  Si  Si21  1  0.378385  0.612058  0.228489  1
  Si  Si22  1  0.345254  0.112101  0.505204  1
  Si  Si23  1  0.888227  0.655525  0.495634  1
  Si  Si24  1  0.387743  0.154576  0.005217  1
  Si  Si25  1  0.844819  0.611790  0.993900  1
  Si  Si26  1  0.654576  0.887743  0.494783  1
  Si  Si27  1  0.111790  0.344819  0.506100  1
  Si  Si28  1  0.612101  0.845254  0.994796  1
  Si  Si29  1  0.155525  0.388227  0.004366  1
  Ru  Ru30  1  0.669372  0.333123  0.500672  1
  Ru  Ru31  1  0.166903  0.830673  0.998967  1
  Ru  Ru32  1  0.330673  0.666903  0.501033  1
  Ru  Ru33  1  0.833123  0.169372  0.999328  1
  Ru  Ru34  1  0.125906  0.125926  0.626439  1
  Ru  Ru35  1  0.874087  0.874262  0.373360  1
  Ru  Ru36  1  0.374262  0.374087  0.126640  1
  Ru  Ru37  1  0.625926  0.625906  0.873561  1
