# generated using pymatgen
data_AcIr2
_symmetry_space_group_name_H-M   'P 1'
_cell_length_a   5.56939154
_cell_length_b   5.56939107
_cell_length_c   5.56939200
_cell_angle_alpha   60.00000638
_cell_angle_beta   60.00000914
_cell_angle_gamma   60.00000334
_symmetry_Int_Tables_number   1
_chemical_formula_structural   AcIr2
_chemical_formula_sum   'Ac2 Ir4'
_cell_volume   122.15417527
_cell_formula_units_Z   2
loop_
 _symmetry_equiv_pos_site_id
 _symmetry_equiv_pos_as_xyz
  1  'x, y, z'
loop_
 _atom_site_type_symbol
 _atom_site_label
 _atom_site_symmetry_multiplicity
 _atom_site_fract_x
 _atom_site_fract_y
 _atom_site_fract_z
 _atom_site_occupancy
  Ac  Ac0  1  0.500000  0.500000  0.500000  1
  Ac  Ac1  1  0.750000  0.750000  0.750000  1
  Ir  Ir2  1  0.625000  0.125000  0.125000  1
  Ir  Ir3  1  0.125000  0.125000  0.125000  1
  Ir  Ir4  1  0.125000  0.125000  0.625000  1
  Ir  Ir5  1  0.125000  0.625000  0.125000  1
