# generated using pymatgen
data_Er3TmV2(CoB8)2
_symmetry_space_group_name_H-M   'P 1'
_cell_length_a   3.39005600
_cell_length_b   5.92601618
_cell_length_c   11.45500720
_cell_angle_alpha   89.94276121
_cell_angle_beta   90.00000000
_cell_angle_gamma   90.00000000
_symmetry_Int_Tables_number   1
_chemical_formula_structural   Er3TmV2(CoB8)2
_chemical_formula_sum   'Er3 Tm1 V2 Co2 B16'
_cell_volume   230.12555818
_cell_formula_units_Z   1
loop_
 _symmetry_equiv_pos_site_id
 _symmetry_equiv_pos_as_xyz
  1  'x, y, z'
loop_
 _atom_site_type_symbol
 _atom_site_label
 _atom_site_symmetry_multiplicity
 _atom_site_fract_x
 _atom_site_fract_y
 _atom_site_fract_z
 _atom_site_occupancy
  Er  Er0  1  0.500000  0.875268  0.152670  1
  Er  Er1  1  0.500000  0.628387  0.648192  1
  Er  Er2  1  0.500000  0.371603  0.351950  1
  Tm  Tm3  1  0.500000  0.124609  0.847359  1
  V  V4  1  0.500000  0.627434  0.914014  1
  V  V5  1  0.500000  0.372584  0.085593  1
  Co  Co6  1  0.500000  0.135629  0.587753  1
  Co  Co7  1  0.500000  0.864406  0.412582  1
  B  B8  1  0.000000  0.281634  0.683106  1
  B  B9  1  0.000000  0.718343  0.317236  1
  B  B10  1  0.000000  0.788591  0.811422  1
  B  B11  1  0.000000  0.211986  0.188508  1
  B  B12  1  0.000000  0.361427  0.531216  1
  B  B13  1  0.000000  0.638616  0.469004  1
  B  B14  1  0.000000  0.866474  0.966616  1
  B  B15  1  0.000000  0.133600  0.032830  1
  B  B16  1  0.000000  0.020900  0.310378  1
  B  B17  1  0.000000  0.979349  0.689983  1
  B  B18  1  0.000000  0.526129  0.194918  1
  B  B19  1  0.000000  0.473509  0.804975  1
  B  B20  1  0.000000  0.111566  0.453977  1
  B  B21  1  0.000000  0.888452  0.546230  1
  B  B22  1  0.000000  0.615279  0.047207  1
  B  B23  1  0.000000  0.384226  0.952281  1
