# generated using pymatgen
data_Li3Ti2ZnPt6
_symmetry_space_group_name_H-M   'P 1'
_cell_length_a   4.12237800
_cell_length_b   6.73622100
_cell_length_c   12.35248200
_cell_angle_alpha   90.00000000
_cell_angle_beta   90.00003240
_cell_angle_gamma   90.00000000
_symmetry_Int_Tables_number   1
_chemical_formula_structural   Li3Ti2ZnPt6
_chemical_formula_sum   'Li6 Ti4 Zn2 Pt12'
_cell_volume   343.01915156
_cell_formula_units_Z   2
loop_
 _symmetry_equiv_pos_site_id
 _symmetry_equiv_pos_as_xyz
  1  'x, y, z'
loop_
 _atom_site_type_symbol
 _atom_site_label
 _atom_site_symmetry_multiplicity
 _atom_site_fract_x
 _atom_site_fract_y
 _atom_site_fract_z
 _atom_site_occupancy
  Li  Li0  1  0.000000  0.500001  0.005147  1
  Li  Li1  1  0.499994  0.000000  0.161586  1
  Li  Li2  1  0.999999  0.500001  0.325184  1
  Li  Li3  1  0.499998  0.000000  0.497697  1
  Li  Li4  1  0.000001  0.500001  0.669030  1
  Li  Li5  1  0.500009  0.000000  0.841360  1
  Ti  Ti6  1  0.999998  0.000000  0.328644  1
  Ti  Ti7  1  0.500001  0.500001  0.498951  1
  Ti  Ti8  1  0.000003  0.000000  0.667733  1
  Ti  Ti9  1  0.500004  0.500001  0.838041  1
  Zn  Zn10  1  0.000000  0.000000  0.999765  1
  Zn  Zn11  1  0.499996  0.500001  0.166906  1
  Pt  Pt12  1  0.499999  0.255224  0.000351  1
  Pt  Pt13  1  0.499999  0.744776  0.000351  1
  Pt  Pt14  1  0.999996  0.244744  0.166321  1
  Pt  Pt15  1  0.999996  0.755256  0.166321  1
  Pt  Pt16  1  0.499999  0.248037  0.333064  1
  Pt  Pt17  1  0.499999  0.751963  0.333064  1
  Pt  Pt18  1  0.000000  0.251908  0.499486  1
  Pt  Pt19  1  0.000000  0.748092  0.499486  1
  Pt  Pt20  1  0.500002  0.247828  0.667202  1
  Pt  Pt21  1  0.500002  0.752172  0.667202  1
  Pt  Pt22  1  0.000003  0.251830  0.833554  1
  Pt  Pt23  1  0.000003  0.748170  0.833554  1
