# generated using pymatgen
data_SmCdGa3Pd
_symmetry_space_group_name_H-M   'P 1'
_cell_length_a   4.39408009
_cell_length_b   6.63214300
_cell_length_c   8.37346697
_cell_angle_alpha   90.00000000
_cell_angle_beta   105.21140266
_cell_angle_gamma   90.00000000
_symmetry_Int_Tables_number   1
_chemical_formula_structural   SmCdGa3Pd
_chemical_formula_sum   'Sm2 Cd2 Ga6 Pd2'
_cell_volume   235.47153061
_cell_formula_units_Z   2
loop_
 _symmetry_equiv_pos_site_id
 _symmetry_equiv_pos_as_xyz
  1  'x, y, z'
loop_
 _atom_site_type_symbol
 _atom_site_label
 _atom_site_symmetry_multiplicity
 _atom_site_fract_x
 _atom_site_fract_y
 _atom_site_fract_z
 _atom_site_occupancy
  Sm  Sm0  1  0.873984  0.750000  0.747966  1
  Sm  Sm1  1  0.126016  0.250000  0.252034  1
  Cd  Cd2  1  0.500000  0.500000  0.000000  1
  Cd  Cd3  1  0.500000  0.000000  0.000000  1
  Ga  Ga4  1  0.062618  0.750000  0.125238  1
  Ga  Ga5  1  0.937382  0.250000  0.874762  1
  Ga  Ga6  1  0.682383  0.548042  0.364765  1
  Ga  Ga7  1  0.317617  0.451958  0.635235  1
  Ga  Ga8  1  0.682383  0.951958  0.364765  1
  Ga  Ga9  1  0.317617  0.048042  0.635235  1
  Pd  Pd10  1  0.216948  0.750000  0.433895  1
  Pd  Pd11  1  0.783052  0.250000  0.566105  1
