# generated using pymatgen
data_Tb5YAl2Cr4(GaO6)4
_symmetry_space_group_name_H-M   'P 1'
_cell_length_a   10.64815041
_cell_length_b   10.64743874
_cell_length_c   10.64777900
_cell_angle_alpha   109.47686414
_cell_angle_beta   109.47945939
_cell_angle_gamma   109.45748867
_symmetry_Int_Tables_number   1
_chemical_formula_structural   Tb5YAl2Cr4(GaO6)4
_chemical_formula_sum   'Tb10 Y2 Al4 Cr8 Ga8 O48'
_cell_volume   929.29937529
_cell_formula_units_Z   2
loop_
 _symmetry_equiv_pos_site_id
 _symmetry_equiv_pos_as_xyz
  1  'x, y, z'
loop_
 _atom_site_type_symbol
 _atom_site_label
 _atom_site_symmetry_multiplicity
 _atom_site_fract_x
 _atom_site_fract_y
 _atom_site_fract_z
 _atom_site_occupancy
  Tb  Tb0  1  0.249039  0.373316  0.123154  1
  Tb  Tb1  1  0.374117  0.749834  0.123152  1
  Tb  Tb2  1  0.374004  0.124005  0.248008  1
  Tb  Tb3  1  0.874929  0.624928  0.249854  1
  Tb  Tb4  1  0.125557  0.251066  0.375749  1
  Tb  Tb5  1  0.750192  0.124683  0.375753  1
  Tb  Tb6  1  0.877046  0.752041  0.627148  1
  Tb  Tb7  1  0.250101  0.875107  0.627151  1
  Tb  Tb8  1  0.624949  0.874949  0.749898  1
  Tb  Tb9  1  0.125170  0.375171  0.750341  1
  Y  Y10  1  0.625019  0.249774  0.874948  1
  Y  Y11  1  0.749939  0.625180  0.874947  1
  Al  Al12  1  0.875310  0.125135  0.750256  1
  Al  Al13  1  0.374947  0.625128  0.750263  1
  Al  Al14  1  0.250163  0.125186  0.874899  1
  Al  Al15  1  0.124737  0.749709  0.874895  1
  Cr  Cr16  1  0.001230  0.999808  0.997783  1
  Cr  Cr17  1  0.496547  0.997969  0.997782  1
  Cr  Cr18  1  0.999790  0.499390  0.998281  1
  Cr  Cr19  1  0.498499  0.498898  0.998288  1
  Cr  Cr20  1  0.000305  0.000954  0.502606  1
  Cr  Cr21  1  0.499414  0.500468  0.501325  1
  Cr  Cr22  1  0.501912  0.000859  0.501325  1
  Cr  Cr23  1  0.002307  0.501664  0.502614  1
  Ga  Ga24  1  0.874674  0.249563  0.124590  1
  Ga  Ga25  1  0.749916  0.875028  0.124583  1
  Ga  Ga26  1  0.625045  0.374874  0.250096  1
  Ga  Ga27  1  0.125053  0.875225  0.250100  1
  Ga  Ga28  1  0.250119  0.625270  0.374920  1
  Ga  Ga29  1  0.624800  0.749654  0.374928  1
  Ga  Ga30  1  0.374930  0.249856  0.625210  1
  Ga  Ga31  1  0.750277  0.375352  0.625216  1
  O  O32  1  0.313938  0.900359  0.022084  1
  O  O33  1  0.208149  0.121723  0.022087  1
  O  O34  1  0.707133  0.677921  0.084123  1
  O  O35  1  0.877014  0.406219  0.084146  1
  O  O36  1  0.622871  0.415111  0.093249  1
  O  O37  1  0.970394  0.678140  0.093257  1
  O  O38  1  0.592983  0.915369  0.122465  1
  O  O39  1  0.029484  0.207093  0.122465  1
  O  O40  1  0.469773  0.592934  0.177172  1
  O  O41  1  0.207406  0.584235  0.177170  1
  O  O42  1  0.583978  0.177164  0.206735  1
  O  O43  1  0.122753  0.029567  0.206732  1
  O  O44  1  0.470364  0.377221  0.292704  1
  O  O45  1  0.322338  0.915485  0.292700  1
  O  O46  1  0.916106  0.293289  0.322504  1
  O  O47  1  0.906395  0.029211  0.322500  1
  O  O48  1  0.584620  0.906183  0.376306  1
  O  O49  1  0.291680  0.470122  0.376303  1
  O  O50  1  0.085446  0.878051  0.407795  1
  O  O51  1  0.822345  0.529743  0.407789  1
  O  O52  1  0.093661  0.623480  0.415840  1
  O  O53  1  0.822179  0.792360  0.415845  1
  O  O54  1  0.593263  0.178802  0.470342  1
  O  O55  1  0.377074  0.291534  0.470337  1
  O  O56  1  0.407212  0.822358  0.530407  1
  O  O57  1  0.623193  0.708047  0.530413  1
  O  O58  1  0.907262  0.376595  0.585164  1
  O  O59  1  0.177896  0.208569  0.585157  1
  O  O60  1  0.913613  0.121364  0.599295  1
  O  O61  1  0.185682  0.477939  0.599301  1
  O  O62  1  0.416446  0.093724  0.624456  1
  O  O63  1  0.707998  0.530726  0.624460  1
  O  O64  1  0.086018  0.708157  0.685596  1
  O  O65  1  0.099581  0.977451  0.685600  1
  O  O66  1  0.685959  0.086800  0.708111  1
  O  O67  1  0.522145  0.621305  0.708115  1
  O  O68  1  0.413474  0.814655  0.791976  1
  O  O69  1  0.878507  0.977320  0.791972  1
  O  O70  1  0.530230  0.406271  0.821688  1
  O  O71  1  0.791452  0.415411  0.821697  1
  O  O72  1  0.400595  0.085856  0.878469  1
  O  O73  1  0.977872  0.792608  0.878468  1
  O  O74  1  0.377811  0.585186  0.900520  1
  O  O75  1  0.022708  0.315330  0.900515  1
  O  O76  1  0.292076  0.314740  0.913315  1
  O  O77  1  0.121237  0.598573  0.913312  1
  O  O78  1  0.676321  0.093088  0.969638  1
  O  O79  1  0.793318  0.876556  0.969631  1
