# generated using pymatgen
data_Tl2Si2Hg3S8
_symmetry_space_group_name_H-M   'P 1'
_cell_length_a   6.45186100
_cell_length_b   9.85440405
_cell_length_c   13.22312100
_cell_angle_alpha   84.77323723
_cell_angle_beta   90.00000000
_cell_angle_gamma   90.00000000
_symmetry_Int_Tables_number   1
_chemical_formula_structural   Tl2Si2Hg3S8
_chemical_formula_sum   'Tl4 Si4 Hg6 S16'
_cell_volume   837.22031724
_cell_formula_units_Z   2
loop_
 _symmetry_equiv_pos_site_id
 _symmetry_equiv_pos_as_xyz
  1  'x, y, z'
loop_
 _atom_site_type_symbol
 _atom_site_label
 _atom_site_symmetry_multiplicity
 _atom_site_fract_x
 _atom_site_fract_y
 _atom_site_fract_z
 _atom_site_occupancy
  Tl  Tl0  1  0.150975  0.223832  0.678970  1
  Tl  Tl1  1  0.849025  0.776168  0.321030  1
  Tl  Tl2  1  0.650975  0.776168  0.821030  1
  Tl  Tl3  1  0.349025  0.223832  0.178970  1
  Si  Si4  1  0.194295  0.718812  0.582491  1
  Si  Si5  1  0.805705  0.281188  0.417509  1
  Si  Si6  1  0.694295  0.281188  0.917509  1
  Si  Si7  1  0.305705  0.718812  0.082491  1
  Hg  Hg8  1  0.212159  0.489393  0.887854  1
  Hg  Hg9  1  0.787841  0.510607  0.112146  1
  Hg  Hg10  1  0.712159  0.510607  0.612146  1
  Hg  Hg11  1  0.287841  0.489393  0.387854  1
  Hg  Hg12  1  0.500000  0.000000  0.500000  1
  Hg  Hg13  1  0.000000  0.000000  0.000000  1
  S  S14  1  0.863414  0.740289  0.591798  1
  S  S15  1  0.136586  0.259711  0.408202  1
  S  S16  1  0.363414  0.259711  0.908202  1
  S  S17  1  0.636586  0.740289  0.091798  1
  S  S18  1  0.310192  0.544760  0.668838  1
  S  S19  1  0.689808  0.455240  0.331162  1
  S  S20  1  0.810192  0.455240  0.831162  1
  S  S21  1  0.189808  0.544760  0.168838  1
  S  S22  1  0.304745  0.905888  0.642198  1
  S  S23  1  0.695255  0.094112  0.357802  1
  S  S24  1  0.804745  0.094112  0.857802  1
  S  S25  1  0.195255  0.905888  0.142198  1
  S  S26  1  0.203860  0.730622  0.926754  1
  S  S27  1  0.796140  0.269378  0.073246  1
  S  S28  1  0.703860  0.269378  0.573246  1
  S  S29  1  0.296140  0.730622  0.426754  1
