# generated using pymatgen
data_Eu2Cu18Si7Ge
_symmetry_space_group_name_H-M   'P 1'
_cell_length_a   8.15061963
_cell_length_b   8.14959932
_cell_length_c   8.16358516
_cell_angle_alpha   120.46182169
_cell_angle_beta   120.45922740
_cell_angle_gamma   89.17735415
_symmetry_Int_Tables_number   1
_chemical_formula_structural   Eu2Cu18Si7Ge
_chemical_formula_sum   'Eu2 Cu18 Si7 Ge1'
_cell_volume   380.81489694
_cell_formula_units_Z   1
loop_
 _symmetry_equiv_pos_site_id
 _symmetry_equiv_pos_as_xyz
  1  'x, y, z'
loop_
 _atom_site_type_symbol
 _atom_site_label
 _atom_site_symmetry_multiplicity
 _atom_site_fract_x
 _atom_site_fract_y
 _atom_site_fract_z
 _atom_site_occupancy
  Eu  Eu0  1  0.250123  0.250009  0.999880  1
  Eu  Eu1  1  0.749917  0.750069  0.999822  1
  Cu  Cu2  1  0.934578  0.200013  0.139588  1
  Cu  Cu3  1  0.203291  0.064458  0.268113  1
  Cu  Cu4  1  0.795727  0.931726  0.730905  1
  Cu  Cu5  1  0.431726  0.295729  0.730916  1
  Cu  Cu6  1  0.066305  0.798203  0.863118  1
  Cu  Cu7  1  0.806118  0.054751  0.494306  1
  Cu  Cu8  1  0.554747  0.306142  0.494315  1
  Cu  Cu9  1  0.192819  0.942540  0.501123  1
  Cu  Cu10  1  0.442580  0.692788  0.501161  1
  Cu  Cu11  1  0.941964  0.441973  0.740056  1
  Cu  Cu12  1  0.693090  0.193078  0.251899  1
  Cu  Cu13  1  0.064883  0.564914  0.264220  1
  Cu  Cu14  1  0.699991  0.434549  0.139608  1
  Cu  Cu15  1  0.564483  0.703291  0.268118  1
  Cu  Cu16  1  0.497984  0.997994  0.498315  1
  Cu  Cu17  1  0.000472  0.500463  0.499338  1
  Cu  Cu18  1  0.306824  0.806832  0.748421  1
  Cu  Cu19  1  0.298233  0.566289  0.863100  1
  Si  Si20  1  0.557024  0.057064  0.850667  1
  Si  Si21  1  0.058494  0.207438  0.499357  1
  Si  Si22  1  0.292871  0.441386  0.501101  1
  Si  Si23  1  0.941323  0.792811  0.500995  1
  Si  Si24  1  0.441665  0.941689  0.149322  1
  Si  Si25  1  0.205698  0.705726  0.147578  1
  Si  Si26  1  0.707438  0.558484  0.499326  1
  Ge  Ge27  1  0.799630  0.299588  0.855334  1
