# generated using pymatgen
data_K5Rb13(AlBi4)2
_symmetry_space_group_name_H-M   'P 1'
_cell_length_a   11.13087100
_cell_length_b   11.19683295
_cell_length_c   11.60283300
_cell_angle_alpha   90.00000000
_cell_angle_beta   90.00000000
_cell_angle_gamma   119.80531077
_symmetry_Int_Tables_number   1
_chemical_formula_structural   K5Rb13(AlBi4)2
_chemical_formula_sum   'K5 Rb13 Al2 Bi8'
_cell_volume   1254.78029402
_cell_formula_units_Z   1
loop_
 _symmetry_equiv_pos_site_id
 _symmetry_equiv_pos_as_xyz
  1  'x, y, z'
loop_
 _atom_site_type_symbol
 _atom_site_label
 _atom_site_symmetry_multiplicity
 _atom_site_fract_x
 _atom_site_fract_y
 _atom_site_fract_z
 _atom_site_occupancy
  K  K0  1  0.120149  0.240297  0.250000  1
  K  K1  1  0.880819  0.120191  0.750000  1
  K  K2  1  0.239370  0.120191  0.750000  1
  K  K3  1  0.761157  0.880691  0.250000  1
  K  K4  1  0.119535  0.880691  0.250000  1
  Rb  Rb5  1  0.208733  0.417465  0.542052  1
  Rb  Rb6  1  0.791298  0.208479  0.042347  1
  Rb  Rb7  1  0.417179  0.208479  0.042347  1
  Rb  Rb8  1  0.581894  0.791598  0.541363  1
  Rb  Rb9  1  0.209705  0.791598  0.541363  1
  Rb  Rb10  1  0.790717  0.581435  0.456198  1
  Rb  Rb11  1  0.791298  0.208479  0.457653  1
  Rb  Rb12  1  0.790717  0.581435  0.043802  1
  Rb  Rb13  1  0.417179  0.208479  0.457653  1
  Rb  Rb14  1  0.581894  0.791598  0.958637  1
  Rb  Rb15  1  0.208733  0.417465  0.957948  1
  Rb  Rb16  1  0.209705  0.791598  0.958637  1
  Rb  Rb17  1  0.880879  0.761760  0.750000  1
  Al  Al18  1  0.333495  0.666990  0.250000  1
  Al  Al19  1  0.666209  0.332415  0.750000  1
  Bi  Bi20  1  0.477848  0.523751  0.250000  1
  Bi  Bi21  1  0.954253  0.472981  0.750000  1
  Bi  Bi22  1  0.523000  0.046000  0.750000  1
  Bi  Bi23  1  0.476537  0.953074  0.250000  1
  Bi  Bi24  1  0.045903  0.523751  0.250000  1
  Bi  Bi25  1  0.518729  0.472981  0.750000  1
  Bi  Bi26  1  0.001531  0.003063  0.002540  1
  Bi  Bi27  1  0.001531  0.003063  0.497460  1
