# generated using pymatgen
data_Sc5Ti3(Co4As3)4
_symmetry_space_group_name_H-M   'P 1'
_cell_length_a   12.46295200
_cell_length_b   12.46295247
_cell_length_c   3.71680400
_cell_angle_alpha   90.00000000
_cell_angle_beta   90.00000000
_cell_angle_gamma   120.00000407
_symmetry_Int_Tables_number   1
_chemical_formula_structural   Sc5Ti3(Co4As3)4
_chemical_formula_sum   'Sc5 Ti3 Co16 As12'
_cell_volume   499.96791499
_cell_formula_units_Z   1
loop_
 _symmetry_equiv_pos_site_id
 _symmetry_equiv_pos_as_xyz
  1  'x, y, z'
loop_
 _atom_site_type_symbol
 _atom_site_label
 _atom_site_symmetry_multiplicity
 _atom_site_fract_x
 _atom_site_fract_y
 _atom_site_fract_z
 _atom_site_occupancy
  Sc  Sc0  1  0.185220  0.185220  0.500000  1
  Sc  Sc1  1  0.814780  0.000000  0.500000  1
  Sc  Sc2  1  0.000000  0.814780  0.500000  1
  Sc  Sc3  1  0.333333  0.666667  0.000000  1
  Sc  Sc4  1  0.666667  0.333333  0.000000  1
  Ti  Ti5  1  0.560414  0.560414  0.000000  1
  Ti  Ti6  1  0.439586  0.000000  0.000000  1
  Ti  Ti7  1  0.000000  0.439586  0.000000  1
  Co  Co8  1  0.716097  0.716097  0.500000  1
  Co  Co9  1  0.283903  0.000000  0.500000  1
  Co  Co10  1  0.000000  0.283903  0.500000  1
  Co  Co11  1  0.176489  0.374329  0.000000  1
  Co  Co12  1  0.625671  0.802160  0.000000  1
  Co  Co13  1  0.197840  0.823511  0.000000  1
  Co  Co14  1  0.802160  0.625671  0.000000  1
  Co  Co15  1  0.823511  0.197840  0.000000  1
  Co  Co16  1  0.374329  0.176489  0.000000  1
  Co  Co17  1  0.355085  0.479463  0.500000  1
  Co  Co18  1  0.520537  0.875622  0.500000  1
  Co  Co19  1  0.124378  0.644915  0.500000  1
  Co  Co20  1  0.875622  0.520537  0.500000  1
  Co  Co21  1  0.644915  0.124378  0.500000  1
  Co  Co22  1  0.479463  0.355085  0.500000  1
  Co  Co23  1  0.000000  0.000000  0.000000  1
  As  As24  1  0.824252  0.824252  0.000000  1
  As  As25  1  0.175748  0.000000  0.000000  1
  As  As26  1  0.000000  0.175748  0.000000  1
  As  As27  1  0.171639  0.486935  0.500000  1
  As  As28  1  0.513065  0.684705  0.500000  1
  As  As29  1  0.315295  0.828361  0.500000  1
  As  As30  1  0.684705  0.513065  0.500000  1
  As  As31  1  0.828361  0.315295  0.500000  1
  As  As32  1  0.486935  0.171639  0.500000  1
  As  As33  1  0.353807  0.353807  0.000000  1
  As  As34  1  0.646193  0.000000  0.000000  1
  As  As35  1  0.000000  0.646193  0.000000  1
