# generated using pymatgen
data_Tb3Y2Hf5(Si5Ir2)4
_symmetry_space_group_name_H-M   'P 1'
_cell_length_a   12.49708818
_cell_length_b   12.49748018
_cell_length_c   4.17198600
_cell_angle_alpha   90.00000000
_cell_angle_beta   90.00000000
_cell_angle_gamma   90.01963151
_symmetry_Int_Tables_number   1
_chemical_formula_structural   Tb3Y2Hf5(Si5Ir2)4
_chemical_formula_sum   'Tb3 Y2 Hf5 Si20 Ir8'
_cell_volume   651.58954614
_cell_formula_units_Z   1
loop_
 _symmetry_equiv_pos_site_id
 _symmetry_equiv_pos_as_xyz
  1  'x, y, z'
loop_
 _atom_site_type_symbol
 _atom_site_label
 _atom_site_symmetry_multiplicity
 _atom_site_fract_x
 _atom_site_fract_y
 _atom_site_fract_z
 _atom_site_occupancy
  Tb  Tb0  1  0.884213  0.384978  0.500000  1
  Tb  Tb1  1  0.115804  0.615013  0.500000  1
  Tb  Tb2  1  0.384961  0.115822  0.500000  1
  Y  Y3  1  0.999978  0.000004  0.000000  1
  Y  Y4  1  0.615012  0.884214  0.500000  1
  Hf  Hf5  1  0.499995  0.500007  0.000000  1
  Hf  Hf6  1  0.673735  0.175618  0.500000  1
  Hf  Hf7  1  0.326333  0.824317  0.500000  1
  Hf  Hf8  1  0.175646  0.326294  0.500000  1
  Hf  Hf9  1  0.824371  0.673688  0.500000  1
  Si  Si10  1  0.565872  0.068225  0.000000  1
  Si  Si11  1  0.434082  0.931833  0.000000  1
  Si  Si12  1  0.068200  0.434086  0.000000  1
  Si  Si13  1  0.931800  0.565910  0.000000  1
  Si  Si14  1  0.665184  0.701514  0.000000  1
  Si  Si15  1  0.334816  0.298447  0.000000  1
  Si  Si16  1  0.163739  0.800259  0.000000  1
  Si  Si17  1  0.836242  0.199726  0.000000  1
  Si  Si18  1  0.298492  0.665174  0.000000  1
  Si  Si19  1  0.701524  0.334842  0.000000  1
  Si  Si20  1  0.199767  0.163765  0.000000  1
  Si  Si21  1  0.800271  0.836243  0.000000  1
  Si  Si22  1  0.650940  0.508278  0.500000  1
  Si  Si23  1  0.349066  0.491728  0.500000  1
  Si  Si24  1  0.157394  0.992295  0.500000  1
  Si  Si25  1  0.842610  0.007756  0.500000  1
  Si  Si26  1  0.491682  0.650924  0.500000  1
  Si  Si27  1  0.508258  0.349059  0.500000  1
  Si  Si28  1  0.007722  0.157381  0.500000  1
  Si  Si29  1  0.992277  0.842608  0.500000  1
  Ir  Ir30  1  0.741341  0.522223  0.000000  1
  Ir  Ir31  1  0.258662  0.477802  0.000000  1
  Ir  Ir32  1  0.246409  0.977223  0.000000  1
  Ir  Ir33  1  0.753463  0.022608  0.000000  1
  Ir  Ir34  1  0.477929  0.741532  0.000000  1
  Ir  Ir35  1  0.522229  0.258608  0.000000  1
  Ir  Ir36  1  0.022741  0.246363  0.000000  1
  Ir  Ir37  1  0.977239  0.753632  0.000000  1
