# generated using pymatgen
data_LaEr2SbO7
_symmetry_space_group_name_H-M   'P 1'
_cell_length_a   6.51023831
_cell_length_b   6.51023883
_cell_length_c   7.63007100
_cell_angle_alpha   90.00000000
_cell_angle_beta   90.00000000
_cell_angle_gamma   108.93626894
_symmetry_Int_Tables_number   1
_chemical_formula_structural   LaEr2SbO7
_chemical_formula_sum   'La2 Er4 Sb2 O14'
_cell_volume   305.88521586
_cell_formula_units_Z   2
loop_
 _symmetry_equiv_pos_site_id
 _symmetry_equiv_pos_as_xyz
  1  'x, y, z'
loop_
 _atom_site_type_symbol
 _atom_site_label
 _atom_site_symmetry_multiplicity
 _atom_site_fract_x
 _atom_site_fract_y
 _atom_site_fract_z
 _atom_site_occupancy
  La  La0  1  0.500000  0.500000  0.500000  1
  La  La1  1  0.500000  0.500000  0.000000  1
  Er  Er2  1  0.530670  0.001638  0.750000  1
  Er  Er3  1  0.001638  0.530670  0.250000  1
  Er  Er4  1  0.469330  0.998362  0.250000  1
  Er  Er5  1  0.998362  0.469330  0.750000  1
  Sb  Sb6  1  0.000000  0.000000  0.500000  1
  Sb  Sb7  1  0.000000  0.000000  0.000000  1
  O  O8  1  0.679460  0.934748  0.469945  1
  O  O9  1  0.934748  0.679460  0.530055  1
  O  O10  1  0.679460  0.934748  0.030055  1
  O  O11  1  0.934748  0.679460  0.969945  1
  O  O12  1  0.320540  0.065252  0.530055  1
  O  O13  1  0.065252  0.320540  0.469945  1
  O  O14  1  0.320540  0.065252  0.969945  1
  O  O15  1  0.065252  0.320540  0.030055  1
  O  O16  1  0.930747  0.069253  0.750000  1
  O  O17  1  0.069253  0.930747  0.250000  1
  O  O18  1  0.360574  0.639426  0.750000  1
  O  O19  1  0.639426  0.360574  0.250000  1
  O  O20  1  0.645230  0.354770  0.750000  1
  O  O21  1  0.354770  0.645230  0.250000  1
