# generated using pymatgen
data_Ti12As3Se
_symmetry_space_group_name_H-M   'P 1'
_cell_length_a   10.15317459
_cell_length_b   10.17020959
_cell_length_c   5.10141400
_cell_angle_alpha   90.00000000
_cell_angle_beta   90.00000000
_cell_angle_gamma   90.03913623
_symmetry_Int_Tables_number   1
_chemical_formula_structural   Ti12As3Se
_chemical_formula_sum   'Ti24 As6 Se2'
_cell_volume   526.77144618
_cell_formula_units_Z   2
loop_
 _symmetry_equiv_pos_site_id
 _symmetry_equiv_pos_as_xyz
  1  'x, y, z'
loop_
 _atom_site_type_symbol
 _atom_site_label
 _atom_site_symmetry_multiplicity
 _atom_site_fract_x
 _atom_site_fract_y
 _atom_site_fract_z
 _atom_site_occupancy
  Ti  Ti0  1  0.896127  0.581605  0.036473  1
  Ti  Ti1  1  0.103873  0.418395  0.036473  1
  Ti  Ti2  1  0.918090  0.396321  0.537372  1
  Ti  Ti3  1  0.081910  0.603679  0.537372  1
  Ti  Ti4  1  0.602999  0.917712  0.464902  1
  Ti  Ti5  1  0.397001  0.082288  0.464902  1
  Ti  Ti6  1  0.581197  0.103904  0.961675  1
  Ti  Ti7  1  0.418803  0.896096  0.961675  1
  Ti  Ti8  1  0.858339  0.027251  0.712697  1
  Ti  Ti9  1  0.141661  0.972749  0.712697  1
  Ti  Ti10  1  0.472089  0.357331  0.213250  1
  Ti  Ti11  1  0.527911  0.642669  0.213250  1
  Ti  Ti12  1  0.642569  0.472524  0.786519  1
  Ti  Ti13  1  0.357431  0.527476  0.786519  1
  Ti  Ti14  1  0.027392  0.141960  0.287513  1
  Ti  Ti15  1  0.972608  0.858040  0.287513  1
  Ti  Ti16  1  0.284817  0.181996  0.993494  1
  Ti  Ti17  1  0.715183  0.818004  0.993494  1
  Ti  Ti18  1  0.317326  0.784736  0.494411  1
  Ti  Ti19  1  0.682674  0.215264  0.494411  1
  Ti  Ti20  1  0.215060  0.317391  0.505789  1
  Ti  Ti21  1  0.784940  0.682609  0.505789  1
  Ti  Ti22  1  0.182392  0.715053  0.005618  1
  Ti  Ti23  1  0.817608  0.284947  0.005618  1
  As  As24  1  0.459524  0.294134  0.711132  1
  As  As25  1  0.540476  0.705866  0.711132  1
  As  As26  1  0.705996  0.459496  0.288786  1
  As  As27  1  0.294004  0.540504  0.288786  1
  As  As28  1  0.040215  0.206132  0.788779  1
  As  As29  1  0.959785  0.793868  0.788779  1
  Se  Se30  1  0.792500  0.040163  0.211591  1
  Se  Se31  1  0.207500  0.959837  0.211591  1
