# generated using pymatgen
data_Eu3B2Pd2Pt5
_symmetry_space_group_name_H-M   'P 1'
_cell_length_a   8.38738453
_cell_length_b   8.38884118
_cell_length_c   8.38738421
_cell_angle_alpha   39.03293297
_cell_angle_beta   39.00016449
_cell_angle_gamma   39.03293564
_symmetry_Int_Tables_number   1
_chemical_formula_structural   Eu3B2Pd2Pt5
_chemical_formula_sum   'Eu3 B2 Pd2 Pt5'
_cell_volume   210.39746669
_cell_formula_units_Z   1
loop_
 _symmetry_equiv_pos_site_id
 _symmetry_equiv_pos_as_xyz
  1  'x, y, z'
loop_
 _atom_site_type_symbol
 _atom_site_label
 _atom_site_symmetry_multiplicity
 _atom_site_fract_x
 _atom_site_fract_y
 _atom_site_fract_z
 _atom_site_occupancy
  Eu  Eu0  1  0.856670  0.855153  0.856670  1
  Eu  Eu1  1  0.142026  0.144862  0.142026  1
  Eu  Eu2  1  0.999362  0.999272  0.999362  1
  B  B3  1  0.671068  0.663597  0.671068  1
  B  B4  1  0.329417  0.338684  0.329417  1
  Pd  Pd5  1  0.435022  0.933663  0.435022  1
  Pd  Pd6  1  0.502122  0.496498  0.502122  1
  Pt  Pt7  1  0.435835  0.435818  0.933623  1
  Pt  Pt8  1  0.933623  0.435818  0.435835  1
  Pt  Pt9  1  0.562884  0.065326  0.562884  1
  Pt  Pt10  1  0.565124  0.565655  0.066847  1
  Pt  Pt11  1  0.066847  0.565655  0.565124  1
