# generated using pymatgen
data_LaPrCoPtO6
_symmetry_space_group_name_H-M   'P 1'
_cell_length_a   5.56384071
_cell_length_b   5.80489000
_cell_length_c   7.95488404
_cell_angle_alpha   90.00000000
_cell_angle_beta   90.05092216
_cell_angle_gamma   90.00000000
_symmetry_Int_Tables_number   1
_chemical_formula_structural   LaPrCoPtO6
_chemical_formula_sum   'La2 Pr2 Co2 Pt2 O12'
_cell_volume   256.92263288
_cell_formula_units_Z   2
loop_
 _symmetry_equiv_pos_site_id
 _symmetry_equiv_pos_as_xyz
  1  'x, y, z'
loop_
 _atom_site_type_symbol
 _atom_site_label
 _atom_site_symmetry_multiplicity
 _atom_site_fract_x
 _atom_site_fract_y
 _atom_site_fract_z
 _atom_site_occupancy
  La  La0  1  0.486105  0.445744  0.750333  1
  La  La1  1  0.013896  0.945744  0.749667  1
  Pr  Pr2  1  0.982957  0.059559  0.250325  1
  Pr  Pr3  1  0.517041  0.559559  0.249676  1
  Co  Co4  1  0.499034  0.000311  0.001100  1
  Co  Co5  1  0.000966  0.500311  0.498899  1
  Pt  Pt6  1  0.000580  0.500174  0.000643  1
  Pt  Pt7  1  0.499421  0.000174  0.499357  1
  O  O8  1  0.703610  0.298783  0.052283  1
  O  O9  1  0.800789  0.791828  0.054162  1
  O  O10  1  0.098663  0.468528  0.248645  1
  O  O11  1  0.401338  0.968528  0.251357  1
  O  O12  1  0.699209  0.291828  0.445839  1
  O  O13  1  0.796391  0.798783  0.447717  1
  O  O14  1  0.200109  0.198811  0.547407  1
  O  O15  1  0.303262  0.706331  0.550167  1
  O  O16  1  0.594106  0.029932  0.749431  1
  O  O17  1  0.905893  0.529932  0.750569  1
  O  O18  1  0.196739  0.206331  0.949833  1
  O  O19  1  0.299890  0.698811  0.952593  1
