# generated using pymatgen
data_Rb4Na2ScGaAs4
_symmetry_space_group_name_H-M   'P 1'
_cell_length_a   9.32581375
_cell_length_b   9.32581448
_cell_length_c   9.32581260
_cell_angle_alpha   138.12039760
_cell_angle_beta   136.20056259
_cell_angle_gamma   62.20456100
_symmetry_Int_Tables_number   1
_chemical_formula_structural   Rb4Na2ScGaAs4
_chemical_formula_sum   'Rb4 Na2 Sc1 Ga1 As4'
_cell_volume   370.29419310
_cell_formula_units_Z   1
loop_
 _symmetry_equiv_pos_site_id
 _symmetry_equiv_pos_as_xyz
  1  'x, y, z'
loop_
 _atom_site_type_symbol
 _atom_site_label
 _atom_site_symmetry_multiplicity
 _atom_site_fract_x
 _atom_site_fract_y
 _atom_site_fract_z
 _atom_site_occupancy
  Rb  Rb0  1  0.095532  0.327852  0.776120  1
  Rb  Rb1  1  0.448267  0.172148  0.267680  1
  Rb  Rb2  1  0.904468  0.680588  0.232320  1
  Rb  Rb3  1  0.551733  0.819412  0.723880  1
  Na  Na4  1  0.500000  0.750000  0.250000  1
  Na  Na5  1  0.500000  0.250000  0.750000  1
  Sc  Sc6  1  0.000000  0.250000  0.250000  1
  Ga  Ga7  1  0.000000  0.750000  0.750000  1
  As  As8  1  0.114338  0.899334  0.199002  1
  As  As9  1  0.885662  0.084664  0.784996  1
  As  As10  1  0.299667  0.600666  0.715004  1
  As  As11  1  0.700333  0.415336  0.300998  1
