# generated using pymatgen
data_Tm5IrPt2
_symmetry_space_group_name_H-M   'P 1'
_cell_length_a   10.92528400
_cell_length_b   10.92528400
_cell_length_c   6.29844800
_cell_angle_alpha   90.00000000
_cell_angle_beta   90.00000000
_cell_angle_gamma   90.00000000
_symmetry_Int_Tables_number   1
_chemical_formula_structural   Tm5IrPt2
_chemical_formula_sum   'Tm20 Ir4 Pt8'
_cell_volume   751.79428247
_cell_formula_units_Z   4
loop_
 _symmetry_equiv_pos_site_id
 _symmetry_equiv_pos_as_xyz
  1  'x, y, z'
loop_
 _atom_site_type_symbol
 _atom_site_label
 _atom_site_symmetry_multiplicity
 _atom_site_fract_x
 _atom_site_fract_y
 _atom_site_fract_z
 _atom_site_occupancy
  Tm  Tm0  1  0.295199  0.086658  0.375177  1
  Tm  Tm1  1  0.295199  0.913342  0.875177  1
  Tm  Tm2  1  0.704801  0.086658  0.875177  1
  Tm  Tm3  1  0.704801  0.913342  0.375177  1
  Tm  Tm4  1  0.586658  0.795199  0.875177  1
  Tm  Tm5  1  0.586658  0.204801  0.375177  1
  Tm  Tm6  1  0.413342  0.795199  0.375177  1
  Tm  Tm7  1  0.413342  0.204801  0.875177  1
  Tm  Tm8  1  0.204801  0.413342  0.624823  1
  Tm  Tm9  1  0.204801  0.586658  0.124823  1
  Tm  Tm10  1  0.795199  0.413342  0.124823  1
  Tm  Tm11  1  0.795199  0.586658  0.624823  1
  Tm  Tm12  1  0.913342  0.704801  0.124823  1
  Tm  Tm13  1  0.913342  0.295199  0.624823  1
  Tm  Tm14  1  0.086658  0.704801  0.624823  1
  Tm  Tm15  1  0.086658  0.295199  0.124823  1
  Tm  Tm16  1  0.000000  0.000000  0.500000  1
  Tm  Tm17  1  0.000000  0.000000  0.000000  1
  Tm  Tm18  1  0.500000  0.500000  0.000000  1
  Tm  Tm19  1  0.500000  0.500000  0.500000  1
  Ir  Ir20  1  0.500000  0.000000  0.121088  1
  Ir  Ir21  1  0.500000  0.000000  0.621088  1
  Ir  Ir22  1  0.000000  0.500000  0.878912  1
  Ir  Ir23  1  0.000000  0.500000  0.378912  1
  Pt  Pt24  1  0.846248  0.153752  0.250000  1
  Pt  Pt25  1  0.846248  0.846248  0.750000  1
  Pt  Pt26  1  0.153752  0.153752  0.750000  1
  Pt  Pt27  1  0.153752  0.846248  0.250000  1
  Pt  Pt28  1  0.653752  0.346248  0.750000  1
  Pt  Pt29  1  0.653752  0.653752  0.250000  1
  Pt  Pt30  1  0.346248  0.346248  0.250000  1
  Pt  Pt31  1  0.346248  0.653752  0.750000  1
