# generated using pymatgen
data_HfSc7Ti9Si16Mo3
_symmetry_space_group_name_H-M   'P 1'
_cell_length_a   6.63133526
_cell_length_b   6.78350332
_cell_length_c   12.97202884
_cell_angle_alpha   89.99336274
_cell_angle_beta   89.91219770
_cell_angle_gamma   89.94674314
_symmetry_Int_Tables_number   1
_chemical_formula_structural   HfSc7Ti9Si16Mo3
_chemical_formula_sum   'Hf1 Sc7 Ti9 Si16 Mo3'
_cell_volume   583.52871441
_cell_formula_units_Z   1
loop_
 _symmetry_equiv_pos_site_id
 _symmetry_equiv_pos_as_xyz
  1  'x, y, z'
loop_
 _atom_site_type_symbol
 _atom_site_label
 _atom_site_symmetry_multiplicity
 _atom_site_fract_x
 _atom_site_fract_y
 _atom_site_fract_z
 _atom_site_occupancy
  Hf  Hf0  1  0.499584  0.676448  0.595962  1
  Sc  Sc1  1  0.000621  0.174324  0.096356  1
  Sc  Sc2  1  0.998264  0.827034  0.904689  1
  Sc  Sc3  1  0.499412  0.674994  0.904793  1
  Sc  Sc4  1  0.999755  0.827042  0.594760  1
  Sc  Sc5  1  0.500327  0.325145  0.096024  1
  Sc  Sc6  1  0.000235  0.174545  0.404035  1
  Sc  Sc7  1  0.499822  0.325890  0.404482  1
  Ti  Ti8  1  0.162472  0.492251  0.749182  1
  Ti  Ti9  1  0.338291  0.171395  0.626359  1
  Ti  Ti10  1  0.664101  0.825172  0.373741  1
  Ti  Ti11  1  0.165032  0.672158  0.373575  1
  Ti  Ti12  1  0.666001  0.827008  0.126649  1
  Ti  Ti13  1  0.834435  0.326448  0.626347  1
  Ti  Ti14  1  0.337745  0.171909  0.872560  1
  Ti  Ti15  1  0.834635  0.325672  0.872762  1
  Ti  Ti16  1  0.165164  0.672213  0.126810  1
  Si  Si17  1  0.037089  0.116843  0.749204  1
  Si  Si18  1  0.963719  0.885000  0.250284  1
  Si  Si19  1  0.463441  0.615481  0.249734  1
  Si  Si20  1  0.536724  0.384498  0.749876  1
  Si  Si21  1  0.294910  0.862059  0.750154  1
  Si  Si22  1  0.703219  0.138272  0.250198  1
  Si  Si23  1  0.203515  0.362171  0.250246  1
  Si  Si24  1  0.796887  0.637436  0.749878  1
  Si  Si25  1  0.166546  0.465087  0.540330  1
  Si  Si26  1  0.831463  0.536122  0.460615  1
  Si  Si27  1  0.333027  0.964128  0.459714  1
  Si  Si28  1  0.834713  0.535081  0.040646  1
  Si  Si29  1  0.667204  0.036319  0.540028  1
  Si  Si30  1  0.165472  0.463987  0.959770  1
  Si  Si31  1  0.666021  0.036489  0.959543  1
  Si  Si32  1  0.333164  0.963959  0.040728  1
  Mo  Mo33  1  0.837632  0.509014  0.250514  1
  Mo  Mo34  1  0.338459  0.991684  0.250475  1
  Mo  Mo35  1  0.660901  0.006723  0.748976  1
