# generated using pymatgen
data_Na3CaTa4O12
_symmetry_space_group_name_H-M   'P 1'
_cell_length_a   7.91842100
_cell_length_b   5.54154432
_cell_length_c   5.58558972
_cell_angle_alpha   90.23283127
_cell_angle_beta   90.00000000
_cell_angle_gamma   90.00000000
_symmetry_Int_Tables_number   1
_chemical_formula_structural   Na3CaTa4O12
_chemical_formula_sum   'Na3 Ca1 Ta4 O12'
_cell_volume   245.09522211
_cell_formula_units_Z   1
loop_
 _symmetry_equiv_pos_site_id
 _symmetry_equiv_pos_as_xyz
  1  'x, y, z'
loop_
 _atom_site_type_symbol
 _atom_site_label
 _atom_site_symmetry_multiplicity
 _atom_site_fract_x
 _atom_site_fract_y
 _atom_site_fract_z
 _atom_site_occupancy
  Na  Na0  1  0.000000  0.998807  0.019185  1
  Na  Na1  1  0.500000  0.496904  0.487305  1
  Na  Na2  1  0.500000  0.002510  0.984246  1
  Ca  Ca3  1  0.000000  0.498586  0.536264  1
  Ta  Ta4  1  0.251610  0.998859  0.498767  1
  Ta  Ta5  1  0.748224  0.501087  0.001633  1
  Ta  Ta6  1  0.748390  0.998859  0.498767  1
  Ta  Ta7  1  0.251776  0.501087  0.001633  1
  O  O8  1  0.278750  0.794174  0.205616  1
  O  O9  1  0.730131  0.703991  0.703559  1
  O  O10  1  0.784683  0.212306  0.785690  1
  O  O11  1  0.218146  0.296815  0.294835  1
  O  O12  1  0.215317  0.212306  0.785690  1
  O  O13  1  0.781854  0.296815  0.294835  1
  O  O14  1  0.721250  0.794174  0.205616  1
  O  O15  1  0.269869  0.703991  0.703559  1
  O  O16  1  0.000000  0.937078  0.482494  1
  O  O17  1  0.000000  0.556149  0.987802  1
  O  O18  1  0.500000  0.052651  0.515092  1
  O  O19  1  0.500000  0.442847  0.007410  1
