# generated using pymatgen
data_YScGa3Cu
_symmetry_space_group_name_H-M   'P 1'
_cell_length_a   4.30693900
_cell_length_b   4.30694011
_cell_length_c   7.02480100
_cell_angle_alpha   90.00000000
_cell_angle_beta   90.00000000
_cell_angle_gamma   120.00001453
_symmetry_Int_Tables_number   1
_chemical_formula_structural   YScGa3Cu
_chemical_formula_sum   'Y1 Sc1 Ga3 Cu1'
_cell_volume   112.85015175
_cell_formula_units_Z   1
loop_
 _symmetry_equiv_pos_site_id
 _symmetry_equiv_pos_as_xyz
  1  'x, y, z'
loop_
 _atom_site_type_symbol
 _atom_site_label
 _atom_site_symmetry_multiplicity
 _atom_site_fract_x
 _atom_site_fract_y
 _atom_site_fract_z
 _atom_site_occupancy
  Y  Y0  1  0.333333  0.666667  0.241725  1
  Sc  Sc1  1  0.333333  0.666667  0.771402  1
  Ga  Ga2  1  0.000000  0.000000  0.003002  1
  Ga  Ga3  1  0.000000  0.000000  0.470853  1
  Ga  Ga4  1  0.666667  0.333333  0.564284  1
  Cu  Cu5  1  0.666667  0.333333  0.948734  1
