# generated using pymatgen
data_Sr(TaSe2)4
_symmetry_space_group_name_H-M   'P 1'
_cell_length_a   7.03153600
_cell_length_b   7.03153580
_cell_length_c   15.25064300
_cell_angle_alpha   90.00000000
_cell_angle_beta   90.00000000
_cell_angle_gamma   120.00001033
_symmetry_Int_Tables_number   1
_chemical_formula_structural   Sr(TaSe2)4
_chemical_formula_sum   'Sr2 Ta8 Se16'
_cell_volume   653.00895719
_cell_formula_units_Z   2
loop_
 _symmetry_equiv_pos_site_id
 _symmetry_equiv_pos_as_xyz
  1  'x, y, z'
loop_
 _atom_site_type_symbol
 _atom_site_label
 _atom_site_symmetry_multiplicity
 _atom_site_fract_x
 _atom_site_fract_y
 _atom_site_fract_z
 _atom_site_occupancy
  Sr  Sr0  1  0.000000  0.000000  0.500000  1
  Sr  Sr1  1  0.000000  0.000000  0.000000  1
  Ta  Ta2  1  0.509447  0.490553  0.750000  1
  Ta  Ta3  1  0.018893  0.509447  0.250000  1
  Ta  Ta4  1  0.490553  0.981107  0.250000  1
  Ta  Ta5  1  0.509447  0.018893  0.750000  1
  Ta  Ta6  1  0.981107  0.490553  0.750000  1
  Ta  Ta7  1  0.490553  0.509447  0.250000  1
  Ta  Ta8  1  0.000000  0.000000  0.750000  1
  Ta  Ta9  1  0.000000  0.000000  0.250000  1
  Se  Se10  1  0.829477  0.170523  0.356166  1
  Se  Se11  1  0.829477  0.658954  0.356166  1
  Se  Se12  1  0.341046  0.170523  0.356166  1
  Se  Se13  1  0.658954  0.829477  0.856166  1
  Se  Se14  1  0.170523  0.341046  0.643834  1
  Se  Se15  1  0.170523  0.829477  0.856166  1
  Se  Se16  1  0.170523  0.341046  0.856166  1
  Se  Se17  1  0.829477  0.170523  0.143834  1
  Se  Se18  1  0.341046  0.170523  0.143834  1
  Se  Se19  1  0.658954  0.829477  0.643834  1
  Se  Se20  1  0.333333  0.666667  0.135491  1
  Se  Se21  1  0.666667  0.333333  0.635491  1
  Se  Se22  1  0.666667  0.333333  0.864509  1
  Se  Se23  1  0.333333  0.666667  0.364509  1
  Se  Se24  1  0.829477  0.658954  0.143834  1
  Se  Se25  1  0.170523  0.829477  0.643834  1
