# generated using pymatgen
data_TbEr3(Zr3Sn4)2
_symmetry_space_group_name_H-M   'P 1'
_cell_length_a   7.77237100
_cell_length_b   7.82091912
_cell_length_c   14.72592700
_cell_angle_alpha   89.98984621
_cell_angle_beta   90.00000000
_cell_angle_gamma   90.00000000
_symmetry_Int_Tables_number   1
_chemical_formula_structural   TbEr3(Zr3Sn4)2
_chemical_formula_sum   'Tb2 Er6 Zr12 Sn16'
_cell_volume   895.14616195
_cell_formula_units_Z   2
loop_
 _symmetry_equiv_pos_site_id
 _symmetry_equiv_pos_as_xyz
  1  'x, y, z'
loop_
 _atom_site_type_symbol
 _atom_site_label
 _atom_site_symmetry_multiplicity
 _atom_site_fract_x
 _atom_site_fract_y
 _atom_site_fract_z
 _atom_site_occupancy
  Tb  Tb0  1  0.512645  0.322178  0.592482  1
  Tb  Tb1  1  0.012645  0.177822  0.907518  1
  Er  Er2  1  0.513335  0.321916  0.907135  1
  Er  Er3  1  0.013335  0.178084  0.592865  1
  Er  Er4  1  0.486788  0.678356  0.406974  1
  Er  Er5  1  0.986788  0.821644  0.093026  1
  Er  Er6  1  0.486778  0.678243  0.092968  1
  Er  Er7  1  0.986778  0.821757  0.407032  1
  Zr  Zr8  1  0.349682  0.836888  0.871451  1
  Zr  Zr9  1  0.849682  0.663112  0.628549  1
  Zr  Zr10  1  0.651080  0.162522  0.371096  1
  Zr  Zr11  1  0.151080  0.337478  0.128904  1
  Zr  Zr12  1  0.650787  0.162625  0.128653  1
  Zr  Zr13  1  0.150787  0.337375  0.371347  1
  Zr  Zr14  1  0.349359  0.837307  0.628647  1
  Zr  Zr15  1  0.849359  0.662693  0.871353  1
  Zr  Zr16  1  0.171572  0.509498  0.749953  1
  Zr  Zr17  1  0.671572  0.990502  0.750047  1
  Zr  Zr18  1  0.828376  0.490722  0.250067  1
  Zr  Zr19  1  0.328376  0.009278  0.249933  1
  Sn  Sn20  1  0.310908  0.039723  0.042550  1
  Sn  Sn21  1  0.810908  0.460277  0.457450  1
  Sn  Sn22  1  0.689932  0.959861  0.541866  1
  Sn  Sn23  1  0.189932  0.540139  0.958134  1
  Sn  Sn24  1  0.688631  0.959570  0.958127  1
  Sn  Sn25  1  0.188631  0.540430  0.541873  1
  Sn  Sn26  1  0.310274  0.039577  0.457561  1
  Sn  Sn27  1  0.810274  0.460423  0.042439  1
  Sn  Sn28  1  0.544244  0.615090  0.750137  1
  Sn  Sn29  1  0.044244  0.884910  0.749863  1
  Sn  Sn30  1  0.455978  0.385279  0.250002  1
  Sn  Sn31  1  0.955978  0.114721  0.249998  1
  Sn  Sn32  1  0.317774  0.154718  0.750334  1
  Sn  Sn33  1  0.817774  0.345282  0.749666  1
  Sn  Sn34  1  0.681858  0.844518  0.249924  1
  Sn  Sn35  1  0.181858  0.655482  0.250076  1
