# generated using pymatgen
data_BaDyGe4N7
_symmetry_space_group_name_H-M   'P 1'
_cell_length_a   6.34802300
_cell_length_b   6.34802259
_cell_length_c   10.38012900
_cell_angle_alpha   90.00000000
_cell_angle_beta   90.00000000
_cell_angle_gamma   119.99999691
_symmetry_Int_Tables_number   1
_chemical_formula_structural   BaDyGe4N7
_chemical_formula_sum   'Ba2 Dy2 Ge8 N14'
_cell_volume   362.25163252
_cell_formula_units_Z   2
loop_
 _symmetry_equiv_pos_site_id
 _symmetry_equiv_pos_as_xyz
  1  'x, y, z'
loop_
 _atom_site_type_symbol
 _atom_site_label
 _atom_site_symmetry_multiplicity
 _atom_site_fract_x
 _atom_site_fract_y
 _atom_site_fract_z
 _atom_site_occupancy
  Ba  Ba0  1  0.333333  0.666667  0.363694  1
  Ba  Ba1  1  0.666667  0.333333  0.863694  1
  Dy  Dy2  1  0.333333  0.666667  0.736302  1
  Dy  Dy3  1  0.666667  0.333333  0.236302  1
  Ge  Ge4  1  0.826353  0.652704  0.546876  1
  Ge  Ge5  1  0.173647  0.826353  0.046876  1
  Ge  Ge6  1  0.652704  0.826353  0.046876  1
  Ge  Ge7  1  0.347296  0.173647  0.546876  1
  Ge  Ge8  1  0.826353  0.173647  0.546876  1
  Ge  Ge9  1  0.173647  0.347296  0.046876  1
  Ge  Ge10  1  0.000000  0.000000  0.813166  1
  Ge  Ge11  1  0.000000  0.000000  0.313166  1
  N  N12  1  0.000000  0.000000  0.621034  1
  N  N13  1  0.000000  0.000000  0.121034  1
  N  N14  1  0.158768  0.317536  0.869036  1
  N  N15  1  0.841232  0.158768  0.369036  1
  N  N16  1  0.317536  0.158768  0.369036  1
  N  N17  1  0.682464  0.841232  0.869036  1
  N  N18  1  0.158768  0.841232  0.869036  1
  N  N19  1  0.841232  0.682464  0.369036  1
  N  N20  1  0.988029  0.494015  0.603989  1
  N  N21  1  0.494015  0.988029  0.103989  1
  N  N22  1  0.494015  0.505985  0.103989  1
  N  N23  1  0.505985  0.494015  0.603989  1
  N  N24  1  0.011971  0.505985  0.103989  1
  N  N25  1  0.505985  0.011971  0.603989  1
