# generated using pymatgen
data_TeAu2SeBr16
_symmetry_space_group_name_H-M   'P 1'
_cell_length_a   8.30274251
_cell_length_b   9.36743778
_cell_length_c   10.90630833
_cell_angle_alpha   87.79987308
_cell_angle_beta   70.27888233
_cell_angle_gamma   82.06610423
_symmetry_Int_Tables_number   1
_chemical_formula_structural   TeAu2SeBr16
_chemical_formula_sum   'Te1 Au2 Se1 Br16'
_cell_volume   790.81646563
_cell_formula_units_Z   1
loop_
 _symmetry_equiv_pos_site_id
 _symmetry_equiv_pos_as_xyz
  1  'x, y, z'
loop_
 _atom_site_type_symbol
 _atom_site_label
 _atom_site_symmetry_multiplicity
 _atom_site_fract_x
 _atom_site_fract_y
 _atom_site_fract_z
 _atom_site_occupancy
  Te  Te0  1  0.369290  0.750382  0.277825  1
  Au  Au1  1  0.004079  0.110371  0.317689  1
  Au  Au2  1  0.990420  0.896212  0.684468  1
  Se  Se3  1  0.625597  0.248192  0.725662  1
  Br  Br4  1  0.281234  0.066997  0.364645  1
  Br  Br5  1  0.717182  0.944560  0.633681  1
  Br  Br6  1  0.910064  0.316861  0.472665  1
  Br  Br7  1  0.079071  0.680964  0.538082  1
  Br  Br8  1  0.086576  0.894319  0.173029  1
  Br  Br9  1  0.912207  0.118383  0.819104  1
  Br  Br10  1  0.747190  0.170982  0.252625  1
  Br  Br11  1  0.246152  0.834824  0.751515  1
  Br  Br12  1  0.418722  0.298924  0.616360  1
  Br  Br13  1  0.596579  0.694371  0.386907  1
  Br  Br14  1  0.650423  0.488446  0.779374  1
  Br  Br15  1  0.349794  0.493591  0.220461  1
  Br  Br16  1  0.425710  0.188222  0.929295  1
  Br  Br17  1  0.585481  0.805463  0.059263  1
  Br  Br18  1  0.931483  0.407131  0.065393  1
  Br  Br19  1  0.072747  0.590804  0.931954  1
