# generated using pymatgen
data_Tb2PrNd(SbAu)4
_symmetry_space_group_name_H-M   'P 1'
_cell_length_a   4.62354500
_cell_length_b   4.62354488
_cell_length_c   16.57752600
_cell_angle_alpha   90.00000000
_cell_angle_beta   90.00000000
_cell_angle_gamma   120.00000800
_symmetry_Int_Tables_number   1
_chemical_formula_structural   Tb2PrNd(SbAu)4
_chemical_formula_sum   'Tb2 Pr1 Nd1 Sb4 Au4'
_cell_volume   306.90253877
_cell_formula_units_Z   1
loop_
 _symmetry_equiv_pos_site_id
 _symmetry_equiv_pos_as_xyz
  1  'x, y, z'
loop_
 _atom_site_type_symbol
 _atom_site_label
 _atom_site_symmetry_multiplicity
 _atom_site_fract_x
 _atom_site_fract_y
 _atom_site_fract_z
 _atom_site_occupancy
  Tb  Tb0  1  0.000000  0.000000  0.250337  1
  Tb  Tb1  1  0.000000  0.000000  0.749663  1
  Pr  Pr2  1  0.000000  0.000000  0.500000  1
  Nd  Nd3  1  0.000000  0.000000  0.000000  1
  Sb  Sb4  1  0.333333  0.666667  0.387235  1
  Sb  Sb5  1  0.666667  0.333333  0.612765  1
  Sb  Sb6  1  0.666667  0.333333  0.887595  1
  Sb  Sb7  1  0.333333  0.666667  0.112405  1
  Au  Au8  1  0.666667  0.333333  0.338539  1
  Au  Au9  1  0.333333  0.666667  0.661461  1
  Au  Au10  1  0.333333  0.666667  0.835890  1
  Au  Au11  1  0.666667  0.333333  0.164110  1
