# generated using pymatgen
data_Li(La4Rh3)2
_symmetry_space_group_name_H-M   'P 1'
_cell_length_a   7.68451981
_cell_length_b   7.68452102
_cell_length_c   7.68452063
_cell_angle_alpha   71.10524122
_cell_angle_beta   71.10524023
_cell_angle_gamma   71.10523639
_symmetry_Int_Tables_number   1
_chemical_formula_structural   Li(La4Rh3)2
_chemical_formula_sum   'Li1 La8 Rh6'
_cell_volume   393.85800171
_cell_formula_units_Z   1
loop_
 _symmetry_equiv_pos_site_id
 _symmetry_equiv_pos_as_xyz
  1  'x, y, z'
loop_
 _atom_site_type_symbol
 _atom_site_label
 _atom_site_symmetry_multiplicity
 _atom_site_fract_x
 _atom_site_fract_y
 _atom_site_fract_z
 _atom_site_occupancy
  Li  Li0  1  0.000000  0.000000  0.000000  1
  La  La1  1  0.809211  0.809211  0.809211  1
  La  La2  1  0.190789  0.190789  0.190789  1
  La  La3  1  0.319493  0.620178  0.851654  1
  La  La4  1  0.851654  0.319493  0.620178  1
  La  La5  1  0.620178  0.851654  0.319493  1
  La  La6  1  0.680507  0.379822  0.148346  1
  La  La7  1  0.148346  0.680507  0.379822  1
  La  La8  1  0.379822  0.148346  0.680507  1
  Rh  Rh9  1  0.182921  0.950480  0.575051  1
  Rh  Rh10  1  0.575051  0.182921  0.950480  1
  Rh  Rh11  1  0.950480  0.575051  0.182921  1
  Rh  Rh12  1  0.817079  0.049520  0.424949  1
  Rh  Rh13  1  0.424949  0.817079  0.049520  1
  Rh  Rh14  1  0.049520  0.424949  0.817079  1
