# generated using pymatgen
data_Sc3BeP2Os3
_symmetry_space_group_name_H-M   'P 1'
_cell_length_a   6.62354100
_cell_length_b   6.62354195
_cell_length_c   3.45934800
_cell_angle_alpha   90.00000000
_cell_angle_beta   90.00000000
_cell_angle_gamma   120.00001024
_symmetry_Int_Tables_number   1
_chemical_formula_structural   Sc3BeP2Os3
_chemical_formula_sum   'Sc3 Be1 P2 Os3'
_cell_volume   131.43328421
_cell_formula_units_Z   1
loop_
 _symmetry_equiv_pos_site_id
 _symmetry_equiv_pos_as_xyz
  1  'x, y, z'
loop_
 _atom_site_type_symbol
 _atom_site_label
 _atom_site_symmetry_multiplicity
 _atom_site_fract_x
 _atom_site_fract_y
 _atom_site_fract_z
 _atom_site_occupancy
  Sc  Sc0  1  0.399244  0.399244  0.500000  1
  Sc  Sc1  1  0.600756  0.000000  0.500000  1
  Sc  Sc2  1  0.000000  0.600756  0.500000  1
  Be  Be3  1  0.000000  0.000000  0.500000  1
  P  P4  1  0.666667  0.333333  0.000000  1
  P  P5  1  0.333333  0.666667  0.000000  1
  Os  Os6  1  0.752940  0.752940  0.000000  1
  Os  Os7  1  0.247060  0.000000  0.000000  1
  Os  Os8  1  0.000000  0.247060  0.000000  1
