# generated using pymatgen
data_MgNb5(B2Ru5)2
_symmetry_space_group_name_H-M   'P 1'
_cell_length_a   9.40107300
_cell_length_b   9.40107300
_cell_length_c   3.04367600
_cell_angle_alpha   90.00000000
_cell_angle_beta   90.00000000
_cell_angle_gamma   90.00000000
_symmetry_Int_Tables_number   1
_chemical_formula_structural   MgNb5(B2Ru5)2
_chemical_formula_sum   'Mg1 Nb5 B4 Ru10'
_cell_volume   269.00061311
_cell_formula_units_Z   1
loop_
 _symmetry_equiv_pos_site_id
 _symmetry_equiv_pos_as_xyz
  1  'x, y, z'
loop_
 _atom_site_type_symbol
 _atom_site_label
 _atom_site_symmetry_multiplicity
 _atom_site_fract_x
 _atom_site_fract_y
 _atom_site_fract_z
 _atom_site_occupancy
  Mg  Mg0  1  0.500000  0.500000  0.000000  1
  Nb  Nb1  1  0.819257  0.673798  0.000000  1
  Nb  Nb2  1  0.180743  0.326202  0.000000  1
  Nb  Nb3  1  0.326202  0.819257  0.000000  1
  Nb  Nb4  1  0.673798  0.180743  0.000000  1
  Nb  Nb5  1  0.000000  0.000000  0.000000  1
  B  B6  1  0.616378  0.870472  0.000000  1
  B  B7  1  0.383622  0.129528  0.000000  1
  B  B8  1  0.129528  0.616378  0.000000  1
  B  B9  1  0.870472  0.383622  0.000000  1
  Ru  Ru10  1  0.500000  0.000000  0.500000  1
  Ru  Ru11  1  0.000000  0.500000  0.500000  1
  Ru  Ru12  1  0.570905  0.718641  0.500000  1
  Ru  Ru13  1  0.429095  0.281359  0.500000  1
  Ru  Ru14  1  0.070970  0.780825  0.500000  1
  Ru  Ru15  1  0.929030  0.219175  0.500000  1
  Ru  Ru16  1  0.281359  0.570905  0.500000  1
  Ru  Ru17  1  0.718641  0.429095  0.500000  1
  Ru  Ru18  1  0.219175  0.070970  0.500000  1
  Ru  Ru19  1  0.780825  0.929030  0.500000  1
