# generated using pymatgen
data_AcSeS
_symmetry_space_group_name_H-M   'P 1'
_cell_length_a   4.29902700
_cell_length_b   8.58014144
_cell_length_c   8.72876407
_cell_angle_alpha   89.84025067
_cell_angle_beta   90.00000000
_cell_angle_gamma   90.00000000
_symmetry_Int_Tables_number   1
_chemical_formula_structural   AcSeS
_chemical_formula_sum   'Ac4 Se4 S4'
_cell_volume   321.97020689
_cell_formula_units_Z   4
loop_
 _symmetry_equiv_pos_site_id
 _symmetry_equiv_pos_as_xyz
  1  'x, y, z'
loop_
 _atom_site_type_symbol
 _atom_site_label
 _atom_site_symmetry_multiplicity
 _atom_site_fract_x
 _atom_site_fract_y
 _atom_site_fract_z
 _atom_site_occupancy
  Ac  Ac0  1  0.281350  0.627521  0.714491  1
  Ac  Ac1  1  0.781350  0.872479  0.285509  1
  Ac  Ac2  1  0.718650  0.372479  0.285509  1
  Ac  Ac3  1  0.218650  0.127521  0.714491  1
  Se  Se4  1  0.321784  0.883321  0.001885  1
  Se  Se5  1  0.821784  0.616679  0.998115  1
  Se  Se6  1  0.678216  0.116679  0.998115  1
  Se  Se7  1  0.178216  0.383321  0.001885  1
  S  S8  1  0.259632  0.625714  0.365596  1
  S  S9  1  0.759632  0.874286  0.634404  1
  S  S10  1  0.740368  0.374286  0.634404  1
  S  S11  1  0.240368  0.125714  0.365596  1
