# generated using pymatgen
data_Hf6Zn12Cu11Ge
_symmetry_space_group_name_H-M   'P 1'
_cell_length_a   8.56006684
_cell_length_b   8.54512446
_cell_length_c   8.51551700
_cell_angle_alpha   60.11316359
_cell_angle_beta   60.17062676
_cell_angle_gamma   60.06039641
_symmetry_Int_Tables_number   1
_chemical_formula_structural   Hf6Zn12Cu11Ge
_chemical_formula_sum   'Hf6 Zn12 Cu11 Ge1'
_cell_volume   441.58891999
_cell_formula_units_Z   1
loop_
 _symmetry_equiv_pos_site_id
 _symmetry_equiv_pos_as_xyz
  1  'x, y, z'
loop_
 _atom_site_type_symbol
 _atom_site_label
 _atom_site_symmetry_multiplicity
 _atom_site_fract_x
 _atom_site_fract_y
 _atom_site_fract_z
 _atom_site_occupancy
  Hf  Hf0  1  0.724442  0.275528  0.288689  1
  Hf  Hf1  1  0.269958  0.723903  0.722287  1
  Hf  Hf2  1  0.269958  0.723904  0.283852  1
  Hf  Hf3  1  0.724442  0.275529  0.711339  1
  Hf  Hf4  1  0.283611  0.282520  0.716935  1
  Hf  Hf5  1  0.729561  0.716565  0.276936  1
  Zn  Zn6  1  0.880481  0.365104  0.877207  1
  Zn  Zn7  1  0.630975  0.122210  0.123408  1
  Zn  Zn8  1  0.370546  0.877088  0.876183  1
  Zn  Zn9  1  0.332926  0.338359  0.336534  1
  Zn  Zn10  1  0.663175  0.664540  0.659536  1
  Zn  Zn11  1  0.332928  0.338360  0.992178  1
  Zn  Zn12  1  0.332485  0.992345  0.337586  1
  Zn  Zn13  1  0.663174  0.664539  0.012748  1
  Zn  Zn14  1  0.669662  0.000104  0.665116  1
  Zn  Zn15  1  0.004115  0.332002  0.331941  1
  Zn  Zn16  1  0.999743  0.671057  0.664598  1
  Zn  Zn17  1  0.002735  0.991002  0.003130  1
  Cu  Cu18  1  0.120676  0.122219  0.120352  1
  Cu  Cu19  1  0.877133  0.878364  0.878636  1
  Cu  Cu20  1  0.120665  0.122213  0.636780  1
  Cu  Cu21  1  0.123521  0.630176  0.123149  1
  Cu  Cu22  1  0.877136  0.878367  0.365861  1
  Cu  Cu23  1  0.498752  0.002295  0.999443  1
  Cu  Cu24  1  0.998971  0.500223  0.501593  1
  Cu  Cu25  1  0.998972  0.500220  0.999216  1
  Cu  Cu26  1  0.498751  0.002295  0.499510  1
  Cu  Cu27  1  0.999559  0.002263  0.499089  1
  Cu  Cu28  1  0.502782  0.499113  0.999053  1
  Ge  Ge29  1  0.498161  0.507598  0.497118  1
