# generated using pymatgen
data_Pr4YMg(P2Ru3)6
_symmetry_space_group_name_H-M   'P 1'
_cell_length_a   12.73653703
_cell_length_b   12.58655098
_cell_length_c   4.01719300
_cell_angle_alpha   90.00000000
_cell_angle_beta   90.00000000
_cell_angle_gamma   119.54072623
_symmetry_Int_Tables_number   1
_chemical_formula_structural   Pr4YMg(P2Ru3)6
_chemical_formula_sum   'Pr4 Y1 Mg1 P12 Ru18'
_cell_volume   560.27697664
_cell_formula_units_Z   1
loop_
 _symmetry_equiv_pos_site_id
 _symmetry_equiv_pos_as_xyz
  1  'x, y, z'
loop_
 _atom_site_type_symbol
 _atom_site_label
 _atom_site_symmetry_multiplicity
 _atom_site_fract_x
 _atom_site_fract_y
 _atom_site_fract_z
 _atom_site_occupancy
  Pr  Pr0  1  0.999697  0.180593  0.500000  1
  Pr  Pr1  1  0.816546  0.815052  0.500000  1
  Pr  Pr2  1  0.184868  0.000742  0.500000  1
  Pr  Pr3  1  0.660013  0.329085  0.000000  1
  Y  Y4  1  0.340014  0.668789  0.000000  1
  Mg  Mg5  1  0.000518  0.562172  0.000000  1
  P  P6  1  0.001713  0.808016  0.000000  1
  P  P7  1  0.185742  0.188220  0.000000  1
  P  P8  1  0.812007  0.998224  0.000000  1
  P  P9  1  0.691546  0.169478  0.500000  1
  P  P10  1  0.819708  0.520976  0.500000  1
  P  P11  1  0.472370  0.306675  0.500000  1
  P  P12  1  0.184993  0.702335  0.500000  1
  P  P13  1  0.524461  0.829142  0.500000  1
  P  P14  1  0.306758  0.481986  0.500000  1
  P  P15  1  0.998339  0.362053  0.000000  1
  P  P16  1  0.622794  0.623321  0.000000  1
  P  P17  1  0.377572  0.001920  0.000000  1
  Ru  Ru18  1  0.443971  0.445197  0.000000  1
  Ru  Ru19  1  0.555991  0.001529  0.000000  1
  Ru  Ru20  1  0.002120  0.712607  0.500000  1
  Ru  Ru21  1  0.283496  0.288031  0.500000  1
  Ru  Ru22  1  0.714539  0.999490  0.500000  1
  Ru  Ru23  1  0.802974  0.182921  0.000000  1
  Ru  Ru24  1  0.814790  0.618896  0.000000  1
  Ru  Ru25  1  0.374541  0.192750  0.000000  1
  Ru  Ru26  1  0.189302  0.804858  0.000000  1
  Ru  Ru27  1  0.621757  0.814612  0.000000  1
  Ru  Ru28  1  0.196124  0.383420  0.000000  1
  Ru  Ru29  1  0.876882  0.365558  0.500000  1
  Ru  Ru30  1  0.630486  0.511220  0.500000  1
  Ru  Ru31  1  0.490451  0.126696  0.500000  1
  Ru  Ru32  1  0.371954  0.878660  0.500000  1
  Ru  Ru33  1  0.505530  0.634095  0.500000  1
  Ru  Ru34  1  0.125699  0.494077  0.500000  1
  Ru  Ru35  1  0.999736  0.996605  0.000000  1
