# generated using pymatgen
data_TbGd2H9
_symmetry_space_group_name_H-M   'P 1'
_cell_length_a   6.40758903
_cell_length_b   6.40758826
_cell_length_c   6.67822402
_cell_angle_alpha   89.99295734
_cell_angle_beta   90.00704053
_cell_angle_gamma   119.99139233
_symmetry_Int_Tables_number   1
_chemical_formula_structural   TbGd2H9
_chemical_formula_sum   'Tb2 Gd4 H18'
_cell_volume   237.47534047
_cell_formula_units_Z   2
loop_
 _symmetry_equiv_pos_site_id
 _symmetry_equiv_pos_as_xyz
  1  'x, y, z'
loop_
 _atom_site_type_symbol
 _atom_site_label
 _atom_site_symmetry_multiplicity
 _atom_site_fract_x
 _atom_site_fract_y
 _atom_site_fract_z
 _atom_site_occupancy
  Tb  Tb0  1  0.337119  0.000113  0.250000  1
  Tb  Tb1  1  0.000113  0.337119  0.250000  1
  Gd  Gd2  1  0.662813  0.662813  0.250000  1
  Gd  Gd3  1  0.663310  0.000309  0.749798  1
  Gd  Gd4  1  0.000309  0.663310  0.750202  1
  Gd  Gd5  1  0.336460  0.336460  0.750000  1
  H  H6  1  0.001125  0.001125  0.250000  1
  H  H7  1  0.999873  0.999873  0.750000  1
  H  H8  1  0.332272  0.666689  0.181531  1
  H  H9  1  0.666689  0.332272  0.318469  1
  H  H10  1  0.666682  0.333486  0.818907  1
  H  H11  1  0.333486  0.666682  0.681093  1
  H  H12  1  0.348912  0.321072  0.093283  1
  H  H13  1  0.678516  0.027786  0.093522  1
  H  H14  1  0.972932  0.650681  0.093012  1
  H  H15  1  0.027786  0.678516  0.406478  1
  H  H16  1  0.650681  0.972932  0.406988  1
  H  H17  1  0.321072  0.348912  0.406717  1
  H  H18  1  0.651510  0.678157  0.907059  1
  H  H19  1  0.321892  0.973589  0.907793  1
  H  H20  1  0.026427  0.348276  0.907798  1
  H  H21  1  0.973589  0.321892  0.592207  1
  H  H22  1  0.348276  0.026427  0.592202  1
  H  H23  1  0.678157  0.651510  0.592941  1
