# generated using pymatgen
data_Sm7Er(SiI6)2
_symmetry_space_group_name_H-M   'P 1'
_cell_length_a   4.26906900
_cell_length_b   14.22621074
_cell_length_c   15.02667529
_cell_angle_alpha   89.73525690
_cell_angle_beta   90.00000000
_cell_angle_gamma   90.00000000
_symmetry_Int_Tables_number   1
_chemical_formula_structural   Sm7Er(SiI6)2
_chemical_formula_sum   'Sm7 Er1 Si2 I12'
_cell_volume   912.60044846
_cell_formula_units_Z   1
loop_
 _symmetry_equiv_pos_site_id
 _symmetry_equiv_pos_as_xyz
  1  'x, y, z'
loop_
 _atom_site_type_symbol
 _atom_site_label
 _atom_site_symmetry_multiplicity
 _atom_site_fract_x
 _atom_site_fract_y
 _atom_site_fract_z
 _atom_site_occupancy
  Sm  Sm0  1  0.500000  0.115615  0.346026  1
  Sm  Sm1  1  0.500000  0.885119  0.653286  1
  Sm  Sm2  1  0.500000  0.613523  0.152962  1
  Sm  Sm3  1  0.500000  0.384781  0.848012  1
  Sm  Sm4  1  0.000000  0.112833  0.575388  1
  Sm  Sm5  1  0.000000  0.887423  0.423986  1
  Sm  Sm6  1  0.000000  0.610778  0.925498  1
  Er  Er7  1  0.000000  0.389789  0.073967  1
  Si  Si8  1  0.500000  0.000286  0.499492  1
  Si  Si9  1  0.500000  0.497278  0.001727  1
  I  I10  1  0.500000  0.252127  0.159514  1
  I  I11  1  0.500000  0.754359  0.838309  1
  I  I12  1  0.500000  0.743898  0.337707  1
  I  I13  1  0.500000  0.255157  0.662962  1
  I  I14  1  0.000000  0.260123  0.414393  1
  I  I15  1  0.000000  0.740367  0.585214  1
  I  I16  1  0.000000  0.758734  0.084800  1
  I  I17  1  0.000000  0.241833  0.920454  1
  I  I18  1  0.000000  0.999610  0.238846  1
  I  I19  1  0.000000  0.001565  0.760342  1
  I  I20  1  0.000000  0.493316  0.256555  1
  I  I21  1  0.000000  0.501484  0.740561  1
