# generated using pymatgen
data_LiHfZr(AsPd)3
_symmetry_space_group_name_H-M   'P 1'
_cell_length_a   6.78752283
_cell_length_b   6.85653255
_cell_length_c   3.80890700
_cell_angle_alpha   90.00000000
_cell_angle_beta   90.00000000
_cell_angle_gamma   119.56284867
_symmetry_Int_Tables_number   1
_chemical_formula_structural   LiHfZr(AsPd)3
_chemical_formula_sum   'Li1 Hf1 Zr1 As3 Pd3'
_cell_volume   154.18535313
_cell_formula_units_Z   1
loop_
 _symmetry_equiv_pos_site_id
 _symmetry_equiv_pos_as_xyz
  1  'x, y, z'
loop_
 _atom_site_type_symbol
 _atom_site_label
 _atom_site_symmetry_multiplicity
 _atom_site_fract_x
 _atom_site_fract_y
 _atom_site_fract_z
 _atom_site_occupancy
  Li  Li0  1  0.600287  0.000010  0.000000  1
  Hf  Hf1  1  0.402786  0.406217  0.000000  1
  Zr  Zr2  1  0.995747  0.593080  0.000000  1
  As  As3  1  0.326743  0.659927  0.500000  1
  As  As4  1  0.665165  0.340084  0.500000  1
  As  As5  1  0.006585  0.000976  0.000000  1
  Pd  Pd6  1  0.275700  0.002045  0.500000  1
  Pd  Pd7  1  0.991132  0.250260  0.500000  1
  Pd  Pd8  1  0.735855  0.747402  0.500000  1
