# generated using pymatgen
data_PrAl8GeAu4
_symmetry_space_group_name_H-M   'P 1'
_cell_length_a   6.12664740
_cell_length_b   6.12664751
_cell_length_c   14.94547315
_cell_angle_alpha   101.82755063
_cell_angle_beta   101.82755034
_cell_angle_gamma   90.00000396
_symmetry_Int_Tables_number   1
_chemical_formula_structural   PrAl8GeAu4
_chemical_formula_sum   'Pr2 Al16 Ge2 Au8'
_cell_volume   536.90543744
_cell_formula_units_Z   2
loop_
 _symmetry_equiv_pos_site_id
 _symmetry_equiv_pos_as_xyz
  1  'x, y, z'
loop_
 _atom_site_type_symbol
 _atom_site_label
 _atom_site_symmetry_multiplicity
 _atom_site_fract_x
 _atom_site_fract_y
 _atom_site_fract_z
 _atom_site_occupancy
  Pr  Pr0  1  0.750001  0.250000  0.500000  1
  Pr  Pr1  1  0.250000  0.750001  0.500000  1
  Al  Al2  1  0.302100  0.302100  0.105197  1
  Al  Al3  1  0.803097  0.302100  0.105197  1
  Al  Al4  1  0.302100  0.803097  0.105197  1
  Al  Al5  1  0.803097  0.803097  0.105197  1
  Al  Al6  1  0.406117  0.406117  0.310580  1
  Al  Al7  1  0.904461  0.406117  0.310580  1
  Al  Al8  1  0.406117  0.904461  0.310580  1
  Al  Al9  1  0.904461  0.904461  0.310580  1
  Al  Al10  1  0.095538  0.095538  0.689420  1
  Al  Al11  1  0.593883  0.095538  0.689420  1
  Al  Al12  1  0.095538  0.593883  0.689420  1
  Al  Al13  1  0.593883  0.593883  0.689420  1
  Al  Al14  1  0.196904  0.196904  0.894803  1
  Al  Al15  1  0.697899  0.196904  0.894803  1
  Al  Al16  1  0.196904  0.697899  0.894803  1
  Al  Al17  1  0.697899  0.697899  0.894803  1
  Ge  Ge18  1  0.206744  0.206744  0.413489  1
  Ge  Ge19  1  0.793256  0.793256  0.586512  1
  Au  Au20  1  0.000000  0.000000  0.000000  1
  Au  Au21  1  0.500001  0.500001  0.000000  1
  Au  Au22  1  0.604799  0.104799  0.209596  1
  Au  Au23  1  0.104799  0.604799  0.209596  1
  Au  Au24  1  0.704026  0.704026  0.408050  1
  Au  Au25  1  0.295975  0.295975  0.591950  1
  Au  Au26  1  0.895202  0.395201  0.790403  1
  Au  Au27  1  0.395201  0.895202  0.790403  1
