# generated using pymatgen
data_CeErCCl
_symmetry_space_group_name_H-M   'P 1'
_cell_length_a   3.61246600
_cell_length_b   3.61246435
_cell_length_c   13.97244600
_cell_angle_alpha   90.00000000
_cell_angle_beta   90.00000000
_cell_angle_gamma   119.99999678
_symmetry_Int_Tables_number   1
_chemical_formula_structural   CeErCCl
_chemical_formula_sum   'Ce2 Er2 C2 Cl2'
_cell_volume   157.91028740
_cell_formula_units_Z   2
loop_
 _symmetry_equiv_pos_site_id
 _symmetry_equiv_pos_as_xyz
  1  'x, y, z'
loop_
 _atom_site_type_symbol
 _atom_site_label
 _atom_site_symmetry_multiplicity
 _atom_site_fract_x
 _atom_site_fract_y
 _atom_site_fract_z
 _atom_site_occupancy
  Ce  Ce0  1  0.666667  0.333333  0.905916  1
  Ce  Ce1  1  0.333333  0.666667  0.405916  1
  Er  Er2  1  0.333333  0.666667  0.096437  1
  Er  Er3  1  0.666667  0.333333  0.596437  1
  C  C4  1  0.000000  0.000000  0.008860  1
  C  C5  1  0.000000  0.000000  0.508860  1
  Cl  Cl6  1  0.333333  0.666667  0.738786  1
  Cl  Cl7  1  0.666667  0.333333  0.238786  1
