# generated using pymatgen
data_DyAlZn11
_symmetry_space_group_name_H-M   'P 1'
_cell_length_a   5.25441636
_cell_length_b   6.80057054
_cell_length_c   6.80057084
_cell_angle_alpha   98.52926095
_cell_angle_beta   112.72581735
_cell_angle_gamma   67.27418222
_symmetry_Int_Tables_number   1
_chemical_formula_structural   DyAlZn11
_chemical_formula_sum   'Dy1 Al1 Zn11'
_cell_volume   206.73772392
_cell_formula_units_Z   1
loop_
 _symmetry_equiv_pos_site_id
 _symmetry_equiv_pos_as_xyz
  1  'x, y, z'
loop_
 _atom_site_type_symbol
 _atom_site_label
 _atom_site_symmetry_multiplicity
 _atom_site_fract_x
 _atom_site_fract_y
 _atom_site_fract_z
 _atom_site_occupancy
  Dy  Dy0  1  0.000066  0.999934  0.000066  1
  Al  Al1  1  0.643005  0.356995  0.643005  1
  Zn  Zn2  1  0.722183  0.777817  0.222183  1
  Zn  Zn3  1  0.281023  0.218977  0.781023  1
  Zn  Zn4  1  0.500338  0.784510  0.785186  1
  Zn  Zn5  1  0.500338  0.214814  0.215490  1
  Zn  Zn6  1  0.500271  0.998802  0.499937  1
  Zn  Zn7  1  0.000864  0.998802  0.499937  1
  Zn  Zn8  1  0.500271  0.500063  0.001198  1
  Zn  Zn9  1  0.000864  0.500063  0.001198  1
  Zn  Zn10  1  0.349205  0.650795  0.349205  1
  Zn  Zn11  1  0.000786  0.352138  0.353709  1
  Zn  Zn12  1  0.000786  0.646291  0.647862  1
