# generated using pymatgen
data_Ho2Ni2P7Ru10
_symmetry_space_group_name_H-M   'P 1'
_cell_length_a   9.39852039
_cell_length_b   9.27877361
_cell_length_c   3.86832400
_cell_angle_alpha   90.00000000
_cell_angle_beta   90.00000000
_cell_angle_gamma   119.24844773
_symmetry_Int_Tables_number   1
_chemical_formula_structural   Ho2Ni2P7Ru10
_chemical_formula_sum   'Ho2 Ni2 P7 Ru10'
_cell_volume   294.33570364
_cell_formula_units_Z   1
loop_
 _symmetry_equiv_pos_site_id
 _symmetry_equiv_pos_as_xyz
  1  'x, y, z'
loop_
 _atom_site_type_symbol
 _atom_site_label
 _atom_site_symmetry_multiplicity
 _atom_site_fract_x
 _atom_site_fract_y
 _atom_site_fract_z
 _atom_site_occupancy
  Ho  Ho0  1  0.998864  0.996132  0.000000  1
  Ho  Ho1  1  0.336505  0.669576  0.500000  1
  Ni  Ni2  1  0.779320  0.171662  0.000000  1
  Ni  Ni3  1  0.394464  0.225487  0.000000  1
  P  P4  1  0.661118  0.327460  0.000000  1
  P  P5  1  0.087921  0.640406  0.000000  1
  P  P6  1  0.554799  0.923350  0.000000  1
  P  P7  1  0.362623  0.448179  0.000000  1
  P  P8  1  0.784565  0.737755  0.500000  1
  P  P9  1  0.956413  0.217658  0.500000  1
  P  P10  1  0.263682  0.044458  0.500000  1
  Ru  Ru11  1  0.091592  0.394038  0.000000  1
  Ru  Ru12  1  0.305358  0.910652  0.000000  1
  Ru  Ru13  1  0.598164  0.697968  0.000000  1
  Ru  Ru14  1  0.826462  0.604119  0.000000  1
  Ru  Ru15  1  0.056218  0.770218  0.500000  1
  Ru  Ru16  1  0.722133  0.952277  0.500000  1
  Ru  Ru17  1  0.232461  0.281152  0.500000  1
  Ru  Ru18  1  0.865533  0.411968  0.500000  1
  Ru  Ru19  1  0.540141  0.119493  0.500000  1
  Ru  Ru20  1  0.581668  0.455994  0.500000  1
