# generated using pymatgen
data_La3Sm5BePd24
_symmetry_space_group_name_H-M   'P 1'
_cell_length_a   8.47835688
_cell_length_b   8.47835736
_cell_length_c   8.47507400
_cell_angle_alpha   90.04721060
_cell_angle_beta   90.04721061
_cell_angle_gamma   90.13191567
_symmetry_Int_Tables_number   1
_chemical_formula_structural   La3Sm5BePd24
_chemical_formula_sum   'La3 Sm5 Be1 Pd24'
_cell_volume   609.20781201
_cell_formula_units_Z   1
loop_
 _symmetry_equiv_pos_site_id
 _symmetry_equiv_pos_as_xyz
  1  'x, y, z'
loop_
 _atom_site_type_symbol
 _atom_site_label
 _atom_site_symmetry_multiplicity
 _atom_site_fract_x
 _atom_site_fract_y
 _atom_site_fract_z
 _atom_site_occupancy
  La  La0  1  0.251171  0.251171  0.251950  1
  La  La1  1  0.747933  0.747933  0.747424  1
  La  La2  1  0.749642  0.749642  0.251947  1
  Sm  Sm3  1  0.749131  0.251691  0.749983  1
  Sm  Sm4  1  0.251262  0.251262  0.747580  1
  Sm  Sm5  1  0.251500  0.747742  0.250770  1
  Sm  Sm6  1  0.251691  0.749131  0.749983  1
  Sm  Sm7  1  0.747742  0.251500  0.250770  1
  Be  Be8  1  0.999939  0.999939  0.999160  1
  Pd  Pd9  1  0.253999  0.501195  0.997528  1
  Pd  Pd10  1  0.746064  0.497257  0.000497  1
  Pd  Pd11  1  0.996856  0.253960  0.501959  1
  Pd  Pd12  1  0.501195  0.253999  0.997528  1
  Pd  Pd13  1  0.004967  0.746030  0.500287  1
  Pd  Pd14  1  0.497257  0.746064  0.000497  1
  Pd  Pd15  1  0.499985  0.999464  0.253729  1
  Pd  Pd16  1  0.253960  0.996856  0.501959  1
  Pd  Pd17  1  0.498341  0.002264  0.746200  1
  Pd  Pd18  1  0.746030  0.004967  0.500287  1
  Pd  Pd19  1  0.999464  0.499985  0.253729  1
  Pd  Pd20  1  0.002264  0.498341  0.746200  1
  Pd  Pd21  1  0.251506  0.502133  0.502324  1
  Pd  Pd22  1  0.748397  0.496162  0.499751  1
  Pd  Pd23  1  0.502133  0.251506  0.502324  1
  Pd  Pd24  1  0.496162  0.748397  0.499751  1
  Pd  Pd25  1  0.500543  0.500543  0.251208  1
  Pd  Pd26  1  0.497820  0.497820  0.748999  1
  Pd  Pd27  1  0.268155  0.998035  0.998018  1
  Pd  Pd28  1  0.731191  0.003800  0.999783  1
  Pd  Pd29  1  0.998035  0.268155  0.998018  1
  Pd  Pd30  1  0.003800  0.731191  0.999783  1
  Pd  Pd31  1  0.000050  0.000050  0.268668  1
  Pd  Pd32  1  0.001813  0.001813  0.731408  1
