# generated using pymatgen
data_Ce8Tm11Si16Ag
_symmetry_space_group_name_H-M   'P 1'
_cell_length_a   7.68095075
_cell_length_b   7.68095103
_cell_length_c   14.17767000
_cell_angle_alpha   89.88033519
_cell_angle_beta   90.11966482
_cell_angle_gamma   89.92135132
_symmetry_Int_Tables_number   1
_chemical_formula_structural   Ce8Tm11Si16Ag
_chemical_formula_sum   'Ce8 Tm11 Si16 Ag1'
_cell_volume   836.43564935
_cell_formula_units_Z   1
loop_
 _symmetry_equiv_pos_site_id
 _symmetry_equiv_pos_as_xyz
  1  'x, y, z'
loop_
 _atom_site_type_symbol
 _atom_site_label
 _atom_site_symmetry_multiplicity
 _atom_site_fract_x
 _atom_site_fract_y
 _atom_site_fract_z
 _atom_site_occupancy
  Ce  Ce0  1  0.994677  0.357678  0.201812  1
  Ce  Ce1  1  0.010032  0.645378  0.712940  1
  Ce  Ce2  1  0.143263  0.491094  0.457890  1
  Ce  Ce3  1  0.501717  0.859819  0.037724  1
  Ce  Ce4  1  0.859819  0.501717  0.962276  1
  Ce  Ce5  1  0.491094  0.143263  0.542110  1
  Ce  Ce6  1  0.357678  0.994677  0.798188  1
  Ce  Ce7  1  0.645378  0.010032  0.287060  1
  Tm  Tm8  1  0.818664  0.818664  0.500000  1
  Tm  Tm9  1  0.318856  0.684272  0.248158  1
  Tm  Tm10  1  0.684272  0.318856  0.751842  1
  Tm  Tm11  1  0.138952  0.010058  0.375150  1
  Tm  Tm12  1  0.867757  0.995438  0.880535  1
  Tm  Tm13  1  0.492155  0.641988  0.628310  1
  Tm  Tm14  1  0.359587  0.495069  0.879876  1
  Tm  Tm15  1  0.495069  0.359587  0.120124  1
  Tm  Tm16  1  0.641988  0.492155  0.371690  1
  Tm  Tm17  1  0.010058  0.138952  0.624850  1
  Tm  Tm18  1  0.995438  0.867757  0.119465  1
  Si  Si19  1  0.291896  0.062748  0.187539  1
  Si  Si20  1  0.707666  0.937572  0.690756  1
  Si  Si21  1  0.439235  0.791873  0.437119  1
  Si  Si22  1  0.208782  0.576928  0.063023  1
  Si  Si23  1  0.576928  0.208782  0.936977  1
  Si  Si24  1  0.791873  0.439235  0.562881  1
  Si  Si25  1  0.062748  0.291896  0.812461  1
  Si  Si26  1  0.937572  0.707666  0.309244  1
  Si  Si27  1  0.345853  0.297957  0.307277  1
  Si  Si28  1  0.651082  0.705692  0.816937  1
  Si  Si29  1  0.204148  0.847215  0.560926  1
  Si  Si30  1  0.144862  0.777425  0.933222  1
  Si  Si31  1  0.777425  0.144862  0.066778  1
  Si  Si32  1  0.847215  0.204148  0.439074  1
  Si  Si33  1  0.297957  0.345853  0.692723  1
  Si  Si34  1  0.705692  0.651082  0.183063  1
  Ag  Ag35  1  0.182611  0.182611  0.000000  1
