# generated using pymatgen
data_Er8Sc12Ga7Si7As2
_symmetry_space_group_name_H-M   'P 1'
_cell_length_a   7.15448292
_cell_length_b   7.40916825
_cell_length_c   14.15726078
_cell_angle_alpha   90.02433543
_cell_angle_beta   89.92291595
_cell_angle_gamma   90.67362823
_symmetry_Int_Tables_number   1
_chemical_formula_structural   Er8Sc12Ga7Si7As2
_chemical_formula_sum   'Er8 Sc12 Ga7 Si7 As2'
_cell_volume   750.40633944
_cell_formula_units_Z   1
loop_
 _symmetry_equiv_pos_site_id
 _symmetry_equiv_pos_as_xyz
  1  'x, y, z'
loop_
 _atom_site_type_symbol
 _atom_site_label
 _atom_site_symmetry_multiplicity
 _atom_site_fract_x
 _atom_site_fract_y
 _atom_site_fract_z
 _atom_site_occupancy
  Er  Er0  1  0.008733  0.174329  0.100581  1
  Er  Er1  1  0.993605  0.822556  0.899911  1
  Er  Er2  1  0.491256  0.674739  0.902729  1
  Er  Er3  1  0.993031  0.823722  0.601530  1
  Er  Er4  1  0.508101  0.324897  0.098170  1
  Er  Er5  1  0.006462  0.175540  0.398289  1
  Er  Er6  1  0.507174  0.326144  0.400744  1
  Er  Er7  1  0.492159  0.673282  0.598710  1
  Sc  Sc8  1  0.165239  0.502466  0.749938  1
  Sc  Sc9  1  0.835159  0.498202  0.249913  1
  Sc  Sc10  1  0.337492  0.002551  0.248782  1
  Sc  Sc11  1  0.661930  0.998092  0.749549  1
  Sc  Sc12  1  0.332111  0.169760  0.628376  1
  Sc  Sc13  1  0.667004  0.830472  0.371255  1
  Sc  Sc14  1  0.172635  0.668583  0.374791  1
  Sc  Sc15  1  0.666526  0.828751  0.128171  1
  Sc  Sc16  1  0.826508  0.332001  0.624932  1
  Sc  Sc17  1  0.331955  0.169811  0.873101  1
  Sc  Sc18  1  0.825716  0.332653  0.875432  1
  Sc  Sc19  1  0.176128  0.670190  0.123688  1
  Ga  Ga20  1  0.161029  0.458054  0.539686  1
  Ga  Ga21  1  0.838147  0.542278  0.459902  1
  Ga  Ga22  1  0.336670  0.961176  0.460970  1
  Ga  Ga23  1  0.839134  0.543112  0.040555  1
  Ga  Ga24  1  0.662732  0.038786  0.538705  1
  Ga  Ga25  1  0.160774  0.457167  0.960471  1
  Ga  Ga26  1  0.662189  0.039374  0.961994  1
  Si  Si27  1  0.467470  0.614452  0.249271  1
  Si  Si28  1  0.531981  0.384423  0.750677  1
  Si  Si29  1  0.301119  0.856494  0.750953  1
  Si  Si30  1  0.699358  0.143485  0.249034  1
  Si  Si31  1  0.210299  0.369012  0.249141  1
  Si  Si32  1  0.788612  0.630933  0.750792  1
  Si  Si33  1  0.341835  0.963409  0.039003  1
  As  As34  1  0.025857  0.124937  0.751013  1
  As  As35  1  0.973871  0.874162  0.249239  1
