# generated using pymatgen
data_RbBaV2Cu8(P4O17)2
_symmetry_space_group_name_H-M   'P 1'
_cell_length_a   9.73455600
_cell_length_b   9.73455600
_cell_length_c   7.34686600
_cell_angle_alpha   90.00000000
_cell_angle_beta   90.00000000
_cell_angle_gamma   90.00000000
_symmetry_Int_Tables_number   1
_chemical_formula_structural   RbBaV2Cu8(P4O17)2
_chemical_formula_sum   'Rb1 Ba1 V2 Cu8 P8 O34'
_cell_volume   696.20063401
_cell_formula_units_Z   1
loop_
 _symmetry_equiv_pos_site_id
 _symmetry_equiv_pos_as_xyz
  1  'x, y, z'
loop_
 _atom_site_type_symbol
 _atom_site_label
 _atom_site_symmetry_multiplicity
 _atom_site_fract_x
 _atom_site_fract_y
 _atom_site_fract_z
 _atom_site_occupancy
  Rb  Rb0  1  0.000000  0.000000  0.000000  1
  Ba  Ba1  1  0.500000  0.500000  0.000000  1
  V  V2  1  0.000000  0.500000  0.951384  1
  V  V3  1  0.500000  0.000000  0.048616  1
  Cu  Cu4  1  0.238203  0.486727  0.403036  1
  Cu  Cu5  1  0.486727  0.238203  0.596964  1
  Cu  Cu6  1  0.012845  0.737788  0.404709  1
  Cu  Cu7  1  0.761797  0.513273  0.403036  1
  Cu  Cu8  1  0.737788  0.012845  0.595291  1
  Cu  Cu9  1  0.987155  0.262212  0.404709  1
  Cu  Cu10  1  0.513273  0.761797  0.596964  1
  Cu  Cu11  1  0.262212  0.987155  0.595291  1
  P  P12  1  0.219147  0.691173  0.730132  1
  P  P13  1  0.808060  0.717562  0.730140  1
  P  P14  1  0.717562  0.808060  0.269860  1
  P  P15  1  0.191940  0.282438  0.730140  1
  P  P16  1  0.780853  0.308827  0.730132  1
  P  P17  1  0.282438  0.191940  0.269860  1
  P  P18  1  0.691173  0.219147  0.269868  1
  P  P19  1  0.308827  0.780853  0.269868  1
  O  O20  1  0.000000  0.500000  0.173924  1
  O  O21  1  0.872000  0.836696  0.270105  1
  O  O22  1  0.892258  0.655586  0.892184  1
  O  O23  1  0.323642  0.344409  0.247294  1
  O  O24  1  0.843400  0.182770  0.251296  1
  O  O25  1  0.842347  0.392095  0.893267  1
  O  O26  1  0.676358  0.655591  0.247294  1
  O  O27  1  0.500000  0.000000  0.826076  1
  O  O28  1  0.655591  0.676358  0.752706  1
  O  O29  1  0.817230  0.156600  0.748704  1
  O  O30  1  0.655586  0.892258  0.107816  1
  O  O31  1  0.107742  0.344414  0.892184  1
  O  O32  1  0.344409  0.323642  0.752706  1
  O  O33  1  0.182770  0.843400  0.748704  1
  O  O34  1  0.625350  0.341980  0.733472  1
  O  O35  1  0.344414  0.107742  0.107816  1
  O  O36  1  0.128000  0.163304  0.270105  1
  O  O37  1  0.836696  0.872000  0.729895  1
  O  O38  1  0.864017  0.650304  0.548832  1
  O  O39  1  0.349696  0.135983  0.451168  1
  O  O40  1  0.341980  0.625350  0.266528  1
  O  O41  1  0.847123  0.365467  0.548781  1
  O  O42  1  0.650304  0.864017  0.451168  1
  O  O43  1  0.157653  0.607905  0.893267  1
  O  O44  1  0.163304  0.128000  0.729895  1
  O  O45  1  0.374650  0.658020  0.733472  1
  O  O46  1  0.156600  0.817230  0.251296  1
  O  O47  1  0.365467  0.847123  0.451219  1
  O  O48  1  0.392095  0.842347  0.106733  1
  O  O49  1  0.658020  0.374650  0.266528  1
  O  O50  1  0.634533  0.152877  0.451219  1
  O  O51  1  0.135983  0.349696  0.548832  1
  O  O52  1  0.607905  0.157653  0.106733  1
  O  O53  1  0.152877  0.634533  0.548781  1
