# generated using pymatgen
data_Ca4Tb3Gd(BO4)4
_symmetry_space_group_name_H-M   'P 1'
_cell_length_a   3.64007800
_cell_length_b   9.73118907
_cell_length_c   10.55116608
_cell_angle_alpha   90.01393741
_cell_angle_beta   90.00000000
_cell_angle_gamma   90.00000000
_symmetry_Int_Tables_number   1
_chemical_formula_structural   Ca4Tb3Gd(BO4)4
_chemical_formula_sum   'Ca4 Tb3 Gd1 B4 O16'
_cell_volume   373.74642463
_cell_formula_units_Z   1
loop_
 _symmetry_equiv_pos_site_id
 _symmetry_equiv_pos_as_xyz
  1  'x, y, z'
loop_
 _atom_site_type_symbol
 _atom_site_label
 _atom_site_symmetry_multiplicity
 _atom_site_fract_x
 _atom_site_fract_y
 _atom_site_fract_z
 _atom_site_occupancy
  Ca  Ca0  1  0.250000  0.671143  0.083017  1
  Ca  Ca1  1  0.750000  0.328757  0.916541  1
  Ca  Ca2  1  0.750000  0.172345  0.417208  1
  Ca  Ca3  1  0.250000  0.827788  0.583134  1
  Tb  Tb4  1  0.750000  0.911074  0.886183  1
  Tb  Tb5  1  0.750000  0.588373  0.387571  1
  Tb  Tb6  1  0.250000  0.411780  0.612655  1
  Gd  Gd7  1  0.250000  0.087687  0.112986  1
  B  B8  1  0.250000  0.369369  0.199977  1
  B  B9  1  0.750000  0.631528  0.800181  1
  B  B10  1  0.750000  0.867577  0.301066  1
  B  B11  1  0.250000  0.131893  0.699550  1
  O  O12  1  0.250000  0.501582  0.249720  1
  O  O13  1  0.750000  0.499403  0.750525  1
  O  O14  1  0.750000  0.000048  0.252444  1
  O  O15  1  0.250000  0.999529  0.748916  1
  O  O16  1  0.250000  0.252912  0.277796  1
  O  O17  1  0.750000  0.748430  0.722695  1
  O  O18  1  0.750000  0.751215  0.223034  1
  O  O19  1  0.250000  0.248833  0.776986  1
  O  O20  1  0.250000  0.350407  0.068096  1
  O  O21  1  0.750000  0.651051  0.931926  1
  O  O22  1  0.750000  0.847231  0.432715  1
  O  O23  1  0.250000  0.151650  0.567791  1
  O  O24  1  0.250000  0.613570  0.506288  1
  O  O25  1  0.750000  0.386321  0.494349  1
  O  O26  1  0.750000  0.113415  0.992007  1
  O  O27  1  0.250000  0.885089  0.004644  1
