# generated using pymatgen
data_PrNd7(SiBr6)2
_symmetry_space_group_name_H-M   'P 1'
_cell_length_a   4.21085500
_cell_length_b   13.76928342
_cell_length_c   14.57797635
_cell_angle_alpha   90.06027978
_cell_angle_beta   90.00000000
_cell_angle_gamma   90.00000000
_symmetry_Int_Tables_number   1
_chemical_formula_structural   PrNd7(SiBr6)2
_chemical_formula_sum   'Pr1 Nd7 Si2 Br12'
_cell_volume   845.23724734
_cell_formula_units_Z   1
loop_
 _symmetry_equiv_pos_site_id
 _symmetry_equiv_pos_as_xyz
  1  'x, y, z'
loop_
 _atom_site_type_symbol
 _atom_site_label
 _atom_site_symmetry_multiplicity
 _atom_site_fract_x
 _atom_site_fract_y
 _atom_site_fract_z
 _atom_site_occupancy
  Pr  Pr0  1  0.500000  0.381193  0.840544  1
  Nd  Nd1  1  0.500000  0.118914  0.341235  1
  Nd  Nd2  1  0.500000  0.881822  0.659216  1
  Nd  Nd3  1  0.500000  0.619108  0.159708  1
  Nd  Nd4  1  0.000000  0.119623  0.579676  1
  Nd  Nd5  1  0.000000  0.880997  0.421018  1
  Nd  Nd6  1  0.000000  0.619470  0.920392  1
  Nd  Nd7  1  0.000000  0.380132  0.078985  1
  Si  Si8  1  0.500000  0.000468  0.500297  1
  Si  Si9  1  0.500000  0.500530  0.000643  1
  Br  Br10  1  0.500000  0.243223  0.161794  1
  Br  Br11  1  0.500000  0.755946  0.837233  1
  Br  Br12  1  0.500000  0.743750  0.338123  1
  Br  Br13  1  0.500000  0.255221  0.662221  1
  Br  Br14  1  0.000000  0.253534  0.412049  1
  Br  Br15  1  0.000000  0.747276  0.588438  1
  Br  Br16  1  0.000000  0.753197  0.088574  1
  Br  Br17  1  0.000000  0.244701  0.911247  1
  Br  Br18  1  0.000000  0.002055  0.245648  1
  Br  Br19  1  0.000000  0.998290  0.755052  1
  Br  Br20  1  0.000000  0.501922  0.254460  1
  Br  Br21  1  0.000000  0.498628  0.743448  1
