# generated using pymatgen
data_Ce2Tc5(NiP)7
_symmetry_space_group_name_H-M   'P 1'
_cell_length_a   9.30885021
_cell_length_b   9.36550315
_cell_length_c   3.74804500
_cell_angle_alpha   90.00000000
_cell_angle_beta   90.00000000
_cell_angle_gamma   120.27247163
_symmetry_Int_Tables_number   1
_chemical_formula_structural   Ce2Tc5(NiP)7
_chemical_formula_sum   'Ce2 Tc5 Ni7 P7'
_cell_volume   282.20429813
_cell_formula_units_Z   1
loop_
 _symmetry_equiv_pos_site_id
 _symmetry_equiv_pos_as_xyz
  1  'x, y, z'
loop_
 _atom_site_type_symbol
 _atom_site_label
 _atom_site_symmetry_multiplicity
 _atom_site_fract_x
 _atom_site_fract_y
 _atom_site_fract_z
 _atom_site_occupancy
  Ce  Ce0  1  0.667040  0.330286  0.500000  1
  Ce  Ce1  1  0.335628  0.666811  0.000000  1
  Tc  Tc2  1  0.389037  0.435964  0.500000  1
  Tc  Tc3  1  0.884752  0.796266  0.500000  1
  Tc  Tc4  1  0.897146  0.121803  0.500000  1
  Tc  Tc5  1  0.049728  0.613949  0.500000  1
  Tc  Tc6  1  0.208256  0.089135  0.500000  1
  Ni  Ni7  1  0.154583  0.271472  0.000000  1
  Ni  Ni8  1  0.120899  0.842896  0.000000  1
  Ni  Ni9  1  0.721410  0.882810  0.000000  1
  Ni  Ni10  1  0.940809  0.365387  0.000000  1
  Ni  Ni11  1  0.560148  0.948634  0.500000  1
  Ni  Ni12  1  0.635591  0.576090  0.000000  1
  Ni  Ni13  1  0.433502  0.061182  0.000000  1
  P  P14  1  0.601172  0.717613  0.500000  1
  P  P15  1  0.113107  0.398870  0.500000  1
  P  P16  1  0.884935  0.590121  0.000000  1
  P  P17  1  0.292258  0.890226  0.500000  1
  P  P18  1  0.997851  0.997488  0.000000  1
  P  P19  1  0.704482  0.111220  0.000000  1
  P  P20  1  0.407665  0.291777  0.000000  1
