# generated using pymatgen
data_Er4Pa2Fe3(Co5P4)3
_symmetry_space_group_name_H-M   'P 1'
_cell_length_a   3.69408500
_cell_length_b   10.51313700
_cell_length_c   12.09998200
_cell_angle_alpha   90.00000000
_cell_angle_beta   90.00000000
_cell_angle_gamma   90.00000000
_symmetry_Int_Tables_number   1
_chemical_formula_structural   Er4Pa2Fe3(Co5P4)3
_chemical_formula_sum   'Er4 Pa2 Fe3 Co15 P12'
_cell_volume   469.92000345
_cell_formula_units_Z   1
loop_
 _symmetry_equiv_pos_site_id
 _symmetry_equiv_pos_as_xyz
  1  'x, y, z'
loop_
 _atom_site_type_symbol
 _atom_site_label
 _atom_site_symmetry_multiplicity
 _atom_site_fract_x
 _atom_site_fract_y
 _atom_site_fract_z
 _atom_site_occupancy
  Er  Er0  1  0.250000  0.934826  0.795848  1
  Er  Er1  1  0.250000  0.565174  0.795848  1
  Er  Er2  1  0.750000  0.066481  0.203461  1
  Er  Er3  1  0.750000  0.433519  0.203461  1
  Pa  Pa4  1  0.750000  0.250000  0.472337  1
  Pa  Pa5  1  0.250000  0.750000  0.528598  1
  Fe  Fe6  1  0.250000  0.250000  0.846115  1
  Fe  Fe7  1  0.750000  0.750000  0.154887  1
  Fe  Fe8  1  0.750000  0.250000  0.014656  1
  Co  Co9  1  0.250000  0.250000  0.303768  1
  Co  Co10  1  0.750000  0.750000  0.695352  1
  Co  Co11  1  0.250000  0.750000  0.983746  1
  Co  Co12  1  0.250000  0.418603  0.006506  1
  Co  Co13  1  0.250000  0.081397  0.006506  1
  Co  Co14  1  0.750000  0.584415  0.993625  1
  Co  Co15  1  0.750000  0.915585  0.993625  1
  Co  Co16  1  0.250000  0.448142  0.568272  1
  Co  Co17  1  0.250000  0.051858  0.568272  1
  Co  Co18  1  0.750000  0.550515  0.431758  1
  Co  Co19  1  0.750000  0.949485  0.431758  1
  Co  Co20  1  0.250000  0.870354  0.289786  1
  Co  Co21  1  0.250000  0.629646  0.289786  1
  Co  Co22  1  0.750000  0.129477  0.710734  1
  Co  Co23  1  0.750000  0.370523  0.710734  1
  P  P24  1  0.250000  0.250000  0.118703  1
  P  P25  1  0.750000  0.750000  0.878264  1
  P  P26  1  0.250000  0.250000  0.659597  1
  P  P27  1  0.750000  0.750000  0.341717  1
  P  P28  1  0.250000  0.443628  0.382116  1
  P  P29  1  0.250000  0.056372  0.382116  1
  P  P30  1  0.750000  0.556399  0.617858  1
  P  P31  1  0.750000  0.943601  0.617858  1
  P  P32  1  0.250000  0.902254  0.106091  1
  P  P33  1  0.250000  0.597746  0.106091  1
  P  P34  1  0.750000  0.096993  0.895077  1
  P  P35  1  0.750000  0.403007  0.895077  1
