# generated using pymatgen
data_Nd8Si12PtAu3
_symmetry_space_group_name_H-M   'P 1'
_cell_length_a   8.28576003
_cell_length_b   8.28661481
_cell_length_c   8.64109100
_cell_angle_alpha   89.99787415
_cell_angle_beta   90.00211922
_cell_angle_gamma   120.00540652
_symmetry_Int_Tables_number   1
_chemical_formula_structural   Nd8Si12PtAu3
_chemical_formula_sum   'Nd8 Si12 Pt1 Au3'
_cell_volume   513.78929370
_cell_formula_units_Z   1
loop_
 _symmetry_equiv_pos_site_id
 _symmetry_equiv_pos_as_xyz
  1  'x, y, z'
loop_
 _atom_site_type_symbol
 _atom_site_label
 _atom_site_symmetry_multiplicity
 _atom_site_fract_x
 _atom_site_fract_y
 _atom_site_fract_z
 _atom_site_occupancy
  Nd  Nd0  1  0.999999  0.000001  0.751069  1
  Nd  Nd1  1  0.000001  0.000001  0.248938  1
  Nd  Nd2  1  0.497706  0.502289  0.752337  1
  Nd  Nd3  1  0.497723  0.995428  0.752322  1
  Nd  Nd4  1  0.004572  0.502276  0.752322  1
  Nd  Nd5  1  0.499402  0.500592  0.247658  1
  Nd  Nd6  1  0.001190  0.500597  0.247670  1
  Nd  Nd7  1  0.499399  0.998808  0.247669  1
  Si  Si8  1  0.837366  0.162591  0.999178  1
  Si  Si9  1  0.837373  0.674842  0.999179  1
  Si  Si10  1  0.325123  0.162587  0.999180  1
  Si  Si11  1  0.835965  0.163995  0.500743  1
  Si  Si12  1  0.835967  0.672003  0.500743  1
  Si  Si13  1  0.327972  0.164002  0.500744  1
  Si  Si14  1  0.163790  0.836244  0.499277  1
  Si  Si15  1  0.672525  0.836247  0.499285  1
  Si  Si16  1  0.163785  0.327504  0.499284  1
  Si  Si17  1  0.167412  0.832652  0.001145  1
  Si  Si18  1  0.665304  0.832608  0.001145  1
  Si  Si19  1  0.167439  0.334722  0.001146  1
  Pt  Pt20  1  0.333277  0.666693  0.001890  1
  Au  Au21  1  0.666704  0.333313  0.997067  1
  Au  Au22  1  0.666698  0.333320  0.502854  1
  Au  Au23  1  0.333309  0.666682  0.497151  1
