# generated using pymatgen
data_Ce8Si13Ni3
_symmetry_space_group_name_H-M   'P 1'
_cell_length_a   8.06328700
_cell_length_b   8.06328815
_cell_length_c   8.40498500
_cell_angle_alpha   90.00000000
_cell_angle_beta   90.00000000
_cell_angle_gamma   119.99999117
_symmetry_Int_Tables_number   1
_chemical_formula_structural   Ce8Si13Ni3
_chemical_formula_sum   'Ce8 Si13 Ni3'
_cell_volume   473.25140433
_cell_formula_units_Z   1
loop_
 _symmetry_equiv_pos_site_id
 _symmetry_equiv_pos_as_xyz
  1  'x, y, z'
loop_
 _atom_site_type_symbol
 _atom_site_label
 _atom_site_symmetry_multiplicity
 _atom_site_fract_x
 _atom_site_fract_y
 _atom_site_fract_z
 _atom_site_occupancy
  Ce  Ce0  1  0.000000  0.000000  0.249868  1
  Ce  Ce1  1  0.000000  0.000000  0.750054  1
  Ce  Ce2  1  0.499053  0.500947  0.247770  1
  Ce  Ce3  1  0.499053  0.998106  0.247770  1
  Ce  Ce4  1  0.001894  0.500947  0.247770  1
  Ce  Ce5  1  0.498703  0.501297  0.752482  1
  Ce  Ce6  1  0.498703  0.997406  0.752482  1
  Ce  Ce7  1  0.002594  0.501297  0.752482  1
  Si  Si8  1  0.170093  0.829907  0.499778  1
  Si  Si9  1  0.170093  0.340187  0.499778  1
  Si  Si10  1  0.659813  0.829907  0.499778  1
  Si  Si11  1  0.829513  0.170487  0.500058  1
  Si  Si12  1  0.829513  0.659025  0.500058  1
  Si  Si13  1  0.340975  0.170487  0.500058  1
  Si  Si14  1  0.827588  0.172412  0.000077  1
  Si  Si15  1  0.827588  0.655175  0.000077  1
  Si  Si16  1  0.344825  0.172412  0.000077  1
  Si  Si17  1  0.164539  0.835461  0.000193  1
  Si  Si18  1  0.164539  0.329078  0.000193  1
  Si  Si19  1  0.670922  0.835461  0.000193  1
  Si  Si20  1  0.333333  0.666667  0.000634  1
  Ni  Ni21  1  0.333333  0.666667  0.498316  1
  Ni  Ni22  1  0.666667  0.333333  0.500625  1
  Ni  Ni23  1  0.666667  0.333333  0.999432  1
