# generated using pymatgen
data_YEr5Tm2Ga3Co
_symmetry_space_group_name_H-M   'P 1'
_cell_length_a   9.90882201
_cell_length_b   9.90882339
_cell_length_c   6.90815401
_cell_angle_alpha   89.99504234
_cell_angle_beta   90.00495772
_cell_angle_gamma   119.99811818
_symmetry_Int_Tables_number   1
_chemical_formula_structural   YEr5Tm2Ga3Co
_chemical_formula_sum   'Y2 Er10 Tm4 Ga6 Co2'
_cell_volume   587.41494409
_cell_formula_units_Z   2
loop_
 _symmetry_equiv_pos_site_id
 _symmetry_equiv_pos_as_xyz
  1  'x, y, z'
loop_
 _atom_site_type_symbol
 _atom_site_label
 _atom_site_symmetry_multiplicity
 _atom_site_fract_x
 _atom_site_fract_y
 _atom_site_fract_z
 _atom_site_occupancy
  Y  Y0  1  0.999895  0.000105  0.268948  1
  Y  Y1  1  0.999806  0.000194  0.770479  1
  Er  Er2  1  0.347496  0.173770  0.490076  1
  Er  Er3  1  0.826230  0.652504  0.490076  1
  Er  Er4  1  0.333327  0.666673  0.673412  1
  Er  Er5  1  0.666850  0.333150  0.172641  1
  Er  Er6  1  0.463308  0.536692  0.292703  1
  Er  Er7  1  0.536417  0.463583  0.793677  1
  Er  Er8  1  0.463726  0.926924  0.292835  1
  Er  Er9  1  0.073076  0.536274  0.292835  1
  Er  Er10  1  0.927205  0.463300  0.793376  1
  Er  Er11  1  0.536700  0.072795  0.793376  1
  Tm  Tm12  1  0.174010  0.825990  0.990163  1
  Tm  Tm13  1  0.825950  0.174050  0.490148  1
  Tm  Tm14  1  0.173989  0.347964  0.990068  1
  Tm  Tm15  1  0.652036  0.826011  0.990068  1
  Ga  Ga16  1  0.163793  0.836207  0.541664  1
  Ga  Ga17  1  0.836675  0.163325  0.041321  1
  Ga  Ga18  1  0.163053  0.327212  0.541587  1
  Ga  Ga19  1  0.672788  0.836947  0.541587  1
  Ga  Ga20  1  0.326749  0.163357  0.040681  1
  Ga  Ga21  1  0.836643  0.673251  0.040681  1
  Co  Co22  1  0.333336  0.666664  0.056755  1
  Co  Co23  1  0.666942  0.333058  0.556966  1
