# generated using pymatgen
data_Tc6Pb4O19
_symmetry_space_group_name_H-M   'P 1'
_cell_length_a   8.09870017
_cell_length_b   8.09870032
_cell_length_c   8.09870000
_cell_angle_alpha   109.47122233
_cell_angle_beta   109.47121521
_cell_angle_gamma   109.47122317
_symmetry_Int_Tables_number   1
_chemical_formula_structural   Tc6Pb4O19
_chemical_formula_sum   'Tc6 Pb4 O19'
_cell_volume   408.90655929
_cell_formula_units_Z   1
loop_
 _symmetry_equiv_pos_site_id
 _symmetry_equiv_pos_as_xyz
  1  'x, y, z'
loop_
 _atom_site_type_symbol
 _atom_site_label
 _atom_site_symmetry_multiplicity
 _atom_site_fract_x
 _atom_site_fract_y
 _atom_site_fract_z
 _atom_site_occupancy
  Tc  Tc0  1  0.641065  0.500000  0.141065  1
  Tc  Tc1  1  0.500000  0.858934  0.358935  1
  Tc  Tc2  1  0.858936  0.358936  0.500000  1
  Tc  Tc3  1  0.141066  0.641065  0.500000  1
  Tc  Tc4  1  0.500000  0.141065  0.641065  1
  Tc  Tc5  1  0.358936  0.500000  0.858935  1
  Pb  Pb6  1  0.293163  0.000000  0.000000  1
  Pb  Pb7  1  0.000000  0.293163  0.000000  1
  Pb  Pb8  1  0.000000  0.000000  0.293164  1
  Pb  Pb9  1  0.706835  0.706835  0.706836  1
  O  O10  1  0.000000  0.000000  0.000000  1
  O  O11  1  0.334288  0.334288  0.000000  1
  O  O12  1  0.665712  0.665712  0.000000  1
  O  O13  1  0.358208  0.701260  0.066851  1
  O  O14  1  0.933147  0.634408  0.291356  1
  O  O15  1  0.656948  0.365591  0.298739  1
  O  O16  1  0.334288  0.000000  0.334288  1
  O  O17  1  0.000000  0.334289  0.334288  1
  O  O18  1  0.701260  0.066853  0.358207  1
  O  O19  1  0.641791  0.708644  0.343052  1
  O  O20  1  0.298738  0.656946  0.365591  1
  O  O21  1  0.291356  0.933148  0.634409  1
  O  O22  1  0.365590  0.298739  0.656948  1
  O  O23  1  0.708643  0.343050  0.641791  1
  O  O24  1  0.665712  0.000000  0.665711  1
  O  O25  1  0.000000  0.665712  0.665713  1
  O  O26  1  0.066852  0.358208  0.701259  1
  O  O27  1  0.343051  0.641792  0.708644  1
  O  O28  1  0.634409  0.291356  0.933148  1
