# generated using pymatgen
data_RbH3F4
_symmetry_space_group_name_H-M   'P 1'
_cell_length_a   6.15628430
_cell_length_b   6.15628523
_cell_length_c   6.15628562
_cell_angle_alpha   101.07268623
_cell_angle_beta   78.92730160
_cell_angle_gamma   101.07270541
_symmetry_Int_Tables_number   1
_chemical_formula_structural   RbH3F4
_chemical_formula_sum   'Rb2 H6 F8'
_cell_volume   221.78052776
_cell_formula_units_Z   2
loop_
 _symmetry_equiv_pos_site_id
 _symmetry_equiv_pos_as_xyz
  1  'x, y, z'
loop_
 _atom_site_type_symbol
 _atom_site_label
 _atom_site_symmetry_multiplicity
 _atom_site_fract_x
 _atom_site_fract_y
 _atom_site_fract_z
 _atom_site_occupancy
  Rb  Rb0  1  0.000000  0.000000  0.000000  1
  Rb  Rb1  1  0.500000  0.500000  0.500001  1
  H  H2  1  0.431912  0.750002  0.068090  1
  H  H3  1  0.068091  0.568091  0.250001  1
  H  H4  1  0.250000  0.931912  0.431913  1
  H  H5  1  0.750000  0.068089  0.568091  1
  H  H6  1  0.931912  0.431912  0.750001  1
  H  H7  1  0.568091  0.250001  0.931911  1
  F  F8  1  0.440704  0.250000  0.059295  1
  F  F9  1  0.250000  0.750000  0.250001  1
  F  F10  1  0.940706  0.440707  0.250001  1
  F  F11  1  0.749999  0.940705  0.440705  1
  F  F12  1  0.250000  0.059296  0.559296  1
  F  F13  1  0.059295  0.559295  0.749999  1
  F  F14  1  0.750000  0.250000  0.750001  1
  F  F15  1  0.559295  0.749999  0.940704  1
