# generated using pymatgen
data_Nd2AlZn3Ga4
_symmetry_space_group_name_H-M   'P 1'
_cell_length_a   4.22679200
_cell_length_b   4.22679200
_cell_length_c   10.82063400
_cell_angle_alpha   90.00000000
_cell_angle_beta   90.00000000
_cell_angle_gamma   90.00000000
_symmetry_Int_Tables_number   1
_chemical_formula_structural   Nd2AlZn3Ga4
_chemical_formula_sum   'Nd2 Al1 Zn3 Ga4'
_cell_volume   193.31896491
_cell_formula_units_Z   1
loop_
 _symmetry_equiv_pos_site_id
 _symmetry_equiv_pos_as_xyz
  1  'x, y, z'
loop_
 _atom_site_type_symbol
 _atom_site_label
 _atom_site_symmetry_multiplicity
 _atom_site_fract_x
 _atom_site_fract_y
 _atom_site_fract_z
 _atom_site_occupancy
  Nd  Nd0  1  0.500000  0.000000  0.748497  1
  Nd  Nd1  1  0.000000  0.500000  0.251503  1
  Al  Al2  1  0.500000  0.500000  0.000000  1
  Zn  Zn3  1  0.000000  0.000000  0.500000  1
  Zn  Zn4  1  0.000000  0.000000  0.000000  1
  Zn  Zn5  1  0.500000  0.500000  0.500000  1
  Ga  Ga6  1  0.000000  0.500000  0.861191  1
  Ga  Ga7  1  0.500000  0.000000  0.367495  1
  Ga  Ga8  1  0.500000  0.000000  0.138809  1
  Ga  Ga9  1  0.000000  0.500000  0.632505  1
