# generated using pymatgen
data_Tm5Lu11(AlNi)4
_symmetry_space_group_name_H-M   'P 1'
_cell_length_a   9.28545014
_cell_length_b   9.29021088
_cell_length_c   9.29373300
_cell_angle_alpha   60.02471849
_cell_angle_beta   60.01049516
_cell_angle_gamma   60.00577022
_symmetry_Int_Tables_number   1
_chemical_formula_structural   Tm5Lu11(AlNi)4
_chemical_formula_sum   'Tm5 Lu11 Al4 Ni4'
_cell_volume   567.07197687
_cell_formula_units_Z   1
loop_
 _symmetry_equiv_pos_site_id
 _symmetry_equiv_pos_as_xyz
  1  'x, y, z'
loop_
 _atom_site_type_symbol
 _atom_site_label
 _atom_site_symmetry_multiplicity
 _atom_site_fract_x
 _atom_site_fract_y
 _atom_site_fract_z
 _atom_site_occupancy
  Tm  Tm0  1  0.563338  0.936470  0.936524  1
  Tm  Tm1  1  0.564314  0.935895  0.563192  1
  Tm  Tm2  1  0.936579  0.563265  0.935784  1
  Tm  Tm3  1  0.564245  0.563052  0.935978  1
  Tm  Tm4  1  0.936534  0.935755  0.563293  1
  Lu  Lu5  1  0.350293  0.350153  0.350188  1
  Lu  Lu6  1  0.350288  0.350628  0.948792  1
  Lu  Lu7  1  0.350159  0.949128  0.350662  1
  Lu  Lu8  1  0.949733  0.349850  0.349873  1
  Lu  Lu9  1  0.810362  0.189704  0.189759  1
  Lu  Lu10  1  0.189449  0.810478  0.810533  1
  Lu  Lu11  1  0.189081  0.810125  0.190506  1
  Lu  Lu12  1  0.810054  0.190556  0.810315  1
  Lu  Lu13  1  0.189058  0.190549  0.810238  1
  Lu  Lu14  1  0.810082  0.810272  0.190527  1
  Lu  Lu15  1  0.938058  0.561763  0.561888  1
  Al  Al16  1  0.577951  0.577927  0.577773  1
  Al  Al17  1  0.577513  0.577905  0.267186  1
  Al  Al18  1  0.577531  0.267231  0.577807  1
  Al  Al19  1  0.266293  0.577935  0.577813  1
  Ni  Ni20  1  0.143895  0.142744  0.142767  1
  Ni  Ni21  1  0.142071  0.144250  0.571386  1
  Ni  Ni22  1  0.142347  0.570920  0.144011  1
  Ni  Ni23  1  0.570773  0.143447  0.143204  1
