# generated using pymatgen
data_TmTh3(Al3Ir)6
_symmetry_space_group_name_H-M   'P 1'
_cell_length_a   7.63698190
_cell_length_b   7.64795418
_cell_length_c   9.49412000
_cell_angle_alpha   90.00000000
_cell_angle_beta   90.00000000
_cell_angle_gamma   119.53922309
_symmetry_Int_Tables_number   1
_chemical_formula_structural   TmTh3(Al3Ir)6
_chemical_formula_sum   'Tm1 Th3 Al18 Ir6'
_cell_volume   482.44764288
_cell_formula_units_Z   1
loop_
 _symmetry_equiv_pos_site_id
 _symmetry_equiv_pos_as_xyz
  1  'x, y, z'
loop_
 _atom_site_type_symbol
 _atom_site_label
 _atom_site_symmetry_multiplicity
 _atom_site_fract_x
 _atom_site_fract_y
 _atom_site_fract_z
 _atom_site_occupancy
  Tm  Tm0  1  0.328619  0.005663  0.750000  1
  Th  Th1  1  0.995300  0.671120  0.250000  1
  Th  Th2  1  0.003879  0.329282  0.750000  1
  Th  Th3  1  0.669816  0.994538  0.250000  1
  Al  Al4  1  0.135083  0.132494  0.250000  1
  Al  Al5  1  0.871021  0.869514  0.750000  1
  Al  Al6  1  0.005932  0.335541  0.074402  1
  Al  Al7  1  0.000727  0.670001  0.922045  1
  Al  Al8  1  0.000727  0.670001  0.577955  1
  Al  Al9  1  0.335087  0.004494  0.431820  1
  Al  Al10  1  0.005932  0.335541  0.425598  1
  Al  Al11  1  0.659234  0.995410  0.577929  1
  Al  Al12  1  0.659234  0.995410  0.922071  1
  Al  Al13  1  0.335087  0.004494  0.068180  1
  Al  Al14  1  0.336288  0.332332  0.553972  1
  Al  Al15  1  0.663138  0.663068  0.454231  1
  Al  Al16  1  0.663138  0.663068  0.045769  1
  Al  Al17  1  0.336288  0.332332  0.946028  1
  Al  Al18  1  0.341431  0.544020  0.250000  1
  Al  Al19  1  0.656457  0.449856  0.750000  1
  Al  Al20  1  0.543848  0.338579  0.250000  1
  Al  Al21  1  0.453261  0.662465  0.750000  1
  Ir  Ir22  1  0.674283  0.328307  0.999978  1
  Ir  Ir23  1  0.327150  0.671908  0.000127  1
  Ir  Ir24  1  0.327150  0.671908  0.499873  1
  Ir  Ir25  1  0.674283  0.328307  0.500022  1
  Ir  Ir26  1  0.998806  0.000174  0.000117  1
  Ir  Ir27  1  0.998806  0.000174  0.499883  1
