# generated using pymatgen
data_Dy5Y3Ti5Si16Mo7
_symmetry_space_group_name_H-M   'P 1'
_cell_length_a   6.93802796
_cell_length_b   6.94581199
_cell_length_c   12.84859204
_cell_angle_alpha   90.01152024
_cell_angle_beta   90.11371026
_cell_angle_gamma   89.98015011
_symmetry_Int_Tables_number   1
_chemical_formula_structural   Dy5Y3Ti5Si16Mo7
_chemical_formula_sum   'Dy5 Y3 Ti5 Si16 Mo7'
_cell_volume   619.17543615
_cell_formula_units_Z   1
loop_
 _symmetry_equiv_pos_site_id
 _symmetry_equiv_pos_as_xyz
  1  'x, y, z'
loop_
 _atom_site_type_symbol
 _atom_site_label
 _atom_site_symmetry_multiplicity
 _atom_site_fract_x
 _atom_site_fract_y
 _atom_site_fract_z
 _atom_site_occupancy
  Dy  Dy0  1  0.159950  0.502838  0.781854  1
  Dy  Dy1  1  0.839230  0.496291  0.281146  1
  Dy  Dy2  1  0.502681  0.159448  0.218390  1
  Dy  Dy3  1  0.496517  0.840971  0.717166  1
  Dy  Dy4  1  0.340199  0.002160  0.468471  1
  Y  Y5  1  0.997919  0.659481  0.032876  1
  Y  Y6  1  0.003500  0.340074  0.530957  1
  Y  Y7  1  0.659211  0.997378  0.968647  1
  Ti  Ti8  1  0.670892  0.669903  0.500018  1
  Ti  Ti9  1  0.832159  0.170004  0.749290  1
  Ti  Ti10  1  0.170181  0.829531  0.249491  1
  Ti  Ti11  1  0.328025  0.327816  0.000407  1
  Ti  Ti12  1  0.658887  0.493820  0.875643  1
  Si  Si13  1  0.041827  0.711251  0.436740  1
  Si  Si14  1  0.957305  0.289032  0.937549  1
  Si  Si15  1  0.711574  0.041235  0.562685  1
  Si  Si16  1  0.211048  0.458070  0.187564  1
  Si  Si17  1  0.788942  0.543629  0.687276  1
  Si  Si18  1  0.456988  0.211214  0.813242  1
  Si  Si19  1  0.541211  0.788745  0.312832  1
  Si  Si20  1  0.288616  0.958165  0.062820  1
  Si  Si21  1  0.798782  0.871744  0.184315  1
  Si  Si22  1  0.299644  0.627480  0.566153  1
  Si  Si23  1  0.699893  0.372427  0.065785  1
  Si  Si24  1  0.628436  0.299195  0.433909  1
  Si  Si25  1  0.370701  0.701910  0.934155  1
  Si  Si26  1  0.129217  0.199284  0.316025  1
  Si  Si27  1  0.200504  0.129965  0.684206  1
  Si  Si28  1  0.871082  0.800655  0.815036  1
  Mo  Mo29  1  0.340913  0.506765  0.376248  1
  Mo  Mo30  1  0.841143  0.992164  0.374268  1
  Mo  Mo31  1  0.008623  0.157871  0.127536  1
  Mo  Mo32  1  0.995216  0.842184  0.624594  1
  Mo  Mo33  1  0.508938  0.339699  0.623539  1
  Mo  Mo34  1  0.159132  0.007477  0.873620  1
  Mo  Mo35  1  0.490914  0.660127  0.125545  1
