# generated using pymatgen
data_HoPa3(SnRh5)2
_symmetry_space_group_name_H-M   'P 1'
_cell_length_a   4.19093400
_cell_length_b   5.85387250
_cell_length_c   11.43602200
_cell_angle_alpha   90.04098098
_cell_angle_beta   90.00000000
_cell_angle_gamma   90.00000000
_symmetry_Int_Tables_number   1
_chemical_formula_structural   HoPa3(SnRh5)2
_chemical_formula_sum   'Ho1 Pa3 Sn2 Rh10'
_cell_volume   280.56206633
_cell_formula_units_Z   1
loop_
 _symmetry_equiv_pos_site_id
 _symmetry_equiv_pos_as_xyz
  1  'x, y, z'
loop_
 _atom_site_type_symbol
 _atom_site_label
 _atom_site_symmetry_multiplicity
 _atom_site_fract_x
 _atom_site_fract_y
 _atom_site_fract_z
 _atom_site_occupancy
  Ho  Ho0  1  0.500000  0.318477  0.141535  1
  Pa  Pa1  1  0.500000  0.175547  0.641355  1
  Pa  Pa2  1  0.500000  0.821129  0.350013  1
  Pa  Pa3  1  0.500000  0.676111  0.862616  1
  Sn  Sn4  1  0.000000  0.502546  0.498910  1
  Sn  Sn5  1  0.000000  0.011503  0.003213  1
  Rh  Rh6  1  0.500000  0.198758  0.880726  1
  Rh  Rh7  1  0.500000  0.800258  0.110747  1
  Rh  Rh8  1  0.500000  0.701425  0.615708  1
  Rh  Rh9  1  0.500000  0.291825  0.391782  1
  Rh  Rh10  1  0.000000  0.435878  0.745811  1
  Rh  Rh11  1  0.000000  0.567455  0.257037  1
  Rh  Rh12  1  0.000000  0.998803  0.500279  1
  Rh  Rh13  1  0.000000  0.507538  0.996357  1
  Rh  Rh14  1  0.000000  0.057649  0.250025  1
  Rh  Rh15  1  0.000000  0.935101  0.753888  1
