# generated using pymatgen
data_AcSi3N5
_symmetry_space_group_name_H-M   'P 1'
_cell_length_a   4.89789700
_cell_length_b   7.94297200
_cell_length_c   11.51697800
_cell_angle_alpha   90.00000000
_cell_angle_beta   90.00000000
_cell_angle_gamma   90.00000000
_symmetry_Int_Tables_number   1
_chemical_formula_structural   AcSi3N5
_chemical_formula_sum   'Ac4 Si12 N20'
_cell_volume   448.05488511
_cell_formula_units_Z   4
loop_
 _symmetry_equiv_pos_site_id
 _symmetry_equiv_pos_as_xyz
  1  'x, y, z'
loop_
 _atom_site_type_symbol
 _atom_site_label
 _atom_site_symmetry_multiplicity
 _atom_site_fract_x
 _atom_site_fract_y
 _atom_site_fract_z
 _atom_site_occupancy
  Ac  Ac0  1  0.505749  0.058049  0.165194  1
  Ac  Ac1  1  0.994251  0.941951  0.665194  1
  Ac  Ac2  1  0.494251  0.558049  0.334806  1
  Ac  Ac3  1  0.005749  0.441951  0.834806  1
  Si  Si4  1  0.020862  0.205614  0.415841  1
  Si  Si5  1  0.479138  0.794386  0.915841  1
  Si  Si6  1  0.979138  0.705614  0.084159  1
  Si  Si7  1  0.520862  0.294386  0.584159  1
  Si  Si8  1  0.514709  0.468474  0.041762  1
  Si  Si9  1  0.985291  0.531526  0.541762  1
  Si  Si10  1  0.485291  0.968474  0.458238  1
  Si  Si11  1  0.014709  0.031526  0.958238  1
  Si  Si12  1  0.003416  0.336808  0.157340  1
  Si  Si13  1  0.496584  0.663192  0.657340  1
  Si  Si14  1  0.996584  0.836808  0.342660  1
  Si  Si15  1  0.503416  0.163192  0.842660  1
  N  N16  1  0.144337  0.291716  0.291101  1
  N  N17  1  0.355663  0.708284  0.791101  1
  N  N18  1  0.855663  0.791716  0.208899  1
  N  N19  1  0.644337  0.208284  0.708899  1
  N  N20  1  0.175690  0.516225  0.090616  1
  N  N21  1  0.324310  0.483775  0.590616  1
  N  N22  1  0.824310  0.016225  0.409384  1
  N  N23  1  0.675690  0.983775  0.909384  1
  N  N24  1  0.665754  0.390980  0.164433  1
  N  N25  1  0.834246  0.609020  0.664433  1
  N  N26  1  0.334246  0.890980  0.335567  1
  N  N27  1  0.165754  0.109020  0.835567  1
  N  N28  1  0.031484  0.158026  0.075973  1
  N  N29  1  0.468516  0.841974  0.575973  1
  N  N30  1  0.968516  0.658026  0.424027  1
  N  N31  1  0.531484  0.341974  0.924027  1
  N  N32  1  0.310684  0.154590  0.504076  1
  N  N33  1  0.189316  0.845410  0.004076  1
  N  N34  1  0.689316  0.654590  0.995924  1
  N  N35  1  0.810684  0.345410  0.495924  1
