# generated using pymatgen
data_Nb12Al2SiPt5N4
_symmetry_space_group_name_H-M   'P 1'
_cell_length_a   7.05617362
_cell_length_b   7.05686993
_cell_length_c   7.06077338
_cell_angle_alpha   90.15710204
_cell_angle_beta   89.73307078
_cell_angle_gamma   89.85393469
_symmetry_Int_Tables_number   1
_chemical_formula_structural   Nb12Al2SiPt5N4
_chemical_formula_sum   'Nb12 Al2 Si1 Pt5 N4'
_cell_volume   351.58138537
_cell_formula_units_Z   1
loop_
 _symmetry_equiv_pos_site_id
 _symmetry_equiv_pos_as_xyz
  1  'x, y, z'
loop_
 _atom_site_type_symbol
 _atom_site_label
 _atom_site_symmetry_multiplicity
 _atom_site_fract_x
 _atom_site_fract_y
 _atom_site_fract_z
 _atom_site_occupancy
  Nb  Nb0  1  0.787525  0.957690  0.377427  1
  Nb  Nb1  1  0.708602  0.049453  0.881170  1
  Nb  Nb2  1  0.213353  0.454192  0.124498  1
  Nb  Nb3  1  0.296501  0.541751  0.628328  1
  Nb  Nb4  1  0.950297  0.380824  0.791525  1
  Nb  Nb5  1  0.043181  0.876029  0.709343  1
  Nb  Nb6  1  0.459113  0.127892  0.205387  1
  Nb  Nb7  1  0.545121  0.625264  0.286971  1
  Nb  Nb8  1  0.375171  0.787973  0.953006  1
  Nb  Nb9  1  0.871346  0.704283  0.040416  1
  Nb  Nb10  1  0.123774  0.209556  0.458119  1
  Nb  Nb11  1  0.618077  0.290120  0.549678  1
  Al  Al12  1  0.932458  0.572674  0.426628  1
  Al  Al13  1  0.073518  0.067376  0.072663  1
  Si  Si14  1  0.427226  0.925868  0.567301  1
  Pt  Pt15  1  0.180880  0.823258  0.324395  1
  Pt  Pt16  1  0.313179  0.165575  0.813675  1
  Pt  Pt17  1  0.832116  0.316146  0.188605  1
  Pt  Pt18  1  0.681795  0.690583  0.667280  1
  Pt  Pt19  1  0.567193  0.432755  0.932985  1
  N  N20  1  0.873124  0.127367  0.627765  1
  N  N21  1  0.622705  0.874234  0.121470  1
  N  N22  1  0.125885  0.622020  0.876803  1
  N  N23  1  0.377862  0.377118  0.374563  1
