# generated using pymatgen
data_Er2Al4CoGe2
_symmetry_space_group_name_H-M   'P 1'
_cell_length_a   4.10559249
_cell_length_b   4.10560648
_cell_length_c   10.13947154
_cell_angle_alpha   101.67919457
_cell_angle_beta   101.67867135
_cell_angle_gamma   89.99429453
_symmetry_Int_Tables_number   1
_chemical_formula_structural   Er2Al4CoGe2
_chemical_formula_sum   'Er2 Al4 Co1 Ge2'
_cell_volume   163.75807823
_cell_formula_units_Z   1
loop_
 _symmetry_equiv_pos_site_id
 _symmetry_equiv_pos_as_xyz
  1  'x, y, z'
loop_
 _atom_site_type_symbol
 _atom_site_label
 _atom_site_symmetry_multiplicity
 _atom_site_fract_x
 _atom_site_fract_y
 _atom_site_fract_z
 _atom_site_occupancy
  Er  Er0  1  0.185320  0.185327  0.370658  1
  Er  Er1  1  0.814679  0.814687  0.629347  1
  Al  Al2  1  0.566587  0.066619  0.133079  1
  Al  Al3  1  0.066622  0.566585  0.133078  1
  Al  Al4  1  0.933380  0.433412  0.866920  1
  Al  Al5  1  0.433414  0.933377  0.866920  1
  Co  Co6  1  0.000000  0.999999  0.999998  1
  Ge  Ge7  1  0.663321  0.663320  0.327028  1
  Ge  Ge8  1  0.336682  0.336680  0.672974  1
