# generated using pymatgen
data_Tb12CdCo4Rh
_symmetry_space_group_name_H-M   'P 1'
_cell_length_a   8.36310276
_cell_length_b   8.36310157
_cell_length_c   8.36310273
_cell_angle_alpha   110.91601514
_cell_angle_beta   109.78994908
_cell_angle_gamma   107.72375326
_symmetry_Int_Tables_number   1
_chemical_formula_structural   Tb12CdCo4Rh
_chemical_formula_sum   'Tb12 Cd1 Co4 Rh1'
_cell_volume   449.91976939
_cell_formula_units_Z   1
loop_
 _symmetry_equiv_pos_site_id
 _symmetry_equiv_pos_as_xyz
  1  'x, y, z'
loop_
 _atom_site_type_symbol
 _atom_site_label
 _atom_site_symmetry_multiplicity
 _atom_site_fract_x
 _atom_site_fract_y
 _atom_site_fract_z
 _atom_site_occupancy
  Tb  Tb0  1  0.405892  0.209990  0.195902  1
  Tb  Tb1  1  0.594108  0.790010  0.804098  1
  Tb  Tb2  1  0.014089  0.209990  0.804098  1
  Tb  Tb3  1  0.985911  0.790010  0.195902  1
  Tb  Tb4  1  0.183683  0.292302  0.475985  1
  Tb  Tb5  1  0.816317  0.707698  0.524015  1
  Tb  Tb6  1  0.183683  0.707698  0.891381  1
  Tb  Tb7  1  0.816317  0.292302  0.108619  1
  Tb  Tb8  1  0.316261  0.621008  0.304747  1
  Tb  Tb9  1  0.683739  0.378992  0.695253  1
  Tb  Tb10  1  0.316261  0.011516  0.695253  1
  Tb  Tb11  1  0.683739  0.988484  0.304747  1
  Cd  Cd12  1  0.500000  0.500000  0.000000  1
  Co  Co13  1  0.379121  0.000000  0.379121  1
  Co  Co14  1  0.620879  0.000000  0.620879  1
  Co  Co15  1  0.112587  0.612587  0.500000  1
  Co  Co16  1  0.887413  0.387413  0.500000  1
  Rh  Rh17  1  0.000000  0.000000  0.000000  1
