# generated using pymatgen
data_Y5IrRh2
_symmetry_space_group_name_H-M   'P 1'
_cell_length_a   10.95098400
_cell_length_b   10.95098400
_cell_length_c   6.39870600
_cell_angle_alpha   90.00000000
_cell_angle_beta   90.00000000
_cell_angle_gamma   90.00000000
_symmetry_Int_Tables_number   1
_chemical_formula_structural   Y5IrRh2
_chemical_formula_sum   'Y20 Ir4 Rh8'
_cell_volume   767.35874192
_cell_formula_units_Z   4
loop_
 _symmetry_equiv_pos_site_id
 _symmetry_equiv_pos_as_xyz
  1  'x, y, z'
loop_
 _atom_site_type_symbol
 _atom_site_label
 _atom_site_symmetry_multiplicity
 _atom_site_fract_x
 _atom_site_fract_y
 _atom_site_fract_z
 _atom_site_occupancy
  Y  Y0  1  0.291471  0.090001  0.378611  1
  Y  Y1  1  0.291471  0.909999  0.878611  1
  Y  Y2  1  0.708529  0.090001  0.878611  1
  Y  Y3  1  0.708529  0.909999  0.378611  1
  Y  Y4  1  0.587664  0.790011  0.879561  1
  Y  Y5  1  0.587664  0.209989  0.379561  1
  Y  Y6  1  0.412336  0.790011  0.379561  1
  Y  Y7  1  0.412336  0.209989  0.879561  1
  Y  Y8  1  0.209989  0.412336  0.620439  1
  Y  Y9  1  0.209989  0.587664  0.120439  1
  Y  Y10  1  0.790011  0.412336  0.120439  1
  Y  Y11  1  0.790011  0.587664  0.620439  1
  Y  Y12  1  0.909999  0.708529  0.121389  1
  Y  Y13  1  0.909999  0.291471  0.621389  1
  Y  Y14  1  0.090001  0.708529  0.621389  1
  Y  Y15  1  0.090001  0.291471  0.121389  1
  Y  Y16  1  0.000000  0.000000  0.500000  1
  Y  Y17  1  0.000000  0.000000  0.000000  1
  Y  Y18  1  0.500000  0.500000  0.000000  1
  Y  Y19  1  0.500000  0.500000  0.500000  1
  Ir  Ir20  1  0.654640  0.345360  0.750000  1
  Ir  Ir21  1  0.654640  0.654640  0.250000  1
  Ir  Ir22  1  0.345360  0.345360  0.250000  1
  Ir  Ir23  1  0.345360  0.654640  0.750000  1
  Rh  Rh24  1  0.846508  0.153492  0.250000  1
  Rh  Rh25  1  0.846508  0.846508  0.750000  1
  Rh  Rh26  1  0.153492  0.153492  0.750000  1
  Rh  Rh27  1  0.153492  0.846508  0.250000  1
  Rh  Rh28  1  0.500000  0.000000  0.124826  1
  Rh  Rh29  1  0.500000  0.000000  0.624826  1
  Rh  Rh30  1  0.000000  0.500000  0.875174  1
  Rh  Rh31  1  0.000000  0.500000  0.375174  1
