# generated using pymatgen
data_Tb4YHf3(Ni4P3)4
_symmetry_space_group_name_H-M   'P 1'
_cell_length_a   12.29966308
_cell_length_b   12.29716500
_cell_length_c   3.79136600
_cell_angle_alpha   90.00000000
_cell_angle_beta   90.00000000
_cell_angle_gamma   119.99328538
_symmetry_Int_Tables_number   1
_chemical_formula_structural   Tb4YHf3(Ni4P3)4
_chemical_formula_sum   'Tb4 Y1 Hf3 Ni16 P12'
_cell_volume   496.65400204
_cell_formula_units_Z   1
loop_
 _symmetry_equiv_pos_site_id
 _symmetry_equiv_pos_as_xyz
  1  'x, y, z'
loop_
 _atom_site_type_symbol
 _atom_site_label
 _atom_site_symmetry_multiplicity
 _atom_site_fract_x
 _atom_site_fract_y
 _atom_site_fract_z
 _atom_site_occupancy
  Tb  Tb0  1  0.184534  0.184526  0.500000  1
  Tb  Tb1  1  0.815466  0.999992  0.500000  1
  Tb  Tb2  1  0.333351  0.666705  0.000000  1
  Tb  Tb3  1  0.666649  0.333353  0.000000  1
  Y  Y4  1  0.000000  0.815432  0.500000  1
  Hf  Hf5  1  0.561739  0.561713  0.000000  1
  Hf  Hf6  1  0.438261  0.999974  0.000000  1
  Hf  Hf7  1  0.000000  0.438320  0.000000  1
  Ni  Ni8  1  0.725067  0.725041  0.500000  1
  Ni  Ni9  1  0.274933  0.999973  0.500000  1
  Ni  Ni10  1  0.000000  0.274961  0.500000  1
  Ni  Ni11  1  0.184495  0.377026  0.000000  1
  Ni  Ni12  1  0.622988  0.807470  0.000000  1
  Ni  Ni13  1  0.192466  0.815504  0.000000  1
  Ni  Ni14  1  0.807534  0.623038  0.000000  1
  Ni  Ni15  1  0.815505  0.192531  0.000000  1
  Ni  Ni16  1  0.377012  0.184482  0.000000  1
  Ni  Ni17  1  0.361112  0.484650  0.500000  1
  Ni  Ni18  1  0.515365  0.876490  0.500000  1
  Ni  Ni19  1  0.123565  0.638892  0.500000  1
  Ni  Ni20  1  0.876435  0.515325  0.500000  1
  Ni  Ni21  1  0.638888  0.123537  0.500000  1
  Ni  Ni22  1  0.484635  0.361123  0.500000  1
  Ni  Ni23  1  0.000000  0.999970  0.000000  1
  P  P24  1  0.821907  0.821815  0.000000  1
  P  P25  1  0.178093  0.999908  0.000000  1
  P  P26  1  0.000000  0.178191  0.000000  1
  P  P27  1  0.169887  0.476129  0.500000  1
  P  P28  1  0.523863  0.693750  0.500000  1
  P  P29  1  0.306291  0.830103  0.500000  1
  P  P30  1  0.693709  0.523812  0.500000  1
  P  P31  1  0.830113  0.306242  0.500000  1
  P  P32  1  0.476137  0.169886  0.500000  1
  P  P33  1  0.356900  0.356901  0.000000  1
  P  P34  1  0.643100  0.000001  0.000000  1
  P  P35  1  0.000000  0.643234  0.000000  1
