# generated using pymatgen
data_YbY3(Pt2O7)2
_symmetry_space_group_name_H-M   'P 1'
_cell_length_a   7.27571250
_cell_length_b   7.27508901
_cell_length_c   7.27571300
_cell_angle_alpha   59.99716723
_cell_angle_beta   60.00000227
_cell_angle_gamma   59.99716909
_symmetry_Int_Tables_number   1
_chemical_formula_structural   YbY3(Pt2O7)2
_chemical_formula_sum   'Yb1 Y3 Pt4 O14'
_cell_volume   272.30512755
_cell_formula_units_Z   1
loop_
 _symmetry_equiv_pos_site_id
 _symmetry_equiv_pos_as_xyz
  1  'x, y, z'
loop_
 _atom_site_type_symbol
 _atom_site_label
 _atom_site_symmetry_multiplicity
 _atom_site_fract_x
 _atom_site_fract_y
 _atom_site_fract_z
 _atom_site_occupancy
  Yb  Yb0  1  0.125000  0.625000  0.125000  1
  Y  Y1  1  0.125000  0.125000  0.625000  1
  Y  Y2  1  0.625000  0.125000  0.125000  1
  Y  Y3  1  0.125000  0.125000  0.125000  1
  Pt  Pt4  1  0.625000  0.625000  0.625000  1
  Pt  Pt5  1  0.125000  0.625000  0.625000  1
  Pt  Pt6  1  0.625000  0.625000  0.125000  1
  Pt  Pt7  1  0.625000  0.125000  0.625000  1
  O  O8  1  0.288668  0.714804  0.707860  1
  O  O9  1  0.535978  0.964609  0.963435  1
  O  O10  1  0.707860  0.714804  0.288668  1
  O  O11  1  0.286565  0.285391  0.714022  1
  O  O12  1  0.997911  0.006266  0.997911  1
  O  O13  1  0.288668  0.714804  0.288668  1
  O  O14  1  0.714022  0.285391  0.714022  1
  O  O15  1  0.961332  0.535196  0.961332  1
  O  O16  1  0.542140  0.535196  0.961332  1
  O  O17  1  0.963435  0.964609  0.535978  1
  O  O18  1  0.252089  0.243734  0.252089  1
  O  O19  1  0.535978  0.964609  0.535978  1
  O  O20  1  0.714022  0.285391  0.286565  1
  O  O21  1  0.961332  0.535196  0.542140  1
