# generated using pymatgen
data_La9PrInSi4Sb
_symmetry_space_group_name_H-M   'P 1'
_cell_length_a   7.94159615
_cell_length_b   9.35954514
_cell_length_c   7.93368800
_cell_angle_alpha   114.95702401
_cell_angle_beta   90.13222288
_cell_angle_gamma   115.03301486
_symmetry_Int_Tables_number   1
_chemical_formula_structural   La9PrInSi4Sb
_chemical_formula_sum   'La9 Pr1 In1 Si4 Sb1'
_cell_volume   472.53708735
_cell_formula_units_Z   1
loop_
 _symmetry_equiv_pos_site_id
 _symmetry_equiv_pos_as_xyz
  1  'x, y, z'
loop_
 _atom_site_type_symbol
 _atom_site_label
 _atom_site_symmetry_multiplicity
 _atom_site_fract_x
 _atom_site_fract_y
 _atom_site_fract_z
 _atom_site_occupancy
  La  La0  1  0.973613  0.947542  0.974095  1
  La  La1  1  0.524790  0.053065  0.527082  1
  La  La2  1  0.530021  0.724933  0.681776  1
  La  La3  1  0.196514  0.725433  0.044023  1
  La  La4  1  0.680709  0.725417  0.195368  1
  La  La5  1  0.046345  0.727497  0.532251  1
  La  La6  1  0.455829  0.274919  0.304684  1
  La  La7  1  0.818644  0.274493  0.968687  1
  La  La8  1  0.305049  0.275198  0.818397  1
  Pr  Pr9  1  0.967542  0.271054  0.452724  1
  In  In10  1  0.750774  0.499163  0.749542  1
  Si  Si11  1  0.884768  0.000771  0.614758  1
  Si  Si12  1  0.114756  0.001046  0.384934  1
  Si  Si13  1  0.615994  0.000293  0.115469  1
  Si  Si14  1  0.386650  0.001260  0.885893  1
  Sb  Sb15  1  0.248002  0.497917  0.250319  1
