# generated using pymatgen
data_Ac12Ni6Pb
_symmetry_space_group_name_H-M   'P 1'
_cell_length_a   9.25529096
_cell_length_b   9.25529062
_cell_length_c   9.25529100
_cell_angle_alpha   109.47122147
_cell_angle_beta   109.47122071
_cell_angle_gamma   109.47122132
_symmetry_Int_Tables_number   1
_chemical_formula_structural   Ac12Ni6Pb
_chemical_formula_sum   'Ac12 Ni6 Pb1'
_cell_volume   610.30695002
_cell_formula_units_Z   1
loop_
 _symmetry_equiv_pos_site_id
 _symmetry_equiv_pos_as_xyz
  1  'x, y, z'
loop_
 _atom_site_type_symbol
 _atom_site_label
 _atom_site_symmetry_multiplicity
 _atom_site_fract_x
 _atom_site_fract_y
 _atom_site_fract_z
 _atom_site_occupancy
  Ac  Ac0  1  0.814048  0.687598  0.501646  1
  Ac  Ac1  1  0.185952  0.312402  0.498354  1
  Ac  Ac2  1  0.185952  0.687598  0.873550  1
  Ac  Ac3  1  0.814048  0.312402  0.126450  1
  Ac  Ac4  1  0.687598  0.501646  0.814048  1
  Ac  Ac5  1  0.312402  0.498354  0.185952  1
  Ac  Ac6  1  0.687598  0.873550  0.185952  1
  Ac  Ac7  1  0.312402  0.126450  0.814048  1
  Ac  Ac8  1  0.501646  0.814048  0.687598  1
  Ac  Ac9  1  0.498354  0.185952  0.312402  1
  Ac  Ac10  1  0.126450  0.814048  0.312402  1
  Ac  Ac11  1  0.873550  0.185952  0.687598  1
  Ni  Ni12  1  0.882763  0.382763  0.500000  1
  Ni  Ni13  1  0.117237  0.617237  0.500000  1
  Ni  Ni14  1  0.382763  0.500000  0.882763  1
  Ni  Ni15  1  0.617237  0.500000  0.117237  1
  Ni  Ni16  1  0.500000  0.882763  0.382763  1
  Ni  Ni17  1  0.500000  0.117237  0.617237  1
  Pb  Pb18  1  0.000000  0.000000  0.000000  1
