# generated using pymatgen
data_Tb2Ho2Al4Pd3Ru
_symmetry_space_group_name_H-M   'P 1'
_cell_length_a   4.35464900
_cell_length_b   6.92002181
_cell_length_c   7.89950800
_cell_angle_alpha   89.90204931
_cell_angle_beta   90.00000000
_cell_angle_gamma   90.00000000
_symmetry_Int_Tables_number   1
_chemical_formula_structural   Tb2Ho2Al4Pd3Ru
_chemical_formula_sum   'Tb2 Ho2 Al4 Pd3 Ru1'
_cell_volume   238.04552816
_cell_formula_units_Z   1
loop_
 _symmetry_equiv_pos_site_id
 _symmetry_equiv_pos_as_xyz
  1  'x, y, z'
loop_
 _atom_site_type_symbol
 _atom_site_label
 _atom_site_symmetry_multiplicity
 _atom_site_fract_x
 _atom_site_fract_y
 _atom_site_fract_z
 _atom_site_occupancy
  Tb  Tb0  1  0.250000  0.035281  0.677371  1
  Tb  Tb1  1  0.250000  0.531462  0.819793  1
  Ho  Ho2  1  0.750000  0.978635  0.320048  1
  Ho  Ho3  1  0.750000  0.464188  0.186041  1
  Al  Al4  1  0.250000  0.145510  0.064913  1
  Al  Al5  1  0.250000  0.635665  0.435912  1
  Al  Al6  1  0.750000  0.857118  0.939020  1
  Al  Al7  1  0.750000  0.355054  0.558039  1
  Pd  Pd8  1  0.250000  0.774206  0.118871  1
  Pd  Pd9  1  0.750000  0.728994  0.618416  1
  Pd  Pd10  1  0.750000  0.229266  0.880845  1
  Ru  Ru11  1  0.250000  0.264622  0.380731  1
