# generated using pymatgen
data_Er5Tm2Pa(ReB6)4
_symmetry_space_group_name_H-M   'P 1'
_cell_length_a   3.66911700
_cell_length_b   9.12502278
_cell_length_c   11.48891002
_cell_angle_alpha   90.15192377
_cell_angle_beta   90.00000000
_cell_angle_gamma   90.00000000
_symmetry_Int_Tables_number   1
_chemical_formula_structural   Er5Tm2Pa(ReB6)4
_chemical_formula_sum   'Er5 Tm2 Pa1 Re4 B24'
_cell_volume   384.65627281
_cell_formula_units_Z   1
loop_
 _symmetry_equiv_pos_site_id
 _symmetry_equiv_pos_as_xyz
  1  'x, y, z'
loop_
 _atom_site_type_symbol
 _atom_site_label
 _atom_site_symmetry_multiplicity
 _atom_site_fract_x
 _atom_site_fract_y
 _atom_site_fract_z
 _atom_site_occupancy
  Er  Er0  1  0.000000  0.679618  0.586968  1
  Er  Er1  1  0.000000  0.823032  0.085291  1
  Er  Er2  1  0.000000  0.175982  0.913495  1
  Er  Er3  1  0.000000  0.942596  0.371554  1
  Er  Er4  1  0.000000  0.055216  0.629391  1
  Tm  Tm5  1  0.000000  0.443584  0.127422  1
  Tm  Tm6  1  0.000000  0.557144  0.870553  1
  Pa  Pa7  1  0.000000  0.323230  0.414037  1
  Re  Re8  1  0.000000  0.635860  0.321526  1
  Re  Re9  1  0.000000  0.362309  0.676941  1
  Re  Re10  1  0.000000  0.141042  0.181282  1
  Re  Re11  1  0.000000  0.861246  0.821183  1
  B  B12  1  0.500000  0.553125  0.432304  1
  B  B13  1  0.500000  0.446017  0.567237  1
  B  B14  1  0.500000  0.053706  0.067059  1
  B  B15  1  0.500000  0.946920  0.933796  1
  B  B16  1  0.500000  0.749301  0.418792  1
  B  B17  1  0.500000  0.250358  0.581387  1
  B  B18  1  0.500000  0.249351  0.080172  1
  B  B19  1  0.500000  0.750406  0.919255  1
  B  B20  1  0.500000  0.791950  0.265525  1
  B  B21  1  0.500000  0.207810  0.735213  1
  B  B22  1  0.500000  0.292065  0.234212  1
  B  B23  1  0.500000  0.707672  0.765625  1
  B  B24  1  0.500000  0.631134  0.184301  1
  B  B25  1  0.500000  0.369826  0.814715  1
  B  B26  1  0.500000  0.131533  0.314779  1
  B  B27  1  0.500000  0.868673  0.685781  1
  B  B28  1  0.500000  0.982108  0.212021  1
  B  B29  1  0.500000  0.017885  0.788315  1
  B  B30  1  0.500000  0.482774  0.287034  1
  B  B31  1  0.500000  0.518323  0.713132  1
  B  B32  1  0.500000  0.601216  0.027649  1
  B  B33  1  0.500000  0.398888  0.971133  1
  B  B34  1  0.500000  0.103196  0.471546  1
  B  B35  1  0.500000  0.894904  0.529371  1
