# generated using pymatgen
data_Tb3Dy6Y3Co5Bi
_symmetry_space_group_name_H-M   'P 1'
_cell_length_a   8.33578537
_cell_length_b   8.33672119
_cell_length_c   8.32679446
_cell_angle_alpha   110.77701716
_cell_angle_beta   110.63069505
_cell_angle_gamma   107.08633043
_symmetry_Int_Tables_number   1
_chemical_formula_structural   Tb3Dy6Y3Co5Bi
_chemical_formula_sum   'Tb3 Dy6 Y3 Co5 Bi1'
_cell_volume   444.56679485
_cell_formula_units_Z   1
loop_
 _symmetry_equiv_pos_site_id
 _symmetry_equiv_pos_as_xyz
  1  'x, y, z'
loop_
 _atom_site_type_symbol
 _atom_site_label
 _atom_site_symmetry_multiplicity
 _atom_site_fract_x
 _atom_site_fract_y
 _atom_site_fract_z
 _atom_site_occupancy
  Tb  Tb0  1  0.399939  0.205546  0.194215  1
  Tb  Tb1  1  0.988513  0.794386  0.193954  1
  Tb  Tb2  1  0.010912  0.205347  0.805894  1
  Dy  Dy3  1  0.816741  0.290423  0.107414  1
  Dy  Dy4  1  0.687801  0.378052  0.690204  1
  Dy  Dy5  1  0.312250  0.622177  0.310220  1
  Dy  Dy6  1  0.687754  0.997834  0.309555  1
  Dy  Dy7  1  0.312683  0.002268  0.690361  1
  Dy  Dy8  1  0.600321  0.794769  0.805857  1
  Y  Y9  1  0.815979  0.709742  0.525978  1
  Y  Y10  1  0.184132  0.290556  0.474474  1
  Y  Y11  1  0.184170  0.709446  0.893399  1
  Co  Co12  1  0.623267  0.999671  0.623456  1
  Co  Co13  1  0.377080  0.000228  0.376970  1
  Co  Co14  1  0.111171  0.610980  0.499450  1
  Co  Co15  1  0.888273  0.388461  0.499062  1
  Co  Co16  1  0.999085  0.999846  0.999720  1
  Bi  Bi17  1  0.499926  0.500267  0.999817  1
