# generated using pymatgen
data_TbEuEr(Co3P2)3
_symmetry_space_group_name_H-M   'P 1'
_cell_length_a   3.71672800
_cell_length_b   10.56943900
_cell_length_c   12.21410900
_cell_angle_alpha   90.00000000
_cell_angle_beta   90.00000000
_cell_angle_gamma   90.00000000
_symmetry_Int_Tables_number   1
_chemical_formula_structural   TbEuEr(Co3P2)3
_chemical_formula_sum   'Tb2 Eu2 Er2 Co18 P12'
_cell_volume   479.81575863
_cell_formula_units_Z   2
loop_
 _symmetry_equiv_pos_site_id
 _symmetry_equiv_pos_as_xyz
  1  'x, y, z'
loop_
 _atom_site_type_symbol
 _atom_site_label
 _atom_site_symmetry_multiplicity
 _atom_site_fract_x
 _atom_site_fract_y
 _atom_site_fract_z
 _atom_site_occupancy
  Tb  Tb0  1  0.000000  0.682788  0.795803  1
  Tb  Tb1  1  0.000000  0.317212  0.795803  1
  Eu  Eu2  1  0.000000  0.500000  0.523504  1
  Eu  Eu3  1  0.500000  0.000000  0.475184  1
  Er  Er4  1  0.500000  0.817898  0.204631  1
  Er  Er5  1  0.500000  0.182102  0.204631  1
  Co  Co6  1  0.500000  0.500000  0.157516  1
  Co  Co7  1  0.000000  0.000000  0.842119  1
  Co  Co8  1  0.500000  0.500000  0.704585  1
  Co  Co9  1  0.000000  0.000000  0.295026  1
  Co  Co10  1  0.000000  0.500000  0.987838  1
  Co  Co11  1  0.500000  0.000000  0.015084  1
  Co  Co12  1  0.500000  0.332640  0.995356  1
  Co  Co13  1  0.500000  0.667360  0.995356  1
  Co  Co14  1  0.000000  0.165886  0.006431  1
  Co  Co15  1  0.000000  0.834114  0.006431  1
  Co  Co16  1  0.500000  0.296049  0.428627  1
  Co  Co17  1  0.500000  0.703951  0.428627  1
  Co  Co18  1  0.000000  0.203234  0.569582  1
  Co  Co19  1  0.000000  0.796766  0.569582  1
  Co  Co20  1  0.500000  0.879994  0.711433  1
  Co  Co21  1  0.500000  0.120006  0.711433  1
  Co  Co22  1  0.000000  0.620825  0.287818  1
  Co  Co23  1  0.000000  0.379175  0.287818  1
  P  P24  1  0.500000  0.500000  0.884614  1
  P  P25  1  0.000000  0.000000  0.117702  1
  P  P26  1  0.500000  0.500000  0.340158  1
  P  P27  1  0.000000  0.000000  0.658878  1
  P  P28  1  0.500000  0.306664  0.616370  1
  P  P29  1  0.500000  0.693336  0.616370  1
  P  P30  1  0.000000  0.192407  0.381908  1
  P  P31  1  0.000000  0.807593  0.381908  1
  P  P32  1  0.500000  0.848361  0.894576  1
  P  P33  1  0.500000  0.151639  0.894576  1
  P  P34  1  0.000000  0.653947  0.106364  1
  P  P35  1  0.000000  0.346053  0.106364  1
