# generated using pymatgen
data_TbNd3Y12(CdPd)4
_symmetry_space_group_name_H-M   'P 1'
_cell_length_a   9.82936963
_cell_length_b   9.78974956
_cell_length_c   9.78974900
_cell_angle_alpha   59.99999850
_cell_angle_beta   60.13324647
_cell_angle_gamma   60.13325071
_symmetry_Int_Tables_number   1
_chemical_formula_structural   TbNd3Y12(CdPd)4
_chemical_formula_sum   'Tb1 Nd3 Y12 Cd4 Pd4'
_cell_volume   667.46049270
_cell_formula_units_Z   1
loop_
 _symmetry_equiv_pos_site_id
 _symmetry_equiv_pos_as_xyz
  1  'x, y, z'
loop_
 _atom_site_type_symbol
 _atom_site_label
 _atom_site_symmetry_multiplicity
 _atom_site_fract_x
 _atom_site_fract_y
 _atom_site_fract_z
 _atom_site_occupancy
  Tb  Tb0  1  0.932591  0.355803  0.355803  1
  Nd  Nd1  1  0.355635  0.356870  0.356870  1
  Nd  Nd2  1  0.355635  0.356870  0.930624  1
  Nd  Nd3  1  0.355635  0.930624  0.356870  1
  Y  Y4  1  0.813312  0.187245  0.187245  1
  Y  Y5  1  0.186746  0.813448  0.813448  1
  Y  Y6  1  0.186746  0.813448  0.186357  1
  Y  Y7  1  0.813312  0.187245  0.812198  1
  Y  Y8  1  0.186746  0.186357  0.813448  1
  Y  Y9  1  0.813312  0.812198  0.187245  1
  Y  Y10  1  0.933101  0.566112  0.566112  1
  Y  Y11  1  0.566521  0.933109  0.933109  1
  Y  Y12  1  0.566521  0.933109  0.567262  1
  Y  Y13  1  0.933101  0.566112  0.934676  1
  Y  Y14  1  0.566521  0.567262  0.933109  1
  Y  Y15  1  0.933101  0.934676  0.566112  1
  Cd  Cd16  1  0.588771  0.581784  0.581784  1
  Cd  Cd17  1  0.588771  0.581784  0.247662  1
  Cd  Cd18  1  0.588771  0.247662  0.581784  1
  Cd  Cd19  1  0.246340  0.584554  0.584554  1
  Pd  Pd20  1  0.139914  0.146973  0.146973  1
  Pd  Pd21  1  0.139914  0.146973  0.566139  1
  Pd  Pd22  1  0.139914  0.566139  0.146973  1
  Pd  Pd23  1  0.569069  0.143643  0.143643  1
