# generated using pymatgen
data_Ca2Co2CuN3
_symmetry_space_group_name_H-M   'P 1'
_cell_length_a   6.28813421
_cell_length_b   6.28813486
_cell_length_c   6.17634600
_cell_angle_alpha   88.65780598
_cell_angle_beta   88.65780968
_cell_angle_gamma   118.53849987
_symmetry_Int_Tables_number   1
_chemical_formula_structural   Ca2Co2CuN3
_chemical_formula_sum   'Ca4 Co4 Cu2 N6'
_cell_volume   214.31790751
_cell_formula_units_Z   2
loop_
 _symmetry_equiv_pos_site_id
 _symmetry_equiv_pos_as_xyz
  1  'x, y, z'
loop_
 _atom_site_type_symbol
 _atom_site_label
 _atom_site_symmetry_multiplicity
 _atom_site_fract_x
 _atom_site_fract_y
 _atom_site_fract_z
 _atom_site_occupancy
  Ca  Ca0  1  0.819173  0.679257  0.898427  1
  Ca  Ca1  1  0.320743  0.180827  0.601573  1
  Ca  Ca2  1  0.180827  0.320743  0.101573  1
  Ca  Ca3  1  0.679257  0.819173  0.398427  1
  Co  Co4  1  0.568811  0.165873  0.106548  1
  Co  Co5  1  0.431189  0.834127  0.893452  1
  Co  Co6  1  0.834127  0.431189  0.393452  1
  Co  Co7  1  0.165873  0.568811  0.606548  1
  Cu  Cu8  1  0.829170  0.170830  0.750000  1
  Cu  Cu9  1  0.170830  0.829170  0.250000  1
  N  N10  1  0.420955  0.579045  0.750000  1
  N  N11  1  0.579045  0.420955  0.250000  1
  N  N12  1  0.999451  0.733660  0.524849  1
  N  N13  1  0.733660  0.999451  0.024849  1
  N  N14  1  0.000549  0.266340  0.475151  1
  N  N15  1  0.266340  0.000549  0.975151  1
