# generated using pymatgen
data_Ba4Mg(OsO6)2
_symmetry_space_group_name_H-M   'P 1'
_cell_length_a   9.93075249
_cell_length_b   9.93075241
_cell_length_c   9.93075103
_cell_angle_alpha   33.81063160
_cell_angle_beta   33.81063137
_cell_angle_gamma   33.81063097
_symmetry_Int_Tables_number   1
_chemical_formula_structural   Ba4Mg(OsO6)2
_chemical_formula_sum   'Ba4 Mg1 Os2 O12'
_cell_volume   270.22333979
_cell_formula_units_Z   1
loop_
 _symmetry_equiv_pos_site_id
 _symmetry_equiv_pos_as_xyz
  1  'x, y, z'
loop_
 _atom_site_type_symbol
 _atom_site_label
 _atom_site_symmetry_multiplicity
 _atom_site_fract_x
 _atom_site_fract_y
 _atom_site_fract_z
 _atom_site_occupancy
  Ba  Ba0  1  0.708727  0.708727  0.708727  1
  Ba  Ba1  1  0.291273  0.291273  0.291273  1
  Ba  Ba2  1  0.869210  0.869210  0.869210  1
  Ba  Ba3  1  0.130790  0.130790  0.130790  1
  Mg  Mg4  1  0.000000  0.000000  0.000000  1
  Os  Os5  1  0.581432  0.581432  0.581432  1
  Os  Os6  1  0.418568  0.418568  0.418568  1
  O  O7  1  0.218257  0.694318  0.218257  1
  O  O8  1  0.218257  0.218257  0.694318  1
  O  O9  1  0.694318  0.218257  0.218257  1
  O  O10  1  0.781743  0.305682  0.781743  1
  O  O11  1  0.781743  0.781743  0.305682  1
  O  O12  1  0.305682  0.781743  0.781743  1
  O  O13  1  0.388527  0.858985  0.388527  1
  O  O14  1  0.388527  0.388527  0.858985  1
  O  O15  1  0.858985  0.388527  0.388527  1
  O  O16  1  0.611473  0.141015  0.611473  1
  O  O17  1  0.611473  0.611473  0.141015  1
  O  O18  1  0.141015  0.611473  0.611473  1
