# generated using pymatgen
data_Ca2Yb2InPbN2
_symmetry_space_group_name_H-M   'P 1'
_cell_length_a   10.16376854
_cell_length_b   10.16376849
_cell_length_c   4.98229100
_cell_angle_alpha   90.00000000
_cell_angle_beta   90.00000000
_cell_angle_gamma   159.74839708
_symmetry_Int_Tables_number   1
_chemical_formula_structural   Ca2Yb2InPbN2
_chemical_formula_sum   'Ca2 Yb2 In1 Pb1 N2'
_cell_volume   178.15358043
_cell_formula_units_Z   1
loop_
 _symmetry_equiv_pos_site_id
 _symmetry_equiv_pos_as_xyz
  1  'x, y, z'
loop_
 _atom_site_type_symbol
 _atom_site_label
 _atom_site_symmetry_multiplicity
 _atom_site_fract_x
 _atom_site_fract_y
 _atom_site_fract_z
 _atom_site_occupancy
  Ca  Ca0  1  0.379305  0.620695  0.750000  1
  Ca  Ca1  1  0.620407  0.379593  0.250000  1
  Yb  Yb2  1  0.219320  0.780680  0.750000  1
  Yb  Yb3  1  0.780340  0.219660  0.250000  1
  In  In4  1  0.959597  0.040403  0.250000  1
  Pb  Pb5  1  0.040871  0.959129  0.750000  1
  N  N6  1  0.799485  0.200515  0.750000  1
  N  N7  1  0.200674  0.799326  0.250000  1
