# generated using pymatgen
data_NdYPa2(Zn5Sn)2
_symmetry_space_group_name_H-M   'P 1'
_cell_length_a   8.41249930
_cell_length_b   8.41249758
_cell_length_c   8.93293227
_cell_angle_alpha   90.83419251
_cell_angle_beta   89.16580682
_cell_angle_gamma   149.33493381
_symmetry_Int_Tables_number   1
_chemical_formula_structural   NdYPa2(Zn5Sn)2
_chemical_formula_sum   'Nd1 Y1 Pa2 Zn10 Sn2'
_cell_volume   322.38923007
_cell_formula_units_Z   1
loop_
 _symmetry_equiv_pos_site_id
 _symmetry_equiv_pos_as_xyz
  1  'x, y, z'
loop_
 _atom_site_type_symbol
 _atom_site_label
 _atom_site_symmetry_multiplicity
 _atom_site_fract_x
 _atom_site_fract_y
 _atom_site_fract_z
 _atom_site_occupancy
  Nd  Nd0  1  0.000000  0.000000  0.000000  1
  Y  Y1  1  0.000000  0.000000  0.500000  1
  Pa  Pa2  1  0.205701  0.794299  0.250676  1
  Pa  Pa3  1  0.794299  0.205701  0.749324  1
  Zn  Zn4  1  0.814566  0.185434  0.391825  1
  Zn  Zn5  1  0.185434  0.814566  0.608175  1
  Zn  Zn6  1  0.812333  0.187667  0.106028  1
  Zn  Zn7  1  0.187667  0.812333  0.893972  1
  Zn  Zn8  1  0.659082  0.340918  0.481590  1
  Zn  Zn9  1  0.340918  0.659082  0.518410  1
  Zn  Zn10  1  0.658613  0.341387  0.020703  1
  Zn  Zn11  1  0.341387  0.658613  0.979297  1
  Zn  Zn12  1  0.393270  0.606730  0.248122  1
  Zn  Zn13  1  0.606730  0.393270  0.751878  1
  Sn  Sn14  1  0.555633  0.444367  0.254819  1
  Sn  Sn15  1  0.444367  0.555633  0.745181  1
