# generated using pymatgen
data_Th2ZnInTc
_symmetry_space_group_name_H-M   'P 1'
_cell_length_a   7.61993200
_cell_length_b   7.77810800
_cell_length_c   3.90722100
_cell_angle_alpha   90.00000000
_cell_angle_beta   90.00000000
_cell_angle_gamma   90.00000000
_symmetry_Int_Tables_number   1
_chemical_formula_structural   Th2ZnInTc
_chemical_formula_sum   'Th4 Zn2 In2 Tc2'
_cell_volume   231.57572974
_cell_formula_units_Z   2
loop_
 _symmetry_equiv_pos_site_id
 _symmetry_equiv_pos_as_xyz
  1  'x, y, z'
loop_
 _atom_site_type_symbol
 _atom_site_label
 _atom_site_symmetry_multiplicity
 _atom_site_fract_x
 _atom_site_fract_y
 _atom_site_fract_z
 _atom_site_occupancy
  Th  Th0  1  0.675770  0.152267  0.500000  1
  Th  Th1  1  0.175770  0.347733  0.500000  1
  Th  Th2  1  0.830308  0.697220  0.500000  1
  Th  Th3  1  0.330308  0.802780  0.500000  1
  Zn  Zn4  1  0.367585  0.116184  0.000000  1
  Zn  Zn5  1  0.867585  0.383816  0.000000  1
  In  In6  1  0.006210  0.007395  0.000000  1
  In  In7  1  0.506210  0.492605  0.000000  1
  Tc  Tc8  1  0.120127  0.624683  0.000000  1
  Tc  Tc9  1  0.620127  0.875317  0.000000  1
