# generated using pymatgen
data_HoBi7(TeO6)4
_symmetry_space_group_name_H-M   'P 1'
_cell_length_a   5.46480759
_cell_length_b   9.48242256
_cell_length_c   10.26828800
_cell_angle_alpha   90.07855011
_cell_angle_beta   90.26532173
_cell_angle_gamma   90.12207650
_symmetry_Int_Tables_number   1
_chemical_formula_structural   HoBi7(TeO6)4
_chemical_formula_sum   'Ho1 Bi7 Te4 O24'
_cell_volume   532.09130895
_cell_formula_units_Z   1
loop_
 _symmetry_equiv_pos_site_id
 _symmetry_equiv_pos_as_xyz
  1  'x, y, z'
loop_
 _atom_site_type_symbol
 _atom_site_label
 _atom_site_symmetry_multiplicity
 _atom_site_fract_x
 _atom_site_fract_y
 _atom_site_fract_z
 _atom_site_occupancy
  Ho  Ho0  1  0.518560  0.397891  0.459221  1
  Bi  Bi1  1  0.038608  0.215600  0.140701  1
  Bi  Bi2  1  0.469774  0.789458  0.639359  1
  Bi  Bi3  1  0.965849  0.708504  0.359108  1
  Bi  Bi4  1  0.536258  0.285046  0.858309  1
  Bi  Bi5  1  0.026588  0.105607  0.542070  1
  Bi  Bi6  1  0.479350  0.898101  0.044196  1
  Bi  Bi7  1  0.979001  0.600941  0.956695  1
  Te  Te8  1  0.539669  0.007519  0.357894  1
  Te  Te9  1  0.962482  0.996824  0.856720  1
  Te  Te10  1  0.463872  0.502122  0.146125  1
  Te  Te11  1  0.035612  0.494009  0.640001  1
  O  O12  1  0.424276  0.162118  0.466255  1
  O  O13  1  0.076613  0.850063  0.973713  1
  O  O14  1  0.580635  0.650545  0.031866  1
  O  O15  1  0.894724  0.347141  0.531037  1
  O  O16  1  0.726490  0.387382  0.066092  1
  O  O17  1  0.766569  0.608463  0.564168  1
  O  O18  1  0.275591  0.893263  0.436535  1
  O  O19  1  0.226696  0.113447  0.934078  1
  O  O20  1  0.259026  0.416908  0.005674  1
  O  O21  1  0.234862  0.571894  0.496381  1
  O  O22  1  0.739383  0.924678  0.500327  1
  O  O23  1  0.757943  0.084456  0.994828  1
  O  O24  1  0.188308  0.632696  0.179763  1
  O  O25  1  0.313501  0.363753  0.666312  1
  O  O26  1  0.816034  0.135829  0.322545  1
  O  O27  1  0.690883  0.864242  0.820614  1
  O  O28  1  0.334239  0.049736  0.207001  1
  O  O29  1  0.168893  0.951404  0.708863  1
  O  O30  1  0.666703  0.545233  0.297521  1
  O  O31  1  0.838989  0.447749  0.792863  1
  O  O32  1  0.329053  0.359662  0.260325  1
  O  O33  1  0.179335  0.637008  0.752288  1
  O  O34  1  0.674996  0.861247  0.246678  1
  O  O35  1  0.820634  0.139462  0.743871  1
