# generated using pymatgen
data_Nd2GaRh3
_symmetry_space_group_name_H-M   'P 1'
_cell_length_a   5.21522284
_cell_length_b   5.21522266
_cell_length_c   5.21522304
_cell_angle_alpha   66.62398060
_cell_angle_beta   66.62398826
_cell_angle_gamma   66.62398945
_symmetry_Int_Tables_number   1
_chemical_formula_structural   Nd2GaRh3
_chemical_formula_sum   'Nd2 Ga1 Rh3'
_cell_volume   114.59353331
_cell_formula_units_Z   1
loop_
 _symmetry_equiv_pos_site_id
 _symmetry_equiv_pos_as_xyz
  1  'x, y, z'
loop_
 _atom_site_type_symbol
 _atom_site_label
 _atom_site_symmetry_multiplicity
 _atom_site_fract_x
 _atom_site_fract_y
 _atom_site_fract_z
 _atom_site_occupancy
  Nd  Nd0  1  0.130216  0.130216  0.130216  1
  Nd  Nd1  1  0.869784  0.869784  0.869784  1
  Ga  Ga2  1  0.500000  0.500000  0.500000  1
  Rh  Rh3  1  0.500000  0.000000  0.500000  1
  Rh  Rh4  1  0.000000  0.500000  0.500000  1
  Rh  Rh5  1  0.500000  0.500000  0.000000  1
