# generated using pymatgen
data_La3Lu(ZnGe)4
_symmetry_space_group_name_H-M   'P 1'
_cell_length_a   4.33585400
_cell_length_b   4.33585425
_cell_length_c   16.47173800
_cell_angle_alpha   90.00000000
_cell_angle_beta   90.00000000
_cell_angle_gamma   119.99999809
_symmetry_Int_Tables_number   1
_chemical_formula_structural   La3Lu(ZnGe)4
_chemical_formula_sum   'La3 Lu1 Zn4 Ge4'
_cell_volume   268.17568010
_cell_formula_units_Z   1
loop_
 _symmetry_equiv_pos_site_id
 _symmetry_equiv_pos_as_xyz
  1  'x, y, z'
loop_
 _atom_site_type_symbol
 _atom_site_label
 _atom_site_symmetry_multiplicity
 _atom_site_fract_x
 _atom_site_fract_y
 _atom_site_fract_z
 _atom_site_occupancy
  La  La0  1  0.000000  0.000000  0.250000  1
  La  La1  1  0.000000  0.000000  0.990473  1
  La  La2  1  0.000000  0.000000  0.509527  1
  Lu  Lu3  1  0.000000  0.000000  0.750000  1
  Zn  Zn4  1  0.333333  0.666667  0.139125  1
  Zn  Zn5  1  0.666667  0.333333  0.838100  1
  Zn  Zn6  1  0.666667  0.333333  0.661900  1
  Zn  Zn7  1  0.333333  0.666667  0.360875  1
  Ge  Ge8  1  0.333333  0.666667  0.623806  1
  Ge  Ge9  1  0.666667  0.333333  0.388511  1
  Ge  Ge10  1  0.666667  0.333333  0.111489  1
  Ge  Ge11  1  0.333333  0.666667  0.876194  1
