# generated using pymatgen
data_Eu4TaCr2SbO14
_symmetry_space_group_name_H-M   'P 1'
_cell_length_a   7.36473260
_cell_length_b   7.30308796
_cell_length_c   7.45158841
_cell_angle_alpha   90.00307848
_cell_angle_beta   59.90233294
_cell_angle_gamma   119.80760580
_symmetry_Int_Tables_number   1
_chemical_formula_structural   Eu4TaCr2SbO14
_chemical_formula_sum   'Eu4 Ta1 Cr2 Sb1 O14'
_cell_volume   283.80943515
_cell_formula_units_Z   1
loop_
 _symmetry_equiv_pos_site_id
 _symmetry_equiv_pos_as_xyz
  1  'x, y, z'
loop_
 _atom_site_type_symbol
 _atom_site_label
 _atom_site_symmetry_multiplicity
 _atom_site_fract_x
 _atom_site_fract_y
 _atom_site_fract_z
 _atom_site_occupancy
  Eu  Eu0  1  0.499984  0.499996  0.999983  1
  Eu  Eu1  1  0.500000  0.000000  0.000017  1
  Eu  Eu2  1  0.000009  0.999988  0.500000  1
  Eu  Eu3  1  0.000022  0.000039  0.999980  1
  Ta  Ta4  1  0.000040  0.499922  0.999971  1
  Cr  Cr5  1  0.499987  0.999992  0.500040  1
  Cr  Cr6  1  0.499995  0.500009  0.499988  1
  Sb  Sb7  1  0.000034  0.500066  0.499974  1
  O  O8  1  0.249954  0.125061  0.125078  1
  O  O9  1  0.750038  0.874928  0.874929  1
  O  O10  1  0.657665  0.828789  0.422939  1
  O  O11  1  0.848277  0.424107  0.825682  1
  O  O12  1  0.249942  0.824444  0.826689  1
  O  O13  1  0.250309  0.422387  0.418466  1
  O  O14  1  0.249889  0.425425  0.826793  1
  O  O15  1  0.250402  0.828008  0.418480  1
  O  O16  1  0.342351  0.171215  0.577060  1
  O  O17  1  0.151703  0.575893  0.174312  1
  O  O18  1  0.750028  0.175553  0.173340  1
  O  O19  1  0.749668  0.577591  0.581517  1
  O  O20  1  0.750087  0.574580  0.173214  1
  O  O21  1  0.749617  0.172004  0.581551  1
