# generated using pymatgen
data_Lu3Sc5Re3B24Ru
_symmetry_space_group_name_H-M   'P 1'
_cell_length_a   3.54096300
_cell_length_b   8.94304815
_cell_length_c   11.28241423
_cell_angle_alpha   90.06096135
_cell_angle_beta   90.00000000
_cell_angle_gamma   90.00000000
_symmetry_Int_Tables_number   1
_chemical_formula_structural   Lu3Sc5Re3B24Ru
_chemical_formula_sum   'Lu3 Sc5 Re3 B24 Ru1'
_cell_volume   357.28003829
_cell_formula_units_Z   1
loop_
 _symmetry_equiv_pos_site_id
 _symmetry_equiv_pos_as_xyz
  1  'x, y, z'
loop_
 _atom_site_type_symbol
 _atom_site_label
 _atom_site_symmetry_multiplicity
 _atom_site_fract_x
 _atom_site_fract_y
 _atom_site_fract_z
 _atom_site_occupancy
  Lu  Lu0  1  0.000000  0.319945  0.414159  1
  Lu  Lu1  1  0.000000  0.679544  0.587595  1
  Lu  Lu2  1  0.000000  0.822373  0.084335  1
  Sc  Sc3  1  0.000000  0.178382  0.912454  1
  Sc  Sc4  1  0.000000  0.943306  0.370682  1
  Sc  Sc5  1  0.000000  0.055884  0.629120  1
  Sc  Sc6  1  0.000000  0.442994  0.128190  1
  Sc  Sc7  1  0.000000  0.555832  0.871786  1
  Re  Re8  1  0.000000  0.360210  0.681145  1
  Re  Re9  1  0.000000  0.139623  0.180123  1
  Re  Re10  1  0.000000  0.862272  0.819977  1
  B  B11  1  0.500000  0.554375  0.433617  1
  B  B12  1  0.500000  0.446647  0.565816  1
  B  B13  1  0.500000  0.053827  0.065287  1
  B  B14  1  0.500000  0.947948  0.933820  1
  B  B15  1  0.500000  0.752429  0.419482  1
  B  B16  1  0.500000  0.245851  0.580072  1
  B  B17  1  0.500000  0.253387  0.078897  1
  B  B18  1  0.500000  0.747012  0.920015  1
  B  B19  1  0.500000  0.793465  0.264740  1
  B  B20  1  0.500000  0.205208  0.736147  1
  B  B21  1  0.500000  0.294934  0.235760  1
  B  B22  1  0.500000  0.705579  0.765010  1
  B  B23  1  0.500000  0.629116  0.183065  1
  B  B24  1  0.500000  0.370486  0.817850  1
  B  B25  1  0.500000  0.128752  0.317394  1
  B  B26  1  0.500000  0.871227  0.682919  1
  B  B27  1  0.500000  0.979397  0.212861  1
  B  B28  1  0.500000  0.021350  0.787271  1
  B  B29  1  0.500000  0.480859  0.287119  1
  B  B30  1  0.500000  0.520328  0.713518  1
  B  B31  1  0.500000  0.598006  0.027509  1
  B  B32  1  0.500000  0.401920  0.973296  1
  B  B33  1  0.500000  0.096304  0.473097  1
  B  B34  1  0.500000  0.901661  0.526689  1
  Ru  Ru35  1  0.000000  0.639562  0.319185  1
