# generated using pymatgen
data_Dy8Ho4Ni4SnRu
_symmetry_space_group_name_H-M   'P 1'
_cell_length_a   8.30398483
_cell_length_b   8.30398434
_cell_length_c   8.30398504
_cell_angle_alpha   111.55600742
_cell_angle_beta   109.73121112
_cell_angle_gamma   107.15642692
_symmetry_Int_Tables_number   1
_chemical_formula_structural   Dy8Ho4Ni4SnRu
_chemical_formula_sum   'Dy8 Ho4 Ni4 Sn1 Ru1'
_cell_volume   440.14257421
_cell_formula_units_Z   1
loop_
 _symmetry_equiv_pos_site_id
 _symmetry_equiv_pos_as_xyz
  1  'x, y, z'
loop_
 _atom_site_type_symbol
 _atom_site_label
 _atom_site_symmetry_multiplicity
 _atom_site_fract_x
 _atom_site_fract_y
 _atom_site_fract_z
 _atom_site_occupancy
  Dy  Dy0  1  0.405831  0.215864  0.189966  1
  Dy  Dy1  1  0.594169  0.784136  0.810034  1
  Dy  Dy2  1  0.025896  0.215864  0.810034  1
  Dy  Dy3  1  0.974104  0.784136  0.189966  1
  Dy  Dy4  1  0.181166  0.289330  0.470496  1
  Dy  Dy5  1  0.818834  0.710670  0.529504  1
  Dy  Dy6  1  0.181166  0.710670  0.891837  1
  Dy  Dy7  1  0.818834  0.289330  0.108163  1
  Ho  Ho8  1  0.320706  0.627614  0.306908  1
  Ho  Ho9  1  0.679294  0.372386  0.693092  1
  Ho  Ho10  1  0.320706  0.013799  0.693092  1
  Ho  Ho11  1  0.679294  0.986201  0.306908  1
  Ni  Ni12  1  0.362269  0.000000  0.362269  1
  Ni  Ni13  1  0.637731  0.000000  0.637731  1
  Ni  Ni14  1  0.122983  0.622983  0.500000  1
  Ni  Ni15  1  0.877017  0.377017  0.500000  1
  Sn  Sn16  1  0.500000  0.500000  0.000000  1
  Ru  Ru17  1  0.000000  0.000000  0.000000  1
