# generated using pymatgen
data_CdBi3Ru2O11
_symmetry_space_group_name_H-M   'P 1'
_cell_length_a   6.52917989
_cell_length_b   7.51144187
_cell_length_c   9.79309274
_cell_angle_alpha   100.64033196
_cell_angle_beta   92.03010989
_cell_angle_gamma   89.83971486
_symmetry_Int_Tables_number   1
_chemical_formula_structural   CdBi3Ru2O11
_chemical_formula_sum   'Cd2 Bi6 Ru4 O22'
_cell_volume   471.73013080
_cell_formula_units_Z   2
loop_
 _symmetry_equiv_pos_site_id
 _symmetry_equiv_pos_as_xyz
  1  'x, y, z'
loop_
 _atom_site_type_symbol
 _atom_site_label
 _atom_site_symmetry_multiplicity
 _atom_site_fract_x
 _atom_site_fract_y
 _atom_site_fract_z
 _atom_site_occupancy
  Cd  Cd0  1  0.740561  0.373606  0.484055  1
  Cd  Cd1  1  0.259439  0.626394  0.515945  1
  Bi  Bi2  1  0.755686  0.865580  0.488212  1
  Bi  Bi3  1  0.244314  0.134420  0.511788  1
  Bi  Bi4  1  0.469497  0.950894  0.819922  1
  Bi  Bi5  1  0.530503  0.049106  0.180078  1
  Bi  Bi6  1  0.389775  0.457526  0.824914  1
  Bi  Bi7  1  0.610225  0.542474  0.175086  1
  Ru  Ru8  1  0.930741  0.702617  0.809944  1
  Ru  Ru9  1  0.069259  0.297383  0.190056  1
  Ru  Ru10  1  0.926802  0.202800  0.811072  1
  Ru  Ru11  1  0.073198  0.797200  0.188928  1
  O  O12  1  0.229343  0.724044  0.769338  1
  O  O13  1  0.770657  0.275956  0.230662  1
  O  O14  1  0.635860  0.674126  0.833807  1
  O  O15  1  0.364140  0.325874  0.166193  1
  O  O16  1  0.636162  0.244450  0.847276  1
  O  O17  1  0.363838  0.755550  0.152724  1
  O  O18  1  0.886475  0.179981  0.613186  1
  O  O19  1  0.113525  0.820019  0.386814  1
  O  O20  1  0.222351  0.156062  0.763892  1
  O  O21  1  0.777649  0.843938  0.236108  1
  O  O22  1  0.899446  0.636648  0.610595  1
  O  O23  1  0.100554  0.363352  0.389405  1
  O  O24  1  0.001419  0.543401  0.173676  1
  O  O25  1  0.998581  0.456599  0.826324  1
  O  O26  1  0.997636  0.778157  0.999560  1
  O  O27  1  0.002364  0.221843  0.000440  1
  O  O28  1  0.583085  0.609095  0.395505  1
  O  O29  1  0.416915  0.390905  0.604495  1
  O  O30  1  0.157581  0.052489  0.213138  1
  O  O31  1  0.842419  0.947511  0.786862  1
  O  O32  1  0.542702  0.095156  0.400639  1
  O  O33  1  0.457298  0.904844  0.599361  1
