# generated using pymatgen
data_Zr6Zn16Cu6AsAu
_symmetry_space_group_name_H-M   'P 1'
_cell_length_a   8.66568941
_cell_length_b   8.66568891
_cell_length_c   8.66569000
_cell_angle_alpha   59.99999583
_cell_angle_beta   59.99999775
_cell_angle_gamma   59.99999658
_symmetry_Int_Tables_number   1
_chemical_formula_structural   Zr6Zn16Cu6AsAu
_chemical_formula_sum   'Zr6 Zn16 Cu6 As1 Au1'
_cell_volume   460.14460255
_cell_formula_units_Z   1
loop_
 _symmetry_equiv_pos_site_id
 _symmetry_equiv_pos_as_xyz
  1  'x, y, z'
loop_
 _atom_site_type_symbol
 _atom_site_label
 _atom_site_symmetry_multiplicity
 _atom_site_fract_x
 _atom_site_fract_y
 _atom_site_fract_z
 _atom_site_occupancy
  Zr  Zr0  1  0.713161  0.286839  0.286839  1
  Zr  Zr1  1  0.286839  0.713161  0.713161  1
  Zr  Zr2  1  0.286839  0.713161  0.286839  1
  Zr  Zr3  1  0.713161  0.286839  0.713161  1
  Zr  Zr4  1  0.286839  0.286839  0.713161  1
  Zr  Zr5  1  0.713161  0.713161  0.286839  1
  Zn  Zn6  1  0.126376  0.126376  0.126376  1
  Zn  Zn7  1  0.873624  0.873624  0.873624  1
  Zn  Zn8  1  0.126376  0.126376  0.620872  1
  Zn  Zn9  1  0.126376  0.620872  0.126376  1
  Zn  Zn10  1  0.873624  0.873624  0.379128  1
  Zn  Zn11  1  0.873624  0.379128  0.873624  1
  Zn  Zn12  1  0.620872  0.126376  0.126376  1
  Zn  Zn13  1  0.379128  0.873624  0.873624  1
  Zn  Zn14  1  0.336835  0.336835  0.336835  1
  Zn  Zn15  1  0.663165  0.663165  0.663165  1
  Zn  Zn16  1  0.336835  0.336835  0.989497  1
  Zn  Zn17  1  0.336835  0.989497  0.336835  1
  Zn  Zn18  1  0.663165  0.663165  0.010503  1
  Zn  Zn19  1  0.663165  0.010503  0.663165  1
  Zn  Zn20  1  0.989497  0.336835  0.336835  1
  Zn  Zn21  1  0.010503  0.663165  0.663165  1
  Cu  Cu22  1  0.500000  0.000000  0.000000  1
  Cu  Cu23  1  0.000000  0.500000  0.500000  1
  Cu  Cu24  1  0.000000  0.500000  0.000000  1
  Cu  Cu25  1  0.500000  0.000000  0.500000  1
  Cu  Cu26  1  0.000000  0.000000  0.500000  1
  Cu  Cu27  1  0.500000  0.500000  0.000000  1
  As  As28  1  0.500000  0.500000  0.500000  1
  Au  Au29  1  0.000000  0.000000  0.000000  1
