# generated using pymatgen
data_Sm2Mn3Co8NiP7
_symmetry_space_group_name_H-M   'P 1'
_cell_length_a   9.12554610
_cell_length_b   9.13377701
_cell_length_c   3.64034800
_cell_angle_alpha   90.00000000
_cell_angle_beta   90.00000000
_cell_angle_gamma   120.02652136
_symmetry_Int_Tables_number   1
_chemical_formula_structural   Sm2Mn3Co8NiP7
_chemical_formula_sum   'Sm2 Mn3 Co8 Ni1 P7'
_cell_volume   262.70399435
_cell_formula_units_Z   1
loop_
 _symmetry_equiv_pos_site_id
 _symmetry_equiv_pos_as_xyz
  1  'x, y, z'
loop_
 _atom_site_type_symbol
 _atom_site_label
 _atom_site_symmetry_multiplicity
 _atom_site_fract_x
 _atom_site_fract_y
 _atom_site_fract_z
 _atom_site_occupancy
  Sm  Sm0  1  0.666388  0.333376  0.000000  1
  Sm  Sm1  1  0.333366  0.665377  0.500000  1
  Mn  Mn2  1  0.217812  0.099384  0.000000  1
  Mn  Mn3  1  0.899649  0.119224  0.000000  1
  Mn  Mn4  1  0.882139  0.780697  0.000000  1
  Co  Co5  1  0.939922  0.369541  0.500000  1
  Co  Co6  1  0.631833  0.572035  0.500000  1
  Co  Co7  1  0.156126  0.273969  0.500000  1
  Co  Co8  1  0.726279  0.882278  0.500000  1
  Co  Co9  1  0.118117  0.843400  0.500000  1
  Co  Co10  1  0.386125  0.435838  0.000000  1
  Co  Co11  1  0.563988  0.950617  0.000000  1
  Co  Co12  1  0.048574  0.613251  0.000000  1
  Ni  Ni13  1  0.430151  0.060706  0.500000  1
  P  P14  1  0.111377  0.401377  0.000000  1
  P  P15  1  0.598150  0.711354  0.000000  1
  P  P16  1  0.285959  0.882579  0.000000  1
  P  P17  1  0.999797  0.000000  0.500000  1
  P  P18  1  0.410136  0.305683  0.500000  1
  P  P19  1  0.702795  0.108969  0.500000  1
  P  P20  1  0.891319  0.590342  0.500000  1
