# generated using pymatgen
data_Dy16MgTl(HgIr2)2
_symmetry_space_group_name_H-M   'P 1'
_cell_length_a   9.64132415
_cell_length_b   9.63475899
_cell_length_c   9.63475900
_cell_angle_alpha   59.91795300
_cell_angle_beta   59.91701707
_cell_angle_gamma   59.91702488
_symmetry_Int_Tables_number   1
_chemical_formula_structural   Dy16MgTl(HgIr2)2
_chemical_formula_sum   'Dy16 Mg1 Tl1 Hg2 Ir4'
_cell_volume   631.66703615
_cell_formula_units_Z   1
loop_
 _symmetry_equiv_pos_site_id
 _symmetry_equiv_pos_as_xyz
  1  'x, y, z'
loop_
 _atom_site_type_symbol
 _atom_site_label
 _atom_site_symmetry_multiplicity
 _atom_site_fract_x
 _atom_site_fract_y
 _atom_site_fract_z
 _atom_site_occupancy
  Dy  Dy0  1  0.600596  0.601431  0.601427  1
  Dy  Dy1  1  0.599355  0.599024  0.203535  1
  Dy  Dy2  1  0.599357  0.203535  0.599021  1
  Dy  Dy3  1  0.204607  0.599451  0.599447  1
  Dy  Dy4  1  0.058511  0.441660  0.441657  1
  Dy  Dy5  1  0.437763  0.060166  0.060168  1
  Dy  Dy6  1  0.440896  0.058641  0.441996  1
  Dy  Dy7  1  0.061815  0.436635  0.061854  1
  Dy  Dy8  1  0.440896  0.441996  0.058644  1
  Dy  Dy9  1  0.061816  0.061852  0.436635  1
  Dy  Dy10  1  0.186580  0.813272  0.813274  1
  Dy  Dy11  1  0.809788  0.188910  0.188911  1
  Dy  Dy12  1  0.810387  0.190275  0.812204  1
  Dy  Dy13  1  0.184887  0.811740  0.192852  1
  Dy  Dy14  1  0.810386  0.812203  0.190277  1
  Dy  Dy15  1  0.184889  0.192852  0.811740  1
  Mg  Mg16  1  0.826651  0.820059  0.820059  1
  Tl  Tl17  1  0.498294  0.833168  0.833169  1
  Hg  Hg18  1  0.838741  0.836926  0.491115  1
  Hg  Hg19  1  0.838741  0.491115  0.836926  1
  Ir  Ir20  1  0.392144  0.392753  0.392753  1
  Ir  Ir21  1  0.394192  0.392366  0.825788  1
  Ir  Ir22  1  0.394192  0.825787  0.392367  1
  Ir  Ir23  1  0.824513  0.394184  0.394183  1
