# generated using pymatgen
data_Ba8NpRe2SbO20
_symmetry_space_group_name_H-M   'P 1'
_cell_length_a   5.83957200
_cell_length_b   7.50246816
_cell_length_c   11.72019500
_cell_angle_alpha   89.06677244
_cell_angle_beta   90.00000000
_cell_angle_gamma   90.00000000
_symmetry_Int_Tables_number   1
_chemical_formula_structural   Ba8NpRe2SbO20
_chemical_formula_sum   'Ba8 Np1 Re2 Sb1 O20'
_cell_volume   513.40773265
_cell_formula_units_Z   1
loop_
 _symmetry_equiv_pos_site_id
 _symmetry_equiv_pos_as_xyz
  1  'x, y, z'
loop_
 _atom_site_type_symbol
 _atom_site_label
 _atom_site_symmetry_multiplicity
 _atom_site_fract_x
 _atom_site_fract_y
 _atom_site_fract_z
 _atom_site_occupancy
  Ba  Ba0  1  0.750000  0.477894  0.281418  1
  Ba  Ba1  1  0.250000  0.527882  0.720711  1
  Ba  Ba2  1  0.750000  0.973282  0.212393  1
  Ba  Ba3  1  0.250000  0.015290  0.785396  1
  Ba  Ba4  1  0.750000  0.179037  0.583621  1
  Ba  Ba5  1  0.250000  0.826255  0.409999  1
  Ba  Ba6  1  0.750000  0.657726  0.931157  1
  Ba  Ba7  1  0.250000  0.345692  0.077343  1
  Np  Np8  1  0.750000  0.168174  0.932699  1
  Re  Re9  1  0.750000  0.674865  0.559783  1
  Re  Re10  1  0.250000  0.326983  0.441159  1
  Sb  Sb11  1  0.250000  0.820745  0.070290  1
  O  O12  1  0.482656  0.175432  0.394106  1
  O  O13  1  0.983848  0.826130  0.605784  1
  O  O14  1  0.996855  0.668468  0.125789  1
  O  O15  1  0.496654  0.331060  0.873819  1
  O  O16  1  0.516152  0.826130  0.605784  1
  O  O17  1  0.017344  0.175432  0.394106  1
  O  O18  1  0.003346  0.331060  0.873819  1
  O  O19  1  0.503145  0.668468  0.125789  1
  O  O20  1  0.501057  0.500881  0.500455  1
  O  O21  1  0.998943  0.500881  0.500455  1
  O  O22  1  0.004712  0.993783  0.998153  1
  O  O23  1  0.495288  0.993783  0.998153  1
  O  O24  1  0.750000  0.290315  0.089850  1
  O  O25  1  0.250000  0.710128  0.913698  1
  O  O26  1  0.750000  0.769264  0.406917  1
  O  O27  1  0.250000  0.234908  0.594358  1
  O  O28  1  0.750000  0.024379  0.789538  1
  O  O29  1  0.250000  0.981663  0.201416  1
  O  O30  1  0.750000  0.532434  0.688215  1
  O  O31  1  0.250000  0.471574  0.313824  1
