# generated using pymatgen
data_Er2ZnSi13Ir6
_symmetry_space_group_name_H-M   'P 1'
_cell_length_a   7.99180227
_cell_length_b   7.99180331
_cell_length_c   7.99180351
_cell_angle_alpha   57.59643753
_cell_angle_beta   57.59643216
_cell_angle_gamma   57.59643760
_symmetry_Int_Tables_number   1
_chemical_formula_structural   Er2ZnSi13Ir6
_chemical_formula_sum   'Er2 Zn1 Si13 Ir6'
_cell_volume   340.98463916
_cell_formula_units_Z   1
loop_
 _symmetry_equiv_pos_site_id
 _symmetry_equiv_pos_as_xyz
  1  'x, y, z'
loop_
 _atom_site_type_symbol
 _atom_site_label
 _atom_site_symmetry_multiplicity
 _atom_site_fract_x
 _atom_site_fract_y
 _atom_site_fract_z
 _atom_site_occupancy
  Er  Er0  1  0.998723  0.998723  0.998723  1
  Er  Er1  1  0.501277  0.501277  0.501277  1
  Zn  Zn2  1  0.750000  0.750000  0.750000  1
  Si  Si3  1  0.250000  0.250000  0.250000  1
  Si  Si4  1  0.848310  0.061430  0.671970  1
  Si  Si5  1  0.671970  0.848310  0.061430  1
  Si  Si6  1  0.061430  0.671970  0.848310  1
  Si  Si7  1  0.651690  0.828030  0.438570  1
  Si  Si8  1  0.438570  0.651690  0.828030  1
  Si  Si9  1  0.828030  0.438570  0.651690  1
  Si  Si10  1  0.169380  0.559322  0.358686  1
  Si  Si11  1  0.559322  0.358686  0.169380  1
  Si  Si12  1  0.358686  0.169380  0.559322  1
  Si  Si13  1  0.940678  0.330620  0.141314  1
  Si  Si14  1  0.330620  0.141314  0.940678  1
  Si  Si15  1  0.141314  0.940678  0.330620  1
  Ir  Ir16  1  0.088864  0.411136  0.750000  1
  Ir  Ir17  1  0.250000  0.926695  0.573305  1
  Ir  Ir18  1  0.573305  0.250000  0.926695  1
  Ir  Ir19  1  0.926695  0.573305  0.250000  1
  Ir  Ir20  1  0.411136  0.750000  0.088864  1
  Ir  Ir21  1  0.750000  0.088864  0.411136  1
