# generated using pymatgen
data_Pr5HoTl5InO18
_symmetry_space_group_name_H-M   'P 1'
_cell_length_a   6.69731416
_cell_length_b   6.69250574
_cell_length_c   12.62299075
_cell_angle_alpha   90.13278918
_cell_angle_beta   89.74588551
_cell_angle_gamma   120.00910988
_symmetry_Int_Tables_number   1
_chemical_formula_structural   Pr5HoTl5InO18
_chemical_formula_sum   'Pr5 Ho1 Tl5 In1 O18'
_cell_volume   489.93466734
_cell_formula_units_Z   1
loop_
 _symmetry_equiv_pos_site_id
 _symmetry_equiv_pos_as_xyz
  1  'x, y, z'
loop_
 _atom_site_type_symbol
 _atom_site_label
 _atom_site_symmetry_multiplicity
 _atom_site_fract_x
 _atom_site_fract_y
 _atom_site_fract_z
 _atom_site_occupancy
  Pr  Pr0  1  0.335810  0.670359  0.233176  1
  Pr  Pr1  1  0.995658  0.000262  0.265569  1
  Pr  Pr2  1  0.997694  0.999926  0.766056  1
  Pr  Pr3  1  0.337666  0.670104  0.726515  1
  Pr  Pr4  1  0.667694  0.330033  0.728000  1
  Ho  Ho5  1  0.665668  0.329299  0.229826  1
  Tl  Tl6  1  0.997527  0.664261  0.493139  1
  Tl  Tl7  1  0.999237  0.335313  0.997411  1
  Tl  Tl8  1  0.336373  0.333069  0.493134  1
  Tl  Tl9  1  0.665615  0.663005  0.997521  1
  Tl  Tl10  1  0.335509  0.001675  0.997244  1
  In  In11  1  0.666838  0.002662  0.493952  1
  O  O12  1  0.001626  0.692643  0.665011  1
  O  O13  1  0.985788  0.628221  0.323819  1
  O  O14  1  0.000918  0.361287  0.825061  1
  O  O15  1  0.988344  0.309788  0.171984  1
  O  O16  1  0.334031  0.667376  0.032392  1
  O  O17  1  0.983973  0.000109  0.461533  1
  O  O18  1  0.999575  0.999953  0.964726  1
  O  O19  1  0.348420  0.681913  0.521269  1
  O  O20  1  0.307669  0.308654  0.664958  1
  O  O21  1  0.371322  0.357342  0.323827  1
  O  O22  1  0.319850  0.012147  0.171750  1
  O  O23  1  0.639429  0.638737  0.825126  1
  O  O24  1  0.690805  0.678232  0.172164  1
  O  O25  1  0.359739  0.999819  0.824819  1
  O  O26  1  0.666810  0.318689  0.527948  1
  O  O27  1  0.666665  0.332456  0.034218  1
  O  O28  1  0.638698  0.014150  0.325294  1
  O  O29  1  0.695050  0.998514  0.665301  1
