# generated using pymatgen
data_Zr6InSbC4
_symmetry_space_group_name_H-M   'P 1'
_cell_length_a   3.38997000
_cell_length_b   3.38996988
_cell_length_c   20.05418100
_cell_angle_alpha   90.00000000
_cell_angle_beta   90.00000000
_cell_angle_gamma   120.00000117
_symmetry_Int_Tables_number   1
_chemical_formula_structural   Zr6InSbC4
_chemical_formula_sum   'Zr6 In1 Sb1 C4'
_cell_volume   199.58470267
_cell_formula_units_Z   1
loop_
 _symmetry_equiv_pos_site_id
 _symmetry_equiv_pos_as_xyz
  1  'x, y, z'
loop_
 _atom_site_type_symbol
 _atom_site_label
 _atom_site_symmetry_multiplicity
 _atom_site_fract_x
 _atom_site_fract_y
 _atom_site_fract_z
 _atom_site_occupancy
  Zr  Zr0  1  0.000000  0.000000  0.004845  1
  Zr  Zr1  1  0.666668  0.333335  0.133030  1
  Zr  Zr2  1  0.666668  0.333335  0.366970  1
  Zr  Zr3  1  0.000000  0.000000  0.495155  1
  Zr  Zr4  1  0.333333  0.666666  0.623485  1
  Zr  Zr5  1  0.333333  0.666666  0.876515  1
  In  In6  1  0.000000  0.000000  0.750000  1
  Sb  Sb7  1  0.000000  0.000000  0.250000  1
  C  C8  1  0.333333  0.666666  0.074136  1
  C  C9  1  0.333333  0.666666  0.425865  1
  C  C10  1  0.666668  0.333335  0.565777  1
  C  C11  1  0.666668  0.333335  0.934223  1
