# generated using pymatgen
data_Li3Pr4ScPt4
_symmetry_space_group_name_H-M   'P 1'
_cell_length_a   4.18623100
_cell_length_b   7.34415509
_cell_length_c   8.77053274
_cell_angle_alpha   91.03901000
_cell_angle_beta   90.00000000
_cell_angle_gamma   90.00000000
_symmetry_Int_Tables_number   1
_chemical_formula_structural   Li3Pr4ScPt4
_chemical_formula_sum   'Li3 Pr4 Sc1 Pt4'
_cell_volume   269.59981552
_cell_formula_units_Z   1
loop_
 _symmetry_equiv_pos_site_id
 _symmetry_equiv_pos_as_xyz
  1  'x, y, z'
loop_
 _atom_site_type_symbol
 _atom_site_label
 _atom_site_symmetry_multiplicity
 _atom_site_fract_x
 _atom_site_fract_y
 _atom_site_fract_z
 _atom_site_occupancy
  Li  Li0  1  0.250000  0.129737  0.054523  1
  Li  Li1  1  0.250000  0.640753  0.433808  1
  Li  Li2  1  0.750000  0.874357  0.947139  1
  Pr  Pr3  1  0.250000  0.023112  0.692997  1
  Pr  Pr4  1  0.250000  0.548394  0.828937  1
  Pr  Pr5  1  0.750000  0.955973  0.312311  1
  Pr  Pr6  1  0.750000  0.462493  0.178390  1
  Sc  Sc7  1  0.750000  0.372859  0.556758  1
  Pt  Pt8  1  0.250000  0.249055  0.394113  1
  Pt  Pt9  1  0.250000  0.755427  0.118436  1
  Pt  Pt10  1  0.750000  0.735010  0.614773  1
  Pt  Pt11  1  0.750000  0.252830  0.867814  1
