# generated using pymatgen
data_NdZr8(In2Ru)7
_symmetry_space_group_name_H-M   'P 1'
_cell_length_a   9.72910011
_cell_length_b   9.72911007
_cell_length_c   9.77758700
_cell_angle_alpha   59.83504072
_cell_angle_beta   59.83500663
_cell_angle_gamma   59.65058218
_symmetry_Int_Tables_number   1
_chemical_formula_structural   NdZr8(In2Ru)7
_chemical_formula_sum   'Nd1 Zr8 In14 Ru7'
_cell_volume   651.05957583
_cell_formula_units_Z   1
loop_
 _symmetry_equiv_pos_site_id
 _symmetry_equiv_pos_as_xyz
  1  'x, y, z'
loop_
 _atom_site_type_symbol
 _atom_site_label
 _atom_site_symmetry_multiplicity
 _atom_site_fract_x
 _atom_site_fract_y
 _atom_site_fract_z
 _atom_site_occupancy
  Nd  Nd0  1  0.500000  0.500000  0.500000  1
  Zr  Zr1  1  0.121664  0.637344  0.120496  1
  Zr  Zr2  1  0.362657  0.878336  0.879503  1
  Zr  Zr3  1  0.878710  0.878710  0.879825  1
  Zr  Zr4  1  0.637343  0.121664  0.120497  1
  Zr  Zr5  1  0.878710  0.878710  0.362754  1
  Zr  Zr6  1  0.121290  0.121290  0.120175  1
  Zr  Zr7  1  0.878336  0.362656  0.879504  1
  Zr  Zr8  1  0.121290  0.121290  0.637246  1
  In  In9  1  0.500096  0.846213  0.153565  1
  In  In10  1  0.500096  0.846213  0.500125  1
  In  In11  1  0.499904  0.153787  0.499875  1
  In  In12  1  0.500000  0.500000  0.846684  1
  In  In13  1  0.153787  0.499903  0.499876  1
  In  In14  1  0.845976  0.154023  0.500000  1
  In  In15  1  0.154024  0.845977  0.500000  1
  In  In16  1  0.499904  0.153787  0.846435  1
  In  In17  1  0.153787  0.499903  0.846434  1
  In  In18  1  0.500000  0.500000  0.153316  1
  In  In19  1  0.846213  0.500097  0.500124  1
  In  In20  1  0.846213  0.500097  0.153566  1
  In  In21  1  0.250161  0.250162  0.249838  1
  In  In22  1  0.749839  0.749838  0.750162  1
  Ru  Ru23  1  0.777922  0.777923  0.222078  1
  Ru  Ru24  1  0.000000  0.000000  0.000000  1
  Ru  Ru25  1  0.221462  0.778539  0.222766  1
  Ru  Ru26  1  0.221462  0.778539  0.777234  1
  Ru  Ru27  1  0.222078  0.222077  0.777922  1
  Ru  Ru28  1  0.778538  0.221461  0.777234  1
  Ru  Ru29  1  0.778538  0.221461  0.222766  1
