# generated using pymatgen
data_Yb7Sn2HgN2
_symmetry_space_group_name_H-M   'P 1'
_cell_length_a   12.11544299
_cell_length_b   12.11544153
_cell_length_c   4.84354900
_cell_angle_alpha   90.00000000
_cell_angle_beta   90.00000000
_cell_angle_gamma   156.70089272
_symmetry_Int_Tables_number   1
_chemical_formula_structural   Yb7Sn2HgN2
_chemical_formula_sum   'Yb7 Sn2 Hg1 N2'
_cell_volume   281.20496244
_cell_formula_units_Z   1
loop_
 _symmetry_equiv_pos_site_id
 _symmetry_equiv_pos_as_xyz
  1  'x, y, z'
loop_
 _atom_site_type_symbol
 _atom_site_label
 _atom_site_symmetry_multiplicity
 _atom_site_fract_x
 _atom_site_fract_y
 _atom_site_fract_z
 _atom_site_occupancy
  Yb  Yb0  1  0.903570  0.096430  0.000000  1
  Yb  Yb1  1  0.697826  0.302174  0.000000  1
  Yb  Yb2  1  0.500674  0.499326  0.000000  1
  Yb  Yb3  1  0.300067  0.699933  0.000000  1
  Yb  Yb4  1  0.099370  0.900630  0.000000  1
  Yb  Yb5  1  0.600241  0.399759  0.500000  1
  Yb  Yb6  1  0.401277  0.598723  0.500000  1
  Sn  Sn7  1  0.000221  0.999779  0.500000  1
  Sn  Sn8  1  0.201128  0.798871  0.500000  1
  Hg  Hg9  1  0.798006  0.201993  0.500000  1
  N  N10  1  0.602753  0.397246  0.000000  1
  N  N11  1  0.394865  0.605134  0.000000  1
