# generated using pymatgen
data_Ba4Y3IO8
_symmetry_space_group_name_H-M   'P 1'
_cell_length_a   4.41337600
_cell_length_b   4.41337600
_cell_length_c   17.68255000
_cell_angle_alpha   90.00000000
_cell_angle_beta   90.00000000
_cell_angle_gamma   90.00000000
_symmetry_Int_Tables_number   1
_chemical_formula_structural   Ba4Y3IO8
_chemical_formula_sum   'Ba4 Y3 I1 O8'
_cell_volume   344.41872346
_cell_formula_units_Z   1
loop_
 _symmetry_equiv_pos_site_id
 _symmetry_equiv_pos_as_xyz
  1  'x, y, z'
loop_
 _atom_site_type_symbol
 _atom_site_label
 _atom_site_symmetry_multiplicity
 _atom_site_fract_x
 _atom_site_fract_y
 _atom_site_fract_z
 _atom_site_occupancy
  Ba  Ba0  1  0.500000  0.500000  0.107531  1
  Ba  Ba1  1  0.500000  0.500000  0.892469  1
  Ba  Ba2  1  0.500000  0.500000  0.366094  1
  Ba  Ba3  1  0.500000  0.500000  0.633906  1
  Y  Y4  1  0.000000  0.000000  0.252385  1
  Y  Y5  1  0.000000  0.000000  0.747615  1
  Y  Y6  1  0.000000  0.000000  0.000000  1
  I  I7  1  0.000000  0.000000  0.500000  1
  O  O8  1  0.000000  0.500000  0.287520  1
  O  O9  1  0.000000  0.500000  0.712480  1
  O  O10  1  0.500000  0.000000  0.287520  1
  O  O11  1  0.500000  0.000000  0.712480  1
  O  O12  1  0.000000  0.000000  0.132183  1
  O  O13  1  0.000000  0.000000  0.867817  1
  O  O14  1  0.000000  0.500000  0.000000  1
  O  O15  1  0.500000  0.000000  0.000000  1
