# generated using pymatgen
data_K5Rb9Nb2(In3As5)2
_symmetry_space_group_name_H-M   'P 1'
_cell_length_a   8.53847323
_cell_length_b   9.47006125
_cell_length_c   14.58079826
_cell_angle_alpha   85.16625937
_cell_angle_beta   83.72107914
_cell_angle_gamma   88.67528467
_symmetry_Int_Tables_number   1
_chemical_formula_structural   K5Rb9Nb2(In3As5)2
_chemical_formula_sum   'K5 Rb9 Nb2 In6 As10'
_cell_volume   1167.64573370
_cell_formula_units_Z   1
loop_
 _symmetry_equiv_pos_site_id
 _symmetry_equiv_pos_as_xyz
  1  'x, y, z'
loop_
 _atom_site_type_symbol
 _atom_site_label
 _atom_site_symmetry_multiplicity
 _atom_site_fract_x
 _atom_site_fract_y
 _atom_site_fract_z
 _atom_site_occupancy
  K  K0  1  0.818316  0.807222  0.136208  1
  K  K1  1  0.185699  0.192074  0.861491  1
  K  K2  1  0.271934  0.260631  0.247766  1
  K  K3  1  0.728213  0.736004  0.754872  1
  K  K4  1  0.736141  0.496139  0.976674  1
  Rb  Rb5  1  0.256126  0.496745  0.025631  1
  Rb  Rb6  1  0.689083  0.079432  0.888143  1
  Rb  Rb7  1  0.311922  0.921939  0.110803  1
  Rb  Rb8  1  0.685198  0.659176  0.397509  1
  Rb  Rb9  1  0.318415  0.342270  0.602315  1
  Rb  Rb10  1  0.753429  0.985814  0.534098  1
  Rb  Rb11  1  0.244707  0.013348  0.466249  1
  Rb  Rb12  1  0.825950  0.362273  0.646688  1
  Rb  Rb13  1  0.177727  0.637227  0.353496  1
  Nb  Nb14  1  0.649593  0.397275  0.223355  1
  Nb  Nb15  1  0.351474  0.605502  0.776240  1
  In  In16  1  0.910896  0.275937  0.374377  1
  In  In17  1  0.086458  0.722602  0.626579  1
  In  In18  1  0.947866  0.186857  0.124840  1
  In  In19  1  0.050784  0.812120  0.875951  1
  In  In20  1  0.630489  0.040130  0.294407  1
  In  In21  1  0.367747  0.960617  0.702819  1
  As  As22  1  0.491998  0.604636  0.184369  1
  As  As23  1  0.514700  0.401182  0.815309  1
  As  As24  1  0.937349  0.458641  0.206608  1
  As  As25  1  0.064090  0.540041  0.795554  1
  As  As26  1  0.575739  0.294175  0.389235  1
  As  As27  1  0.422121  0.706661  0.609631  1
  As  As28  1  0.616300  0.197061  0.120124  1
  As  As29  1  0.382525  0.808199  0.877731  1
  As  As30  1  0.974873  0.999194  0.295065  1
  As  As31  1  0.022140  0.998874  0.705861  1
