# generated using pymatgen
data_Na4OsO5
_symmetry_space_group_name_H-M   'P 1'
_cell_length_a   5.70297008
_cell_length_b   5.72276147
_cell_length_c   8.55507772
_cell_angle_alpha   109.08299129
_cell_angle_beta   101.49909884
_cell_angle_gamma   102.07091302
_symmetry_Int_Tables_number   1
_chemical_formula_structural   Na4OsO5
_chemical_formula_sum   'Na8 Os2 O10'
_cell_volume   246.96721462
_cell_formula_units_Z   2
loop_
 _symmetry_equiv_pos_site_id
 _symmetry_equiv_pos_as_xyz
  1  'x, y, z'
loop_
 _atom_site_type_symbol
 _atom_site_label
 _atom_site_symmetry_multiplicity
 _atom_site_fract_x
 _atom_site_fract_y
 _atom_site_fract_z
 _atom_site_occupancy
  Na  Na0  1  0.209049  0.415054  0.902453  1
  Na  Na1  1  0.413699  0.800589  0.295165  1
  Na  Na2  1  0.700908  0.397223  0.399780  1
  Na  Na3  1  0.299092  0.602777  0.600220  1
  Na  Na4  1  0.790951  0.584946  0.097547  1
  Na  Na5  1  0.000000  0.000000  0.500000  1
  Na  Na6  1  0.500000  0.000000  0.000000  1
  Na  Na7  1  0.586301  0.199411  0.704835  1
  Os  Os8  1  0.897445  0.801748  0.797759  1
  Os  Os9  1  0.102555  0.198252  0.202241  1
  O  O10  1  0.601976  0.627761  0.843494  1
  O  O11  1  0.398024  0.372239  0.156506  1
  O  O12  1  0.691469  0.820187  0.598503  1
  O  O13  1  0.308531  0.179813  0.401497  1
  O  O14  1  0.804635  0.020058  0.242824  1
  O  O15  1  0.195365  0.979942  0.757176  1
  O  O16  1  0.886986  0.152677  0.963380  1
  O  O17  1  0.113014  0.847323  0.036620  1
  O  O18  1  0.057139  0.524333  0.315123  1
  O  O19  1  0.942861  0.475667  0.684877  1
