# generated using pymatgen
data_Tb3PaIn2Ir3
_symmetry_space_group_name_H-M   'P 1'
_cell_length_a   7.53355674
_cell_length_b   7.37408084
_cell_length_c   4.20385000
_cell_angle_alpha   90.00000000
_cell_angle_beta   90.00000000
_cell_angle_gamma   119.30218409
_symmetry_Int_Tables_number   1
_chemical_formula_structural   Tb3PaIn2Ir3
_chemical_formula_sum   'Tb3 Pa1 In2 Ir3'
_cell_volume   203.65583728
_cell_formula_units_Z   1
loop_
 _symmetry_equiv_pos_site_id
 _symmetry_equiv_pos_as_xyz
  1  'x, y, z'
loop_
 _atom_site_type_symbol
 _atom_site_label
 _atom_site_symmetry_multiplicity
 _atom_site_fract_x
 _atom_site_fract_y
 _atom_site_fract_z
 _atom_site_occupancy
  Tb  Tb0  1  0.431544  0.406812  0.000000  1
  Tb  Tb1  1  0.568456  0.975268  0.000000  1
  Tb  Tb2  1  0.000000  0.623642  0.000000  1
  Pa  Pa3  1  0.000000  0.265813  0.500000  1
  In  In4  1  0.743164  0.744479  0.500000  1
  In  In5  1  0.256836  0.001315  0.500000  1
  Ir  Ir6  1  0.000000  0.019088  0.000000  1
  Ir  Ir7  1  0.316049  0.639816  0.500000  1
  Ir  Ir8  1  0.683951  0.323766  0.500000  1
