# generated using pymatgen
data_CsNpTaO6
_symmetry_space_group_name_H-M   'P 1'
_cell_length_a   7.66120054
_cell_length_b   7.66120077
_cell_length_c   7.66120109
_cell_angle_alpha   118.41344734
_cell_angle_beta   121.36941227
_cell_angle_gamma   90.20715449
_symmetry_Int_Tables_number   1
_chemical_formula_structural   CsNpTaO6
_chemical_formula_sum   'Cs2 Np2 Ta2 O12'
_cell_volume   318.21798778
_cell_formula_units_Z   2
loop_
 _symmetry_equiv_pos_site_id
 _symmetry_equiv_pos_as_xyz
  1  'x, y, z'
loop_
 _atom_site_type_symbol
 _atom_site_label
 _atom_site_symmetry_multiplicity
 _atom_site_fract_x
 _atom_site_fract_y
 _atom_site_fract_z
 _atom_site_occupancy
  Cs  Cs0  1  0.622584  0.872584  0.750000  1
  Cs  Cs1  1  0.377416  0.127416  0.250000  1
  Np  Np2  1  0.000000  0.500000  0.000000  1
  Np  Np3  1  0.000000  0.000000  0.500000  1
  Ta  Ta4  1  0.500000  0.500000  0.000000  1
  Ta  Ta5  1  0.000000  0.500000  0.500000  1
  O  O6  1  0.072974  0.822974  0.250000  1
  O  O7  1  0.693543  0.443543  0.250000  1
  O  O8  1  0.067068  0.807237  0.625806  1
  O  O9  1  0.681431  0.441263  0.874194  1
  O  O10  1  0.681431  0.807237  0.240168  1
  O  O11  1  0.067068  0.441263  0.259832  1
  O  O12  1  0.927026  0.177026  0.750000  1
  O  O13  1  0.306457  0.556457  0.750000  1
  O  O14  1  0.932932  0.192763  0.374194  1
  O  O15  1  0.318569  0.558737  0.125806  1
  O  O16  1  0.318569  0.192763  0.759832  1
  O  O17  1  0.932932  0.558737  0.740168  1
