# generated using pymatgen
data_LiNd16Hg3Ir4
_symmetry_space_group_name_H-M   'P 1'
_cell_length_a   9.94373754
_cell_length_b   9.94374436
_cell_length_c   9.94372467
_cell_angle_alpha   60.17366100
_cell_angle_beta   60.17389770
_cell_angle_gamma   60.17373886
_symmetry_Int_Tables_number   1
_chemical_formula_structural   LiNd16Hg3Ir4
_chemical_formula_sum   'Li1 Nd16 Hg3 Ir4'
_cell_volume   697.97433017
_cell_formula_units_Z   1
loop_
 _symmetry_equiv_pos_site_id
 _symmetry_equiv_pos_as_xyz
  1  'x, y, z'
loop_
 _atom_site_type_symbol
 _atom_site_label
 _atom_site_symmetry_multiplicity
 _atom_site_fract_x
 _atom_site_fract_y
 _atom_site_fract_z
 _atom_site_occupancy
  Li  Li0  1  0.434602  0.434631  0.434603  1
  Nd  Nd1  1  0.651561  0.044888  0.651559  1
  Nd  Nd2  1  0.807531  0.190706  0.807531  1
  Nd  Nd3  1  0.190706  0.807531  0.807534  1
  Nd  Nd4  1  0.060360  0.438510  0.438535  1
  Nd  Nd5  1  0.060738  0.060694  0.439158  1
  Nd  Nd6  1  0.438532  0.060386  0.438533  1
  Nd  Nd7  1  0.812105  0.188504  0.188480  1
  Nd  Nd8  1  0.439159  0.060694  0.060738  1
  Nd  Nd9  1  0.188502  0.812056  0.188505  1
  Nd  Nd10  1  0.438534  0.438511  0.060360  1
  Nd  Nd11  1  0.807534  0.807530  0.190707  1
  Nd  Nd12  1  0.188478  0.188505  0.812104  1
  Nd  Nd13  1  0.044891  0.651543  0.651537  1
  Nd  Nd14  1  0.649467  0.649467  0.649465  1
  Nd  Nd15  1  0.060700  0.439188  0.060701  1
  Nd  Nd16  1  0.651538  0.651543  0.044892  1
  Hg  Hg17  1  0.412767  0.412785  0.753405  1
  Hg  Hg18  1  0.753405  0.412785  0.412767  1
  Hg  Hg19  1  0.412788  0.753393  0.412788  1
  Ir  Ir20  1  0.857566  0.857542  0.857565  1
  Ir  Ir21  1  0.857094  0.424347  0.857093  1
  Ir  Ir22  1  0.857086  0.857130  0.424358  1
  Ir  Ir23  1  0.424358  0.857130  0.857085  1
