# generated using pymatgen
data_Nd2Lu3Si4
_symmetry_space_group_name_H-M   'P 1'
_cell_length_a   7.67625800
_cell_length_b   7.67625800
_cell_length_c   14.05430400
_cell_angle_alpha   90.00000000
_cell_angle_beta   90.00000000
_cell_angle_gamma   90.00000000
_symmetry_Int_Tables_number   1
_chemical_formula_structural   Nd2Lu3Si4
_chemical_formula_sum   'Nd8 Lu12 Si16'
_cell_volume   828.14897613
_cell_formula_units_Z   4
loop_
 _symmetry_equiv_pos_site_id
 _symmetry_equiv_pos_as_xyz
  1  'x, y, z'
loop_
 _atom_site_type_symbol
 _atom_site_label
 _atom_site_symmetry_multiplicity
 _atom_site_fract_x
 _atom_site_fract_y
 _atom_site_fract_z
 _atom_site_occupancy
  Nd  Nd0  1  0.643580  0.992419  0.460787  1
  Nd  Nd1  1  0.356420  0.007581  0.960787  1
  Nd  Nd2  1  0.992419  0.643580  0.539213  1
  Nd  Nd3  1  0.492419  0.856420  0.210787  1
  Nd  Nd4  1  0.507581  0.143580  0.710787  1
  Nd  Nd5  1  0.856420  0.492419  0.789213  1
  Nd  Nd6  1  0.143580  0.507581  0.289213  1
  Nd  Nd7  1  0.007581  0.356420  0.039213  1
  Lu  Lu8  1  0.493444  0.360785  0.123977  1
  Lu  Lu9  1  0.993444  0.139215  0.626023  1
  Lu  Lu10  1  0.860785  0.006556  0.873977  1
  Lu  Lu11  1  0.139215  0.993444  0.373977  1
  Lu  Lu12  1  0.506556  0.639215  0.623977  1
  Lu  Lu13  1  0.360785  0.493444  0.876023  1
  Lu  Lu14  1  0.639215  0.506556  0.376023  1
  Lu  Lu15  1  0.006556  0.860785  0.126023  1
  Lu  Lu16  1  0.317319  0.317319  0.500000  1
  Lu  Lu17  1  0.182681  0.817319  0.750000  1
  Lu  Lu18  1  0.817319  0.182681  0.250000  1
  Lu  Lu19  1  0.682681  0.682681  0.000000  1
  Si  Si20  1  0.288921  0.937890  0.562174  1
  Si  Si21  1  0.711079  0.062110  0.062174  1
  Si  Si22  1  0.937890  0.288921  0.437826  1
  Si  Si23  1  0.437890  0.211079  0.312174  1
  Si  Si24  1  0.562110  0.788921  0.812174  1
  Si  Si25  1  0.211079  0.437890  0.687826  1
  Si  Si26  1  0.788921  0.562110  0.187826  1
  Si  Si27  1  0.062110  0.711079  0.937826  1
  Si  Si28  1  0.795232  0.849652  0.686812  1
  Si  Si29  1  0.204768  0.150348  0.186812  1
  Si  Si30  1  0.849652  0.795232  0.313188  1
  Si  Si31  1  0.349652  0.704768  0.436812  1
  Si  Si32  1  0.650348  0.295232  0.936812  1
  Si  Si33  1  0.704768  0.349652  0.563188  1
  Si  Si34  1  0.295232  0.650348  0.063188  1
  Si  Si35  1  0.150348  0.204768  0.813188  1
