# generated using pymatgen
data_Sm2TmMg3AgPb2
_symmetry_space_group_name_H-M   'P 1'
_cell_length_a   7.59300588
_cell_length_b   7.59300606
_cell_length_c   4.61224200
_cell_angle_alpha   90.00000000
_cell_angle_beta   90.00000000
_cell_angle_gamma   119.38633503
_symmetry_Int_Tables_number   1
_chemical_formula_structural   Sm2TmMg3AgPb2
_chemical_formula_sum   'Sm2 Tm1 Mg3 Ag1 Pb2'
_cell_volume   231.69820412
_cell_formula_units_Z   1
loop_
 _symmetry_equiv_pos_site_id
 _symmetry_equiv_pos_as_xyz
  1  'x, y, z'
loop_
 _atom_site_type_symbol
 _atom_site_label
 _atom_site_symmetry_multiplicity
 _atom_site_fract_x
 _atom_site_fract_y
 _atom_site_fract_z
 _atom_site_occupancy
  Sm  Sm0  1  0.584003  0.998325  0.000000  1
  Sm  Sm1  1  0.998325  0.584003  0.000000  1
  Tm  Tm2  1  0.411584  0.411584  0.000000  1
  Mg  Mg3  1  0.233055  0.000233  0.500000  1
  Mg  Mg4  1  0.000233  0.233055  0.500000  1
  Mg  Mg5  1  0.767647  0.767647  0.500000  1
  Ag  Ag6  1  0.007528  0.007528  0.000000  1
  Pb  Pb7  1  0.335479  0.662147  0.500000  1
  Pb  Pb8  1  0.662147  0.335479  0.500000  1
