# generated using pymatgen
data_Pr8ErSc10Si16Au
_symmetry_space_group_name_H-M   'P 1'
_cell_length_a   7.20169546
_cell_length_b   7.58759094
_cell_length_c   14.36069564
_cell_angle_alpha   89.95393854
_cell_angle_beta   90.11774922
_cell_angle_gamma   90.36081055
_symmetry_Int_Tables_number   1
_chemical_formula_structural   Pr8ErSc10Si16Au
_chemical_formula_sum   'Pr8 Er1 Sc10 Si16 Au1'
_cell_volume   784.70148667
_cell_formula_units_Z   1
loop_
 _symmetry_equiv_pos_site_id
 _symmetry_equiv_pos_as_xyz
  1  'x, y, z'
loop_
 _atom_site_type_symbol
 _atom_site_label
 _atom_site_symmetry_multiplicity
 _atom_site_fract_x
 _atom_site_fract_y
 _atom_site_fract_z
 _atom_site_occupancy
  Pr  Pr0  1  0.013694  0.173336  0.401182  1
  Pr  Pr1  1  0.512630  0.330315  0.399769  1
  Pr  Pr2  1  0.492429  0.682767  0.899044  1
  Pr  Pr3  1  0.491998  0.685677  0.602840  1
  Pr  Pr4  1  0.975568  0.826731  0.604317  1
  Pr  Pr5  1  0.978872  0.826453  0.899081  1
  Pr  Pr6  1  0.511583  0.329984  0.097719  1
  Pr  Pr7  1  0.012866  0.173151  0.097802  1
  Er  Er8  1  0.334785  0.171227  0.622955  1
  Sc  Sc9  1  0.674134  0.820107  0.371459  1
  Sc  Sc10  1  0.172074  0.676608  0.374799  1
  Sc  Sc11  1  0.826994  0.314670  0.876492  1
  Sc  Sc12  1  0.826414  0.312161  0.625751  1
  Sc  Sc13  1  0.841644  0.502649  0.249385  1
  Sc  Sc14  1  0.341689  0.997374  0.248943  1
  Sc  Sc15  1  0.332388  0.172391  0.876280  1
  Sc  Sc16  1  0.171797  0.677029  0.123825  1
  Sc  Sc17  1  0.672559  0.821545  0.125748  1
  Sc  Sc18  1  0.157339  0.494894  0.751875  1
  Si  Si19  1  0.275698  0.879126  0.752416  1
  Si  Si20  1  0.467220  0.623141  0.248773  1
  Si  Si21  1  0.037186  0.121003  0.753153  1
  Si  Si22  1  0.531939  0.388081  0.752216  1
  Si  Si23  1  0.149064  0.470160  0.539982  1
  Si  Si24  1  0.968903  0.873503  0.249168  1
  Si  Si25  1  0.711417  0.116739  0.249075  1
  Si  Si26  1  0.850613  0.536061  0.038282  1
  Si  Si27  1  0.348952  0.963211  0.039482  1
  Si  Si28  1  0.153742  0.465326  0.959779  1
  Si  Si29  1  0.661989  0.041218  0.524357  1
  Si  Si30  1  0.354350  0.960379  0.455242  1
  Si  Si31  1  0.849745  0.537233  0.461969  1
  Si  Si32  1  0.792702  0.590161  0.751085  1
  Si  Si33  1  0.210288  0.386798  0.249069  1
  Si  Si34  1  0.653084  0.041626  0.969552  1
  Au  Au35  1  0.641648  0.017168  0.757135  1
