# generated using pymatgen
data_Eu6Fe(ReC4)3
_symmetry_space_group_name_H-M   'P 1'
_cell_length_a   8.47465000
_cell_length_b   8.47464920
_cell_length_c   5.28156900
_cell_angle_alpha   90.00000000
_cell_angle_beta   90.00000000
_cell_angle_gamma   119.99997969
_symmetry_Int_Tables_number   1
_chemical_formula_structural   Eu6Fe(ReC4)3
_chemical_formula_sum   'Eu6 Fe1 Re3 C12'
_cell_volume   328.50136593
_cell_formula_units_Z   1
loop_
 _symmetry_equiv_pos_site_id
 _symmetry_equiv_pos_as_xyz
  1  'x, y, z'
loop_
 _atom_site_type_symbol
 _atom_site_label
 _atom_site_symmetry_multiplicity
 _atom_site_fract_x
 _atom_site_fract_y
 _atom_site_fract_z
 _atom_site_occupancy
  Eu  Eu0  1  0.616801  0.698581  0.750000  1
  Eu  Eu1  1  0.924042  0.607287  0.250000  1
  Eu  Eu2  1  0.683246  0.075958  0.250000  1
  Eu  Eu3  1  0.301419  0.918220  0.750000  1
  Eu  Eu4  1  0.081780  0.383199  0.750000  1
  Eu  Eu5  1  0.392713  0.316754  0.250000  1
  Fe  Fe6  1  0.333333  0.666667  0.250000  1
  Re  Re7  1  0.000000  0.000000  0.490019  1
  Re  Re8  1  0.000000  0.000000  0.009981  1
  Re  Re9  1  0.666667  0.333333  0.750000  1
  C  C10  1  0.949545  0.776885  0.750000  1
  C  C11  1  0.189420  0.946562  0.250000  1
  C  C12  1  0.757142  0.810580  0.250000  1
  C  C13  1  0.223115  0.172660  0.750000  1
  C  C14  1  0.827340  0.050455  0.750000  1
  C  C15  1  0.053438  0.242858  0.250000  1
  C  C16  1  0.855353  0.588780  0.750000  1
  C  C17  1  0.275458  0.848316  0.250000  1
  C  C18  1  0.572857  0.724542  0.250000  1
  C  C19  1  0.411220  0.266570  0.750000  1
  C  C20  1  0.151684  0.427143  0.250000  1
  C  C21  1  0.733430  0.144647  0.750000  1
