# generated using pymatgen
data_Tb3Ho(SiPd14)2
_symmetry_space_group_name_H-M   'P 1'
_cell_length_a   8.93470000
_cell_length_b   8.93470000
_cell_length_c   7.09727900
_cell_angle_alpha   90.00000000
_cell_angle_beta   90.00000000
_cell_angle_gamma   90.00000000
_symmetry_Int_Tables_number   1
_chemical_formula_structural   Tb3Ho(SiPd14)2
_chemical_formula_sum   'Tb3 Ho1 Si2 Pd28'
_cell_volume   566.56772070
_cell_formula_units_Z   1
loop_
 _symmetry_equiv_pos_site_id
 _symmetry_equiv_pos_as_xyz
  1  'x, y, z'
loop_
 _atom_site_type_symbol
 _atom_site_label
 _atom_site_symmetry_multiplicity
 _atom_site_fract_x
 _atom_site_fract_y
 _atom_site_fract_z
 _atom_site_occupancy
  Tb  Tb0  1  0.500000  0.000000  0.935333  1
  Tb  Tb1  1  0.000000  0.500000  0.064667  1
  Tb  Tb2  1  0.000000  0.000000  0.500000  1
  Ho  Ho3  1  0.500000  0.500000  0.500000  1
  Si  Si4  1  0.500000  0.000000  0.448518  1
  Si  Si5  1  0.000000  0.500000  0.551482  1
  Pd  Pd6  1  0.334369  0.834334  0.616270  1
  Pd  Pd7  1  0.334369  0.165666  0.616270  1
  Pd  Pd8  1  0.665631  0.834334  0.616270  1
  Pd  Pd9  1  0.665631  0.165666  0.616270  1
  Pd  Pd10  1  0.165666  0.665631  0.383730  1
  Pd  Pd11  1  0.165666  0.334369  0.383730  1
  Pd  Pd12  1  0.834334  0.665631  0.383730  1
  Pd  Pd13  1  0.834334  0.334369  0.383730  1
  Pd  Pd14  1  0.500000  0.770060  0.256176  1
  Pd  Pd15  1  0.500000  0.229940  0.256176  1
  Pd  Pd16  1  0.270152  0.000000  0.256090  1
  Pd  Pd17  1  0.729848  0.000000  0.256090  1
  Pd  Pd18  1  0.000000  0.729848  0.743910  1
  Pd  Pd19  1  0.000000  0.270152  0.743910  1
  Pd  Pd20  1  0.229940  0.500000  0.743824  1
  Pd  Pd21  1  0.770060  0.500000  0.743824  1
  Pd  Pd22  1  0.500000  0.348996  0.852888  1
  Pd  Pd23  1  0.500000  0.651004  0.852888  1
  Pd  Pd24  1  0.848947  0.000000  0.853031  1
  Pd  Pd25  1  0.151053  0.000000  0.853031  1
  Pd  Pd26  1  0.000000  0.151053  0.146969  1
  Pd  Pd27  1  0.000000  0.848947  0.146969  1
  Pd  Pd28  1  0.651004  0.500000  0.147112  1
  Pd  Pd29  1  0.348996  0.500000  0.147112  1
  Pd  Pd30  1  0.249998  0.750002  0.000000  1
  Pd  Pd31  1  0.249998  0.249998  0.000000  1
  Pd  Pd32  1  0.750002  0.750002  0.000000  1
  Pd  Pd33  1  0.750002  0.249998  0.000000  1
