# generated using pymatgen
data_YbPa5(Sb4Pt3)2
_symmetry_space_group_name_H-M   'P 1'
_cell_length_a   8.47601272
_cell_length_b   8.47601223
_cell_length_c   8.47601307
_cell_angle_alpha   109.47848343
_cell_angle_beta   109.45670804
_cell_angle_gamma   109.47847360
_symmetry_Int_Tables_number   1
_chemical_formula_structural   YbPa5(Sb4Pt3)2
_chemical_formula_sum   'Yb1 Pa5 Sb8 Pt6'
_cell_volume   468.76250714
_cell_formula_units_Z   1
loop_
 _symmetry_equiv_pos_site_id
 _symmetry_equiv_pos_as_xyz
  1  'x, y, z'
loop_
 _atom_site_type_symbol
 _atom_site_label
 _atom_site_symmetry_multiplicity
 _atom_site_fract_x
 _atom_site_fract_y
 _atom_site_fract_z
 _atom_site_occupancy
  Yb  Yb0  1  0.875000  0.250000  0.125000  1
  Pa  Pa1  1  0.625000  0.750000  0.375000  1
  Pa  Pa2  1  0.249094  0.123983  0.875969  1
  Pa  Pa3  1  0.751986  0.376017  0.625112  1
  Pa  Pa4  1  0.124031  0.873126  0.248014  1
  Pa  Pa5  1  0.374888  0.626874  0.750906  1
  Sb  Sb6  1  0.677862  0.498665  0.998613  1
  Sb  Sb7  1  0.499949  0.001335  0.679197  1
  Sb  Sb8  1  0.999905  0.673967  0.496268  1
  Sb  Sb9  1  0.822301  0.826033  0.825938  1
  Sb  Sb10  1  0.503732  0.003637  0.177699  1
  Sb  Sb11  1  0.174062  0.496363  0.000095  1
  Sb  Sb12  1  0.001387  0.179248  0.500051  1
  Sb  Sb13  1  0.320803  0.320752  0.322138  1
  Pt  Pt14  1  0.375000  0.250000  0.625000  1
  Pt  Pt15  1  0.125000  0.750000  0.875000  1
  Pt  Pt16  1  0.263373  0.632629  0.380488  1
  Pt  Pt17  1  0.747859  0.867371  0.130744  1
  Pt  Pt18  1  0.619512  0.382885  0.252141  1
  Pt  Pt19  1  0.869256  0.117115  0.736627  1
