# generated using pymatgen
data_LiZr2BIr5
_symmetry_space_group_name_H-M   'P 1'
_cell_length_a   5.71197718
_cell_length_b   5.71197735
_cell_length_c   5.78138000
_cell_angle_alpha   59.59723673
_cell_angle_beta   59.59723574
_cell_angle_gamma   60.80550223
_symmetry_Int_Tables_number   1
_chemical_formula_structural   LiZr2BIr5
_chemical_formula_sum   'Li1 Zr2 B1 Ir5'
_cell_volume   133.33972050
_cell_formula_units_Z   1
loop_
 _symmetry_equiv_pos_site_id
 _symmetry_equiv_pos_as_xyz
  1  'x, y, z'
loop_
 _atom_site_type_symbol
 _atom_site_label
 _atom_site_symmetry_multiplicity
 _atom_site_fract_x
 _atom_site_fract_y
 _atom_site_fract_z
 _atom_site_occupancy
  Li  Li0  1  0.728450  0.728450  0.271550  1
  Zr  Zr1  1  0.749179  0.749179  0.750821  1
  Zr  Zr2  1  0.249179  0.249179  0.250821  1
  B  B3  1  0.001745  0.001745  0.998255  1
  Ir  Ir4  1  0.257475  0.745975  0.254025  1
  Ir  Ir5  1  0.745975  0.257475  0.254025  1
  Ir  Ir6  1  0.264547  0.264547  0.735453  1
  Ir  Ir7  1  0.745975  0.257475  0.742525  1
  Ir  Ir8  1  0.257475  0.745975  0.742525  1
