# generated using pymatgen
data_Dy6InCoRu
_symmetry_space_group_name_H-M   'P 1'
_cell_length_a   8.41590148
_cell_length_b   8.41590131
_cell_length_c   8.41590115
_cell_angle_alpha   112.66299795
_cell_angle_beta   110.30272268
_cell_angle_gamma   105.52802191
_symmetry_Int_Tables_number   1
_chemical_formula_structural   Dy6InCoRu
_chemical_formula_sum   'Dy12 In2 Co2 Ru2'
_cell_volume   457.03529467
_cell_formula_units_Z   2
loop_
 _symmetry_equiv_pos_site_id
 _symmetry_equiv_pos_as_xyz
  1  'x, y, z'
loop_
 _atom_site_type_symbol
 _atom_site_label
 _atom_site_symmetry_multiplicity
 _atom_site_fract_x
 _atom_site_fract_y
 _atom_site_fract_z
 _atom_site_occupancy
  Dy  Dy0  1  0.442972  0.240672  0.202301  1
  Dy  Dy1  1  0.557028  0.759328  0.797699  1
  Dy  Dy2  1  0.038371  0.240672  0.797699  1
  Dy  Dy3  1  0.961629  0.759328  0.202301  1
  Dy  Dy4  1  0.184675  0.285793  0.470468  1
  Dy  Dy5  1  0.815325  0.714207  0.529532  1
  Dy  Dy6  1  0.184675  0.714207  0.898882  1
  Dy  Dy7  1  0.815325  0.285793  0.101118  1
  Dy  Dy8  1  0.321401  0.635754  0.314353  1
  Dy  Dy9  1  0.678599  0.364246  0.685647  1
  Dy  Dy10  1  0.321401  0.007047  0.685647  1
  Dy  Dy11  1  0.678599  0.992953  0.314353  1
  In  In12  1  0.500000  0.500000  0.000000  1
  In  In13  1  0.000000  0.000000  0.000000  1
  Co  Co14  1  0.111138  0.611138  0.500000  1
  Co  Co15  1  0.888862  0.388862  0.500000  1
  Ru  Ru16  1  0.331454  0.000000  0.331454  1
  Ru  Ru17  1  0.668546  0.000000  0.668546  1
