# generated using pymatgen
data_Pr8Nd9Tm3Sn16
_symmetry_space_group_name_H-M   'P 1'
_cell_length_a   8.26823649
_cell_length_b   8.41996395
_cell_length_c   15.97680400
_cell_angle_alpha   90.00000000
_cell_angle_beta   90.00000000
_cell_angle_gamma   90.05397491
_symmetry_Int_Tables_number   1
_chemical_formula_structural   Pr8Nd9Tm3Sn16
_chemical_formula_sum   'Pr8 Nd9 Tm3 Sn16'
_cell_volume   1112.27669228
_cell_formula_units_Z   1
loop_
 _symmetry_equiv_pos_site_id
 _symmetry_equiv_pos_as_xyz
  1  'x, y, z'
loop_
 _atom_site_type_symbol
 _atom_site_label
 _atom_site_symmetry_multiplicity
 _atom_site_fract_x
 _atom_site_fract_y
 _atom_site_fract_z
 _atom_site_occupancy
  Pr  Pr0  1  0.518312  0.318324  0.900876  1
  Pr  Pr1  1  0.018525  0.181609  0.599508  1
  Pr  Pr2  1  0.481959  0.680857  0.401185  1
  Pr  Pr3  1  0.980934  0.817599  0.098602  1
  Pr  Pr4  1  0.481959  0.680857  0.098815  1
  Pr  Pr5  1  0.980934  0.817599  0.401398  1
  Pr  Pr6  1  0.518312  0.318324  0.599124  1
  Pr  Pr7  1  0.018525  0.181609  0.900492  1
  Nd  Nd8  1  0.367901  0.836794  0.878526  1
  Nd  Nd9  1  0.868156  0.663228  0.620544  1
  Nd  Nd10  1  0.632858  0.164138  0.379685  1
  Nd  Nd11  1  0.130987  0.336874  0.119949  1
  Nd  Nd12  1  0.632858  0.164138  0.120315  1
  Nd  Nd13  1  0.130987  0.336874  0.380051  1
  Nd  Nd14  1  0.367901  0.836794  0.621474  1
  Nd  Nd15  1  0.868156  0.663228  0.879456  1
  Nd  Nd16  1  0.303035  0.001757  0.250000  1
  Tm  Tm17  1  0.199573  0.501541  0.750000  1
  Tm  Tm18  1  0.699468  0.998133  0.750000  1
  Tm  Tm19  1  0.800636  0.497842  0.250000  1
  Sn  Sn20  1  0.291704  0.035272  0.041952  1
  Sn  Sn21  1  0.791711  0.466397  0.455665  1
  Sn  Sn22  1  0.708136  0.966653  0.544727  1
  Sn  Sn23  1  0.208550  0.533815  0.955190  1
  Sn  Sn24  1  0.708136  0.966653  0.955273  1
  Sn  Sn25  1  0.208550  0.533815  0.544810  1
  Sn  Sn26  1  0.291704  0.035272  0.458048  1
  Sn  Sn27  1  0.791711  0.466397  0.044335  1
  Sn  Sn28  1  0.564538  0.617248  0.750000  1
  Sn  Sn29  1  0.064098  0.882622  0.750000  1
  Sn  Sn30  1  0.436903  0.385432  0.250000  1
  Sn  Sn31  1  0.931204  0.118194  0.250000  1
  Sn  Sn32  1  0.323802  0.145976  0.750000  1
  Sn  Sn33  1  0.823182  0.354750  0.750000  1
  Sn  Sn34  1  0.678995  0.853089  0.250000  1
  Sn  Sn35  1  0.175098  0.640293  0.250000  1
