# generated using pymatgen
data_U7Pa(Co5B2)4
_symmetry_space_group_name_H-M   'P 1'
_cell_length_a   4.98220800
_cell_length_b   4.98220826
_cell_length_c   19.93904400
_cell_angle_alpha   90.00000000
_cell_angle_beta   90.00000000
_cell_angle_gamma   119.99999825
_symmetry_Int_Tables_number   1
_chemical_formula_structural   U7Pa(Co5B2)4
_chemical_formula_sum   'U7 Pa1 Co20 B8'
_cell_volume   428.62618977
_cell_formula_units_Z   1
loop_
 _symmetry_equiv_pos_site_id
 _symmetry_equiv_pos_as_xyz
  1  'x, y, z'
loop_
 _atom_site_type_symbol
 _atom_site_label
 _atom_site_symmetry_multiplicity
 _atom_site_fract_x
 _atom_site_fract_y
 _atom_site_fract_z
 _atom_site_occupancy
  U  U0  1  0.666667  0.333333  0.827467  1
  U  U1  1  0.666667  0.333333  0.979288  1
  U  U2  1  0.333333  0.666667  0.481100  1
  U  U3  1  0.333333  0.666667  0.020345  1
  U  U4  1  0.333333  0.666667  0.170538  1
  U  U5  1  0.666667  0.333333  0.520401  1
  U  U6  1  0.666667  0.333333  0.672167  1
  Pa  Pa7  1  0.333333  0.666667  0.327652  1
  Co  Co8  1  0.165217  0.330433  0.896832  1
  Co  Co9  1  0.165166  0.834834  0.603234  1
  Co  Co10  1  0.834854  0.165146  0.397633  1
  Co  Co11  1  0.333954  0.166978  0.249496  1
  Co  Co12  1  0.330291  0.165146  0.397633  1
  Co  Co13  1  0.834914  0.669830  0.102919  1
  Co  Co14  1  0.834854  0.669709  0.397633  1
  Co  Co15  1  0.833022  0.666046  0.249496  1
  Co  Co16  1  0.669669  0.834834  0.603234  1
  Co  Co17  1  0.666131  0.833065  0.750016  1
  Co  Co18  1  0.834914  0.165086  0.102919  1
  Co  Co19  1  0.669567  0.834783  0.896832  1
  Co  Co20  1  0.000000  0.000000  0.999903  1
  Co  Co21  1  0.166935  0.333869  0.750016  1
  Co  Co22  1  0.166935  0.833065  0.750016  1
  Co  Co23  1  0.833022  0.166978  0.249496  1
  Co  Co24  1  0.330170  0.165086  0.102919  1
  Co  Co25  1  0.000000  0.000000  0.500201  1
  Co  Co26  1  0.165217  0.834783  0.896832  1
  Co  Co27  1  0.165166  0.330331  0.603234  1
  B  B28  1  0.333333  0.666667  0.825352  1
  B  B29  1  0.333333  0.666667  0.674680  1
  B  B30  1  0.666667  0.333333  0.325600  1
  B  B31  1  0.000000  0.000000  0.824390  1
  B  B32  1  0.666667  0.333333  0.174530  1
  B  B33  1  0.000000  0.000000  0.675765  1
  B  B34  1  0.000000  0.000000  0.324647  1
  B  B35  1  0.000000  0.000000  0.175588  1
