# generated using pymatgen
data_La8Zn3CoSi12
_symmetry_space_group_name_H-M   'P 1'
_cell_length_a   8.21318400
_cell_length_b   8.21318487
_cell_length_c   8.87456800
_cell_angle_alpha   90.00000000
_cell_angle_beta   90.00000000
_cell_angle_gamma   119.99999648
_symmetry_Int_Tables_number   1
_chemical_formula_structural   La8Zn3CoSi12
_chemical_formula_sum   'La8 Zn3 Co1 Si12'
_cell_volume   518.44300560
_cell_formula_units_Z   1
loop_
 _symmetry_equiv_pos_site_id
 _symmetry_equiv_pos_as_xyz
  1  'x, y, z'
loop_
 _atom_site_type_symbol
 _atom_site_label
 _atom_site_symmetry_multiplicity
 _atom_site_fract_x
 _atom_site_fract_y
 _atom_site_fract_z
 _atom_site_occupancy
  La  La0  1  0.000000  0.000000  0.251253  1
  La  La1  1  0.000000  0.000000  0.748089  1
  La  La2  1  0.497988  0.502012  0.253657  1
  La  La3  1  0.497988  0.995977  0.253657  1
  La  La4  1  0.004023  0.502012  0.253657  1
  La  La5  1  0.497284  0.502716  0.746596  1
  La  La6  1  0.497284  0.994567  0.746596  1
  La  La7  1  0.005433  0.502716  0.746596  1
  Zn  Zn8  1  0.666667  0.333333  0.502674  1
  Zn  Zn9  1  0.666667  0.333333  0.996416  1
  Zn  Zn10  1  0.333333  0.666667  0.003943  1
  Co  Co11  1  0.333333  0.666667  0.496989  1
  Si  Si12  1  0.174285  0.825715  0.500463  1
  Si  Si13  1  0.174285  0.348570  0.500463  1
  Si  Si14  1  0.651430  0.825715  0.500463  1
  Si  Si15  1  0.838121  0.161879  0.499655  1
  Si  Si16  1  0.838121  0.676243  0.499655  1
  Si  Si17  1  0.323757  0.161879  0.499655  1
  Si  Si18  1  0.833638  0.166362  0.000712  1
  Si  Si19  1  0.833638  0.667275  0.000712  1
  Si  Si20  1  0.332725  0.166362  0.000712  1
  Si  Si21  1  0.166028  0.833972  0.999128  1
  Si  Si22  1  0.166028  0.332057  0.999128  1
  Si  Si23  1  0.667943  0.833972  0.999128  1
