# generated using pymatgen
data_ScTa(SiTc)2
_symmetry_space_group_name_H-M   'P 1'
_cell_length_a   7.65146275
_cell_length_b   7.67595132
_cell_length_c   7.65146210
_cell_angle_alpha   126.18940558
_cell_angle_beta   128.30101657
_cell_angle_gamma   77.79193180
_symmetry_Int_Tables_number   1
_chemical_formula_structural   ScTa(SiTc)2
_chemical_formula_sum   'Sc3 Ta3 Si6 Tc6'
_cell_volume   276.02623747
_cell_formula_units_Z   3
loop_
 _symmetry_equiv_pos_site_id
 _symmetry_equiv_pos_as_xyz
  1  'x, y, z'
loop_
 _atom_site_type_symbol
 _atom_site_label
 _atom_site_symmetry_multiplicity
 _atom_site_fract_x
 _atom_site_fract_y
 _atom_site_fract_z
 _atom_site_occupancy
  Sc  Sc0  1  0.549151  0.092394  0.043243  1
  Sc  Sc1  1  0.451756  0.495882  0.544126  1
  Sc  Sc2  1  0.949901  0.494650  0.044748  1
  Ta  Ta3  1  0.048992  0.092518  0.543527  1
  Ta  Ta4  1  0.750457  0.903471  0.653014  1
  Ta  Ta5  1  0.250619  0.896984  0.146366  1
  Si  Si6  1  0.748680  0.496630  0.247950  1
  Si  Si7  1  0.251633  0.498312  0.746679  1
  Si  Si8  1  0.331176  0.829365  0.493206  1
  Si  Si9  1  0.668031  0.162922  0.497682  1
  Si  Si10  1  0.836158  0.829365  0.998189  1
  Si  Si11  1  0.165239  0.162922  0.994891  1
  Tc  Tc12  1  0.495720  0.234399  0.733896  1
  Tc  Tc13  1  0.000504  0.234399  0.238679  1
  Tc  Tc14  1  0.122253  0.758330  0.626242  1
  Tc  Tc15  1  0.878307  0.500662  0.631328  1
  Tc  Tc16  1  0.632089  0.758330  0.136077  1
  Tc  Tc17  1  0.369335  0.500662  0.122356  1
