# generated using pymatgen
data_Tm10CoHg3
_symmetry_space_group_name_H-M   'P 1'
_cell_length_a   9.48093800
_cell_length_b   9.48093823
_cell_length_c   9.41157600
_cell_angle_alpha   90.00000000
_cell_angle_beta   90.00000000
_cell_angle_gamma   119.99999223
_symmetry_Int_Tables_number   1
_chemical_formula_structural   Tm10CoHg3
_chemical_formula_sum   'Tm20 Co2 Hg6'
_cell_volume   732.64846294
_cell_formula_units_Z   2
loop_
 _symmetry_equiv_pos_site_id
 _symmetry_equiv_pos_as_xyz
  1  'x, y, z'
loop_
 _atom_site_type_symbol
 _atom_site_label
 _atom_site_symmetry_multiplicity
 _atom_site_fract_x
 _atom_site_fract_y
 _atom_site_fract_z
 _atom_site_occupancy
  Tm  Tm0  1  0.000000  0.000000  0.500000  1
  Tm  Tm1  1  0.000000  0.000000  0.000000  1
  Tm  Tm2  1  0.542194  0.457806  0.250000  1
  Tm  Tm3  1  0.542194  0.084387  0.250000  1
  Tm  Tm4  1  0.915613  0.457806  0.250000  1
  Tm  Tm5  1  0.457806  0.542194  0.750000  1
  Tm  Tm6  1  0.457806  0.915613  0.750000  1
  Tm  Tm7  1  0.084387  0.542194  0.750000  1
  Tm  Tm8  1  0.211067  0.788933  0.435537  1
  Tm  Tm9  1  0.211067  0.422135  0.435537  1
  Tm  Tm10  1  0.577865  0.788933  0.435537  1
  Tm  Tm11  1  0.788933  0.211067  0.564463  1
  Tm  Tm12  1  0.788933  0.577865  0.564463  1
  Tm  Tm13  1  0.422135  0.211067  0.564463  1
  Tm  Tm14  1  0.788933  0.211067  0.935537  1
  Tm  Tm15  1  0.788933  0.577865  0.935537  1
  Tm  Tm16  1  0.422135  0.211067  0.935537  1
  Tm  Tm17  1  0.211067  0.788933  0.064463  1
  Tm  Tm18  1  0.211067  0.422135  0.064463  1
  Tm  Tm19  1  0.577865  0.788933  0.064463  1
  Co  Co20  1  0.333333  0.666667  0.250000  1
  Co  Co21  1  0.666667  0.333333  0.750000  1
  Hg  Hg22  1  0.880660  0.119340  0.250000  1
  Hg  Hg23  1  0.880660  0.761319  0.250000  1
  Hg  Hg24  1  0.238681  0.119340  0.250000  1
  Hg  Hg25  1  0.119340  0.880660  0.750000  1
  Hg  Hg26  1  0.119340  0.238681  0.750000  1
  Hg  Hg27  1  0.761319  0.880660  0.750000  1
