# generated using pymatgen
data_Hf4ScTc24
_symmetry_space_group_name_H-M   'P 1'
_cell_length_a   8.40428427
_cell_length_b   8.40443703
_cell_length_c   8.40434101
_cell_angle_alpha   109.47591055
_cell_angle_beta   109.47197440
_cell_angle_gamma   109.46474978
_symmetry_Int_Tables_number   1
_chemical_formula_structural   Hf4ScTc24
_chemical_formula_sum   'Hf4 Sc1 Tc24'
_cell_volume   456.97941592
_cell_formula_units_Z   1
loop_
 _symmetry_equiv_pos_site_id
 _symmetry_equiv_pos_as_xyz
  1  'x, y, z'
loop_
 _atom_site_type_symbol
 _atom_site_label
 _atom_site_symmetry_multiplicity
 _atom_site_fract_x
 _atom_site_fract_y
 _atom_site_fract_z
 _atom_site_occupancy
  Hf  Hf0  1  0.373281  0.373262  0.373250  1
  Hf  Hf1  1  0.999972  0.626731  0.999992  1
  Hf  Hf2  1  0.626732  0.999975  0.999968  1
  Hf  Hf3  1  0.999978  0.999987  0.626749  1
  Sc  Sc4  1  0.999969  0.999973  0.999964  1
  Tc  Tc5  1  0.999999  0.394029  0.674443  1
  Tc  Tc6  1  0.280389  0.605965  0.605975  1
  Tc  Tc7  1  0.719639  0.325604  0.325581  1
  Tc  Tc8  1  0.325591  0.719621  0.325578  1
  Tc  Tc9  1  0.674434  0.999978  0.394035  1
  Tc  Tc10  1  0.999988  0.674430  0.394027  1
  Tc  Tc11  1  0.605928  0.605933  0.280410  1
  Tc  Tc12  1  0.806062  0.806067  0.180576  1
  Tc  Tc13  1  0.374526  0.193931  0.000010  1
  Tc  Tc14  1  0.193912  0.374517  0.000016  1
  Tc  Tc15  1  0.625509  0.819389  0.625497  1
  Tc  Tc16  1  0.374543  0.000006  0.193899  1
  Tc  Tc17  1  0.999992  0.374497  0.193878  1
  Tc  Tc18  1  0.819357  0.625486  0.625482  1
  Tc  Tc19  1  0.180602  0.806097  0.806097  1
  Tc  Tc20  1  0.806076  0.180589  0.806087  1
  Tc  Tc21  1  0.193893  0.000009  0.374523  1
  Tc  Tc22  1  0.999997  0.193902  0.374503  1
  Tc  Tc23  1  0.625494  0.625486  0.819388  1
  Tc  Tc24  1  0.394070  0.000032  0.674460  1
  Tc  Tc25  1  0.605946  0.280402  0.605970  1
  Tc  Tc26  1  0.674464  0.394057  0.999993  1
  Tc  Tc27  1  0.394096  0.674496  0.000020  1
  Tc  Tc28  1  0.325564  0.325550  0.719628  1
