# generated using pymatgen
data_Er6Al24Ir5OsRu2
_symmetry_space_group_name_H-M   'P 1'
_cell_length_a   8.81838917
_cell_length_b   8.81838731
_cell_length_c   9.48831176
_cell_angle_alpha   90.19716347
_cell_angle_beta   89.80283696
_cell_angle_gamma   120.17227389
_symmetry_Int_Tables_number   1
_chemical_formula_structural   Er6Al24Ir5OsRu2
_chemical_formula_sum   'Er6 Al24 Ir5 Os1 Ru2'
_cell_volume   637.87863087
_cell_formula_units_Z   1
loop_
 _symmetry_equiv_pos_site_id
 _symmetry_equiv_pos_as_xyz
  1  'x, y, z'
loop_
 _atom_site_type_symbol
 _atom_site_label
 _atom_site_symmetry_multiplicity
 _atom_site_fract_x
 _atom_site_fract_y
 _atom_site_fract_z
 _atom_site_occupancy
  Er  Er0  1  0.197402  0.390532  0.248014  1
  Er  Er1  1  0.802598  0.609468  0.751986  1
  Er  Er2  1  0.609468  0.802598  0.248014  1
  Er  Er3  1  0.390532  0.197402  0.751986  1
  Er  Er4  1  0.194930  0.805070  0.249633  1
  Er  Er5  1  0.805070  0.194930  0.750367  1
  Al  Al6  1  0.333874  0.666126  0.024729  1
  Al  Al7  1  0.666126  0.333874  0.975271  1
  Al  Al8  1  0.666599  0.333401  0.526177  1
  Al  Al9  1  0.333401  0.666599  0.473823  1
  Al  Al10  1  0.162097  0.325015  0.577010  1
  Al  Al11  1  0.837903  0.674985  0.422990  1
  Al  Al12  1  0.674985  0.837903  0.577010  1
  Al  Al13  1  0.836379  0.674092  0.077168  1
  Al  Al14  1  0.325015  0.162097  0.422990  1
  Al  Al15  1  0.163621  0.325908  0.922832  1
  Al  Al16  1  0.162091  0.837909  0.577963  1
  Al  Al17  1  0.325908  0.163621  0.077168  1
  Al  Al18  1  0.837909  0.162091  0.422037  1
  Al  Al19  1  0.674092  0.836379  0.922832  1
  Al  Al20  1  0.837742  0.162258  0.077309  1
  Al  Al21  1  0.162258  0.837742  0.922691  1
  Al  Al22  1  0.562395  0.123737  0.250352  1
  Al  Al23  1  0.437605  0.876263  0.749648  1
  Al  Al24  1  0.876263  0.437605  0.250352  1
  Al  Al25  1  0.123737  0.562395  0.749648  1
  Al  Al26  1  0.562396  0.437604  0.249247  1
  Al  Al27  1  0.437604  0.562396  0.750753  1
  Al  Al28  1  0.000377  0.999623  0.249810  1
  Al  Al29  1  0.999623  0.000377  0.750190  1
  Ir  Ir30  1  0.500000  0.000000  0.000000  1
  Ir  Ir31  1  0.000000  0.500000  0.000000  1
  Ir  Ir32  1  0.500000  0.000000  0.500000  1
  Ir  Ir33  1  0.000000  0.500000  0.500000  1
  Ir  Ir34  1  0.500000  0.500000  0.500000  1
  Os  Os35  1  0.500000  0.500000  0.000000  1
  Ru  Ru36  1  0.000000  0.000000  0.000000  1
  Ru  Ru37  1  0.000000  0.000000  0.500000  1
