# generated using pymatgen
data_LaH2Cl
_symmetry_space_group_name_H-M   'P 1'
_cell_length_a   10.93322412
_cell_length_b   10.93322402
_cell_length_c   10.93322412
_cell_angle_alpha   21.18689868
_cell_angle_beta   21.18689970
_cell_angle_gamma   21.18689701
_symmetry_Int_Tables_number   1
_chemical_formula_structural   LaH2Cl
_chemical_formula_sum   'La2 H4 Cl2'
_cell_volume   149.51956508
_cell_formula_units_Z   2
loop_
 _symmetry_equiv_pos_site_id
 _symmetry_equiv_pos_as_xyz
  1  'x, y, z'
loop_
 _atom_site_type_symbol
 _atom_site_label
 _atom_site_symmetry_multiplicity
 _atom_site_fract_x
 _atom_site_fract_y
 _atom_site_fract_z
 _atom_site_occupancy
  La  La0  1  0.887890  0.887890  0.887890  1
  La  La1  1  0.112110  0.112110  0.112110  1
  H  H2  1  0.812713  0.812713  0.812713  1
  H  H3  1  0.187287  0.187287  0.187287  1
  H  H4  1  0.546433  0.546433  0.546433  1
  H  H5  1  0.453567  0.453567  0.453567  1
  Cl  Cl6  1  0.722981  0.722981  0.722981  1
  Cl  Cl7  1  0.277019  0.277019  0.277019  1
