# generated using pymatgen
data_Nd2MgZn(SiIr2)2
_symmetry_space_group_name_H-M   'P 1'
_cell_length_a   4.11369800
_cell_length_b   4.11370300
_cell_length_c   10.82930900
_cell_angle_alpha   90.00000000
_cell_angle_beta   90.00000000
_cell_angle_gamma   90.00000000
_symmetry_Int_Tables_number   1
_chemical_formula_structural   Nd2MgZn(SiIr2)2
_chemical_formula_sum   'Nd2 Mg1 Zn1 Si2 Ir4'
_cell_volume   183.25932596
_cell_formula_units_Z   1
loop_
 _symmetry_equiv_pos_site_id
 _symmetry_equiv_pos_as_xyz
  1  'x, y, z'
loop_
 _atom_site_type_symbol
 _atom_site_label
 _atom_site_symmetry_multiplicity
 _atom_site_fract_x
 _atom_site_fract_y
 _atom_site_fract_z
 _atom_site_occupancy
  Nd  Nd0  1  0.000000  0.500000  0.242290  1
  Nd  Nd1  1  0.500000  0.000000  0.757710  1
  Mg  Mg2  1  0.000000  0.000000  0.499999  1
  Zn  Zn3  1  0.500000  0.500000  0.500001  1
  Si  Si4  1  0.000000  0.500000  0.881799  1
  Si  Si5  1  0.500000  0.000000  0.118201  1
  Ir  Ir6  1  0.000000  0.000000  0.000000  1
  Ir  Ir7  1  0.500000  0.500000  0.000000  1
  Ir  Ir8  1  0.000000  0.500000  0.661150  1
  Ir  Ir9  1  0.500000  0.000000  0.338850  1
