# generated using pymatgen
data_Hf8Sc6Ga8Ir7
_symmetry_space_group_name_H-M   'P 1'
_cell_length_a   9.11504926
_cell_length_b   9.11504897
_cell_length_c   9.11504900
_cell_angle_alpha   59.99999626
_cell_angle_beta   59.99999731
_cell_angle_gamma   59.99999716
_symmetry_Int_Tables_number   1
_chemical_formula_structural   Hf8Sc6Ga8Ir7
_chemical_formula_sum   'Hf8 Sc6 Ga8 Ir7'
_cell_volume   535.50312008
_cell_formula_units_Z   1
loop_
 _symmetry_equiv_pos_site_id
 _symmetry_equiv_pos_as_xyz
  1  'x, y, z'
loop_
 _atom_site_type_symbol
 _atom_site_label
 _atom_site_symmetry_multiplicity
 _atom_site_fract_x
 _atom_site_fract_y
 _atom_site_fract_z
 _atom_site_occupancy
  Hf  Hf0  1  0.873972  0.873972  0.378085  1
  Hf  Hf1  1  0.873972  0.378085  0.873972  1
  Hf  Hf2  1  0.378085  0.873972  0.873972  1
  Hf  Hf3  1  0.873972  0.873972  0.873972  1
  Hf  Hf4  1  0.126028  0.126028  0.621915  1
  Hf  Hf5  1  0.126028  0.621915  0.126028  1
  Hf  Hf6  1  0.621915  0.126028  0.126028  1
  Hf  Hf7  1  0.126028  0.126028  0.126028  1
  Sc  Sc8  1  0.687584  0.687584  0.312416  1
  Sc  Sc9  1  0.312416  0.687584  0.312416  1
  Sc  Sc10  1  0.687584  0.312416  0.312416  1
  Sc  Sc11  1  0.312416  0.312416  0.687584  1
  Sc  Sc12  1  0.687584  0.312416  0.687584  1
  Sc  Sc13  1  0.312416  0.687584  0.687584  1
  Ga  Ga14  1  0.652674  0.652674  0.041979  1
  Ga  Ga15  1  0.652674  0.041979  0.652674  1
  Ga  Ga16  1  0.041979  0.652674  0.652674  1
  Ga  Ga17  1  0.652674  0.652674  0.652674  1
  Ga  Ga18  1  0.347326  0.347326  0.958021  1
  Ga  Ga19  1  0.347326  0.958021  0.347326  1
  Ga  Ga20  1  0.958021  0.347326  0.347326  1
  Ga  Ga21  1  0.347326  0.347326  0.347326  1
  Ir  Ir22  1  0.000000  0.000000  0.000000  1
  Ir  Ir23  1  0.000000  0.000000  0.500000  1
  Ir  Ir24  1  0.500000  0.000000  0.500000  1
  Ir  Ir25  1  0.000000  0.500000  0.500000  1
  Ir  Ir26  1  0.500000  0.500000  0.000000  1
  Ir  Ir27  1  0.000000  0.500000  0.000000  1
  Ir  Ir28  1  0.500000  0.000000  0.000000  1
