# generated using pymatgen
data_TaGaBr8
_symmetry_space_group_name_H-M   'P 1'
_cell_length_a   10.41719028
_cell_length_b   10.41719025
_cell_length_c   9.27248900
_cell_angle_alpha   90.00000000
_cell_angle_beta   90.00000000
_cell_angle_gamma   128.40493980
_symmetry_Int_Tables_number   1
_chemical_formula_structural   TaGaBr8
_chemical_formula_sum   'Ta2 Ga2 Br16'
_cell_volume   788.52244734
_cell_formula_units_Z   2
loop_
 _symmetry_equiv_pos_site_id
 _symmetry_equiv_pos_as_xyz
  1  'x, y, z'
loop_
 _atom_site_type_symbol
 _atom_site_label
 _atom_site_symmetry_multiplicity
 _atom_site_fract_x
 _atom_site_fract_y
 _atom_site_fract_z
 _atom_site_occupancy
  Ta  Ta0  1  0.611991  0.388009  0.250000  1
  Ta  Ta1  1  0.388009  0.611991  0.750000  1
  Ga  Ga2  1  0.814473  0.185527  0.250000  1
  Ga  Ga3  1  0.185527  0.814473  0.750000  1
  Br  Br4  1  0.526735  0.073339  0.250000  1
  Br  Br5  1  0.073339  0.526735  0.750000  1
  Br  Br6  1  0.473265  0.926661  0.750000  1
  Br  Br7  1  0.926661  0.473265  0.250000  1
  Br  Br8  1  0.630815  0.369185  0.985137  1
  Br  Br9  1  0.369185  0.630815  0.014863  1
  Br  Br10  1  0.630815  0.369185  0.514863  1
  Br  Br11  1  0.369185  0.630815  0.485137  1
  Br  Br12  1  0.323420  0.262202  0.250000  1
  Br  Br13  1  0.262202  0.323420  0.750000  1
  Br  Br14  1  0.676580  0.737798  0.750000  1
  Br  Br15  1  0.737798  0.676580  0.250000  1
  Br  Br16  1  0.880082  0.119918  0.461006  1
  Br  Br17  1  0.119918  0.880082  0.538994  1
  Br  Br18  1  0.880082  0.119918  0.038994  1
  Br  Br19  1  0.119918  0.880082  0.961006  1
