# generated using pymatgen
data_Er12GaCo3NiHg
_symmetry_space_group_name_H-M   'P 1'
_cell_length_a   8.22982450
_cell_length_b   8.22982322
_cell_length_c   8.22982375
_cell_angle_alpha   106.93758239
_cell_angle_beta   109.68631563
_cell_angle_gamma   111.82667198
_symmetry_Int_Tables_number   1
_chemical_formula_structural   Er12GaCo3NiHg
_chemical_formula_sum   'Er12 Ga1 Co3 Ni1 Hg1'
_cell_volume   428.30868990
_cell_formula_units_Z   1
loop_
 _symmetry_equiv_pos_site_id
 _symmetry_equiv_pos_as_xyz
  1  'x, y, z'
loop_
 _atom_site_type_symbol
 _atom_site_label
 _atom_site_symmetry_multiplicity
 _atom_site_fract_x
 _atom_site_fract_y
 _atom_site_fract_z
 _atom_site_occupancy
  Er  Er0  1  0.696437  0.264009  0.960446  1
  Er  Er1  1  0.300767  0.739870  0.040636  1
  Er  Er2  1  0.696437  0.735991  0.432429  1
  Er  Er3  1  0.300767  0.260130  0.560896  1
  Er  Er4  1  0.812154  0.133755  0.324638  1
  Er  Er5  1  0.812154  0.487516  0.678399  1
  Er  Er6  1  0.190883  0.866245  0.678399  1
  Er  Er7  1  0.190883  0.512484  0.324638  1
  Er  Er8  1  0.597866  0.781150  0.816716  1
  Er  Er9  1  0.960329  0.782489  0.177841  1
  Er  Er10  1  0.035567  0.218850  0.816716  1
  Er  Er11  1  0.395350  0.217511  0.177841  1
  Ga  Ga12  1  0.491592  0.500000  0.991592  1
  Co  Co13  1  0.165117  0.500000  0.665117  1
  Co  Co14  1  0.999563  0.115076  0.114640  1
  Co  Co15  1  0.999563  0.884924  0.884487  1
  Ni  Ni16  1  0.851350  0.500000  0.351350  1
  Hg  Hg17  1  0.503219  0.000000  0.503219  1
