# generated using pymatgen
data_Zn2H13
_symmetry_space_group_name_H-M   'P 1'
_cell_length_a   2.65214263
_cell_length_b   7.37728836
_cell_length_c   11.72143459
_cell_angle_alpha   83.72461720
_cell_angle_beta   84.61322305
_cell_angle_gamma   96.93769017
_symmetry_Int_Tables_number   1
_chemical_formula_structural   Zn2H13
_chemical_formula_sum   'Zn2 H13'
_cell_volume   224.95736161
_cell_formula_units_Z   1
loop_
 _symmetry_equiv_pos_site_id
 _symmetry_equiv_pos_as_xyz
  1  'x, y, z'
loop_
 _atom_site_type_symbol
 _atom_site_label
 _atom_site_symmetry_multiplicity
 _atom_site_fract_x
 _atom_site_fract_y
 _atom_site_fract_z
 _atom_site_occupancy
  Zn  Zn0  1  0.613666  0.674297  0.891644  1
  Zn  Zn1  1  0.460379  0.337950  0.917059  1
  H  H2  1  0.571282  0.177237  0.440912  1
  H  H3  1  0.765468  0.766895  0.627178  1
  H  H4  1  0.747880  0.127404  0.405864  1
  H  H5  1  0.181676  0.964702  0.190535  1
  H  H6  1  0.489420  0.505579  0.009721  1
  H  H7  1  0.884114  0.538079  0.294445  1
  H  H8  1  0.076172  0.010027  0.139210  1
  H  H9  1  0.906944  0.194178  0.935787  1
  H  H10  1  0.799865  0.856972  0.589047  1
  H  H11  1  0.161156  0.817817  0.888380  1
  H  H12  1  0.199289  0.382634  0.630471  1
  H  H13  1  0.041097  0.332051  0.591164  1
  H  H14  1  0.094410  0.586045  0.250417  1
