# generated using pymatgen
data_Cd6In5SnRh12
_symmetry_space_group_name_H-M   'P 1'
_cell_length_a   4.58536600
_cell_length_b   6.43659600
_cell_length_c   13.73584600
_cell_angle_alpha   89.99998220
_cell_angle_beta   90.00081220
_cell_angle_gamma   89.99997330
_symmetry_Int_Tables_number   1
_chemical_formula_structural   Cd6In5SnRh12
_chemical_formula_sum   'Cd6 In5 Sn1 Rh12'
_cell_volume   405.40179799
_cell_formula_units_Z   1
loop_
 _symmetry_equiv_pos_site_id
 _symmetry_equiv_pos_as_xyz
  1  'x, y, z'
loop_
 _atom_site_type_symbol
 _atom_site_label
 _atom_site_symmetry_multiplicity
 _atom_site_fract_x
 _atom_site_fract_y
 _atom_site_fract_z
 _atom_site_occupancy
  Cd  Cd0  1  0.000004  0.000006  0.000003  1
  Cd  Cd1  1  0.499983  0.500018  0.169696  1
  Cd  Cd2  1  0.000035  0.000194  0.332099  1
  Cd  Cd3  1  0.500010  0.499621  0.499997  1
  Cd  Cd4  1  0.999985  0.000197  0.667895  1
  Cd  Cd5  1  0.500020  0.500014  0.830290  1
  In  In6  1  0.500075  0.000051  0.166195  1
  In  In7  1  0.000096  0.500086  0.334030  1
  In  In8  1  0.499999  0.999696  0.500057  1
  In  In9  1  0.999958  0.500083  0.665955  1
  In  In10  1  0.499928  0.000073  0.833779  1
  Sn  Sn11  1  0.999979  0.500037  0.000008  1
  Rh  Rh12  1  0.500000  0.257944  0.999998  1
  Rh  Rh13  1  0.499962  0.742796  0.000001  1
  Rh  Rh14  1  0.000052  0.252028  0.164222  1
  Rh  Rh15  1  0.000013  0.747939  0.164287  1
  Rh  Rh16  1  0.499948  0.250044  0.333759  1
  Rh  Rh17  1  0.499943  0.749725  0.333636  1
  Rh  Rh18  1  0.000013  0.248814  0.500002  1
  Rh  Rh19  1  0.999985  0.750935  0.500003  1
  Rh  Rh20  1  0.500023  0.250024  0.666243  1
  Rh  Rh21  1  0.500046  0.749694  0.666340  1
  Rh  Rh22  1  0.000018  0.252066  0.835772  1
  Rh  Rh23  1  0.999928  0.747920  0.835732  1
