# generated using pymatgen
data_Ho12Th4MgCd3Co4
_symmetry_space_group_name_H-M   'P 1'
_cell_length_a   9.60027182
_cell_length_b   9.56808412
_cell_length_c   9.56808400
_cell_angle_alpha   60.00000042
_cell_angle_beta   60.11084799
_cell_angle_gamma   60.11084451
_symmetry_Int_Tables_number   1
_chemical_formula_structural   Ho12Th4MgCd3Co4
_chemical_formula_sum   'Ho12 Th4 Mg1 Cd3 Co4'
_cell_volume   622.50680587
_cell_formula_units_Z   1
loop_
 _symmetry_equiv_pos_site_id
 _symmetry_equiv_pos_as_xyz
  1  'x, y, z'
loop_
 _atom_site_type_symbol
 _atom_site_label
 _atom_site_symmetry_multiplicity
 _atom_site_fract_x
 _atom_site_fract_y
 _atom_site_fract_z
 _atom_site_occupancy
  Ho  Ho0  1  0.811860  0.187885  0.187885  1
  Ho  Ho1  1  0.186302  0.813179  0.813179  1
  Ho  Ho2  1  0.186302  0.813179  0.187340  1
  Ho  Ho3  1  0.811860  0.187885  0.812371  1
  Ho  Ho4  1  0.186302  0.187340  0.813179  1
  Ho  Ho5  1  0.811860  0.812371  0.187885  1
  Ho  Ho6  1  0.932842  0.565631  0.565631  1
  Ho  Ho7  1  0.564424  0.935427  0.935427  1
  Ho  Ho8  1  0.564424  0.935427  0.564722  1
  Ho  Ho9  1  0.932842  0.565631  0.935896  1
  Ho  Ho10  1  0.564424  0.564722  0.935427  1
  Ho  Ho11  1  0.932842  0.935896  0.565631  1
  Th  Th12  1  0.345426  0.345166  0.345166  1
  Th  Th13  1  0.345426  0.345166  0.964245  1
  Th  Th14  1  0.345426  0.964245  0.345166  1
  Th  Th15  1  0.963529  0.345491  0.345491  1
  Mg  Mg16  1  0.263759  0.578746  0.578746  1
  Cd  Cd17  1  0.582718  0.582110  0.582110  1
  Cd  Cd18  1  0.582718  0.582110  0.253060  1
  Cd  Cd19  1  0.582718  0.253060  0.582110  1
  Co  Co20  1  0.144824  0.143555  0.143555  1
  Co  Co21  1  0.144824  0.143555  0.568065  1
  Co  Co22  1  0.144824  0.568065  0.143555  1
  Co  Co23  1  0.567522  0.144159  0.144159  1
