# generated using pymatgen
data_Dy3HoCo16(MoP3)4
_symmetry_space_group_name_H-M   'P 1'
_cell_length_a   3.70427500
_cell_length_b   10.41200100
_cell_length_c   11.86185600
_cell_angle_alpha   89.99844508
_cell_angle_beta   90.00000000
_cell_angle_gamma   90.00000000
_symmetry_Int_Tables_number   1
_chemical_formula_structural   Dy3HoCo16(MoP3)4
_chemical_formula_sum   'Dy3 Ho1 Co16 Mo4 P12'
_cell_volume   457.49891577
_cell_formula_units_Z   1
loop_
 _symmetry_equiv_pos_site_id
 _symmetry_equiv_pos_as_xyz
  1  'x, y, z'
loop_
 _atom_site_type_symbol
 _atom_site_label
 _atom_site_symmetry_multiplicity
 _atom_site_fract_x
 _atom_site_fract_y
 _atom_site_fract_z
 _atom_site_occupancy
  Dy  Dy0  1  0.250000  0.916967  0.204140  1
  Dy  Dy1  1  0.750000  0.417086  0.295835  1
  Dy  Dy2  1  0.750000  0.082996  0.795905  1
  Ho  Ho3  1  0.250000  0.582856  0.704082  1
  Co  Co4  1  0.250000  0.406262  0.489324  1
  Co  Co5  1  0.250000  0.093893  0.989264  1
  Co  Co6  1  0.750000  0.593923  0.511160  1
  Co  Co7  1  0.750000  0.906097  0.010734  1
  Co  Co8  1  0.250000  0.221796  0.177774  1
  Co  Co9  1  0.250000  0.278358  0.677855  1
  Co  Co10  1  0.750000  0.777967  0.822103  1
  Co  Co11  1  0.750000  0.721631  0.322272  1
  Co  Co12  1  0.250000  0.886949  0.700574  1
  Co  Co13  1  0.250000  0.612914  0.200464  1
  Co  Co14  1  0.750000  0.112895  0.299533  1
  Co  Co15  1  0.750000  0.387466  0.799219  1
  Co  Co16  1  0.250000  0.465839  0.932736  1
  Co  Co17  1  0.250000  0.034266  0.433063  1
  Co  Co18  1  0.750000  0.534333  0.066871  1
  Co  Co19  1  0.750000  0.965595  0.567113  1
  Mo  Mo20  1  0.250000  0.708470  0.987610  1
  Mo  Mo21  1  0.250000  0.791339  0.487813  1
  Mo  Mo22  1  0.750000  0.291454  0.012235  1
  Mo  Mo23  1  0.750000  0.208620  0.512447  1
  P  P24  1  0.250000  0.420436  0.115104  1
  P  P25  1  0.250000  0.079543  0.615218  1
  P  P26  1  0.750000  0.579603  0.884427  1
  P  P27  1  0.750000  0.920355  0.384882  1
  P  P28  1  0.250000  0.269236  0.864831  1
  P  P29  1  0.250000  0.230791  0.364871  1
  P  P30  1  0.750000  0.730722  0.135156  1
  P  P31  1  0.750000  0.768815  0.635247  1
  P  P32  1  0.250000  0.595620  0.391239  1
  P  P33  1  0.250000  0.904502  0.891287  1
  P  P34  1  0.750000  0.404777  0.608911  1
  P  P35  1  0.750000  0.095632  0.108702  1
