# generated using pymatgen
data_TmPu(VB4)2
_symmetry_space_group_name_H-M   'P 1'
_cell_length_a   3.45746600
_cell_length_b   5.96447736
_cell_length_c   11.55557110
_cell_angle_alpha   90.13681492
_cell_angle_beta   90.00000000
_cell_angle_gamma   90.00000000
_symmetry_Int_Tables_number   1
_chemical_formula_structural   TmPu(VB4)2
_chemical_formula_sum   'Tm2 Pu2 V4 B16'
_cell_volume   238.29804996
_cell_formula_units_Z   2
loop_
 _symmetry_equiv_pos_site_id
 _symmetry_equiv_pos_as_xyz
  1  'x, y, z'
loop_
 _atom_site_type_symbol
 _atom_site_label
 _atom_site_symmetry_multiplicity
 _atom_site_fract_x
 _atom_site_fract_y
 _atom_site_fract_z
 _atom_site_occupancy
  Tm  Tm0  1  0.000000  0.623963  0.350125  1
  Tm  Tm1  1  0.000000  0.376037  0.649875  1
  Pu  Pu2  1  0.000000  0.126860  0.152364  1
  Pu  Pu3  1  0.000000  0.873140  0.847636  1
  V  V4  1  0.000000  0.629971  0.083395  1
  V  V5  1  0.000000  0.370029  0.916605  1
  V  V6  1  0.000000  0.127802  0.415725  1
  V  V7  1  0.000000  0.872198  0.584275  1
  B  B8  1  0.500000  0.787405  0.185988  1
  B  B9  1  0.500000  0.212595  0.814012  1
  B  B10  1  0.500000  0.287273  0.313923  1
  B  B11  1  0.500000  0.712727  0.686077  1
  B  B12  1  0.500000  0.866180  0.032450  1
  B  B13  1  0.500000  0.133820  0.967550  1
  B  B14  1  0.500000  0.365946  0.467792  1
  B  B15  1  0.500000  0.634054  0.532208  1
  B  B16  1  0.500000  0.884593  0.452563  1
  B  B17  1  0.500000  0.115407  0.547437  1
  B  B18  1  0.500000  0.385135  0.047618  1
  B  B19  1  0.500000  0.614865  0.952382  1
  B  B20  1  0.500000  0.977349  0.307518  1
  B  B21  1  0.500000  0.022651  0.692482  1
  B  B22  1  0.500000  0.476266  0.193064  1
  B  B23  1  0.500000  0.523734  0.806936  1
