# generated using pymatgen
data_Gd3(ZnPt2)2
_symmetry_space_group_name_H-M   'P 1'
_cell_length_a   7.61712200
_cell_length_b   7.33878899
_cell_length_c   3.88652100
_cell_angle_alpha   90.00000000
_cell_angle_beta   90.00000000
_cell_angle_gamma   121.26272685
_symmetry_Int_Tables_number   1
_chemical_formula_structural   Gd3(ZnPt2)2
_chemical_formula_sum   'Gd3 Zn2 Pt4'
_cell_volume   185.71164014
_cell_formula_units_Z   1
loop_
 _symmetry_equiv_pos_site_id
 _symmetry_equiv_pos_as_xyz
  1  'x, y, z'
loop_
 _atom_site_type_symbol
 _atom_site_label
 _atom_site_symmetry_multiplicity
 _atom_site_fract_x
 _atom_site_fract_y
 _atom_site_fract_z
 _atom_site_occupancy
  Gd  Gd0  1  0.394901  0.375280  0.000000  1
  Gd  Gd1  1  0.583586  0.000000  0.000000  1
  Gd  Gd2  1  0.019621  0.624720  0.000000  1
  Zn  Zn3  1  0.999512  0.254640  0.500000  1
  Zn  Zn4  1  0.744871  0.745360  0.500000  1
  Pt  Pt5  1  0.255419  0.000000  0.500000  1
  Pt  Pt6  1  0.342242  0.651028  0.500000  1
  Pt  Pt7  1  0.968635  0.000000  0.000000  1
  Pt  Pt8  1  0.691214  0.348972  0.500000  1
