# generated using pymatgen
data_NbAl2Mo5
_symmetry_space_group_name_H-M   'P 1'
_cell_length_a   5.00822200
_cell_length_b   5.01976300
_cell_length_c   5.00822200
_cell_angle_alpha   90.00000000
_cell_angle_beta   90.00000000
_cell_angle_gamma   90.00000000
_symmetry_Int_Tables_number   1
_chemical_formula_structural   NbAl2Mo5
_chemical_formula_sum   'Nb1 Al2 Mo5'
_cell_volume   125.90713926
_cell_formula_units_Z   1
loop_
 _symmetry_equiv_pos_site_id
 _symmetry_equiv_pos_as_xyz
  1  'x, y, z'
loop_
 _atom_site_type_symbol
 _atom_site_label
 _atom_site_symmetry_multiplicity
 _atom_site_fract_x
 _atom_site_fract_y
 _atom_site_fract_z
 _atom_site_occupancy
  Nb  Nb0  1  0.500000  0.250000  0.000000  1
  Al  Al1  1  0.000000  0.998347  0.000000  1
  Al  Al2  1  0.500000  0.501653  0.500000  1
  Mo  Mo3  1  0.249902  0.998997  0.500000  1
  Mo  Mo4  1  0.750098  0.998997  0.500000  1
  Mo  Mo5  1  0.000000  0.501003  0.250098  1
  Mo  Mo6  1  0.000000  0.501003  0.749902  1
  Mo  Mo7  1  0.500000  0.750000  0.000000  1
