# generated using pymatgen
data_Er3Al9Re(SiRu)3
_symmetry_space_group_name_H-M   'P 1'
_cell_length_a   8.68404100
_cell_length_b   8.64754743
_cell_length_c   9.54416600
_cell_angle_alpha   90.00000000
_cell_angle_beta   90.00000000
_cell_angle_gamma   120.13970228
_symmetry_Int_Tables_number   1
_chemical_formula_structural   Er3Al9Re(SiRu)3
_chemical_formula_sum   'Er6 Al18 Re2 Si6 Ru6'
_cell_volume   619.82678609
_cell_formula_units_Z   2
loop_
 _symmetry_equiv_pos_site_id
 _symmetry_equiv_pos_as_xyz
  1  'x, y, z'
loop_
 _atom_site_type_symbol
 _atom_site_label
 _atom_site_symmetry_multiplicity
 _atom_site_fract_x
 _atom_site_fract_y
 _atom_site_fract_z
 _atom_site_occupancy
  Er  Er0  1  0.193626  0.387251  0.250000  1
  Er  Er1  1  0.806374  0.612749  0.750000  1
  Er  Er2  1  0.607510  0.808679  0.250000  1
  Er  Er3  1  0.392490  0.191321  0.750000  1
  Er  Er4  1  0.201167  0.808679  0.250000  1
  Er  Er5  1  0.798833  0.191321  0.750000  1
  Al  Al6  1  0.165313  0.330626  0.579650  1
  Al  Al7  1  0.834687  0.669374  0.420350  1
  Al  Al8  1  0.670510  0.833808  0.578278  1
  Al  Al9  1  0.834687  0.669374  0.079650  1
  Al  Al10  1  0.329490  0.166192  0.421722  1
  Al  Al11  1  0.165313  0.330626  0.920350  1
  Al  Al12  1  0.163298  0.833808  0.578278  1
  Al  Al13  1  0.329490  0.166192  0.078278  1
  Al  Al14  1  0.836702  0.166192  0.421722  1
  Al  Al15  1  0.670510  0.833808  0.921722  1
  Al  Al16  1  0.836702  0.166192  0.078278  1
  Al  Al17  1  0.163298  0.833808  0.921722  1
  Al  Al18  1  0.873951  0.434172  0.250000  1
  Al  Al19  1  0.126049  0.565828  0.750000  1
  Al  Al20  1  0.560221  0.434172  0.250000  1
  Al  Al21  1  0.439779  0.565828  0.750000  1
  Al  Al22  1  0.999621  0.999243  0.250000  1
  Al  Al23  1  0.000379  0.000757  0.750000  1
  Re  Re24  1  0.500000  0.000000  0.000000  1
  Re  Re25  1  0.500000  0.000000  0.500000  1
  Si  Si26  1  0.331719  0.663440  0.040343  1
  Si  Si27  1  0.668281  0.336560  0.959657  1
  Si  Si28  1  0.668281  0.336560  0.540343  1
  Si  Si29  1  0.331719  0.663440  0.459657  1
  Si  Si30  1  0.563330  0.126658  0.250000  1
  Si  Si31  1  0.436670  0.873342  0.750000  1
  Ru  Ru32  1  0.000000  0.500000  0.000000  1
  Ru  Ru33  1  0.500000  0.500000  0.000000  1
  Ru  Ru34  1  0.000000  0.500000  0.500000  1
  Ru  Ru35  1  0.500000  0.500000  0.500000  1
  Ru  Ru36  1  0.000000  0.000000  0.000000  1
  Ru  Ru37  1  0.000000  0.000000  0.500000  1
