# generated using pymatgen
data_Nd2Ga9Ru5
_symmetry_space_group_name_H-M   'P 1'
_cell_length_a   8.15943204
_cell_length_b   8.15943183
_cell_length_c   8.15943233
_cell_angle_alpha   135.10766660
_cell_angle_beta   135.10766939
_cell_angle_gamma   65.36295330
_symmetry_Int_Tables_number   1
_chemical_formula_structural   Nd2Ga9Ru5
_chemical_formula_sum   'Nd2 Ga9 Ru5'
_cell_volume   266.62201853
_cell_formula_units_Z   1
loop_
 _symmetry_equiv_pos_site_id
 _symmetry_equiv_pos_as_xyz
  1  'x, y, z'
loop_
 _atom_site_type_symbol
 _atom_site_label
 _atom_site_symmetry_multiplicity
 _atom_site_fract_x
 _atom_site_fract_y
 _atom_site_fract_z
 _atom_site_occupancy
  Nd  Nd0  1  0.000000  0.500000  0.500000  1
  Nd  Nd1  1  0.500000  0.000000  0.500000  1
  Ga  Ga2  1  0.441824  0.860306  0.000000  1
  Ga  Ga3  1  0.139694  0.139694  0.581518  1
  Ga  Ga4  1  0.860306  0.441824  0.000000  1
  Ga  Ga5  1  0.860306  0.860306  0.418482  1
  Ga  Ga6  1  0.558176  0.139694  0.000000  1
  Ga  Ga7  1  0.139694  0.558176  0.000000  1
  Ga  Ga8  1  0.558176  0.558176  0.418482  1
  Ga  Ga9  1  0.000000  0.000000  0.000000  1
  Ga  Ga10  1  0.441824  0.441824  0.581518  1
  Ru  Ru11  1  0.178959  0.178959  0.000000  1
  Ru  Ru12  1  0.821041  0.821041  0.000000  1
  Ru  Ru13  1  0.250000  0.750000  0.500000  1
  Ru  Ru14  1  0.750000  0.250000  0.500000  1
  Ru  Ru15  1  0.500000  0.500000  0.000000  1
