# generated using pymatgen
data_YbSm3Tm4(B6Ru)4
_symmetry_space_group_name_H-M   'P 1'
_cell_length_a   3.65997400
_cell_length_b   9.14518484
_cell_length_c   11.55927100
_cell_angle_alpha   89.92467502
_cell_angle_beta   90.00000000
_cell_angle_gamma   90.00000000
_symmetry_Int_Tables_number   1
_chemical_formula_structural   YbSm3Tm4(B6Ru)4
_chemical_formula_sum   'Yb1 Sm3 Tm4 B24 Ru4'
_cell_volume   386.90162914
_cell_formula_units_Z   1
loop_
 _symmetry_equiv_pos_site_id
 _symmetry_equiv_pos_as_xyz
  1  'x, y, z'
loop_
 _atom_site_type_symbol
 _atom_site_label
 _atom_site_symmetry_multiplicity
 _atom_site_fract_x
 _atom_site_fract_y
 _atom_site_fract_z
 _atom_site_occupancy
  Yb  Yb0  1  0.000000  0.323030  0.413900  1
  Sm  Sm1  1  0.000000  0.675862  0.584746  1
  Sm  Sm2  1  0.000000  0.822581  0.086536  1
  Sm  Sm3  1  0.000000  0.177902  0.914511  1
  Tm  Tm4  1  0.000000  0.944596  0.371458  1
  Tm  Tm5  1  0.000000  0.058144  0.627357  1
  Tm  Tm6  1  0.000000  0.442990  0.130061  1
  Tm  Tm7  1  0.000000  0.555818  0.871671  1
  B  B8  1  0.500000  0.553774  0.431221  1
  B  B9  1  0.500000  0.443990  0.567612  1
  B  B10  1  0.500000  0.055092  0.068655  1
  B  B11  1  0.500000  0.944645  0.931046  1
  B  B12  1  0.500000  0.749263  0.417816  1
  B  B13  1  0.500000  0.250924  0.580660  1
  B  B14  1  0.500000  0.249436  0.082590  1
  B  B15  1  0.500000  0.750012  0.918130  1
  B  B16  1  0.500000  0.791113  0.266658  1
  B  B17  1  0.500000  0.209732  0.733109  1
  B  B18  1  0.500000  0.290826  0.234837  1
  B  B19  1  0.500000  0.709129  0.766219  1
  B  B20  1  0.500000  0.630209  0.186110  1
  B  B21  1  0.500000  0.369460  0.814997  1
  B  B22  1  0.500000  0.131571  0.315320  1
  B  B23  1  0.500000  0.869675  0.684651  1
  B  B24  1  0.500000  0.984822  0.213452  1
  B  B25  1  0.500000  0.015940  0.785962  1
  B  B26  1  0.500000  0.482948  0.287555  1
  B  B27  1  0.500000  0.515318  0.713191  1
  B  B28  1  0.500000  0.602645  0.028518  1
  B  B29  1  0.500000  0.397197  0.972307  1
  B  B30  1  0.500000  0.102899  0.471702  1
  B  B31  1  0.500000  0.898223  0.527792  1
  Ru  Ru32  1  0.000000  0.639545  0.319549  1
  Ru  Ru33  1  0.000000  0.360892  0.680602  1
  Ru  Ru34  1  0.000000  0.138749  0.179906  1
  Ru  Ru35  1  0.000000  0.861054  0.819591  1
