# generated using pymatgen
data_Ba3AgSbO6
_symmetry_space_group_name_H-M   'P 1'
_cell_length_a   7.28393744
_cell_length_b   7.28393784
_cell_length_c   7.28393776
_cell_angle_alpha   90.62351967
_cell_angle_beta   90.62352169
_cell_angle_gamma   90.62350872
_symmetry_Int_Tables_number   1
_chemical_formula_structural   Ba3AgSbO6
_chemical_formula_sum   'Ba6 Ag2 Sb2 O12'
_cell_volume   386.38561126
_cell_formula_units_Z   2
loop_
 _symmetry_equiv_pos_site_id
 _symmetry_equiv_pos_as_xyz
  1  'x, y, z'
loop_
 _atom_site_type_symbol
 _atom_site_label
 _atom_site_symmetry_multiplicity
 _atom_site_fract_x
 _atom_site_fract_y
 _atom_site_fract_z
 _atom_site_occupancy
  Ba  Ba0  1  0.401624  0.750000  0.098376  1
  Ba  Ba1  1  0.098376  0.401624  0.750000  1
  Ba  Ba2  1  0.598376  0.250000  0.901624  1
  Ba  Ba3  1  0.901624  0.598376  0.250000  1
  Ba  Ba4  1  0.750000  0.098376  0.401624  1
  Ba  Ba5  1  0.250000  0.901624  0.598376  1
  Ag  Ag6  1  0.250000  0.250000  0.250000  1
  Ag  Ag7  1  0.750000  0.750000  0.750000  1
  Sb  Sb8  1  0.000000  0.000000  0.000000  1
  Sb  Sb9  1  0.500000  0.500000  0.500000  1
  O  O10  1  0.577021  0.764599  0.442711  1
  O  O11  1  0.442711  0.577021  0.764599  1
  O  O12  1  0.764599  0.442711  0.577021  1
  O  O13  1  0.922979  0.057289  0.735401  1
  O  O14  1  0.735401  0.922979  0.057289  1
  O  O15  1  0.057289  0.735401  0.922979  1
  O  O16  1  0.422979  0.235401  0.557289  1
  O  O17  1  0.557289  0.422979  0.235401  1
  O  O18  1  0.235401  0.557289  0.422979  1
  O  O19  1  0.077021  0.942711  0.264599  1
  O  O20  1  0.942711  0.264599  0.077021  1
  O  O21  1  0.264599  0.077021  0.942711  1
