# generated using pymatgen
data_Dy8Si16Tc11Ni
_symmetry_space_group_name_H-M   'P 1'
_cell_length_a   6.76241255
_cell_length_b   6.78372510
_cell_length_c   12.74250757
_cell_angle_alpha   89.35135762
_cell_angle_beta   90.06494069
_cell_angle_gamma   90.07106726
_symmetry_Int_Tables_number   1
_chemical_formula_structural   Dy8Si16Tc11Ni
_chemical_formula_sum   'Dy8 Si16 Tc11 Ni1'
_cell_volume   584.51594838
_cell_formula_units_Z   1
loop_
 _symmetry_equiv_pos_site_id
 _symmetry_equiv_pos_as_xyz
  1  'x, y, z'
loop_
 _atom_site_type_symbol
 _atom_site_label
 _atom_site_symmetry_multiplicity
 _atom_site_fract_x
 _atom_site_fract_y
 _atom_site_fract_z
 _atom_site_occupancy
  Dy  Dy0  1  0.009074  0.661826  0.030700  1
  Dy  Dy1  1  0.992350  0.337900  0.531846  1
  Dy  Dy2  1  0.663768  0.004124  0.970800  1
  Dy  Dy3  1  0.160962  0.493655  0.778960  1
  Dy  Dy4  1  0.833629  0.509668  0.280211  1
  Dy  Dy5  1  0.493861  0.165859  0.217410  1
  Dy  Dy6  1  0.506643  0.835463  0.718209  1
  Dy  Dy7  1  0.332085  0.996978  0.469337  1
  Si  Si8  1  0.016377  0.727352  0.438670  1
  Si  Si9  1  0.988175  0.266479  0.937029  1
  Si  Si10  1  0.725055  0.017856  0.560434  1
  Si  Si11  1  0.218714  0.479322  0.189824  1
  Si  Si12  1  0.764938  0.511857  0.689699  1
  Si  Si13  1  0.485578  0.232776  0.812041  1
  Si  Si14  1  0.520552  0.782263  0.315661  1
  Si  Si15  1  0.269480  0.979251  0.062251  1
  Si  Si16  1  0.805800  0.888918  0.185314  1
  Si  Si17  1  0.302752  0.615999  0.563740  1
  Si  Si18  1  0.690549  0.395184  0.057511  1
  Si  Si19  1  0.614510  0.305837  0.435395  1
  Si  Si20  1  0.402273  0.683734  0.938799  1
  Si  Si21  1  0.113501  0.195583  0.313885  1
  Si  Si22  1  0.193865  0.109850  0.687069  1
  Si  Si23  1  0.884768  0.805580  0.815093  1
  Tc  Tc24  1  0.320267  0.484263  0.379400  1
  Tc  Tc25  1  0.813400  0.022300  0.370457  1
  Tc  Tc26  1  0.982050  0.190908  0.129751  1
  Tc  Tc27  1  0.013895  0.813668  0.631222  1
  Tc  Tc28  1  0.476990  0.317186  0.619212  1
  Tc  Tc29  1  0.193285  0.964883  0.870968  1
  Tc  Tc30  1  0.661749  0.665942  0.499324  1
  Tc  Tc31  1  0.837629  0.161791  0.752252  1
  Tc  Tc32  1  0.160162  0.837803  0.251566  1
  Tc  Tc33  1  0.341172  0.332528  0.992449  1
  Tc  Tc34  1  0.508391  0.682114  0.127420  1
  Ni  Ni35  1  0.701753  0.523303  0.876090  1
