# generated using pymatgen
data_NaLa2(PN2)7
_symmetry_space_group_name_H-M   'P 1'
_cell_length_a   7.84589849
_cell_length_b   7.50068139
_cell_length_c   5.22323700
_cell_angle_alpha   79.80967224
_cell_angle_beta   80.27531058
_cell_angle_gamma   69.71176593
_symmetry_Int_Tables_number   1
_chemical_formula_structural   NaLa2(PN2)7
_chemical_formula_sum   'Na1 La2 P7 N14'
_cell_volume   281.83417472
_cell_formula_units_Z   1
loop_
 _symmetry_equiv_pos_site_id
 _symmetry_equiv_pos_as_xyz
  1  'x, y, z'
loop_
 _atom_site_type_symbol
 _atom_site_label
 _atom_site_symmetry_multiplicity
 _atom_site_fract_x
 _atom_site_fract_y
 _atom_site_fract_z
 _atom_site_occupancy
  Na  Na0  1  0.328403  0.461448  0.294407  1
  La  La1  1  0.833981  0.216594  0.282113  1
  La  La2  1  0.180333  0.776616  0.780484  1
  P  P3  1  0.569878  0.697465  0.205795  1
  P  P4  1  0.097722  0.257589  0.725603  1
  P  P5  1  0.734407  0.933718  0.782474  1
  P  P6  1  0.884784  0.763627  0.285573  1
  P  P7  1  0.275611  0.071937  0.208307  1
  P  P8  1  0.436443  0.293128  0.800932  1
  P  P9  1  0.672968  0.534146  0.792606  1
  N  N10  1  0.232340  0.382661  0.700393  1
  N  N11  1  0.640036  0.759224  0.882232  1
  N  N12  1  0.713878  0.675177  0.410132  1
  N  N13  1  0.413788  0.191287  0.103857  1
  N  N14  1  0.875538  0.368668  0.771159  1
  N  N15  1  0.600828  0.131064  0.645231  1
  N  N16  1  0.065009  0.626061  0.161123  1
  N  N17  1  0.366366  0.837493  0.287385  1
  N  N18  1  0.901490  0.861463  0.545380  1
  N  N19  1  0.139291  0.090541  0.985084  1
  N  N20  1  0.598140  0.489757  0.125337  1
  N  N21  1  0.498373  0.490751  0.700353  1
  N  N22  1  0.806596  0.951867  0.049262  1
  N  N23  1  0.133796  0.137718  0.474778  1
