# generated using pymatgen
data_Cs4NaScSe4
_symmetry_space_group_name_H-M   'P 1'
_cell_length_a   9.03426928
_cell_length_b   9.03426874
_cell_length_c   9.03426966
_cell_angle_alpha   133.09532180
_cell_angle_beta   129.15282685
_cell_angle_gamma   71.66302050
_symmetry_Int_Tables_number   1
_chemical_formula_structural   Cs4NaScSe4
_chemical_formula_sum   'Cs4 Na1 Sc1 Se4'
_cell_volume   408.56162284
_cell_formula_units_Z   1
loop_
 _symmetry_equiv_pos_site_id
 _symmetry_equiv_pos_as_xyz
  1  'x, y, z'
loop_
 _atom_site_type_symbol
 _atom_site_label
 _atom_site_symmetry_multiplicity
 _atom_site_fract_x
 _atom_site_fract_y
 _atom_site_fract_z
 _atom_site_occupancy
  Cs  Cs0  1  0.513827  0.865161  0.675430  1
  Cs  Cs1  1  0.486173  0.161603  0.351334  1
  Cs  Cs2  1  0.810269  0.634839  0.148666  1
  Cs  Cs3  1  0.189731  0.338397  0.824570  1
  Na  Na4  1  0.000000  0.250000  0.250000  1
  Sc  Sc5  1  0.000000  0.750000  0.750000  1
  Se  Se6  1  0.088188  0.867152  0.155694  1
  Se  Se7  1  0.711458  0.432495  0.344306  1
  Se  Se8  1  0.911812  0.067505  0.778963  1
  Se  Se9  1  0.288543  0.632848  0.721037  1
