# generated using pymatgen
data_La2Tm3(ThAu5)2
_symmetry_space_group_name_H-M   'P 1'
_cell_length_a   8.95225400
_cell_length_b   8.95225334
_cell_length_c   10.68775400
_cell_angle_alpha   90.00000000
_cell_angle_beta   90.00000000
_cell_angle_gamma   108.30960622
_symmetry_Int_Tables_number   1
_chemical_formula_structural   La2Tm3(ThAu5)2
_chemical_formula_sum   'La4 Tm6 Th4 Au20'
_cell_volume   813.18246041
_cell_formula_units_Z   2
loop_
 _symmetry_equiv_pos_site_id
 _symmetry_equiv_pos_as_xyz
  1  'x, y, z'
loop_
 _atom_site_type_symbol
 _atom_site_label
 _atom_site_symmetry_multiplicity
 _atom_site_fract_x
 _atom_site_fract_y
 _atom_site_fract_z
 _atom_site_occupancy
  La  La0  1  0.303509  0.303509  0.197264  1
  La  La1  1  0.696491  0.696491  0.802736  1
  La  La2  1  0.196491  0.196491  0.697264  1
  La  La3  1  0.803509  0.803509  0.302736  1
  Tm  Tm4  1  0.005691  0.505691  0.250000  1
  Tm  Tm5  1  0.994309  0.494309  0.750000  1
  Tm  Tm6  1  0.494309  0.994309  0.750000  1
  Tm  Tm7  1  0.505691  0.005691  0.250000  1
  Tm  Tm8  1  0.000000  0.000000  0.000000  1
  Tm  Tm9  1  0.500000  0.500000  0.500000  1
  Th  Th10  1  0.694943  0.305057  0.000000  1
  Th  Th11  1  0.305057  0.694943  0.000000  1
  Th  Th12  1  0.805057  0.194943  0.500000  1
  Th  Th13  1  0.194943  0.805057  0.500000  1
  Au  Au14  1  0.099273  0.099273  0.402927  1
  Au  Au15  1  0.900727  0.900727  0.597073  1
  Au  Au16  1  0.400727  0.400727  0.902927  1
  Au  Au17  1  0.599273  0.599273  0.097073  1
  Au  Au18  1  0.866800  0.158008  0.206800  1
  Au  Au19  1  0.133200  0.841992  0.793200  1
  Au  Au20  1  0.633200  0.341992  0.706800  1
  Au  Au21  1  0.658008  0.366800  0.293200  1
  Au  Au22  1  0.366800  0.658008  0.293200  1
  Au  Au23  1  0.341992  0.633200  0.706800  1
  Au  Au24  1  0.841992  0.133200  0.793200  1
  Au  Au25  1  0.158008  0.866800  0.206800  1
  Au  Au26  1  0.941524  0.647485  0.008071  1
  Au  Au27  1  0.058476  0.352515  0.991929  1
  Au  Au28  1  0.558476  0.852515  0.508071  1
  Au  Au29  1  0.147485  0.441524  0.491929  1
  Au  Au30  1  0.441524  0.147485  0.491929  1
  Au  Au31  1  0.852515  0.558476  0.508071  1
  Au  Au32  1  0.352515  0.058476  0.991929  1
  Au  Au33  1  0.647485  0.941524  0.008071  1
