# generated using pymatgen
data_Tm9Th(SiSn3)2
_symmetry_space_group_name_H-M   'P 1'
_cell_length_a   9.17385797
_cell_length_b   9.17385911
_cell_length_c   6.38176800
_cell_angle_alpha   90.00000000
_cell_angle_beta   90.00000000
_cell_angle_gamma   120.10663776
_symmetry_Int_Tables_number   1
_chemical_formula_structural   Tm9Th(SiSn3)2
_chemical_formula_sum   'Tm9 Th1 Si2 Sn6'
_cell_volume   464.63085402
_cell_formula_units_Z   1
loop_
 _symmetry_equiv_pos_site_id
 _symmetry_equiv_pos_as_xyz
  1  'x, y, z'
loop_
 _atom_site_type_symbol
 _atom_site_label
 _atom_site_symmetry_multiplicity
 _atom_site_fract_x
 _atom_site_fract_y
 _atom_site_fract_z
 _atom_site_occupancy
  Tm  Tm0  1  0.666031  0.332745  0.000231  1
  Tm  Tm1  1  0.332745  0.666031  0.000231  1
  Tm  Tm2  1  0.332745  0.666031  0.499769  1
  Tm  Tm3  1  0.666031  0.332745  0.499769  1
  Tm  Tm4  1  0.244729  0.997234  0.750000  1
  Tm  Tm5  1  0.997234  0.244729  0.750000  1
  Tm  Tm6  1  0.262538  0.262538  0.250000  1
  Tm  Tm7  1  0.742460  0.002276  0.250000  1
  Tm  Tm8  1  0.002276  0.742460  0.250000  1
  Th  Th9  1  0.751577  0.751577  0.750000  1
  Si  Si10  1  0.003925  0.003925  0.024311  1
  Si  Si11  1  0.003925  0.003925  0.475689  1
  Sn  Sn12  1  0.388253  0.388253  0.750000  1
  Sn  Sn13  1  0.600150  0.002451  0.750000  1
  Sn  Sn14  1  0.002451  0.600150  0.750000  1
  Sn  Sn15  1  0.611173  0.611173  0.250000  1
  Sn  Sn16  1  0.391816  0.999943  0.250000  1
  Sn  Sn17  1  0.999943  0.391816  0.250000  1
