# generated using pymatgen
data_GdBiCl8
_symmetry_space_group_name_H-M   'P 1'
_cell_length_a   7.15741974
_cell_length_b   7.15762262
_cell_length_c   8.71603875
_cell_angle_alpha   92.63252328
_cell_angle_beta   92.62893018
_cell_angle_gamma   119.30829330
_symmetry_Int_Tables_number   1
_chemical_formula_structural   GdBiCl8
_chemical_formula_sum   'Gd1 Bi1 Cl8'
_cell_volume   387.75772331
_cell_formula_units_Z   1
loop_
 _symmetry_equiv_pos_site_id
 _symmetry_equiv_pos_as_xyz
  1  'x, y, z'
loop_
 _atom_site_type_symbol
 _atom_site_label
 _atom_site_symmetry_multiplicity
 _atom_site_fract_x
 _atom_site_fract_y
 _atom_site_fract_z
 _atom_site_occupancy
  Gd  Gd0  1  0.168817  0.831185  0.999999  1
  Bi  Bi1  1  0.830780  0.169217  0.000001  1
  Cl  Cl2  1  0.511208  0.134401  0.177436  1
  Cl  Cl3  1  0.139597  0.521636  0.177398  1
  Cl  Cl4  1  0.906614  0.900818  0.178108  1
  Cl  Cl5  1  0.611640  0.611800  0.440106  1
  Cl  Cl6  1  0.388198  0.388356  0.559892  1
  Cl  Cl7  1  0.099179  0.093389  0.821891  1
  Cl  Cl8  1  0.865603  0.488797  0.822565  1
  Cl  Cl9  1  0.478362  0.860399  0.822602  1
