# generated using pymatgen
data_Y8Nb(Pd7Pt)3
_symmetry_space_group_name_H-M   'P 1'
_cell_length_a   8.35930100
_cell_length_b   8.36994800
_cell_length_c   8.36994800
_cell_angle_alpha   90.00000000
_cell_angle_beta   90.00000000
_cell_angle_gamma   90.00000000
_symmetry_Int_Tables_number   1
_chemical_formula_structural   Y8Nb(Pd7Pt)3
_chemical_formula_sum   'Y8 Nb1 Pd21 Pt3'
_cell_volume   585.61943765
_cell_formula_units_Z   1
loop_
 _symmetry_equiv_pos_site_id
 _symmetry_equiv_pos_as_xyz
  1  'x, y, z'
loop_
 _atom_site_type_symbol
 _atom_site_label
 _atom_site_symmetry_multiplicity
 _atom_site_fract_x
 _atom_site_fract_y
 _atom_site_fract_z
 _atom_site_occupancy
  Y  Y0  1  0.252196  0.252841  0.252841  1
  Y  Y1  1  0.747850  0.747775  0.747775  1
  Y  Y2  1  0.747850  0.747775  0.252225  1
  Y  Y3  1  0.747850  0.252225  0.747775  1
  Y  Y4  1  0.252196  0.252841  0.747159  1
  Y  Y5  1  0.252196  0.747159  0.252841  1
  Y  Y6  1  0.252196  0.747159  0.747159  1
  Y  Y7  1  0.747850  0.252225  0.252225  1
  Nb  Nb8  1  0.000132  0.000000  0.000000  1
  Pd  Pd9  1  0.264745  0.500000  0.000000  1
  Pd  Pd10  1  0.735142  0.500000  0.000000  1
  Pd  Pd11  1  0.999826  0.264805  0.500000  1
  Pd  Pd12  1  0.499992  0.265317  0.000000  1
  Pd  Pd13  1  0.999826  0.735195  0.500000  1
  Pd  Pd14  1  0.499992  0.734683  0.000000  1
  Pd  Pd15  1  0.499992  0.000000  0.265317  1
  Pd  Pd16  1  0.264745  0.000000  0.500000  1
  Pd  Pd17  1  0.499992  0.000000  0.734683  1
  Pd  Pd18  1  0.735142  0.000000  0.500000  1
  Pd  Pd19  1  0.999826  0.500000  0.264805  1
  Pd  Pd20  1  0.999826  0.500000  0.735195  1
  Pd  Pd21  1  0.745608  0.500000  0.500000  1
  Pd  Pd22  1  0.500149  0.254868  0.500000  1
  Pd  Pd23  1  0.500149  0.745132  0.500000  1
  Pd  Pd24  1  0.500149  0.500000  0.254868  1
  Pd  Pd25  1  0.500149  0.500000  0.745132  1
  Pd  Pd26  1  0.000002  0.305543  0.000000  1
  Pd  Pd27  1  0.000002  0.694457  0.000000  1
  Pd  Pd28  1  0.000002  0.000000  0.305543  1
  Pd  Pd29  1  0.000002  0.000000  0.694457  1
  Pt  Pt30  1  0.254217  0.500000  0.500000  1
  Pt  Pt31  1  0.303892  0.000000  0.000000  1
  Pt  Pt32  1  0.696323  0.000000  0.000000  1
