# generated using pymatgen
data_Lu12Co6Bi
_symmetry_space_group_name_H-M   'P 1'
_cell_length_a   8.21009447
_cell_length_b   8.21009486
_cell_length_c   8.21009500
_cell_angle_alpha   109.47122590
_cell_angle_beta   109.47122688
_cell_angle_gamma   109.47121691
_symmetry_Int_Tables_number   1
_chemical_formula_structural   Lu12Co6Bi
_chemical_formula_sum   'Lu12 Co6 Bi1'
_cell_volume   426.01273273
_cell_formula_units_Z   1
loop_
 _symmetry_equiv_pos_site_id
 _symmetry_equiv_pos_as_xyz
  1  'x, y, z'
loop_
 _atom_site_type_symbol
 _atom_site_label
 _atom_site_symmetry_multiplicity
 _atom_site_fract_x
 _atom_site_fract_y
 _atom_site_fract_z
 _atom_site_occupancy
  Lu  Lu0  1  0.803091  0.695314  0.498405  1
  Lu  Lu1  1  0.196909  0.304686  0.501595  1
  Lu  Lu2  1  0.196909  0.695314  0.892224  1
  Lu  Lu3  1  0.803091  0.304686  0.107776  1
  Lu  Lu4  1  0.695314  0.498405  0.803091  1
  Lu  Lu5  1  0.304686  0.501595  0.196909  1
  Lu  Lu6  1  0.695314  0.892224  0.196909  1
  Lu  Lu7  1  0.304686  0.107776  0.803091  1
  Lu  Lu8  1  0.498405  0.803091  0.695314  1
  Lu  Lu9  1  0.501595  0.196909  0.304686  1
  Lu  Lu10  1  0.107776  0.803091  0.304686  1
  Lu  Lu11  1  0.892224  0.196909  0.695314  1
  Co  Co12  1  0.885990  0.385990  0.500000  1
  Co  Co13  1  0.114010  0.614010  0.500000  1
  Co  Co14  1  0.385990  0.500000  0.885990  1
  Co  Co15  1  0.614010  0.500000  0.114010  1
  Co  Co16  1  0.500000  0.885990  0.385990  1
  Co  Co17  1  0.500000  0.114010  0.614010  1
  Bi  Bi18  1  0.000000  0.000000  0.000000  1
