# generated using pymatgen
data_ThSc6CI12
_symmetry_space_group_name_H-M   'P 1'
_cell_length_a   9.63133589
_cell_length_b   9.57899257
_cell_length_c   9.39576563
_cell_angle_alpha   107.98695054
_cell_angle_beta   108.85221483
_cell_angle_gamma   108.73386638
_symmetry_Int_Tables_number   1
_chemical_formula_structural   ThSc6CI12
_chemical_formula_sum   'Th1 Sc6 C1 I12'
_cell_volume   689.65971835
_cell_formula_units_Z   1
loop_
 _symmetry_equiv_pos_site_id
 _symmetry_equiv_pos_as_xyz
  1  'x, y, z'
loop_
 _atom_site_type_symbol
 _atom_site_label
 _atom_site_symmetry_multiplicity
 _atom_site_fract_x
 _atom_site_fract_y
 _atom_site_fract_z
 _atom_site_occupancy
  Th  Th0  1  0.105316  0.041479  0.301368  1
  Sc  Sc1  1  0.268817  0.096430  0.041151  1
  Sc  Sc2  1  0.039031  0.269743  0.097248  1
  Sc  Sc3  1  0.740193  0.917082  0.976426  1
  Sc  Sc4  1  0.975729  0.740638  0.917236  1
  Sc  Sc5  1  0.911891  0.973161  0.729268  1
  Sc  Sc6  1  0.470263  0.469926  0.471701  1
  C  C7  1  0.999089  0.001119  0.994841  1
  I  I8  1  0.757717  0.915575  0.293449  1
  I  I9  1  0.378942  0.453462  0.143311  1
  I  I10  1  0.482635  0.158904  0.383514  1
  I  I11  1  0.152905  0.407894  0.465091  1
  I  I12  1  0.290972  0.786299  0.924049  1
  I  I13  1  0.925160  0.290169  0.778569  1
  I  I14  1  0.622583  0.551540  0.839147  1
  I  I15  1  0.834268  0.621864  0.547241  1
  I  I16  1  0.550407  0.835477  0.617439  1
  I  I17  1  0.708641  0.217870  0.070679  1
  I  I18  1  0.071596  0.684089  0.214320  1
  I  I19  1  0.219395  0.072826  0.699500  1
