# generated using pymatgen
data_Er19MgIr12
_symmetry_space_group_name_H-M   'P 1'
_cell_length_a   10.78156900
_cell_length_b   10.78156900
_cell_length_c   6.27871200
_cell_angle_alpha   90.00000000
_cell_angle_beta   90.00000000
_cell_angle_gamma   90.00000000
_symmetry_Int_Tables_number   1
_chemical_formula_structural   Er19MgIr12
_chemical_formula_sum   'Er19 Mg1 Ir12'
_cell_volume   729.85148505
_cell_formula_units_Z   1
loop_
 _symmetry_equiv_pos_site_id
 _symmetry_equiv_pos_as_xyz
  1  'x, y, z'
loop_
 _atom_site_type_symbol
 _atom_site_label
 _atom_site_symmetry_multiplicity
 _atom_site_fract_x
 _atom_site_fract_y
 _atom_site_fract_z
 _atom_site_occupancy
  Er  Er0  1  0.285450  0.085288  0.378340  1
  Er  Er1  1  0.290390  0.911939  0.878807  1
  Er  Er2  1  0.709610  0.088061  0.878807  1
  Er  Er3  1  0.714550  0.914712  0.378340  1
  Er  Er4  1  0.588580  0.791623  0.878646  1
  Er  Er5  1  0.588202  0.208127  0.377006  1
  Er  Er6  1  0.411798  0.791873  0.377006  1
  Er  Er7  1  0.411420  0.208377  0.878646  1
  Er  Er8  1  0.208127  0.411798  0.622994  1
  Er  Er9  1  0.208377  0.588580  0.121354  1
  Er  Er10  1  0.791623  0.411420  0.121354  1
  Er  Er11  1  0.791873  0.588202  0.622994  1
  Er  Er12  1  0.911939  0.709610  0.121193  1
  Er  Er13  1  0.914712  0.285450  0.621660  1
  Er  Er14  1  0.085288  0.714550  0.621660  1
  Er  Er15  1  0.088061  0.290390  0.121193  1
  Er  Er16  1  0.000000  0.000000  0.000000  1
  Er  Er17  1  0.500000  0.500000  0.000000  1
  Er  Er18  1  0.500000  0.500000  0.500000  1
  Mg  Mg19  1  0.000000  0.000000  0.500000  1
  Ir  Ir20  1  0.846023  0.154126  0.248565  1
  Ir  Ir21  1  0.845874  0.846023  0.751435  1
  Ir  Ir22  1  0.154126  0.153977  0.751435  1
  Ir  Ir23  1  0.153977  0.845874  0.248565  1
  Ir  Ir24  1  0.654400  0.346066  0.748616  1
  Ir  Ir25  1  0.653934  0.654400  0.251384  1
  Ir  Ir26  1  0.346066  0.345600  0.251384  1
  Ir  Ir27  1  0.345600  0.653934  0.748616  1
  Ir  Ir28  1  0.500000  0.000000  0.122889  1
  Ir  Ir29  1  0.500000  0.000000  0.620588  1
  Ir  Ir30  1  0.000000  0.500000  0.877111  1
  Ir  Ir31  1  0.000000  0.500000  0.379412  1
