# generated using pymatgen
data_Ac2Al7GaCu18
_symmetry_space_group_name_H-M   'P 1'
_cell_length_a   8.42216431
_cell_length_b   8.42216521
_cell_length_c   8.40091400
_cell_angle_alpha   119.88025686
_cell_angle_beta   119.88024467
_cell_angle_gamma   89.84470275
_symmetry_Int_Tables_number   1
_chemical_formula_structural   Ac2Al7GaCu18
_chemical_formula_sum   'Ac2 Al7 Ga1 Cu18'
_cell_volume   423.44771279
_cell_formula_units_Z   1
loop_
 _symmetry_equiv_pos_site_id
 _symmetry_equiv_pos_as_xyz
  1  'x, y, z'
loop_
 _atom_site_type_symbol
 _atom_site_label
 _atom_site_symmetry_multiplicity
 _atom_site_fract_x
 _atom_site_fract_y
 _atom_site_fract_z
 _atom_site_occupancy
  Ac  Ac0  1  0.249591  0.249051  0.000052  1
  Ac  Ac1  1  0.749051  0.749591  0.000052  1
  Al  Al2  1  0.560643  0.060643  0.858826  1
  Al  Al3  1  0.797072  0.297072  0.859800  1
  Al  Al4  1  0.937541  0.798461  0.499821  1
  Al  Al5  1  0.701733  0.562462  0.500337  1
  Al  Al6  1  0.202977  0.702977  0.141013  1
  Al  Al7  1  0.298461  0.437541  0.499821  1
  Al  Al8  1  0.062462  0.201733  0.500337  1
  Ga  Ga9  1  0.439728  0.939728  0.135336  1
  Cu  Cu10  1  0.560837  0.705529  0.265979  1
  Cu  Cu11  1  0.793327  0.938549  0.734141  1
  Cu  Cu12  1  0.939015  0.204798  0.144186  1
  Cu  Cu13  1  0.205529  0.060837  0.265979  1
  Cu  Cu14  1  0.565993  0.297237  0.504079  1
  Cu  Cu15  1  0.708307  0.208307  0.273240  1
  Cu  Cu16  1  0.203942  0.935078  0.497613  1
  Cu  Cu17  1  0.797237  0.065993  0.504079  1
  Cu  Cu18  1  0.938048  0.438048  0.734334  1
  Cu  Cu19  1  0.062325  0.562325  0.266414  1
  Cu  Cu20  1  0.438549  0.293327  0.734141  1
  Cu  Cu21  1  0.060178  0.794574  0.856341  1
  Cu  Cu22  1  0.435078  0.703942  0.497613  1
  Cu  Cu23  1  0.704798  0.439015  0.144186  1
  Cu  Cu24  1  0.500319  0.000319  0.498555  1
  Cu  Cu25  1  0.292096  0.792096  0.726338  1
  Cu  Cu26  1  0.294574  0.560178  0.856341  1
  Cu  Cu27  1  0.000588  0.500588  0.501044  1
