# generated using pymatgen
data_Tb10InSn5Se2
_symmetry_space_group_name_H-M   'P 1'
_cell_length_a   9.16662527
_cell_length_b   9.16662487
_cell_length_c   6.78458700
_cell_angle_alpha   90.00000000
_cell_angle_beta   90.00000000
_cell_angle_gamma   119.97198871
_symmetry_Int_Tables_number   1
_chemical_formula_structural   Tb10InSn5Se2
_chemical_formula_sum   'Tb10 In1 Sn5 Se2'
_cell_volume   493.85050183
_cell_formula_units_Z   1
loop_
 _symmetry_equiv_pos_site_id
 _symmetry_equiv_pos_as_xyz
  1  'x, y, z'
loop_
 _atom_site_type_symbol
 _atom_site_label
 _atom_site_symmetry_multiplicity
 _atom_site_fract_x
 _atom_site_fract_y
 _atom_site_fract_z
 _atom_site_occupancy
  Tb  Tb0  1  0.666485  0.333316  0.999859  1
  Tb  Tb1  1  0.333316  0.666485  0.999859  1
  Tb  Tb2  1  0.333316  0.666485  0.500141  1
  Tb  Tb3  1  0.666485  0.333316  0.500141  1
  Tb  Tb4  1  0.748117  0.748117  0.750000  1
  Tb  Tb5  1  0.252298  0.999839  0.750000  1
  Tb  Tb6  1  0.999839  0.252298  0.750000  1
  Tb  Tb7  1  0.251930  0.251930  0.250000  1
  Tb  Tb8  1  0.748103  0.000318  0.250000  1
  Tb  Tb9  1  0.000318  0.748103  0.250000  1
  In  In10  1  0.397388  0.397388  0.750000  1
  Sn  Sn11  1  0.603394  0.999941  0.750000  1
  Sn  Sn12  1  0.999941  0.603394  0.750000  1
  Sn  Sn13  1  0.602571  0.602571  0.250000  1
  Sn  Sn14  1  0.396557  0.999993  0.250000  1
  Sn  Sn15  1  0.999993  0.396557  0.250000  1
  Se  Se16  1  0.999975  0.999975  0.000211  1
  Se  Se17  1  0.999975  0.999975  0.499789  1
