# generated using pymatgen
data_Ca4Si4SbRh9
_symmetry_space_group_name_H-M   'P 1'
_cell_length_a   11.75470389
_cell_length_b   11.75470314
_cell_length_c   11.75470389
_cell_angle_alpha   28.02998652
_cell_angle_beta   28.02999397
_cell_angle_gamma   28.02999172
_symmetry_Int_Tables_number   1
_chemical_formula_structural   Ca4Si4SbRh9
_chemical_formula_sum   'Ca4 Si4 Sb1 Rh9'
_cell_volume   316.81511933
_cell_formula_units_Z   1
loop_
 _symmetry_equiv_pos_site_id
 _symmetry_equiv_pos_as_xyz
  1  'x, y, z'
loop_
 _atom_site_type_symbol
 _atom_site_label
 _atom_site_symmetry_multiplicity
 _atom_site_fract_x
 _atom_site_fract_y
 _atom_site_fract_z
 _atom_site_occupancy
  Ca  Ca0  1  0.950258  0.950258  0.950258  1
  Ca  Ca1  1  0.853062  0.853062  0.853062  1
  Ca  Ca2  1  0.146938  0.146938  0.146938  1
  Ca  Ca3  1  0.049742  0.049742  0.049742  1
  Si  Si4  1  0.280279  0.280279  0.280279  1
  Si  Si5  1  0.386485  0.386485  0.386485  1
  Si  Si6  1  0.719721  0.719721  0.719721  1
  Si  Si7  1  0.613515  0.613515  0.613515  1
  Sb  Sb8  1  0.500000  0.500000  0.500000  1
  Rh  Rh9  1  0.604461  0.604461  0.101022  1
  Rh  Rh10  1  0.898978  0.395539  0.395539  1
  Rh  Rh11  1  0.500000  0.000000  0.500000  1
  Rh  Rh12  1  0.395539  0.898978  0.395539  1
  Rh  Rh13  1  0.500000  0.500000  0.000000  1
  Rh  Rh14  1  0.101022  0.604461  0.604461  1
  Rh  Rh15  1  0.000000  0.500000  0.500000  1
  Rh  Rh16  1  0.395539  0.395539  0.898978  1
  Rh  Rh17  1  0.604461  0.101022  0.604461  1
