# generated using pymatgen
data_NdTmPa2(Al8Pt3)3
_symmetry_space_group_name_H-M   'P 1'
_cell_length_a   7.57712970
_cell_length_b   7.58439805
_cell_length_c   13.13372224
_cell_angle_alpha   84.49634483
_cell_angle_beta   78.92125494
_cell_angle_gamma   59.91238024
_symmetry_Int_Tables_number   1
_chemical_formula_structural   NdTmPa2(Al8Pt3)3
_chemical_formula_sum   'Nd1 Tm1 Pa2 Al24 Pt9'
_cell_volume   640.89996934
_cell_formula_units_Z   1
loop_
 _symmetry_equiv_pos_site_id
 _symmetry_equiv_pos_as_xyz
  1  'x, y, z'
loop_
 _atom_site_type_symbol
 _atom_site_label
 _atom_site_symmetry_multiplicity
 _atom_site_fract_x
 _atom_site_fract_y
 _atom_site_fract_z
 _atom_site_occupancy
  Nd  Nd0  1  0.733081  0.498326  0.809919  1
  Tm  Tm1  1  0.265643  0.501201  0.193351  1
  Pa  Pa2  1  0.395563  0.167976  0.804128  1
  Pa  Pa3  1  0.604221  0.832275  0.195877  1
  Al  Al4  1  0.683518  0.835513  0.946681  1
  Al  Al5  1  0.316097  0.166962  0.056057  1
  Al  Al6  1  0.145887  0.832514  0.560342  1
  Al  Al7  1  0.854745  0.167098  0.438201  1
  Al  Al8  1  0.480788  0.167749  0.557238  1
  Al  Al9  1  0.519446  0.832296  0.441579  1
  Al  Al10  1  0.214450  0.168386  0.330473  1
  Al  Al11  1  0.786558  0.832164  0.666714  1
  Al  Al12  1  0.437620  0.509429  0.667800  1
  Al  Al13  1  0.562576  0.490468  0.329466  1
  Al  Al14  1  0.109138  0.158978  0.665814  1
  Al  Al15  1  0.892789  0.840172  0.331409  1
  Al  Al16  1  0.350500  0.499704  0.945782  1
  Al  Al17  1  0.644820  0.501078  0.059025  1
  Al  Al18  1  0.016410  0.166368  0.954639  1
  Al  Al19  1  0.984110  0.831568  0.049249  1
  Al  Al20  1  0.186071  0.500233  0.440547  1
  Al  Al21  1  0.814706  0.499691  0.557914  1
  Al  Al22  1  0.736250  0.162210  0.183047  1
  Al  Al23  1  0.261166  0.840373  0.817071  1
  Al  Al24  1  0.065076  0.630424  0.815828  1
  Al  Al25  1  0.938364  0.368957  0.184196  1
  Al  Al26  1  0.854424  0.037816  0.816743  1
  Al  Al27  1  0.145282  0.959115  0.183203  1
  Pt  Pt28  1  0.122069  0.490952  0.638695  1
  Pt  Pt29  1  0.879986  0.509420  0.359688  1
  Pt  Pt30  1  0.656489  0.172808  0.000883  1
  Pt  Pt31  1  0.342377  0.827721  0.000777  1
  Pt  Pt32  1  0.537041  0.166447  0.359777  1
  Pt  Pt33  1  0.461858  0.834976  0.638613  1
  Pt  Pt34  1  0.778300  0.173958  0.637487  1
  Pt  Pt35  1  0.222807  0.824018  0.360712  1
  Pt  Pt36  1  0.999776  0.500654  0.001073  1
