# generated using pymatgen
data_Y3Al3Ge2Ru
_symmetry_space_group_name_H-M   'P 1'
_cell_length_a   6.98140800
_cell_length_b   6.98140691
_cell_length_c   4.26605700
_cell_angle_alpha   90.00000000
_cell_angle_beta   90.00000000
_cell_angle_gamma   119.99999569
_symmetry_Int_Tables_number   1
_chemical_formula_structural   Y3Al3Ge2Ru
_chemical_formula_sum   'Y3 Al3 Ge2 Ru1'
_cell_volume   180.07079221
_cell_formula_units_Z   1
loop_
 _symmetry_equiv_pos_site_id
 _symmetry_equiv_pos_as_xyz
  1  'x, y, z'
loop_
 _atom_site_type_symbol
 _atom_site_label
 _atom_site_symmetry_multiplicity
 _atom_site_fract_x
 _atom_site_fract_y
 _atom_site_fract_z
 _atom_site_occupancy
  Y  Y0  1  0.000000  0.584271  0.000000  1
  Y  Y1  1  0.415729  0.415729  0.000000  1
  Y  Y2  1  0.584271  0.000000  0.000000  1
  Al  Al3  1  0.226379  0.000000  0.500000  1
  Al  Al4  1  0.773621  0.773621  0.500000  1
  Al  Al5  1  0.000000  0.226379  0.500000  1
  Ge  Ge6  1  0.666667  0.333333  0.500000  1
  Ge  Ge7  1  0.333333  0.666667  0.500000  1
  Ru  Ru8  1  0.000000  0.000000  0.000000  1
