# generated using pymatgen
data_TiNb9S16
_symmetry_space_group_name_H-M   'P 1'
_cell_length_a   6.69895100
_cell_length_b   6.69894924
_cell_length_c   12.53215500
_cell_angle_alpha   90.00000000
_cell_angle_beta   90.00000000
_cell_angle_gamma   120.00000376
_symmetry_Int_Tables_number   1
_chemical_formula_structural   TiNb9S16
_chemical_formula_sum   'Ti1 Nb9 S16'
_cell_volume   487.04586551
_cell_formula_units_Z   1
loop_
 _symmetry_equiv_pos_site_id
 _symmetry_equiv_pos_as_xyz
  1  'x, y, z'
loop_
 _atom_site_type_symbol
 _atom_site_label
 _atom_site_symmetry_multiplicity
 _atom_site_fract_x
 _atom_site_fract_y
 _atom_site_fract_z
 _atom_site_occupancy
  Ti  Ti0  1  0.000000  0.000000  0.000000  1
  Nb  Nb1  1  0.000000  0.000000  0.247584  1
  Nb  Nb2  1  0.000000  0.000000  0.752416  1
  Nb  Nb3  1  0.505109  0.494891  0.247549  1
  Nb  Nb4  1  0.505109  0.010219  0.247549  1
  Nb  Nb5  1  0.989781  0.494891  0.247549  1
  Nb  Nb6  1  0.494891  0.505109  0.752451  1
  Nb  Nb7  1  0.494891  0.989781  0.752451  1
  Nb  Nb8  1  0.010219  0.505109  0.752451  1
  Nb  Nb9  1  0.000000  0.000000  0.500000  1
  S  S10  1  0.333333  0.666667  0.879786  1
  S  S11  1  0.666667  0.333333  0.120214  1
  S  S12  1  0.666667  0.333333  0.375567  1
  S  S13  1  0.333333  0.666667  0.624433  1
  S  S14  1  0.167642  0.832358  0.373902  1
  S  S15  1  0.167642  0.335284  0.373902  1
  S  S16  1  0.664716  0.832358  0.373902  1
  S  S17  1  0.832358  0.167642  0.626098  1
  S  S18  1  0.832358  0.664716  0.626098  1
  S  S19  1  0.335284  0.167642  0.626098  1
  S  S20  1  0.833365  0.166635  0.879209  1
  S  S21  1  0.833365  0.666730  0.879209  1
  S  S22  1  0.333270  0.166635  0.879209  1
  S  S23  1  0.166635  0.833365  0.120791  1
  S  S24  1  0.166635  0.333270  0.120791  1
  S  S25  1  0.666730  0.833365  0.120791  1
