# generated using pymatgen
data_MgNi2Sn7Pd2
_symmetry_space_group_name_H-M   'P 1'
_cell_length_a   6.40249767
_cell_length_b   6.40162069
_cell_length_c   7.77785193
_cell_angle_alpha   113.85088249
_cell_angle_beta   113.83058894
_cell_angle_gamma   89.90046787
_symmetry_Int_Tables_number   1
_chemical_formula_structural   MgNi2Sn7Pd2
_chemical_formula_sum   'Mg1 Ni2 Sn7 Pd2'
_cell_volume   261.67954017
_cell_formula_units_Z   1
loop_
 _symmetry_equiv_pos_site_id
 _symmetry_equiv_pos_as_xyz
  1  'x, y, z'
loop_
 _atom_site_type_symbol
 _atom_site_label
 _atom_site_symmetry_multiplicity
 _atom_site_fract_x
 _atom_site_fract_y
 _atom_site_fract_z
 _atom_site_occupancy
  Mg  Mg0  1  0.625982  0.909266  0.252645  1
  Ni  Ni1  1  0.246958  0.532105  0.003728  1
  Ni  Ni2  1  0.757905  0.042948  0.004664  1
  Sn  Sn3  1  0.392140  0.677680  0.782689  1
  Sn  Sn4  1  0.382979  0.167284  0.767914  1
  Sn  Sn5  1  0.882030  0.668414  0.767838  1
  Sn  Sn6  1  0.877608  0.162852  0.753550  1
  Sn  Sn7  1  0.121678  0.406999  0.244086  1
  Sn  Sn8  1  0.123947  0.908711  0.245097  1
  Sn  Sn9  1  0.623370  0.407718  0.245137  1
  Pd  Pd10  1  0.499893  0.289549  0.505249  1
  Pd  Pd11  1  0.004309  0.785075  0.505002  1
