# generated using pymatgen
data_MgZnIn(Ni10B3)2
_symmetry_space_group_name_H-M   'P 1'
_cell_length_a   7.47691310
_cell_length_b   7.47691287
_cell_length_c   7.47691400
_cell_angle_alpha   60.00000385
_cell_angle_beta   60.00000485
_cell_angle_gamma   60.00000223
_symmetry_Int_Tables_number   1
_chemical_formula_structural   MgZnIn(Ni10B3)2
_chemical_formula_sum   'Mg1 Zn1 In1 Ni20 B6'
_cell_volume   295.56436795
_cell_formula_units_Z   1
loop_
 _symmetry_equiv_pos_site_id
 _symmetry_equiv_pos_as_xyz
  1  'x, y, z'
loop_
 _atom_site_type_symbol
 _atom_site_label
 _atom_site_symmetry_multiplicity
 _atom_site_fract_x
 _atom_site_fract_y
 _atom_site_fract_z
 _atom_site_occupancy
  Mg  Mg0  1  0.750000  0.750000  0.750000  1
  Zn  Zn1  1  0.000000  0.000000  0.000000  1
  In  In2  1  0.250000  0.250000  0.250000  1
  Ni  Ni3  1  0.998840  0.998840  0.663539  1
  Ni  Ni4  1  0.386574  0.840278  0.386574  1
  Ni  Ni5  1  0.663539  0.338782  0.998840  1
  Ni  Ni6  1  0.998840  0.338782  0.663539  1
  Ni  Ni7  1  0.663539  0.998840  0.998840  1
  Ni  Ni8  1  0.998840  0.998840  0.338782  1
  Ni  Ni9  1  0.663539  0.998840  0.338782  1
  Ni  Ni10  1  0.998840  0.338782  0.998840  1
  Ni  Ni11  1  0.998840  0.663539  0.338782  1
  Ni  Ni12  1  0.338782  0.998840  0.998840  1
  Ni  Ni13  1  0.998840  0.663539  0.998840  1
  Ni  Ni14  1  0.338782  0.998840  0.663539  1
  Ni  Ni15  1  0.386574  0.386574  0.386574  1
  Ni  Ni16  1  0.338782  0.663539  0.998840  1
  Ni  Ni17  1  0.615170  0.154491  0.615170  1
  Ni  Ni18  1  0.386574  0.386574  0.840278  1
  Ni  Ni19  1  0.840278  0.386574  0.386574  1
  Ni  Ni20  1  0.615170  0.615170  0.615170  1
  Ni  Ni21  1  0.154491  0.615170  0.615170  1
  Ni  Ni22  1  0.615170  0.615170  0.154491  1
  B  B23  1  0.726312  0.726312  0.273688  1
  B  B24  1  0.726312  0.273688  0.726312  1
  B  B25  1  0.273688  0.726312  0.273688  1
  B  B26  1  0.726312  0.273688  0.273688  1
  B  B27  1  0.273688  0.726312  0.726312  1
  B  B28  1  0.273688  0.273688  0.726312  1
