# generated using pymatgen
data_La8Al5Ga3Pt8
_symmetry_space_group_name_H-M   'P 1'
_cell_length_a   4.29318500
_cell_length_b   7.33422993
_cell_length_c   16.73264360
_cell_angle_alpha   89.79538075
_cell_angle_beta   90.00000000
_cell_angle_gamma   90.00000000
_symmetry_Int_Tables_number   1
_chemical_formula_structural   La8Al5Ga3Pt8
_chemical_formula_sum   'La8 Al5 Ga3 Pt8'
_cell_volume   526.86083492
_cell_formula_units_Z   1
loop_
 _symmetry_equiv_pos_site_id
 _symmetry_equiv_pos_as_xyz
  1  'x, y, z'
loop_
 _atom_site_type_symbol
 _atom_site_label
 _atom_site_symmetry_multiplicity
 _atom_site_fract_x
 _atom_site_fract_y
 _atom_site_fract_z
 _atom_site_occupancy
  La  La0  1  0.250000  0.516958  0.776882  1
  La  La1  1  0.750000  0.487532  0.223759  1
  La  La2  1  0.750000  0.982343  0.277641  1
  La  La3  1  0.250000  0.016914  0.723378  1
  La  La4  1  0.250000  0.644953  0.559829  1
  La  La5  1  0.750000  0.352933  0.439848  1
  La  La6  1  0.750000  0.853051  0.058416  1
  La  La7  1  0.250000  0.144980  0.939495  1
  Al  Al8  1  0.250000  0.160955  0.147559  1
  Al  Al9  1  0.250000  0.504883  0.062040  1
  Al  Al10  1  0.750000  0.491571  0.939038  1
  Al  Al11  1  0.750000  0.993731  0.562044  1
  Al  Al12  1  0.250000  0.006207  0.438414  1
  Ga  Ga13  1  0.250000  0.657191  0.353081  1
  Ga  Ga14  1  0.750000  0.342286  0.648228  1
  Ga  Ga15  1  0.750000  0.841948  0.851809  1
  Pt  Pt16  1  0.250000  0.773850  0.176743  1
  Pt  Pt17  1  0.750000  0.236096  0.821658  1
  Pt  Pt18  1  0.750000  0.736500  0.678397  1
  Pt  Pt19  1  0.250000  0.263301  0.318345  1
  Pt  Pt20  1  0.250000  0.701963  0.931218  1
  Pt  Pt21  1  0.750000  0.290491  0.071682  1
  Pt  Pt22  1  0.750000  0.795030  0.432054  1
  Pt  Pt23  1  0.250000  0.204333  0.568442  1
