# generated using pymatgen
data_TbMg3Ge5AsIr7
_symmetry_space_group_name_H-M   'P 1'
_cell_length_a   7.00352773
_cell_length_b   7.16406113
_cell_length_c   7.16928187
_cell_angle_alpha   109.80987398
_cell_angle_beta   108.90621045
_cell_angle_gamma   109.21294255
_symmetry_Int_Tables_number   1
_chemical_formula_structural   TbMg3Ge5AsIr7
_chemical_formula_sum   'Tb1 Mg3 Ge5 As1 Ir7'
_cell_volume   278.53481474
_cell_formula_units_Z   1
loop_
 _symmetry_equiv_pos_site_id
 _symmetry_equiv_pos_as_xyz
  1  'x, y, z'
loop_
 _atom_site_type_symbol
 _atom_site_label
 _atom_site_symmetry_multiplicity
 _atom_site_fract_x
 _atom_site_fract_y
 _atom_site_fract_z
 _atom_site_occupancy
  Tb  Tb0  1  0.500813  0.000972  0.000000  1
  Mg  Mg1  1  0.001534  0.001584  0.501848  1
  Mg  Mg2  1  0.001505  0.499855  0.000000  1
  Mg  Mg3  1  0.499686  0.499736  0.498152  1
  Ge  Ge4  1  0.309115  0.000112  0.315579  1
  Ge  Ge5  1  0.008895  0.316668  0.316421  1
  Ge  Ge6  1  0.303915  0.311878  0.000000  1
  Ge  Ge7  1  0.692472  0.000247  0.683579  1
  Ge  Ge8  1  0.993535  0.684533  0.684421  1
  As  As9  1  0.688499  0.682509  0.000000  1
  Ir  Ir10  1  0.753897  0.255367  0.507886  1
  Ir  Ir11  1  0.752949  0.506565  0.251998  1
  Ir  Ir12  1  0.500951  0.254567  0.748002  1
  Ir  Ir13  1  0.247331  0.493219  0.747186  1
  Ir  Ir14  1  0.246011  0.747482  0.492114  1
  Ir  Ir15  1  0.500146  0.746034  0.252814  1
  Ir  Ir16  1  0.998746  0.998671  0.000000  1
