# generated using pymatgen
data_Na2Np(CuS2)2
_symmetry_space_group_name_H-M   'P 1'
_cell_length_a   7.31138781
_cell_length_b   7.31138893
_cell_length_c   7.20449207
_cell_angle_alpha   67.79949065
_cell_angle_beta   67.79948514
_cell_angle_gamma   30.76928462
_symmetry_Int_Tables_number   1
_chemical_formula_structural   Na2Np(CuS2)2
_chemical_formula_sum   'Na2 Np1 Cu2 S4'
_cell_volume   181.26407800
_cell_formula_units_Z   1
loop_
 _symmetry_equiv_pos_site_id
 _symmetry_equiv_pos_as_xyz
  1  'x, y, z'
loop_
 _atom_site_type_symbol
 _atom_site_label
 _atom_site_symmetry_multiplicity
 _atom_site_fract_x
 _atom_site_fract_y
 _atom_site_fract_z
 _atom_site_occupancy
  Na  Na0  1  0.862161  0.862161  0.561607  1
  Na  Na1  1  0.137839  0.137839  0.438393  1
  Np  Np2  1  0.000000  0.000000  0.000000  1
  Cu  Cu3  1  0.318445  0.318445  0.986790  1
  Cu  Cu4  1  0.681555  0.681555  0.013210  1
  S  S5  1  0.792099  0.792099  0.195744  1
  S  S6  1  0.207901  0.207901  0.804256  1
  S  S7  1  0.486543  0.486543  0.749975  1
  S  S8  1  0.513457  0.513457  0.250025  1
