# generated using pymatgen
data_Pa4Al5Re3
_symmetry_space_group_name_H-M   'P 1'
_cell_length_a   5.41891276
_cell_length_b   5.20867449
_cell_length_c   9.09934300
_cell_angle_alpha   90.00000000
_cell_angle_beta   90.00000000
_cell_angle_gamma   118.72469857
_symmetry_Int_Tables_number   1
_chemical_formula_structural   Pa4Al5Re3
_chemical_formula_sum   'Pa4 Al5 Re3'
_cell_volume   225.22616044
_cell_formula_units_Z   1
loop_
 _symmetry_equiv_pos_site_id
 _symmetry_equiv_pos_as_xyz
  1  'x, y, z'
loop_
 _atom_site_type_symbol
 _atom_site_label
 _atom_site_symmetry_multiplicity
 _atom_site_fract_x
 _atom_site_fract_y
 _atom_site_fract_z
 _atom_site_occupancy
  Pa  Pa0  1  0.356352  0.678176  0.457952  1
  Pa  Pa1  1  0.641007  0.320503  0.559151  1
  Pa  Pa2  1  0.641007  0.320503  0.940849  1
  Pa  Pa3  1  0.356352  0.678176  0.042048  1
  Al  Al4  1  0.849577  0.174572  0.250000  1
  Al  Al5  1  0.849577  0.675006  0.250000  1
  Al  Al6  1  0.343443  0.171721  0.250000  1
  Al  Al7  1  0.144371  0.824202  0.750000  1
  Al  Al8  1  0.144371  0.320166  0.750000  1
  Re  Re9  1  0.015664  0.007833  0.496550  1
  Re  Re10  1  0.015664  0.007833  0.003450  1
  Re  Re11  1  0.642617  0.821309  0.750000  1
