# generated using pymatgen
data_Tb5Yb(CoSn6)2
_symmetry_space_group_name_H-M   'P 1'
_cell_length_a   8.48328478
_cell_length_b   8.48328497
_cell_length_c   13.15467723
_cell_angle_alpha   90.01849388
_cell_angle_beta   89.98150646
_cell_angle_gamma   148.51339882
_symmetry_Int_Tables_number   1
_chemical_formula_structural   Tb5Yb(CoSn6)2
_chemical_formula_sum   'Tb5 Yb1 Co2 Sn12'
_cell_volume   494.45594088
_cell_formula_units_Z   1
loop_
 _symmetry_equiv_pos_site_id
 _symmetry_equiv_pos_as_xyz
  1  'x, y, z'
loop_
 _atom_site_type_symbol
 _atom_site_label
 _atom_site_symmetry_multiplicity
 _atom_site_fract_x
 _atom_site_fract_y
 _atom_site_fract_z
 _atom_site_occupancy
  Tb  Tb0  1  0.898839  0.101161  0.093837  1
  Tb  Tb1  1  0.100886  0.899114  0.594254  1
  Tb  Tb2  1  0.901042  0.098958  0.751686  1
  Tb  Tb3  1  0.100465  0.899535  0.906806  1
  Tb  Tb4  1  0.099526  0.900474  0.249743  1
  Yb  Yb5  1  0.899333  0.100667  0.403707  1
  Co  Co6  1  0.298594  0.701406  0.250025  1
  Co  Co7  1  0.700675  0.299325  0.749830  1
  Sn  Sn8  1  0.756580  0.243420  0.571748  1
  Sn  Sn9  1  0.428510  0.571490  0.576564  1
  Sn  Sn10  1  0.572663  0.427337  0.423920  1
  Sn  Sn11  1  0.734184  0.265816  0.248950  1
  Sn  Sn12  1  0.265609  0.734391  0.750333  1
  Sn  Sn13  1  0.243667  0.756333  0.071165  1
  Sn  Sn14  1  0.244481  0.755519  0.429006  1
  Sn  Sn15  1  0.571609  0.428391  0.075839  1
  Sn  Sn16  1  0.453751  0.546249  0.248646  1
  Sn  Sn17  1  0.546322  0.453678  0.750540  1
  Sn  Sn18  1  0.755796  0.244204  0.928520  1
  Sn  Sn19  1  0.427467  0.572533  0.924883  1
