# generated using pymatgen
data_Er3Tm17Co4Bi7Sb
_symmetry_space_group_name_H-M   'P 1'
_cell_length_a   7.85231341
_cell_length_b   8.81550788
_cell_length_c   12.23589194
_cell_angle_alpha   89.99774124
_cell_angle_beta   90.04540583
_cell_angle_gamma   89.94898659
_symmetry_Int_Tables_number   1
_chemical_formula_structural   Er3Tm17Co4Bi7Sb
_chemical_formula_sum   'Er3 Tm17 Co4 Bi7 Sb1'
_cell_volume   846.99390874
_cell_formula_units_Z   1
loop_
 _symmetry_equiv_pos_site_id
 _symmetry_equiv_pos_as_xyz
  1  'x, y, z'
loop_
 _atom_site_type_symbol
 _atom_site_label
 _atom_site_symmetry_multiplicity
 _atom_site_fract_x
 _atom_site_fract_y
 _atom_site_fract_z
 _atom_site_occupancy
  Er  Er0  1  0.121364  0.252400  0.188247  1
  Er  Er1  1  0.382291  0.250053  0.687652  1
  Er  Er2  1  0.882196  0.750103  0.812082  1
  Tm  Tm3  1  0.157091  0.746765  0.200358  1
  Tm  Tm4  1  0.652916  0.252849  0.298237  1
  Tm  Tm5  1  0.845283  0.249947  0.800397  1
  Tm  Tm6  1  0.345420  0.750188  0.700351  1
  Tm  Tm7  1  0.445444  0.747584  0.999169  1
  Tm  Tm8  1  0.944159  0.249766  0.501880  1
  Tm  Tm9  1  0.553464  0.252214  0.004061  1
  Tm  Tm10  1  0.055468  0.750188  0.497513  1
  Tm  Tm11  1  0.615000  0.747145  0.311301  1
  Tm  Tm12  1  0.826744  0.962254  0.063960  1
  Tm  Tm13  1  0.326730  0.037563  0.435794  1
  Tm  Tm14  1  0.173635  0.462228  0.937780  1
  Tm  Tm15  1  0.673205  0.538175  0.563573  1
  Tm  Tm16  1  0.173971  0.037643  0.936662  1
  Tm  Tm17  1  0.673549  0.961752  0.563268  1
  Tm  Tm18  1  0.824493  0.538010  0.064394  1
  Tm  Tm19  1  0.327592  0.462697  0.433629  1
  Co  Co20  1  0.433387  0.749694  0.491889  1
  Co  Co21  1  0.933825  0.250617  0.008485  1
  Co  Co22  1  0.566447  0.250180  0.507138  1
  Co  Co23  1  0.066345  0.749695  0.992527  1
  Bi  Bi24  1  0.930497  0.990952  0.326358  1
  Bi  Bi25  1  0.431558  0.008357  0.172909  1
  Bi  Bi26  1  0.068902  0.490875  0.672890  1
  Bi  Bi27  1  0.568547  0.508841  0.827173  1
  Bi  Bi28  1  0.068875  0.009144  0.672876  1
  Bi  Bi29  1  0.568311  0.991185  0.828180  1
  Bi  Bi30  1  0.930814  0.509147  0.327266  1
  Sb  Sb31  1  0.432480  0.491787  0.171999  1
