# generated using pymatgen
data_Dy9Ho7Cd3AgIr4
_symmetry_space_group_name_H-M   'P 1'
_cell_length_a   9.61110207
_cell_length_b   9.61041152
_cell_length_c   9.61475700
_cell_angle_alpha   59.86043940
_cell_angle_beta   59.87939138
_cell_angle_gamma   59.88852339
_symmetry_Int_Tables_number   1
_chemical_formula_structural   Dy9Ho7Cd3AgIr4
_chemical_formula_sum   'Dy9 Ho7 Cd3 Ag1 Ir4'
_cell_volume   626.20417580
_cell_formula_units_Z   1
loop_
 _symmetry_equiv_pos_site_id
 _symmetry_equiv_pos_as_xyz
  1  'x, y, z'
loop_
 _atom_site_type_symbol
 _atom_site_label
 _atom_site_symmetry_multiplicity
 _atom_site_fract_x
 _atom_site_fract_y
 _atom_site_fract_z
 _atom_site_occupancy
  Dy  Dy0  1  0.060381  0.438162  0.060352  1
  Dy  Dy1  1  0.439342  0.439166  0.060632  1
  Dy  Dy2  1  0.060527  0.060387  0.438197  1
  Dy  Dy3  1  0.185791  0.812161  0.811951  1
  Dy  Dy4  1  0.811521  0.187026  0.187198  1
  Dy  Dy5  1  0.812035  0.185785  0.812018  1
  Dy  Dy6  1  0.187111  0.811707  0.187095  1
  Dy  Dy7  1  0.811915  0.812106  0.185779  1
  Dy  Dy8  1  0.187283  0.187084  0.811485  1
  Ho  Ho9  1  0.598896  0.598953  0.598552  1
  Ho  Ho10  1  0.599449  0.599910  0.202489  1
  Ho  Ho11  1  0.599419  0.202353  0.599875  1
  Ho  Ho12  1  0.202554  0.599479  0.599478  1
  Ho  Ho13  1  0.060527  0.439253  0.439460  1
  Ho  Ho14  1  0.438233  0.060277  0.060449  1
  Ho  Ho15  1  0.439280  0.060432  0.439324  1
  Cd  Cd16  1  0.831178  0.831184  0.508495  1
  Cd  Cd17  1  0.831239  0.508530  0.831135  1
  Cd  Cd18  1  0.508542  0.831267  0.831160  1
  Ag  Ag19  1  0.832839  0.832944  0.832971  1
  Ir  Ir20  1  0.391742  0.391724  0.392133  1
  Ir  Ir21  1  0.392655  0.392264  0.824807  1
  Ir  Ir22  1  0.392746  0.825094  0.392290  1
  Ir  Ir23  1  0.824796  0.392752  0.392673  1
