# generated using pymatgen
data_TbHo3Th2(Co3P2)6
_symmetry_space_group_name_H-M   'P 1'
_cell_length_a   3.73390300
_cell_length_b   10.54927000
_cell_length_c   12.21972400
_cell_angle_alpha   89.99944637
_cell_angle_beta   90.00000000
_cell_angle_gamma   90.00000000
_symmetry_Int_Tables_number   1
_chemical_formula_structural   TbHo3Th2(Co3P2)6
_chemical_formula_sum   'Tb1 Ho3 Th2 Co18 P12'
_cell_volume   481.33432837
_cell_formula_units_Z   1
loop_
 _symmetry_equiv_pos_site_id
 _symmetry_equiv_pos_as_xyz
  1  'x, y, z'
loop_
 _atom_site_type_symbol
 _atom_site_label
 _atom_site_symmetry_multiplicity
 _atom_site_fract_x
 _atom_site_fract_y
 _atom_site_fract_z
 _atom_site_occupancy
  Tb  Tb0  1  0.000000  0.316056  0.795964  1
  Ho  Ho1  1  0.500000  0.816052  0.204174  1
  Ho  Ho2  1  0.500000  0.183953  0.204035  1
  Ho  Ho3  1  0.000000  0.684103  0.795874  1
  Th  Th4  1  0.000000  0.500073  0.525014  1
  Th  Th5  1  0.500000  0.999980  0.474922  1
  Co  Co6  1  0.500000  0.500017  0.156245  1
  Co  Co7  1  0.000000  0.999957  0.843825  1
  Co  Co8  1  0.500000  0.500623  0.703063  1
  Co  Co9  1  0.000000  0.999980  0.296638  1
  Co  Co10  1  0.000000  0.500240  0.986097  1
  Co  Co11  1  0.500000  0.999700  0.014386  1
  Co  Co12  1  0.500000  0.333558  0.995259  1
  Co  Co13  1  0.500000  0.666662  0.994851  1
  Co  Co14  1  0.000000  0.166220  0.005482  1
  Co  Co15  1  0.000000  0.833636  0.005222  1
  Co  Co16  1  0.500000  0.299121  0.429311  1
  Co  Co17  1  0.500000  0.700897  0.429377  1
  Co  Co18  1  0.000000  0.200749  0.570187  1
  Co  Co19  1  0.000000  0.799149  0.570598  1
  Co  Co20  1  0.500000  0.879867  0.713086  1
  Co  Co21  1  0.500000  0.119422  0.712711  1
  Co  Co22  1  0.000000  0.620005  0.286906  1
  Co  Co23  1  0.000000  0.380035  0.286884  1
  P  P24  1  0.500000  0.500531  0.882535  1
  P  P25  1  0.000000  0.999946  0.117835  1
  P  P26  1  0.500000  0.500005  0.338671  1
  P  P27  1  0.000000  0.000023  0.661284  1
  P  P28  1  0.500000  0.305633  0.618020  1
  P  P29  1  0.500000  0.694321  0.618713  1
  P  P30  1  0.000000  0.194156  0.381161  1
  P  P31  1  0.000000  0.805793  0.381247  1
  P  P32  1  0.500000  0.846627  0.894867  1
  P  P33  1  0.500000  0.152853  0.895254  1
  P  P34  1  0.000000  0.653490  0.105211  1
  P  P35  1  0.000000  0.346565  0.105094  1
