# generated using pymatgen
data_Ho4Ta2CoOs5
_symmetry_space_group_name_H-M   'P 1'
_cell_length_a   5.55111764
_cell_length_b   5.55111691
_cell_length_c   8.35841800
_cell_angle_alpha   90.00000000
_cell_angle_beta   90.00000000
_cell_angle_gamma   120.05491471
_symmetry_Int_Tables_number   1
_chemical_formula_structural   Ho4Ta2CoOs5
_chemical_formula_sum   'Ho4 Ta2 Co1 Os5'
_cell_volume   222.93329594
_cell_formula_units_Z   1
loop_
 _symmetry_equiv_pos_site_id
 _symmetry_equiv_pos_as_xyz
  1  'x, y, z'
loop_
 _atom_site_type_symbol
 _atom_site_label
 _atom_site_symmetry_multiplicity
 _atom_site_fract_x
 _atom_site_fract_y
 _atom_site_fract_z
 _atom_site_occupancy
  Ho  Ho0  1  0.332274  0.667726  0.434118  1
  Ho  Ho1  1  0.666768  0.333232  0.561979  1
  Ho  Ho2  1  0.666768  0.333232  0.938021  1
  Ho  Ho3  1  0.332274  0.667726  0.065882  1
  Ta  Ta4  1  0.999398  0.000602  0.496280  1
  Ta  Ta5  1  0.999398  0.000602  0.003720  1
  Co  Co6  1  0.833425  0.166575  0.250000  1
  Os  Os7  1  0.820562  0.646752  0.250000  1
  Os  Os8  1  0.353248  0.179438  0.250000  1
  Os  Os9  1  0.172394  0.827606  0.750000  1
  Os  Os10  1  0.171550  0.348059  0.750000  1
  Os  Os11  1  0.651941  0.828450  0.750000  1
