# generated using pymatgen
data_Tb2Nd6Mo3RuO24
_symmetry_space_group_name_H-M   'P 1'
_cell_length_a   5.52942062
_cell_length_b   10.15948854
_cell_length_c   10.20376093
_cell_angle_alpha   68.74567227
_cell_angle_beta   75.01471552
_cell_angle_gamma   75.18197272
_symmetry_Int_Tables_number   1
_chemical_formula_structural   Tb2Nd6Mo3RuO24
_chemical_formula_sum   'Tb2 Nd6 Mo3 Ru1 O24'
_cell_volume   507.62540599
_cell_formula_units_Z   1
loop_
 _symmetry_equiv_pos_site_id
 _symmetry_equiv_pos_as_xyz
  1  'x, y, z'
loop_
 _atom_site_type_symbol
 _atom_site_label
 _atom_site_symmetry_multiplicity
 _atom_site_fract_x
 _atom_site_fract_y
 _atom_site_fract_z
 _atom_site_occupancy
  Tb  Tb0  1  0.748693  0.396416  0.602715  1
  Tb  Tb1  1  0.251330  0.602640  0.396930  1
  Nd  Nd2  1  0.622031  0.786516  0.555348  1
  Nd  Nd3  1  0.120001  0.553705  0.786823  1
  Nd  Nd4  1  0.376413  0.212756  0.443876  1
  Nd  Nd5  1  0.880479  0.443862  0.213365  1
  Nd  Nd6  1  0.748956  0.864812  0.134693  1
  Nd  Nd7  1  0.251577  0.136573  0.863245  1
  Mo  Mo8  1  0.434726  0.702232  0.992984  1
  Mo  Mo9  1  0.936955  0.993334  0.702636  1
  Mo  Mo10  1  0.564697  0.297784  0.007722  1
  Ru  Ru11  1  0.060844  0.002677  0.298154  1
  O  O12  1  0.924699  0.571122  0.606382  1
  O  O13  1  0.573951  0.393513  0.428364  1
  O  O14  1  0.075783  0.427820  0.393035  1
  O  O15  1  0.424549  0.607354  0.571093  1
  O  O16  1  0.932213  0.807126  0.336512  1
  O  O17  1  0.564359  0.662720  0.192747  1
  O  O18  1  0.064273  0.193377  0.662220  1
  O  O19  1  0.434589  0.338288  0.806654  1
  O  O20  1  0.368562  0.889847  0.331571  1
  O  O21  1  0.125528  0.671476  0.111634  1
  O  O22  1  0.627063  0.111552  0.671227  1
  O  O23  1  0.873776  0.328849  0.888524  1
  O  O24  1  0.631335  0.289931  0.177485  1
  O  O25  1  0.867360  0.822954  0.710279  1
  O  O26  1  0.366822  0.710442  0.823117  1
  O  O27  1  0.136494  0.177320  0.286512  1
  O  O28  1  0.525180  0.115652  0.042050  1
  O  O29  1  0.977435  0.956174  0.884612  1
  O  O30  1  0.770660  0.025834  0.428500  1
  O  O31  1  0.018945  0.044930  0.116883  1
  O  O32  1  0.264180  0.428315  0.023240  1
  O  O33  1  0.242404  0.974753  0.576603  1
  O  O34  1  0.736293  0.572621  0.976271  1
  O  O35  1  0.476848  0.884721  0.955999  1
