# generated using pymatgen
data_MgTi3MnPt11
_symmetry_space_group_name_H-M   'P 1'
_cell_length_a   5.61506600
_cell_length_b   5.58023025
_cell_length_c   9.11752300
_cell_angle_alpha   90.00000000
_cell_angle_beta   90.00000000
_cell_angle_gamma   120.20672289
_symmetry_Int_Tables_number   1
_chemical_formula_structural   MgTi3MnPt11
_chemical_formula_sum   'Mg1 Ti3 Mn1 Pt11'
_cell_volume   246.89144443
_cell_formula_units_Z   1
loop_
 _symmetry_equiv_pos_site_id
 _symmetry_equiv_pos_as_xyz
  1  'x, y, z'
loop_
 _atom_site_type_symbol
 _atom_site_label
 _atom_site_symmetry_multiplicity
 _atom_site_fract_x
 _atom_site_fract_y
 _atom_site_fract_z
 _atom_site_occupancy
  Mg  Mg0  1  0.333203  0.666407  0.250000  1
  Ti  Ti1  1  0.994405  0.988810  0.489050  1
  Ti  Ti2  1  0.994405  0.988810  0.010950  1
  Ti  Ti3  1  0.667455  0.334910  0.750000  1
  Mn  Mn4  1  0.175214  0.350428  0.750000  1
  Pt  Pt5  1  0.494781  0.490691  0.509970  1
  Pt  Pt6  1  0.500694  0.001387  0.503972  1
  Pt  Pt7  1  0.995911  0.490691  0.509970  1
  Pt  Pt8  1  0.494781  0.490691  0.990030  1
  Pt  Pt9  1  0.500694  0.001387  0.996028  1
  Pt  Pt10  1  0.995911  0.490691  0.990030  1
  Pt  Pt11  1  0.834288  0.668578  0.250000  1
  Pt  Pt12  1  0.337106  0.169888  0.250000  1
  Pt  Pt13  1  0.832781  0.169888  0.250000  1
  Pt  Pt14  1  0.677012  0.848370  0.750000  1
  Pt  Pt15  1  0.171358  0.848370  0.750000  1
