# generated using pymatgen
data_Pr2ErRuI3
_symmetry_space_group_name_H-M   'P 1'
_cell_length_a   4.35745800
_cell_length_b   9.07821349
_cell_length_c   12.47665087
_cell_angle_alpha   85.20992416
_cell_angle_beta   90.00000000
_cell_angle_gamma   90.00000000
_symmetry_Int_Tables_number   1
_chemical_formula_structural   Pr2ErRuI3
_chemical_formula_sum   'Pr4 Er2 Ru2 I6'
_cell_volume   491.82672657
_cell_formula_units_Z   2
loop_
 _symmetry_equiv_pos_site_id
 _symmetry_equiv_pos_as_xyz
  1  'x, y, z'
loop_
 _atom_site_type_symbol
 _atom_site_label
 _atom_site_symmetry_multiplicity
 _atom_site_fract_x
 _atom_site_fract_y
 _atom_site_fract_z
 _atom_site_occupancy
  Pr  Pr0  1  0.750000  0.094727  0.680409  1
  Pr  Pr1  1  0.250000  0.905273  0.319591  1
  Pr  Pr2  1  0.250000  0.272983  0.900483  1
  Pr  Pr3  1  0.750000  0.727017  0.099517  1
  Er  Er4  1  0.750000  0.120058  0.119637  1
  Er  Er5  1  0.250000  0.879942  0.880363  1
  Ru  Ru6  1  0.750000  0.054222  0.908017  1
  Ru  Ru7  1  0.250000  0.945778  0.091983  1
  I  I8  1  0.250000  0.355340  0.638074  1
  I  I9  1  0.750000  0.644660  0.361926  1
  I  I10  1  0.750000  0.152677  0.385961  1
  I  I11  1  0.250000  0.847323  0.614039  1
  I  I12  1  0.250000  0.416554  0.136693  1
  I  I13  1  0.750000  0.583446  0.863307  1
