# generated using pymatgen
data_BaSr2AgAs2H
_symmetry_space_group_name_H-M   'P 1'
_cell_length_a   4.56533300
_cell_length_b   12.52425600
_cell_length_c   13.16198100
_cell_angle_alpha   90.00000000
_cell_angle_beta   90.00000000
_cell_angle_gamma   90.00000000
_symmetry_Int_Tables_number   1
_chemical_formula_structural   BaSr2AgAs2H
_chemical_formula_sum   'Ba4 Sr8 Ag4 As8 H4'
_cell_volume   752.56784213
_cell_formula_units_Z   4
loop_
 _symmetry_equiv_pos_site_id
 _symmetry_equiv_pos_as_xyz
  1  'x, y, z'
loop_
 _atom_site_type_symbol
 _atom_site_label
 _atom_site_symmetry_multiplicity
 _atom_site_fract_x
 _atom_site_fract_y
 _atom_site_fract_z
 _atom_site_occupancy
  Ba  Ba0  1  0.250000  0.063821  0.624526  1
  Ba  Ba1  1  0.250000  0.563821  0.875474  1
  Ba  Ba2  1  0.750000  0.936179  0.375474  1
  Ba  Ba3  1  0.750000  0.436179  0.124526  1
  Sr  Sr4  1  0.250000  0.369235  0.557377  1
  Sr  Sr5  1  0.250000  0.869235  0.942623  1
  Sr  Sr6  1  0.750000  0.630765  0.442623  1
  Sr  Sr7  1  0.750000  0.130765  0.057377  1
  Sr  Sr8  1  0.250000  0.211846  0.297082  1
  Sr  Sr9  1  0.250000  0.711846  0.202918  1
  Sr  Sr10  1  0.750000  0.788154  0.702918  1
  Sr  Sr11  1  0.750000  0.288154  0.797082  1
  Ag  Ag12  1  0.250000  0.122529  0.875757  1
  Ag  Ag13  1  0.250000  0.622529  0.624243  1
  Ag  Ag14  1  0.750000  0.877471  0.124243  1
  Ag  Ag15  1  0.750000  0.377471  0.375757  1
  As  As16  1  0.250000  0.479446  0.321771  1
  As  As17  1  0.250000  0.979446  0.178229  1
  As  As18  1  0.750000  0.520554  0.678229  1
  As  As19  1  0.750000  0.020554  0.821771  1
  As  As20  1  0.250000  0.307788  0.983172  1
  As  As21  1  0.250000  0.807788  0.516828  1
  As  As22  1  0.750000  0.692212  0.016828  1
  As  As23  1  0.750000  0.192212  0.483172  1
  H  H24  1  0.250000  0.258547  0.712594  1
  H  H25  1  0.250000  0.758547  0.787406  1
  H  H26  1  0.750000  0.741453  0.287406  1
  H  H27  1  0.750000  0.241453  0.212594  1
