# generated using pymatgen
data_U(AsPd2)2
_symmetry_space_group_name_H-M   'P 1'
_cell_length_a   7.70259100
_cell_length_b   7.70259100
_cell_length_c   4.12557200
_cell_angle_alpha   90.00000000
_cell_angle_beta   90.00000000
_cell_angle_gamma   90.00000000
_symmetry_Int_Tables_number   1
_chemical_formula_structural   U(AsPd2)2
_chemical_formula_sum   'U2 As4 Pd8'
_cell_volume   244.76980767
_cell_formula_units_Z   2
loop_
 _symmetry_equiv_pos_site_id
 _symmetry_equiv_pos_as_xyz
  1  'x, y, z'
loop_
 _atom_site_type_symbol
 _atom_site_label
 _atom_site_symmetry_multiplicity
 _atom_site_fract_x
 _atom_site_fract_y
 _atom_site_fract_z
 _atom_site_occupancy
  U  U0  1  0.500000  0.500000  0.000000  1
  U  U1  1  0.000000  0.000000  0.500000  1
  As  As2  1  0.781957  0.218043  0.000000  1
  As  As3  1  0.218043  0.781957  0.000000  1
  As  As4  1  0.281958  0.281958  0.500000  1
  As  As5  1  0.718042  0.718042  0.500000  1
  Pd  Pd6  1  0.341804  0.092036  0.000000  1
  Pd  Pd7  1  0.092036  0.341804  0.000000  1
  Pd  Pd8  1  0.907964  0.658197  0.000000  1
  Pd  Pd9  1  0.658197  0.907964  0.000000  1
  Pd  Pd10  1  0.592036  0.158197  0.500000  1
  Pd  Pd11  1  0.841803  0.407965  0.500000  1
  Pd  Pd12  1  0.158197  0.592036  0.500000  1
  Pd  Pd13  1  0.407965  0.841803  0.500000  1
