# generated using pymatgen
data_DySn5BiRu4
_symmetry_space_group_name_H-M   'P 1'
_cell_length_a   7.01021342
_cell_length_b   6.99090386
_cell_length_c   6.99026171
_cell_angle_alpha   120.42262143
_cell_angle_beta   120.51328472
_cell_angle_gamma   89.27686848
_symmetry_Int_Tables_number   1
_chemical_formula_structural   DySn5BiRu4
_chemical_formula_sum   'Dy1 Sn5 Bi1 Ru4'
_cell_volume   240.32138448
_cell_formula_units_Z   1
loop_
 _symmetry_equiv_pos_site_id
 _symmetry_equiv_pos_as_xyz
  1  'x, y, z'
loop_
 _atom_site_type_symbol
 _atom_site_label
 _atom_site_symmetry_multiplicity
 _atom_site_fract_x
 _atom_site_fract_y
 _atom_site_fract_z
 _atom_site_occupancy
  Dy  Dy0  1  0.001486  0.004501  0.000000  1
  Sn  Sn1  1  0.530539  0.881392  0.000000  1
  Sn  Sn2  1  0.470312  0.466627  0.348480  1
  Sn  Sn3  1  0.496755  0.997054  0.497827  1
  Sn  Sn4  1  0.998928  0.499226  0.502171  1
  Sn  Sn5  1  0.121832  0.118147  0.651519  1
  Bi  Bi6  1  0.879671  0.535429  0.000000  1
  Ru  Ru7  1  0.595161  0.248385  0.000000  1
  Ru  Ru8  1  0.253171  0.595391  0.000000  1
  Ru  Ru9  1  0.754084  0.754936  0.356025  1
  Ru  Ru10  1  0.398059  0.398911  0.643974  1
