# generated using pymatgen
data_Tb2Dy2MnRu7
_symmetry_space_group_name_H-M   'P 1'
_cell_length_a   5.34150905
_cell_length_b   5.34087290
_cell_length_c   8.70620300
_cell_angle_alpha   90.00000080
_cell_angle_beta   89.99618872
_cell_angle_gamma   60.00392647
_symmetry_Int_Tables_number   1
_chemical_formula_structural   Tb2Dy2MnRu7
_chemical_formula_sum   'Tb2 Dy2 Mn1 Ru7'
_cell_volume   215.10614266
_cell_formula_units_Z   1
loop_
 _symmetry_equiv_pos_site_id
 _symmetry_equiv_pos_as_xyz
  1  'x, y, z'
loop_
 _atom_site_type_symbol
 _atom_site_label
 _atom_site_symmetry_multiplicity
 _atom_site_fract_x
 _atom_site_fract_y
 _atom_site_fract_z
 _atom_site_occupancy
  Tb  Tb0  1  0.666684  0.666659  0.068814  1
  Tb  Tb1  1  0.333316  0.333341  0.931186  1
  Dy  Dy2  1  0.333287  0.333357  0.564817  1
  Dy  Dy3  1  0.666713  0.666643  0.435183  1
  Mn  Mn4  1  0.000000  0.000000  0.000000  1
  Ru  Ru5  1  0.000000  0.000000  0.500000  1
  Ru  Ru6  1  0.828876  0.342227  0.752757  1
  Ru  Ru7  1  0.342349  0.828825  0.752721  1
  Ru  Ru8  1  0.828876  0.828898  0.752757  1
  Ru  Ru9  1  0.171124  0.657773  0.247243  1
  Ru  Ru10  1  0.657651  0.171175  0.247279  1
  Ru  Ru11  1  0.171124  0.171102  0.247243  1
