# generated using pymatgen
data_Ho2MnPtF14
_symmetry_space_group_name_H-M   'P 1'
_cell_length_a   5.47788311
_cell_length_b   8.78029983
_cell_length_c   11.82891354
_cell_angle_alpha   62.46164713
_cell_angle_beta   90.13796031
_cell_angle_gamma   90.16890515
_symmetry_Int_Tables_number   1
_chemical_formula_structural   Ho2MnPtF14
_chemical_formula_sum   'Ho4 Mn2 Pt2 F28'
_cell_volume   504.47801270
_cell_formula_units_Z   2
loop_
 _symmetry_equiv_pos_site_id
 _symmetry_equiv_pos_as_xyz
  1  'x, y, z'
loop_
 _atom_site_type_symbol
 _atom_site_label
 _atom_site_symmetry_multiplicity
 _atom_site_fract_x
 _atom_site_fract_y
 _atom_site_fract_z
 _atom_site_occupancy
  Ho  Ho0  1  0.259901  0.816334  0.259723  1
  Ho  Ho1  1  0.740099  0.183666  0.740277  1
  Ho  Ho2  1  0.763367  0.190382  0.231596  1
  Ho  Ho3  1  0.236633  0.809618  0.768404  1
  Mn  Mn4  1  0.757735  0.726048  0.043381  1
  Mn  Mn5  1  0.242265  0.273952  0.956619  1
  Pt  Pt6  1  0.260377  0.273292  0.456422  1
  Pt  Pt7  1  0.739623  0.726708  0.543578  1
  F  F8  1  0.929751  0.702143  0.412160  1
  F  F9  1  0.070249  0.297857  0.587840  1
  F  F10  1  0.438661  0.292685  0.075566  1
  F  F11  1  0.561339  0.707315  0.924434  1
  F  F12  1  0.485748  0.732427  0.132287  1
  F  F13  1  0.514252  0.267573  0.867713  1
  F  F14  1  0.960625  0.279210  0.362478  1
  F  F15  1  0.039375  0.720790  0.637522  1
  F  F16  1  0.952950  0.743717  0.165242  1
  F  F17  1  0.047050  0.256283  0.834758  1
  F  F18  1  0.444956  0.256638  0.319507  1
  F  F19  1  0.555044  0.743362  0.680493  1
  F  F20  1  0.767577  0.489499  0.135955  1
  F  F21  1  0.232423  0.510501  0.864045  1
  F  F22  1  0.277454  0.525006  0.354924  1
  F  F23  1  0.722546  0.474994  0.645076  1
  F  F24  1  0.962015  0.283078  0.041601  1
  F  F25  1  0.037985  0.716922  0.958399  1
  F  F26  1  0.433186  0.723626  0.456971  1
  F  F27  1  0.566814  0.276374  0.543029  1
  F  F28  1  0.744150  0.978430  0.448730  1
  F  F29  1  0.255850  0.021570  0.551270  1
  F  F30  1  0.240000  0.038626  0.047548  1
  F  F31  1  0.760000  0.961374  0.952452  1
  F  F32  1  0.590727  0.970203  0.229462  1
  F  F33  1  0.409273  0.029797  0.770538  1
  F  F34  1  0.088304  0.030819  0.269629  1
  F  F35  1  0.911696  0.969181  0.730371  1
