# generated using pymatgen
data_Sc19Ga4Si12W
_symmetry_space_group_name_H-M   'P 1'
_cell_length_a   6.90588284
_cell_length_b   7.17951441
_cell_length_c   13.76685050
_cell_angle_alpha   90.03298374
_cell_angle_beta   89.70962116
_cell_angle_gamma   89.79595991
_symmetry_Int_Tables_number   1
_chemical_formula_structural   Sc19Ga4Si12W
_chemical_formula_sum   'Sc19 Ga4 Si12 W1'
_cell_volume   682.55942260
_cell_formula_units_Z   1
loop_
 _symmetry_equiv_pos_site_id
 _symmetry_equiv_pos_as_xyz
  1  'x, y, z'
loop_
 _atom_site_type_symbol
 _atom_site_label
 _atom_site_symmetry_multiplicity
 _atom_site_fract_x
 _atom_site_fract_y
 _atom_site_fract_z
 _atom_site_occupancy
  Sc  Sc0  1  0.837238  0.004949  0.250105  1
  Sc  Sc1  1  0.337052  0.495559  0.248651  1
  Sc  Sc2  1  0.662737  0.508259  0.749848  1
  Sc  Sc3  1  0.992888  0.679956  0.603686  1
  Sc  Sc4  1  0.007289  0.324585  0.403646  1
  Sc  Sc5  1  0.510028  0.178077  0.403422  1
  Sc  Sc6  1  0.012782  0.324073  0.093520  1
  Sc  Sc7  1  0.489806  0.822253  0.602657  1
  Sc  Sc8  1  0.994340  0.684271  0.898249  1
  Sc  Sc9  1  0.484967  0.822451  0.899729  1
  Sc  Sc10  1  0.509295  0.181353  0.094668  1
  Sc  Sc11  1  0.335603  0.322092  0.629167  1
  Sc  Sc12  1  0.667340  0.674188  0.374764  1
  Sc  Sc13  1  0.168499  0.828244  0.375373  1
  Sc  Sc14  1  0.667848  0.674460  0.124825  1
  Sc  Sc15  1  0.830625  0.170118  0.629050  1
  Sc  Sc16  1  0.332318  0.320611  0.873534  1
  Sc  Sc17  1  0.828824  0.171044  0.872363  1
  Sc  Sc18  1  0.172674  0.826709  0.120915  1
  Ga  Ga19  1  0.166252  0.029452  0.545874  1
  Ga  Ga20  1  0.833298  0.966748  0.462222  1
  Ga  Ga21  1  0.334364  0.534963  0.463425  1
  Ga  Ga22  1  0.834406  0.966272  0.037990  1
  Si  Si23  1  0.034484  0.385623  0.751307  1
  Si  Si24  1  0.966808  0.607535  0.248759  1
  Si  Si25  1  0.464982  0.894740  0.248715  1
  Si  Si26  1  0.523113  0.093314  0.750966  1
  Si  Si27  1  0.282975  0.647540  0.750620  1
  Si  Si28  1  0.715965  0.366071  0.248797  1
  Si  Si29  1  0.213327  0.135562  0.248749  1
  Si  Si30  1  0.797122  0.864447  0.750964  1
  Si  Si31  1  0.667354  0.466905  0.539367  1
  Si  Si32  1  0.159455  0.028022  0.951920  1
  Si  Si33  1  0.664029  0.467547  0.960956  1
  Si  Si34  1  0.342788  0.532378  0.036632  1
  W  W35  1  0.157122  0.999625  0.754562  1
