# generated using pymatgen
data_GeBCl17
_symmetry_space_group_name_H-M   'P 1'
_cell_length_a   8.34628634
_cell_length_b   12.73075427
_cell_length_c   10.98735928
_cell_angle_alpha   106.22584507
_cell_angle_beta   97.20670940
_cell_angle_gamma   115.79874698
_symmetry_Int_Tables_number   1
_chemical_formula_structural   GeBCl17
_chemical_formula_sum   'Ge1 B1 Cl17'
_cell_volume   967.13340252
_cell_formula_units_Z   1
loop_
 _symmetry_equiv_pos_site_id
 _symmetry_equiv_pos_as_xyz
  1  'x, y, z'
loop_
 _atom_site_type_symbol
 _atom_site_label
 _atom_site_symmetry_multiplicity
 _atom_site_fract_x
 _atom_site_fract_y
 _atom_site_fract_z
 _atom_site_occupancy
  Ge  Ge0  1  0.951985  0.362793  0.131767  1
  B  B1  1  0.022014  0.952158  0.866649  1
  Cl  Cl2  1  0.894792  0.301515  0.921842  1
  Cl  Cl3  1  0.735386  0.231143  0.183384  1
  Cl  Cl4  1  0.619089  0.374096  0.522892  1
  Cl  Cl5  1  0.889069  0.497660  0.563230  1
  Cl  Cl6  1  0.301187  0.131179  0.507627  1
  Cl  Cl7  1  0.605208  0.682152  0.004983  1
  Cl  Cl8  1  0.469300  0.552499  0.078739  1
  Cl  Cl9  1  0.632376  0.916849  0.484012  1
  Cl  Cl10  1  0.209625  0.376367  0.216186  1
  Cl  Cl11  1  0.381046  0.773481  0.370927  1
  Cl  Cl12  1  0.244251  0.716821  0.948252  1
  Cl  Cl13  1  0.968262  0.542485  0.208115  1
  Cl  Cl14  1  0.991430  0.696334  0.945516  1
  Cl  Cl15  1  0.205170  0.055700  0.009730  1
  Cl  Cl16  1  0.021999  0.034078  0.446226  1
  Cl  Cl17  1  0.064521  0.896172  0.717694  1
  Cl  Cl18  1  0.793290  0.906521  0.872230  1
