# generated using pymatgen
data_La5Tb2NdSb20
_symmetry_space_group_name_H-M   'P 1'
_cell_length_a   4.32558500
_cell_length_b   13.62708107
_cell_length_c   15.26021725
_cell_angle_alpha   78.45135751
_cell_angle_beta   90.00000000
_cell_angle_gamma   90.00000000
_symmetry_Int_Tables_number   1
_chemical_formula_structural   La5Tb2NdSb20
_chemical_formula_sum   'La5 Tb2 Nd1 Sb20'
_cell_volume   881.30439598
_cell_formula_units_Z   1
loop_
 _symmetry_equiv_pos_site_id
 _symmetry_equiv_pos_as_xyz
  1  'x, y, z'
loop_
 _atom_site_type_symbol
 _atom_site_label
 _atom_site_symmetry_multiplicity
 _atom_site_fract_x
 _atom_site_fract_y
 _atom_site_fract_z
 _atom_site_occupancy
  La  La0  1  0.750000  0.331469  0.142299  1
  La  La1  1  0.250000  0.947580  0.365700  1
  La  La2  1  0.250000  0.667707  0.858218  1
  La  La3  1  0.250000  0.666352  0.577787  1
  La  La4  1  0.750000  0.054229  0.633545  1
  Tb  Tb5  1  0.250000  0.398864  0.770367  1
  Tb  Tb6  1  0.750000  0.599480  0.229394  1
  Nd  Nd7  1  0.750000  0.334156  0.421792  1
  Sb  Sb8  1  0.750000  0.858223  0.816430  1
  Sb  Sb9  1  0.250000  0.863930  0.675186  1
  Sb  Sb10  1  0.250000  0.149488  0.474598  1
  Sb  Sb11  1  0.750000  0.288433  0.930395  1
  Sb  Sb12  1  0.250000  0.151870  0.777600  1
  Sb  Sb13  1  0.750000  0.574230  0.440682  1
  Sb  Sb14  1  0.750000  0.138133  0.326083  1
  Sb  Sb15  1  0.250000  0.701303  0.352307  1
  Sb  Sb16  1  0.750000  0.297715  0.645620  1
  Sb  Sb17  1  0.750000  0.848302  0.222788  1
  Sb  Sb18  1  0.250000  0.419902  0.970805  1
  Sb  Sb19  1  0.250000  0.424488  0.557944  1
  Sb  Sb20  1  0.750000  0.572315  0.738273  1
  Sb  Sb21  1  0.250000  0.425286  0.263830  1
  Sb  Sb22  1  0.750000  0.854058  0.524962  1
  Sb  Sb23  1  0.750000  0.040145  0.884226  1
  Sb  Sb24  1  0.250000  0.710523  0.069431  1
  Sb  Sb25  1  0.250000  0.960393  0.116477  1
  Sb  Sb26  1  0.250000  0.142473  0.184148  1
  Sb  Sb27  1  0.750000  0.578951  0.029113  1
