# generated using pymatgen
data_TlCu2TeS
_symmetry_space_group_name_H-M   'P 1'
_cell_length_a   7.88977382
_cell_length_b   7.88977392
_cell_length_c   7.88977400
_cell_angle_alpha   151.46925183
_cell_angle_beta   151.46925311
_cell_angle_gamma   40.78888180
_symmetry_Int_Tables_number   1
_chemical_formula_structural   TlCu2TeS
_chemical_formula_sum   'Tl1 Cu2 Te1 S1'
_cell_volume   111.80676360
_cell_formula_units_Z   1
loop_
 _symmetry_equiv_pos_site_id
 _symmetry_equiv_pos_as_xyz
  1  'x, y, z'
loop_
 _atom_site_type_symbol
 _atom_site_label
 _atom_site_symmetry_multiplicity
 _atom_site_fract_x
 _atom_site_fract_y
 _atom_site_fract_z
 _atom_site_occupancy
  Tl  Tl0  1  0.477071  0.477071  0.000000  1
  Cu  Cu1  1  0.264075  0.764075  0.500000  1
  Cu  Cu2  1  0.764075  0.264075  0.500000  1
  Te  Te3  1  0.141518  0.141518  0.000000  1
  S  S4  1  0.853261  0.853261  0.000000  1
