# generated using pymatgen
data_Cd2Ni3PdO8
_symmetry_space_group_name_H-M   'P 1'
_cell_length_a   6.23411113
_cell_length_b   6.25304047
_cell_length_c   6.12894100
_cell_angle_alpha   60.65461264
_cell_angle_beta   90.00074848
_cell_angle_gamma   120.96565658
_symmetry_Int_Tables_number   1
_chemical_formula_structural   Cd2Ni3PdO8
_chemical_formula_sum   'Cd2 Ni3 Pd1 O8'
_cell_volume   168.11156413
_cell_formula_units_Z   1
loop_
 _symmetry_equiv_pos_site_id
 _symmetry_equiv_pos_as_xyz
  1  'x, y, z'
loop_
 _atom_site_type_symbol
 _atom_site_label
 _atom_site_symmetry_multiplicity
 _atom_site_fract_x
 _atom_site_fract_y
 _atom_site_fract_z
 _atom_site_occupancy
  Cd  Cd0  1  0.010170  0.982372  0.008654  1
  Cd  Cd1  1  0.739556  0.517391  0.741145  1
  Ni  Ni2  1  0.875026  0.250311  0.375355  1
  Ni  Ni3  1  0.375066  0.750108  0.374996  1
  Ni  Ni4  1  0.374899  0.749645  0.874992  1
  Pd  Pd5  1  0.374966  0.249916  0.375063  1
  O  O6  1  0.145777  0.279665  0.143197  1
  O  O7  1  0.604187  0.220275  0.173001  1
  O  O8  1  0.577833  0.708060  0.145932  1
  O  O9  1  0.149840  0.700185  0.149976  1
  O  O10  1  0.603888  0.219933  0.606833  1
  O  O11  1  0.146085  0.280010  0.576908  1
  O  O12  1  0.171959  0.791709  0.604105  1
  O  O13  1  0.600750  0.800419  0.599841  1
