# generated using pymatgen
data_NaLa5PrOsBr12
_symmetry_space_group_name_H-M   'P 1'
_cell_length_a   9.71064449
_cell_length_b   9.71329974
_cell_length_c   9.71057416
_cell_angle_alpha   107.28767222
_cell_angle_beta   107.35522876
_cell_angle_gamma   107.09347481
_symmetry_Int_Tables_number   1
_chemical_formula_structural   NaLa5PrOsBr12
_chemical_formula_sum   'Na1 La5 Pr1 Os1 Br12'
_cell_volume   757.62199678
_cell_formula_units_Z   1
loop_
 _symmetry_equiv_pos_site_id
 _symmetry_equiv_pos_as_xyz
  1  'x, y, z'
loop_
 _atom_site_type_symbol
 _atom_site_label
 _atom_site_symmetry_multiplicity
 _atom_site_fract_x
 _atom_site_fract_y
 _atom_site_fract_z
 _atom_site_occupancy
  Na  Na0  1  0.500153  0.499959  0.500287  1
  La  La1  1  0.113589  0.321882  0.031512  1
  La  La2  1  0.320088  0.031106  0.113779  1
  La  La3  1  0.031264  0.112974  0.319983  1
  La  La4  1  0.968428  0.885923  0.679718  1
  La  La5  1  0.679916  0.968820  0.886333  1
  Pr  Pr6  1  0.886615  0.680403  0.968209  1
  Os  Os7  1  0.000840  0.002297  0.000008  1
  Br  Br8  1  0.214409  0.683232  0.069742  1
  Br  Br9  1  0.455536  0.373009  0.158471  1
  Br  Br10  1  0.683707  0.070910  0.216622  1
  Br  Br11  1  0.928776  0.781859  0.313970  1
  Br  Br12  1  0.158065  0.455129  0.373742  1
  Br  Br13  1  0.373566  0.158140  0.455647  1
  Br  Br14  1  0.626351  0.841593  0.544306  1
  Br  Br15  1  0.842075  0.544581  0.628740  1
  Br  Br16  1  0.070588  0.216250  0.683408  1
  Br  Br17  1  0.316217  0.928889  0.783409  1
  Br  Br18  1  0.546716  0.626445  0.842666  1
  Br  Br19  1  0.783100  0.316603  0.929452  1
