# generated using pymatgen
data_Eu3CdP3
_symmetry_space_group_name_H-M   'P 1'
_cell_length_a   4.23610500
_cell_length_b   12.53976700
_cell_length_c   13.30132000
_cell_angle_alpha   90.00000000
_cell_angle_beta   90.00000000
_cell_angle_gamma   90.00000000
_symmetry_Int_Tables_number   1
_chemical_formula_structural   Eu3CdP3
_chemical_formula_sum   'Eu12 Cd4 P12'
_cell_volume   706.56305494
_cell_formula_units_Z   4
loop_
 _symmetry_equiv_pos_site_id
 _symmetry_equiv_pos_as_xyz
  1  'x, y, z'
loop_
 _atom_site_type_symbol
 _atom_site_label
 _atom_site_symmetry_multiplicity
 _atom_site_fract_x
 _atom_site_fract_y
 _atom_site_fract_z
 _atom_site_occupancy
  Eu  Eu0  1  0.250000  0.279355  0.705659  1
  Eu  Eu1  1  0.250000  0.779355  0.794341  1
  Eu  Eu2  1  0.750000  0.720645  0.294341  1
  Eu  Eu3  1  0.750000  0.220645  0.205659  1
  Eu  Eu4  1  0.250000  0.572215  0.610074  1
  Eu  Eu5  1  0.250000  0.072215  0.889926  1
  Eu  Eu6  1  0.750000  0.427785  0.389926  1
  Eu  Eu7  1  0.750000  0.927785  0.110074  1
  Eu  Eu8  1  0.250000  0.358045  0.994760  1
  Eu  Eu9  1  0.250000  0.858045  0.505240  1
  Eu  Eu10  1  0.750000  0.641955  0.005240  1
  Eu  Eu11  1  0.750000  0.141955  0.494760  1
  Cd  Cd12  1  0.250000  0.544879  0.197045  1
  Cd  Cd13  1  0.250000  0.044879  0.302955  1
  Cd  Cd14  1  0.750000  0.455121  0.802955  1
  Cd  Cd15  1  0.750000  0.955121  0.697045  1
  P  P16  1  0.250000  0.596762  0.391560  1
  P  P17  1  0.250000  0.096762  0.108440  1
  P  P18  1  0.750000  0.403238  0.608440  1
  P  P19  1  0.750000  0.903238  0.891560  1
  P  P20  1  0.250000  0.749374  0.128312  1
  P  P21  1  0.250000  0.249374  0.371688  1
  P  P22  1  0.750000  0.250626  0.871688  1
  P  P23  1  0.750000  0.750626  0.628312  1
  P  P24  1  0.250000  0.056267  0.635621  1
  P  P25  1  0.250000  0.556267  0.864379  1
  P  P26  1  0.750000  0.943733  0.364379  1
  P  P27  1  0.750000  0.443733  0.135621  1
