# generated using pymatgen
data_Ca3ErSb6Rh7
_symmetry_space_group_name_H-M   'P 1'
_cell_length_a   7.60382059
_cell_length_b   7.65982565
_cell_length_c   7.60382145
_cell_angle_alpha   109.62048955
_cell_angle_beta   109.32154511
_cell_angle_gamma   109.62048589
_symmetry_Int_Tables_number   1
_chemical_formula_structural   Ca3ErSb6Rh7
_chemical_formula_sum   'Ca3 Er1 Sb6 Rh7'
_cell_volume   340.29642975
_cell_formula_units_Z   1
loop_
 _symmetry_equiv_pos_site_id
 _symmetry_equiv_pos_as_xyz
  1  'x, y, z'
loop_
 _atom_site_type_symbol
 _atom_site_label
 _atom_site_symmetry_multiplicity
 _atom_site_fract_x
 _atom_site_fract_y
 _atom_site_fract_z
 _atom_site_occupancy
  Ca  Ca0  1  0.500000  0.000000  0.000000  1
  Ca  Ca1  1  0.000000  0.000000  0.500000  1
  Ca  Ca2  1  0.500000  0.500000  0.500000  1
  Er  Er3  1  0.000000  0.500000  0.000000  1
  Sb  Sb4  1  0.319757  0.003159  0.319757  1
  Sb  Sb5  1  0.000000  0.683402  0.680243  1
  Sb  Sb6  1  0.680243  0.683402  0.000000  1
  Sb  Sb7  1  0.680243  0.996841  0.680243  1
  Sb  Sb8  1  0.000000  0.316598  0.319757  1
  Sb  Sb9  1  0.319757  0.316598  0.000000  1
  Rh  Rh10  1  0.247123  0.500000  0.752877  1
  Rh  Rh11  1  0.505755  0.252877  0.752877  1
  Rh  Rh12  1  0.752877  0.252877  0.505755  1
  Rh  Rh13  1  0.494245  0.747123  0.247123  1
  Rh  Rh14  1  0.000000  0.000000  0.000000  1
  Rh  Rh15  1  0.247123  0.747123  0.494245  1
  Rh  Rh16  1  0.752877  0.500000  0.247123  1
