# generated using pymatgen
data_TbYb3Dy4(B6Os)4
_symmetry_space_group_name_H-M   'P 1'
_cell_length_a   3.65493400
_cell_length_b   9.16030688
_cell_length_c   11.54612601
_cell_angle_alpha   89.90943204
_cell_angle_beta   90.00000000
_cell_angle_gamma   90.00000000
_symmetry_Int_Tables_number   1
_chemical_formula_structural   TbYb3Dy4(B6Os)4
_chemical_formula_sum   'Tb1 Yb3 Dy4 B24 Os4'
_cell_volume   386.56747670
_cell_formula_units_Z   1
loop_
 _symmetry_equiv_pos_site_id
 _symmetry_equiv_pos_as_xyz
  1  'x, y, z'
loop_
 _atom_site_type_symbol
 _atom_site_label
 _atom_site_symmetry_multiplicity
 _atom_site_fract_x
 _atom_site_fract_y
 _atom_site_fract_z
 _atom_site_occupancy
  Tb  Tb0  1  0.000000  0.175840  0.914743  1
  Yb  Yb1  1  0.000000  0.324865  0.414379  1
  Yb  Yb2  1  0.000000  0.675206  0.585080  1
  Yb  Yb3  1  0.000000  0.823406  0.086432  1
  Dy  Dy4  1  0.000000  0.940999  0.367536  1
  Dy  Dy5  1  0.000000  0.058067  0.630621  1
  Dy  Dy6  1  0.000000  0.443046  0.132472  1
  Dy  Dy7  1  0.000000  0.558831  0.868382  1
  B  B8  1  0.500000  0.552977  0.433282  1
  B  B9  1  0.500000  0.446532  0.567422  1
  B  B10  1  0.500000  0.053369  0.067015  1
  B  B11  1  0.500000  0.945910  0.933421  1
  B  B12  1  0.500000  0.747563  0.417522  1
  B  B13  1  0.500000  0.252275  0.582380  1
  B  B14  1  0.500000  0.248272  0.082360  1
  B  B15  1  0.500000  0.752419  0.917922  1
  B  B16  1  0.500000  0.790194  0.264506  1
  B  B17  1  0.500000  0.209451  0.735280  1
  B  B18  1  0.500000  0.290479  0.234780  1
  B  B19  1  0.500000  0.710607  0.765127  1
  B  B20  1  0.500000  0.631175  0.186626  1
  B  B21  1  0.500000  0.369055  0.814189  1
  B  B22  1  0.500000  0.131141  0.313085  1
  B  B23  1  0.500000  0.869076  0.685774  1
  B  B24  1  0.500000  0.982947  0.210571  1
  B  B25  1  0.500000  0.016520  0.788498  1
  B  B26  1  0.500000  0.483863  0.289387  1
  B  B27  1  0.500000  0.516116  0.711335  1
  B  B28  1  0.500000  0.599897  0.027873  1
  B  B29  1  0.500000  0.399951  0.972413  1
  B  B30  1  0.500000  0.097695  0.472174  1
  B  B31  1  0.500000  0.902013  0.526688  1
  Os  Os32  1  0.000000  0.638333  0.321253  1
  Os  Os33  1  0.000000  0.360575  0.680117  1
  Os  Os34  1  0.000000  0.137960  0.178632  1
  Os  Os35  1  0.000000  0.863374  0.820725  1
