# generated using pymatgen
data_Sc12Zn2RhI16
_symmetry_space_group_name_H-M   'P 1'
_cell_length_a   9.25407743
_cell_length_b   12.24849615
_cell_length_c   12.91125762
_cell_angle_alpha   116.87090056
_cell_angle_beta   101.09518592
_cell_angle_gamma   100.51340451
_symmetry_Int_Tables_number   1
_chemical_formula_structural   Sc12Zn2RhI16
_chemical_formula_sum   'Sc12 Zn2 Rh1 I16'
_cell_volume   1218.85744078
_cell_formula_units_Z   1
loop_
 _symmetry_equiv_pos_site_id
 _symmetry_equiv_pos_as_xyz
  1  'x, y, z'
loop_
 _atom_site_type_symbol
 _atom_site_label
 _atom_site_symmetry_multiplicity
 _atom_site_fract_x
 _atom_site_fract_y
 _atom_site_fract_z
 _atom_site_occupancy
  Sc  Sc0  1  0.088476  0.271488  0.360038  1
  Sc  Sc1  1  0.903509  0.724447  0.637453  1
  Sc  Sc2  1  0.776344  0.535371  0.333052  1
  Sc  Sc3  1  0.218111  0.463971  0.669827  1
  Sc  Sc4  1  0.274238  0.728959  0.639707  1
  Sc  Sc5  1  0.721054  0.275102  0.362757  1
  Sc  Sc6  1  0.144673  0.536449  0.329973  1
  Sc  Sc7  1  0.848487  0.464235  0.667156  1
  Sc  Sc8  1  0.414584  0.366842  0.285260  1
  Sc  Sc9  1  0.593889  0.633119  0.714733  1
  Sc  Sc10  1  0.465563  0.317034  0.521126  1
  Sc  Sc11  1  0.543325  0.683011  0.478844  1
  Zn  Zn12  1  0.994979  0.499946  0.500036  1
  Zn  Zn13  1  0.344343  0.500177  0.499925  1
  Rh  Rh14  1  0.661664  0.499863  0.500103  1
  I  I15  1  0.390580  0.729753  0.869955  1
  I  I16  1  0.609509  0.267508  0.125644  1
  I  I17  1  0.182152  0.951385  0.775597  1
  I  I18  1  0.816767  0.048618  0.224407  1
  I  I19  1  0.341621  0.107436  0.260767  1
  I  I20  1  0.658961  0.892520  0.739192  1
  I  I21  1  0.562691  0.436719  0.791597  1
  I  I22  1  0.438041  0.563271  0.208402  1
  I  I23  1  0.302578  0.816396  0.463411  1
  I  I24  1  0.698526  0.179924  0.537103  1
  I  I25  1  0.168635  0.184174  0.536213  1
  I  I26  1  0.834128  0.819565  0.463300  1
  I  I27  1  0.926577  0.572248  0.165371  1
  I  I28  1  0.072338  0.427772  0.834680  1
  I  I29  1  0.922181  0.731993  0.874468  1
  I  I30  1  0.081475  0.270704  0.129904  1
