# generated using pymatgen
data_PrEu2(AgPb)3
_symmetry_space_group_name_H-M   'P 1'
_cell_length_a   5.01382700
_cell_length_b   5.01382627
_cell_length_c   11.34991000
_cell_angle_alpha   90.00000000
_cell_angle_beta   90.00000000
_cell_angle_gamma   119.99999821
_symmetry_Int_Tables_number   1
_chemical_formula_structural   PrEu2(AgPb)3
_chemical_formula_sum   'Pr1 Eu2 Ag3 Pb3'
_cell_volume   247.09370632
_cell_formula_units_Z   1
loop_
 _symmetry_equiv_pos_site_id
 _symmetry_equiv_pos_as_xyz
  1  'x, y, z'
loop_
 _atom_site_type_symbol
 _atom_site_label
 _atom_site_symmetry_multiplicity
 _atom_site_fract_x
 _atom_site_fract_y
 _atom_site_fract_z
 _atom_site_occupancy
  Pr  Pr0  1  0.666667  0.333333  0.165283  1
  Eu  Eu1  1  0.666667  0.333333  0.829380  1
  Eu  Eu2  1  0.666667  0.333333  0.499280  1
  Ag  Ag3  1  0.333333  0.666667  0.004880  1
  Ag  Ag4  1  0.000000  0.000000  0.682028  1
  Ag  Ag5  1  0.000000  0.000000  0.295786  1
  Pb  Pb6  1  0.333333  0.666667  0.651249  1
  Pb  Pb7  1  0.333333  0.666667  0.342492  1
  Pb  Pb8  1  0.000000  0.000000  0.007523  1
