# generated using pymatgen
data_Tb2Yb6Si12IrPd3
_symmetry_space_group_name_H-M   'P 1'
_cell_length_a   8.23169200
_cell_length_b   8.23169043
_cell_length_c   8.14688900
_cell_angle_alpha   90.00000000
_cell_angle_beta   90.00000000
_cell_angle_gamma   120.00001434
_symmetry_Int_Tables_number   1
_chemical_formula_structural   Tb2Yb6Si12IrPd3
_chemical_formula_sum   'Tb2 Yb6 Si12 Ir1 Pd3'
_cell_volume   478.07992762
_cell_formula_units_Z   1
loop_
 _symmetry_equiv_pos_site_id
 _symmetry_equiv_pos_as_xyz
  1  'x, y, z'
loop_
 _atom_site_type_symbol
 _atom_site_label
 _atom_site_symmetry_multiplicity
 _atom_site_fract_x
 _atom_site_fract_y
 _atom_site_fract_z
 _atom_site_occupancy
  Tb  Tb0  1  0.000000  0.000000  0.250229  1
  Tb  Tb1  1  0.000000  0.000000  0.749570  1
  Yb  Yb2  1  0.500513  0.001026  0.247411  1
  Yb  Yb3  1  0.495566  0.991133  0.752632  1
  Yb  Yb4  1  0.998974  0.499487  0.247411  1
  Yb  Yb5  1  0.008867  0.504434  0.752632  1
  Yb  Yb6  1  0.500513  0.499487  0.247411  1
  Yb  Yb7  1  0.495566  0.504434  0.752632  1
  Si  Si8  1  0.167268  0.334534  0.002751  1
  Si  Si9  1  0.836364  0.672727  0.997852  1
  Si  Si10  1  0.665466  0.832732  0.002751  1
  Si  Si11  1  0.835766  0.671532  0.502407  1
  Si  Si12  1  0.327273  0.163636  0.997852  1
  Si  Si13  1  0.163684  0.327366  0.497403  1
  Si  Si14  1  0.167268  0.832732  0.002751  1
  Si  Si15  1  0.328468  0.164234  0.502407  1
  Si  Si16  1  0.836364  0.163636  0.997852  1
  Si  Si17  1  0.672634  0.836316  0.497403  1
  Si  Si18  1  0.835766  0.164234  0.502407  1
  Si  Si19  1  0.163684  0.836316  0.497403  1
  Ir  Ir20  1  0.333333  0.666667  0.003231  1
  Pd  Pd21  1  0.666667  0.333333  0.996985  1
  Pd  Pd22  1  0.666667  0.333333  0.502568  1
  Pd  Pd23  1  0.333333  0.666667  0.496054  1
