# generated using pymatgen
data_BaTl(AsRh)4
_symmetry_space_group_name_H-M   'P 1'
_cell_length_a   7.16115800
_cell_length_b   7.16115751
_cell_length_c   5.77053800
_cell_angle_alpha   90.00000000
_cell_angle_beta   90.00000000
_cell_angle_gamma   132.42775794
_symmetry_Int_Tables_number   1
_chemical_formula_structural   BaTl(AsRh)4
_chemical_formula_sum   'Ba1 Tl1 As4 Rh4'
_cell_volume   218.43126790
_cell_formula_units_Z   1
loop_
 _symmetry_equiv_pos_site_id
 _symmetry_equiv_pos_as_xyz
  1  'x, y, z'
loop_
 _atom_site_type_symbol
 _atom_site_label
 _atom_site_symmetry_multiplicity
 _atom_site_fract_x
 _atom_site_fract_y
 _atom_site_fract_z
 _atom_site_occupancy
  Ba  Ba0  1  0.500000  0.500000  0.500000  1
  Tl  Tl1  1  0.000000  0.000000  0.000000  1
  As  As2  1  0.644967  0.355033  0.000000  1
  As  As3  1  0.145921  0.854079  0.500000  1
  As  As4  1  0.854079  0.145921  0.500000  1
  As  As5  1  0.355033  0.644967  0.000000  1
  Rh  Rh6  1  0.500000  0.000000  0.750728  1
  Rh  Rh7  1  0.000000  0.500000  0.249272  1
  Rh  Rh8  1  0.000000  0.500000  0.750728  1
  Rh  Rh9  1  0.500000  0.000000  0.249272  1
