# generated using pymatgen
data_Ho8InHg2Au
_symmetry_space_group_name_H-M   'P 1'
_cell_length_a   10.37539000
_cell_length_b   10.40466018
_cell_length_c   6.99153526
_cell_angle_alpha   89.93899223
_cell_angle_beta   90.00000000
_cell_angle_gamma   119.90698430
_symmetry_Int_Tables_number   1
_chemical_formula_structural   Ho8InHg2Au
_chemical_formula_sum   'Ho16 In2 Hg4 Au2'
_cell_volume   654.24661407
_cell_formula_units_Z   2
loop_
 _symmetry_equiv_pos_site_id
 _symmetry_equiv_pos_as_xyz
  1  'x, y, z'
loop_
 _atom_site_type_symbol
 _atom_site_label
 _atom_site_symmetry_multiplicity
 _atom_site_fract_x
 _atom_site_fract_y
 _atom_site_fract_z
 _atom_site_occupancy
  Ho  Ho0  1  0.527868  0.055736  0.510996  1
  Ho  Ho1  1  0.940995  0.474294  0.515522  1
  Ho  Ho2  1  0.533297  0.474294  0.515522  1
  Ho  Ho3  1  0.472197  0.944393  0.010537  1
  Ho  Ho4  1  0.060453  0.525447  0.011864  1
  Ho  Ho5  1  0.464995  0.525447  0.011864  1
  Ho  Ho6  1  0.166802  0.333604  0.703832  1
  Ho  Ho7  1  0.664697  0.833107  0.723467  1
  Ho  Ho8  1  0.168410  0.833107  0.723467  1
  Ho  Ho9  1  0.827084  0.654168  0.201580  1
  Ho  Ho10  1  0.341641  0.176763  0.210965  1
  Ho  Ho11  1  0.835123  0.176763  0.210965  1
  Ho  Ho12  1  0.665436  0.330871  0.869323  1
  Ho  Ho13  1  0.330761  0.661523  0.371218  1
  Ho  Ho14  1  0.997443  0.994885  0.486722  1
  Ho  Ho15  1  0.001348  0.002697  0.990568  1
  In  In16  1  0.669875  0.837131  0.254229  1
  In  In17  1  0.167255  0.837131  0.254229  1
  Hg  Hg18  1  0.833912  0.667823  0.759260  1
  Hg  Hg19  1  0.332510  0.165895  0.758825  1
  Hg  Hg20  1  0.833387  0.165895  0.758825  1
  Hg  Hg21  1  0.165408  0.330816  0.259474  1
  Au  Au22  1  0.665708  0.331414  0.273018  1
  Au  Au23  1  0.333398  0.666796  0.771764  1
