# generated using pymatgen
data_KSb12Ir3Os
_symmetry_space_group_name_H-M   'P 1'
_cell_length_a   8.16857816
_cell_length_b   8.16857748
_cell_length_c   8.15670800
_cell_angle_alpha   109.44179085
_cell_angle_beta   109.44178917
_cell_angle_gamma   109.50063423
_symmetry_Int_Tables_number   1
_chemical_formula_structural   KSb12Ir3Os
_chemical_formula_sum   'K1 Sb12 Ir3 Os1'
_cell_volume   419.12497889
_cell_formula_units_Z   1
loop_
 _symmetry_equiv_pos_site_id
 _symmetry_equiv_pos_as_xyz
  1  'x, y, z'
loop_
 _atom_site_type_symbol
 _atom_site_label
 _atom_site_symmetry_multiplicity
 _atom_site_fract_x
 _atom_site_fract_y
 _atom_site_fract_z
 _atom_site_occupancy
  K  K0  1  0.000000  0.000000  0.000000  1
  Sb  Sb1  1  0.844605  0.661164  0.503437  1
  Sb  Sb2  1  0.155395  0.338836  0.496563  1
  Sb  Sb3  1  0.155210  0.656544  0.811511  1
  Sb  Sb4  1  0.844790  0.343456  0.188489  1
  Sb  Sb5  1  0.656544  0.501334  0.845034  1
  Sb  Sb6  1  0.343456  0.498666  0.154966  1
  Sb  Sb7  1  0.661164  0.816561  0.157728  1
  Sb  Sb8  1  0.338836  0.183439  0.842272  1
  Sb  Sb9  1  0.501334  0.844790  0.656300  1
  Sb  Sb10  1  0.498666  0.155210  0.343700  1
  Sb  Sb11  1  0.183439  0.844605  0.341168  1
  Sb  Sb12  1  0.816561  0.155395  0.658832  1
  Ir  Ir13  1  0.500000  0.500000  0.500000  1
  Ir  Ir14  1  0.500000  0.000000  0.000000  1
  Ir  Ir15  1  0.000000  0.500000  0.000000  1
  Os  Os16  1  0.000000  0.000000  0.500000  1
