# generated using pymatgen
data_Er2Al9RePt2
_symmetry_space_group_name_H-M   'P 1'
_cell_length_a   7.58748340
_cell_length_b   7.58748222
_cell_length_c   9.47577300
_cell_angle_alpha   90.00000000
_cell_angle_beta   90.00000000
_cell_angle_gamma   118.62151326
_symmetry_Int_Tables_number   1
_chemical_formula_structural   Er2Al9RePt2
_chemical_formula_sum   'Er4 Al18 Re2 Pt4'
_cell_volume   478.85853901
_cell_formula_units_Z   2
loop_
 _symmetry_equiv_pos_site_id
 _symmetry_equiv_pos_as_xyz
  1  'x, y, z'
loop_
 _atom_site_type_symbol
 _atom_site_label
 _atom_site_symmetry_multiplicity
 _atom_site_fract_x
 _atom_site_fract_y
 _atom_site_fract_z
 _atom_site_occupancy
  Er  Er0  1  0.993532  0.681950  0.750000  1
  Er  Er1  1  0.006468  0.318050  0.250000  1
  Er  Er2  1  0.681950  0.993532  0.750000  1
  Er  Er3  1  0.318050  0.006468  0.250000  1
  Al  Al4  1  0.131420  0.131420  0.750000  1
  Al  Al5  1  0.868580  0.868580  0.250000  1
  Al  Al6  1  0.001039  0.334737  0.576856  1
  Al  Al7  1  0.998961  0.665263  0.423144  1
  Al  Al8  1  0.998961  0.665263  0.076856  1
  Al  Al9  1  0.334737  0.001039  0.923144  1
  Al  Al10  1  0.001039  0.334737  0.923144  1
  Al  Al11  1  0.665263  0.998961  0.076856  1
  Al  Al12  1  0.665263  0.998961  0.423144  1
  Al  Al13  1  0.334737  0.001039  0.576856  1
  Al  Al14  1  0.328920  0.328920  0.050420  1
  Al  Al15  1  0.671080  0.671080  0.949580  1
  Al  Al16  1  0.671080  0.671080  0.550420  1
  Al  Al17  1  0.328920  0.328920  0.449580  1
  Al  Al18  1  0.343518  0.551411  0.750000  1
  Al  Al19  1  0.656482  0.448589  0.250000  1
  Al  Al20  1  0.551411  0.343518  0.750000  1
  Al  Al21  1  0.448589  0.656482  0.250000  1
  Re  Re22  1  0.000000  0.000000  0.500000  1
  Re  Re23  1  0.000000  0.000000  0.000000  1
  Pt  Pt24  1  0.671499  0.328501  0.500000  1
  Pt  Pt25  1  0.328501  0.671499  0.500000  1
  Pt  Pt26  1  0.328501  0.671499  0.000000  1
  Pt  Pt27  1  0.671499  0.328501  0.000000  1
