# generated using pymatgen
data_Th2ReSi5Rh2
_symmetry_space_group_name_H-M   'P 1'
_cell_length_a   8.28892312
_cell_length_b   8.28892058
_cell_length_c   8.28892199
_cell_angle_alpha   137.95590787
_cell_angle_beta   106.05455202
_cell_angle_gamma   88.90088028
_symmetry_Int_Tables_number   1
_chemical_formula_structural   Th2ReSi5Rh2
_chemical_formula_sum   'Th4 Re2 Si10 Rh4'
_cell_volume   350.84701708
_cell_formula_units_Z   2
loop_
 _symmetry_equiv_pos_site_id
 _symmetry_equiv_pos_as_xyz
  1  'x, y, z'
loop_
 _atom_site_type_symbol
 _atom_site_label
 _atom_site_symmetry_multiplicity
 _atom_site_fract_x
 _atom_site_fract_y
 _atom_site_fract_z
 _atom_site_occupancy
  Th  Th0  1  0.863672  0.627749  0.235924  1
  Th  Th1  1  0.136328  0.372251  0.764076  1
  Th  Th2  1  0.391825  0.127749  0.264076  1
  Th  Th3  1  0.608175  0.872251  0.735924  1
  Re  Re4  1  0.000000  0.750000  0.750000  1
  Re  Re5  1  0.000000  0.250000  0.250000  1
  Si  Si6  1  0.500000  0.750000  0.250000  1
  Si  Si7  1  0.500000  0.250000  0.750000  1
  Si  Si8  1  0.224850  0.974850  0.750000  1
  Si  Si9  1  0.775150  0.525150  0.750000  1
  Si  Si10  1  0.775150  0.025150  0.250000  1
  Si  Si11  1  0.224850  0.474850  0.250000  1
  Si  Si12  1  0.044990  0.892970  0.152021  1
  Si  Si13  1  0.955010  0.107030  0.847979  1
  Si  Si14  1  0.740949  0.392970  0.347979  1
  Si  Si15  1  0.259051  0.607030  0.652021  1
  Rh  Rh16  1  0.249244  0.859598  0.389646  1
  Rh  Rh17  1  0.750756  0.140402  0.610354  1
  Rh  Rh18  1  0.469952  0.359598  0.110354  1
  Rh  Rh19  1  0.530048  0.640402  0.889646  1
