# generated using pymatgen
data_Hf6Co12Si4N
_symmetry_space_group_name_H-M   'P 1'
_cell_length_a   7.16576170
_cell_length_b   7.16576228
_cell_length_c   7.16576200
_cell_angle_alpha   109.47121701
_cell_angle_beta   109.47121866
_cell_angle_gamma   109.47121696
_symmetry_Int_Tables_number   1
_chemical_formula_structural   Hf6Co12Si4N
_chemical_formula_sum   'Hf6 Co12 Si4 N1'
_cell_volume   283.24698547
_cell_formula_units_Z   1
loop_
 _symmetry_equiv_pos_site_id
 _symmetry_equiv_pos_as_xyz
  1  'x, y, z'
loop_
 _atom_site_type_symbol
 _atom_site_label
 _atom_site_symmetry_multiplicity
 _atom_site_fract_x
 _atom_site_fract_y
 _atom_site_fract_z
 _atom_site_occupancy
  Hf  Hf0  1  0.273116  0.273116  0.000000  1
  Hf  Hf1  1  0.726885  0.726885  0.000000  1
  Hf  Hf2  1  0.273116  0.000000  0.273116  1
  Hf  Hf3  1  0.000000  0.273116  0.273116  1
  Hf  Hf4  1  0.726885  0.000000  0.726885  1
  Hf  Hf5  1  0.000000  0.726885  0.726885  1
  Co  Co6  1  0.655206  0.344795  0.000000  1
  Co  Co7  1  0.344795  0.655206  0.000000  1
  Co  Co8  1  0.655206  0.655206  0.310412  1
  Co  Co9  1  0.689586  0.344793  0.344793  1
  Co  Co10  1  0.344793  0.689586  0.344793  1
  Co  Co11  1  0.655206  0.000000  0.344795  1
  Co  Co12  1  0.000000  0.655206  0.344795  1
  Co  Co13  1  0.344795  0.000000  0.655206  1
  Co  Co14  1  0.655206  0.310412  0.655206  1
  Co  Co15  1  0.000000  0.344795  0.655206  1
  Co  Co16  1  0.310412  0.655206  0.655206  1
  Co  Co17  1  0.344793  0.344793  0.689586  1
  Si  Si18  1  0.500000  0.000000  0.000000  1
  Si  Si19  1  0.000000  0.500000  0.000000  1
  Si  Si20  1  0.000000  0.000000  0.500000  1
  Si  Si21  1  0.500000  0.500000  0.500000  1
  N  N22  1  0.000000  0.000000  0.000000  1
