# generated using pymatgen
data_TiSi2Rh3
_symmetry_space_group_name_H-M   'P 1'
_cell_length_a   3.88960100
_cell_length_b   5.88054438
_cell_length_c   7.37838621
_cell_angle_alpha   90.06534311
_cell_angle_beta   90.00000000
_cell_angle_gamma   90.00000000
_symmetry_Int_Tables_number   1
_chemical_formula_structural   TiSi2Rh3
_chemical_formula_sum   'Ti2 Si4 Rh6'
_cell_volume   168.76550645
_cell_formula_units_Z   2
loop_
 _symmetry_equiv_pos_site_id
 _symmetry_equiv_pos_as_xyz
  1  'x, y, z'
loop_
 _atom_site_type_symbol
 _atom_site_label
 _atom_site_symmetry_multiplicity
 _atom_site_fract_x
 _atom_site_fract_y
 _atom_site_fract_z
 _atom_site_occupancy
  Ti  Ti0  1  0.750000  0.533300  0.803368  1
  Ti  Ti1  1  0.250000  0.466700  0.196632  1
  Si  Si2  1  0.250000  0.213967  0.873829  1
  Si  Si3  1  0.750000  0.786033  0.126171  1
  Si  Si4  1  0.250000  0.772816  0.603070  1
  Si  Si5  1  0.750000  0.227184  0.396930  1
  Rh  Rh6  1  0.750000  0.025536  0.688530  1
  Rh  Rh7  1  0.250000  0.974464  0.311470  1
  Rh  Rh8  1  0.250000  0.813203  0.931369  1
  Rh  Rh9  1  0.750000  0.186797  0.068631  1
  Rh  Rh10  1  0.250000  0.355681  0.572180  1
  Rh  Rh11  1  0.750000  0.644319  0.427820  1
