# generated using pymatgen
data_Dy3HoErRu2
_symmetry_space_group_name_H-M   'P 1'
_cell_length_a   6.34790602
_cell_length_b   7.27272596
_cell_length_c   8.46665685
_cell_angle_alpha   96.67523856
_cell_angle_beta   112.01669123
_cell_angle_gamma   89.99999270
_symmetry_Int_Tables_number   1
_chemical_formula_structural   Dy3HoErRu2
_chemical_formula_sum   'Dy6 Ho2 Er2 Ru4'
_cell_volume   359.51200997
_cell_formula_units_Z   2
loop_
 _symmetry_equiv_pos_site_id
 _symmetry_equiv_pos_as_xyz
  1  'x, y, z'
loop_
 _atom_site_type_symbol
 _atom_site_label
 _atom_site_symmetry_multiplicity
 _atom_site_fract_x
 _atom_site_fract_y
 _atom_site_fract_z
 _atom_site_occupancy
  Dy  Dy0  1  0.791617  0.583959  0.813740  1
  Dy  Dy1  1  0.977877  0.916041  0.186260  1
  Dy  Dy2  1  0.208399  0.415640  0.186233  1
  Dy  Dy3  1  0.022166  0.084360  0.813767  1
  Dy  Dy4  1  0.206417  0.685010  0.566065  1
  Dy  Dy5  1  0.640354  0.814990  0.433935  1
  Ho  Ho6  1  0.793617  0.314978  0.433882  1
  Ho  Ho7  1  0.359733  0.185022  0.566118  1
  Er  Er8  1  0.420630  0.750000  0.000000  1
  Er  Er9  1  0.579520  0.250000  0.000000  1
  Ru  Ru10  1  0.603076  0.924463  0.780261  1
  Ru  Ru11  1  0.822813  0.575537  0.219739  1
  Ru  Ru12  1  0.396889  0.076022  0.220000  1
  Ru  Ru13  1  0.176891  0.423978  0.780000  1
