# generated using pymatgen
data_Sc7Al16Rh7
_symmetry_space_group_name_H-M   'P 1'
_cell_length_a   8.83060097
_cell_length_b   8.82994984
_cell_length_c   8.83061206
_cell_angle_alpha   119.99645347
_cell_angle_beta   120.00429355
_cell_angle_gamma   90.00137241
_symmetry_Int_Tables_number   1
_chemical_formula_structural   Sc7Al16Rh7
_chemical_formula_sum   'Sc7 Al16 Rh7'
_cell_volume   486.87132602
_cell_formula_units_Z   1
loop_
 _symmetry_equiv_pos_site_id
 _symmetry_equiv_pos_as_xyz
  1  'x, y, z'
loop_
 _atom_site_type_symbol
 _atom_site_label
 _atom_site_symmetry_multiplicity
 _atom_site_fract_x
 _atom_site_fract_y
 _atom_site_fract_z
 _atom_site_occupancy
  Sc  Sc0  1  0.795351  0.285844  0.071225  1
  Sc  Sc1  1  0.214619  0.285846  0.490496  1
  Sc  Sc2  1  0.213939  0.704545  0.490605  1
  Sc  Sc3  1  0.225986  0.724650  0.948857  1
  Sc  Sc4  1  0.775794  0.724651  0.498664  1
  Sc  Sc5  1  0.774977  0.273842  0.498865  1
  Sc  Sc6  1  0.379117  0.120852  0.741738  1
  Al  Al7  1  0.377994  0.632467  0.254472  1
  Al  Al8  1  0.994271  0.504389  0.510117  1
  Al  Al9  1  0.162493  0.337440  0.174948  1
  Al  Al10  1  0.155318  0.969943  0.814625  1
  Al  Al11  1  0.154896  0.344818  0.813678  1
  Al  Al12  1  0.531139  0.344818  0.189922  1
  Al  Al13  1  0.844455  0.655445  0.810990  1
  Al  Al14  1  0.840699  0.025352  0.184652  1
  Al  Al15  1  0.840539  0.659411  0.184023  1
  Al  Al16  1  0.475389  0.659411  0.818873  1
  Al  Al17  1  0.377979  0.121855  0.254443  1
  Al  Al18  1  0.867413  0.121855  0.743876  1
  Al  Al19  1  0.623466  0.876375  0.252908  1
  Al  Al20  1  0.621966  0.368698  0.746732  1
  Al  Al21  1  0.621976  0.877980  0.746478  1
  Al  Al22  1  0.131502  0.877980  0.256004  1
  Rh  Rh23  1  0.995672  0.999521  0.499091  1
  Rh  Rh24  1  0.500433  0.999520  0.003847  1
  Rh  Rh25  1  0.500376  0.504311  0.003936  1
  Rh  Rh26  1  0.499651  0.500359  0.500415  1
  Rh  Rh27  1  0.999946  0.500361  0.000705  1
  Rh  Rh28  1  0.999700  0.000352  0.000652  1
  Rh  Rh29  1  0.502943  0.997103  0.494165  1
