# generated using pymatgen
data_Li3Si3NiRh5
_symmetry_space_group_name_H-M   'P 1'
_cell_length_a   4.07158100
_cell_length_b   5.79175100
_cell_length_c   12.20248400
_cell_angle_alpha   90.00000000
_cell_angle_beta   90.00103248
_cell_angle_gamma   90.00000000
_symmetry_Int_Tables_number   1
_chemical_formula_structural   Li3Si3NiRh5
_chemical_formula_sum   'Li6 Si6 Ni2 Rh10'
_cell_volume   287.75389324
_cell_formula_units_Z   2
loop_
 _symmetry_equiv_pos_site_id
 _symmetry_equiv_pos_as_xyz
  1  'x, y, z'
loop_
 _atom_site_type_symbol
 _atom_site_label
 _atom_site_symmetry_multiplicity
 _atom_site_fract_x
 _atom_site_fract_y
 _atom_site_fract_z
 _atom_site_occupancy
  Li  Li0  1  0.000000  0.500001  0.000000  1
  Li  Li1  1  0.499877  0.000000  0.160919  1
  Li  Li2  1  0.999838  0.500001  0.331158  1
  Li  Li3  1  0.500001  0.000000  0.500000  1
  Li  Li4  1  0.000162  0.500001  0.668842  1
  Li  Li5  1  0.500122  0.000000  0.839081  1
  Si  Si6  1  0.000000  0.000000  0.000000  1
  Si  Si7  1  0.499894  0.500001  0.165096  1
  Si  Si8  1  0.999892  0.000000  0.331905  1
  Si  Si9  1  0.500001  0.500001  0.500000  1
  Si  Si10  1  0.000108  0.000000  0.668095  1
  Si  Si11  1  0.500106  0.500001  0.834905  1
  Ni  Ni12  1  0.499999  0.253358  0.000000  1
  Ni  Ni13  1  0.499999  0.746642  0.000000  1
  Rh  Rh14  1  0.999908  0.250068  0.159605  1
  Rh  Rh15  1  0.999908  0.749932  0.159605  1
  Rh  Rh16  1  0.499905  0.249297  0.330397  1
  Rh  Rh17  1  0.499905  0.750703  0.330397  1
  Rh  Rh18  1  0.000000  0.250434  0.500000  1
  Rh  Rh19  1  0.000000  0.749566  0.500000  1
  Rh  Rh20  1  0.500094  0.249297  0.669603  1
  Rh  Rh21  1  0.500094  0.750703  0.669603  1
  Rh  Rh22  1  0.000092  0.250068  0.840395  1
  Rh  Rh23  1  0.000092  0.749932  0.840395  1
