# generated using pymatgen
data_CaHo9(In2Ir)4
_symmetry_space_group_name_H-M   'P 1'
_cell_length_a   3.65871600
_cell_length_b   7.99838942
_cell_length_c   18.30621799
_cell_angle_alpha   89.88014831
_cell_angle_beta   90.00000000
_cell_angle_gamma   90.00000000
_symmetry_Int_Tables_number   1
_chemical_formula_structural   CaHo9(In2Ir)4
_chemical_formula_sum   'Ca1 Ho9 In8 Ir4'
_cell_volume   535.70897719
_cell_formula_units_Z   1
loop_
 _symmetry_equiv_pos_site_id
 _symmetry_equiv_pos_as_xyz
  1  'x, y, z'
loop_
 _atom_site_type_symbol
 _atom_site_label
 _atom_site_symmetry_multiplicity
 _atom_site_fract_x
 _atom_site_fract_y
 _atom_site_fract_z
 _atom_site_occupancy
  Ca  Ca0  1  0.000000  0.000000  0.000000  1
  Ho  Ho1  1  0.000000  0.114825  0.410670  1
  Ho  Ho2  1  0.000000  0.885175  0.589330  1
  Ho  Ho3  1  0.000000  0.382858  0.910044  1
  Ho  Ho4  1  0.000000  0.617142  0.089956  1
  Ho  Ho5  1  0.000000  0.244886  0.222243  1
  Ho  Ho6  1  0.000000  0.755114  0.777757  1
  Ho  Ho7  1  0.000000  0.256071  0.721328  1
  Ho  Ho8  1  0.000000  0.743929  0.278672  1
  Ho  Ho9  1  0.000000  0.500000  0.500000  1
  In  In10  1  0.500000  0.428560  0.350553  1
  In  In11  1  0.500000  0.571440  0.649447  1
  In  In12  1  0.500000  0.070392  0.848951  1
  In  In13  1  0.500000  0.929608  0.151049  1
  In  In14  1  0.500000  0.296019  0.067794  1
  In  In15  1  0.500000  0.703981  0.932206  1
  In  In16  1  0.500000  0.208007  0.567169  1
  In  In17  1  0.500000  0.791993  0.432831  1
  Ir  Ir18  1  0.500000  0.019513  0.305159  1
  Ir  Ir19  1  0.500000  0.980487  0.694841  1
  Ir  Ir20  1  0.500000  0.480301  0.803750  1
  Ir  Ir21  1  0.500000  0.519699  0.196250  1
