# generated using pymatgen
data_Pr4SmY3(Si3Rh)4
_symmetry_space_group_name_H-M   'P 1'
_cell_length_a   8.26046900
_cell_length_b   8.26046825
_cell_length_c   8.23541200
_cell_angle_alpha   90.00000000
_cell_angle_beta   90.00000000
_cell_angle_gamma   119.99999099
_symmetry_Int_Tables_number   1
_chemical_formula_structural   Pr4SmY3(Si3Rh)4
_chemical_formula_sum   'Pr4 Sm1 Y3 Si12 Rh4'
_cell_volume   486.65968864
_cell_formula_units_Z   1
loop_
 _symmetry_equiv_pos_site_id
 _symmetry_equiv_pos_as_xyz
  1  'x, y, z'
loop_
 _atom_site_type_symbol
 _atom_site_label
 _atom_site_symmetry_multiplicity
 _atom_site_fract_x
 _atom_site_fract_y
 _atom_site_fract_z
 _atom_site_occupancy
  Pr  Pr0  1  0.000000  0.000000  0.250000  1
  Pr  Pr1  1  0.504361  0.495639  0.250000  1
  Pr  Pr2  1  0.504361  0.008720  0.250000  1
  Pr  Pr3  1  0.991280  0.495639  0.250000  1
  Sm  Sm4  1  0.000000  0.000000  0.750000  1
  Y  Y5  1  0.493009  0.506991  0.750000  1
  Y  Y6  1  0.493009  0.986017  0.750000  1
  Y  Y7  1  0.013983  0.506991  0.750000  1
  Si  Si8  1  0.166321  0.833679  0.508044  1
  Si  Si9  1  0.166321  0.332643  0.508044  1
  Si  Si10  1  0.667357  0.833679  0.508044  1
  Si  Si11  1  0.832133  0.167867  0.505344  1
  Si  Si12  1  0.832133  0.664264  0.505344  1
  Si  Si13  1  0.335736  0.167867  0.505344  1
  Si  Si14  1  0.832133  0.167867  0.994656  1
  Si  Si15  1  0.832133  0.664264  0.994656  1
  Si  Si16  1  0.335736  0.167867  0.994656  1
  Si  Si17  1  0.166321  0.833679  0.991956  1
  Si  Si18  1  0.166321  0.332643  0.991956  1
  Si  Si19  1  0.667357  0.833679  0.991956  1
  Rh  Rh20  1  0.333333  0.666667  0.493055  1
  Rh  Rh21  1  0.666667  0.333333  0.542566  1
  Rh  Rh22  1  0.666667  0.333333  0.957434  1
  Rh  Rh23  1  0.333333  0.666667  0.006945  1
