# generated using pymatgen
data_Er4TmPb4
_symmetry_space_group_name_H-M   'P 1'
_cell_length_a   8.14632000
_cell_length_b   8.21186200
_cell_length_c   15.52737300
_cell_angle_alpha   90.00000000
_cell_angle_beta   90.00000000
_cell_angle_gamma   90.00000000
_symmetry_Int_Tables_number   1
_chemical_formula_structural   Er4TmPb4
_chemical_formula_sum   'Er16 Tm4 Pb16'
_cell_volume   1038.72621922
_cell_formula_units_Z   4
loop_
 _symmetry_equiv_pos_site_id
 _symmetry_equiv_pos_as_xyz
  1  'x, y, z'
loop_
 _atom_site_type_symbol
 _atom_site_label
 _atom_site_symmetry_multiplicity
 _atom_site_fract_x
 _atom_site_fract_y
 _atom_site_fract_z
 _atom_site_occupancy
  Er  Er0  1  0.377225  0.841076  0.878982  1
  Er  Er1  1  0.877225  0.658924  0.621018  1
  Er  Er2  1  0.622775  0.158924  0.378982  1
  Er  Er3  1  0.122775  0.341076  0.121018  1
  Er  Er4  1  0.622775  0.158924  0.121018  1
  Er  Er5  1  0.122775  0.341076  0.378982  1
  Er  Er6  1  0.377225  0.841076  0.621018  1
  Er  Er7  1  0.877225  0.658924  0.878982  1
  Er  Er8  1  0.537007  0.323369  0.900163  1
  Er  Er9  1  0.037007  0.176631  0.599837  1
  Er  Er10  1  0.462993  0.676631  0.400163  1
  Er  Er11  1  0.962993  0.823369  0.099837  1
  Er  Er12  1  0.462993  0.676631  0.099837  1
  Er  Er13  1  0.962993  0.823369  0.400163  1
  Er  Er14  1  0.537007  0.323369  0.599837  1
  Er  Er15  1  0.037007  0.176631  0.900163  1
  Tm  Tm16  1  0.208586  0.504259  0.750000  1
  Tm  Tm17  1  0.708586  0.995741  0.750000  1
  Tm  Tm18  1  0.791414  0.495741  0.250000  1
  Tm  Tm19  1  0.291414  0.004259  0.250000  1
  Pb  Pb20  1  0.280687  0.032495  0.042642  1
  Pb  Pb21  1  0.780687  0.467505  0.457358  1
  Pb  Pb22  1  0.719313  0.967505  0.542642  1
  Pb  Pb23  1  0.219313  0.532495  0.957358  1
  Pb  Pb24  1  0.719313  0.967505  0.957358  1
  Pb  Pb25  1  0.219313  0.532495  0.542642  1
  Pb  Pb26  1  0.280687  0.032495  0.457358  1
  Pb  Pb27  1  0.780687  0.467505  0.042642  1
  Pb  Pb28  1  0.571474  0.626683  0.750000  1
  Pb  Pb29  1  0.071474  0.873317  0.750000  1
  Pb  Pb30  1  0.428526  0.373317  0.250000  1
  Pb  Pb31  1  0.928526  0.126683  0.250000  1
  Pb  Pb32  1  0.348873  0.154468  0.750000  1
  Pb  Pb33  1  0.848873  0.345532  0.750000  1
  Pb  Pb34  1  0.651127  0.845532  0.250000  1
  Pb  Pb35  1  0.151127  0.654468  0.250000  1
