# generated using pymatgen
data_Pr20Si15Bi
_symmetry_space_group_name_H-M   'P 1'
_cell_length_a   8.01642750
_cell_length_b   7.98267136
_cell_length_c   15.35879065
_cell_angle_alpha   90.05330325
_cell_angle_beta   89.39185339
_cell_angle_gamma   89.68934711
_symmetry_Int_Tables_number   1
_chemical_formula_structural   Pr20Si15Bi
_chemical_formula_sum   'Pr20 Si15 Bi1'
_cell_volume   982.77721848
_cell_formula_units_Z   1
loop_
 _symmetry_equiv_pos_site_id
 _symmetry_equiv_pos_as_xyz
  1  'x, y, z'
loop_
 _atom_site_type_symbol
 _atom_site_label
 _atom_site_symmetry_multiplicity
 _atom_site_fract_x
 _atom_site_fract_y
 _atom_site_fract_z
 _atom_site_occupancy
  Pr  Pr0  1  0.309662  0.310675  0.001083  1
  Pr  Pr1  1  0.190666  0.810021  0.249564  1
  Pr  Pr2  1  0.797591  0.189354  0.753557  1
  Pr  Pr3  1  0.685627  0.691446  0.495081  1
  Pr  Pr4  1  0.378113  0.012039  0.448239  1
  Pr  Pr5  1  0.498412  0.871628  0.698338  1
  Pr  Pr6  1  0.509468  0.120277  0.197130  1
  Pr  Pr7  1  0.877999  0.489469  0.300355  1
  Pr  Pr8  1  0.119166  0.518184  0.806817  1
  Pr  Pr9  1  0.623998  0.987152  0.949965  1
  Pr  Pr10  1  0.999726  0.385676  0.544168  1
  Pr  Pr11  1  0.989516  0.619955  0.054185  1
  Pr  Pr12  1  0.129404  0.982818  0.879624  1
  Pr  Pr13  1  0.518997  0.627722  0.126409  1
  Pr  Pr14  1  0.494092  0.382611  0.626351  1
  Pr  Pr15  1  0.629989  0.520703  0.876366  1
  Pr  Pr16  1  0.372584  0.480132  0.373307  1
  Pr  Pr17  1  0.872524  0.017914  0.376123  1
  Pr  Pr18  1  0.982374  0.128640  0.124909  1
  Pr  Pr19  1  0.005564  0.854293  0.620314  1
  Si  Si20  1  0.331826  0.696496  0.952713  1
  Si  Si21  1  0.665685  0.302562  0.450846  1
  Si  Si22  1  0.699076  0.332742  0.049812  1
  Si  Si23  1  0.303566  0.668780  0.547523  1
  Si  Si24  1  0.802706  0.832787  0.201434  1
  Si  Si25  1  0.166511  0.197956  0.299095  1
  Si  Si26  1  0.837038  0.803838  0.799117  1
  Si  Si27  1  0.287893  0.921453  0.060245  1
  Si  Si28  1  0.577765  0.789746  0.308692  1
  Si  Si29  1  0.438238  0.210541  0.819116  1
  Si  Si30  1  0.790363  0.576063  0.691309  1
  Si  Si31  1  0.210886  0.422090  0.191198  1
  Si  Si32  1  0.707055  0.077243  0.559790  1
  Si  Si33  1  0.924907  0.289262  0.941300  1
  Si  Si34  1  0.079518  0.712704  0.438506  1
  Bi  Bi35  1  0.191494  0.165029  0.687419  1
