# generated using pymatgen
data_Tb2UAl3IrRu2
_symmetry_space_group_name_H-M   'P 1'
_cell_length_a   6.82379924
_cell_length_b   6.82379950
_cell_length_c   4.08880500
_cell_angle_alpha   90.00000000
_cell_angle_beta   90.00000000
_cell_angle_gamma   115.27847515
_symmetry_Int_Tables_number   1
_chemical_formula_structural   Tb2UAl3IrRu2
_chemical_formula_sum   'Tb2 U1 Al3 Ir1 Ru2'
_cell_volume   172.16072012
_cell_formula_units_Z   1
loop_
 _symmetry_equiv_pos_site_id
 _symmetry_equiv_pos_as_xyz
  1  'x, y, z'
loop_
 _atom_site_type_symbol
 _atom_site_label
 _atom_site_symmetry_multiplicity
 _atom_site_fract_x
 _atom_site_fract_y
 _atom_site_fract_z
 _atom_site_occupancy
  Tb  Tb0  1  0.420117  0.004847  0.500000  1
  Tb  Tb1  1  0.004847  0.420117  0.500000  1
  U  U2  1  0.589133  0.589133  0.500000  1
  Al  Al3  1  0.756602  0.013938  0.000000  1
  Al  Al4  1  0.013938  0.756602  0.000000  1
  Al  Al5  1  0.213977  0.213977  0.000000  1
  Ir  Ir6  1  0.978423  0.978423  0.500000  1
  Ru  Ru7  1  0.381904  0.641059  0.000000  1
  Ru  Ru8  1  0.641059  0.381904  0.000000  1
