# generated using pymatgen
data_Ce3Ho(B4Ru)4
_symmetry_space_group_name_H-M   'P 1'
_cell_length_a   3.61051100
_cell_length_b   5.98821058
_cell_length_c   11.61693704
_cell_angle_alpha   90.08302672
_cell_angle_beta   90.00000000
_cell_angle_gamma   90.00000000
_symmetry_Int_Tables_number   1
_chemical_formula_structural   Ce3Ho(B4Ru)4
_chemical_formula_sum   'Ce3 Ho1 B16 Ru4'
_cell_volume   251.16372539
_cell_formula_units_Z   1
loop_
 _symmetry_equiv_pos_site_id
 _symmetry_equiv_pos_as_xyz
  1  'x, y, z'
loop_
 _atom_site_type_symbol
 _atom_site_label
 _atom_site_symmetry_multiplicity
 _atom_site_fract_x
 _atom_site_fract_y
 _atom_site_fract_z
 _atom_site_occupancy
  Ce  Ce0  1  0.000000  0.629108  0.649719  1
  Ce  Ce1  1  0.000000  0.370943  0.349277  1
  Ce  Ce2  1  0.000000  0.128802  0.851312  1
  Ho  Ho3  1  0.000000  0.871366  0.149266  1
  B  B4  1  0.500000  0.975757  0.690716  1
  B  B5  1  0.500000  0.023608  0.307887  1
  B  B6  1  0.500000  0.474673  0.810028  1
  B  B7  1  0.500000  0.525877  0.190647  1
  B  B8  1  0.500000  0.787057  0.815383  1
  B  B9  1  0.500000  0.211695  0.185268  1
  B  B10  1  0.500000  0.286242  0.686029  1
  B  B11  1  0.500000  0.713937  0.313379  1
  B  B12  1  0.500000  0.863462  0.969670  1
  B  B13  1  0.500000  0.136709  0.032048  1
  B  B14  1  0.500000  0.362434  0.530930  1
  B  B15  1  0.500000  0.637202  0.468379  1
  B  B16  1  0.500000  0.888413  0.545619  1
  B  B17  1  0.500000  0.110742  0.453005  1
  B  B18  1  0.500000  0.388942  0.955150  1
  B  B19  1  0.500000  0.613128  0.047164  1
  Ru  Ru20  1  0.000000  0.639779  0.906612  1
  Ru  Ru21  1  0.000000  0.359473  0.092984  1
  Ru  Ru22  1  0.000000  0.140650  0.593437  1
  Ru  Ru23  1  0.000000  0.860003  0.406090  1
