# generated using pymatgen
data_Pr2Tm6Cd2IrPt
_symmetry_space_group_name_H-M   'P 1'
_cell_length_a   9.67793315
_cell_length_b   9.65347056
_cell_length_c   9.64343534
_cell_angle_alpha   60.20220965
_cell_angle_beta   59.95028068
_cell_angle_gamma   60.07963742
_symmetry_Int_Tables_number   1
_chemical_formula_structural   Pr2Tm6Cd2IrPt
_chemical_formula_sum   'Pr4 Tm12 Cd4 Ir2 Pt2'
_cell_volume   638.17461632
_cell_formula_units_Z   2
loop_
 _symmetry_equiv_pos_site_id
 _symmetry_equiv_pos_as_xyz
  1  'x, y, z'
loop_
 _atom_site_type_symbol
 _atom_site_label
 _atom_site_symmetry_multiplicity
 _atom_site_fract_x
 _atom_site_fract_y
 _atom_site_fract_z
 _atom_site_occupancy
  Pr  Pr0  1  0.566104  0.935296  0.564375  1
  Pr  Pr1  1  0.935296  0.566104  0.934225  1
  Pr  Pr2  1  0.565386  0.565386  0.934614  1
  Pr  Pr3  1  0.934890  0.934890  0.565110  1
  Tm  Tm4  1  0.353366  0.347131  0.343203  1
  Tm  Tm5  1  0.347131  0.353366  0.956299  1
  Tm  Tm6  1  0.351457  0.949813  0.352606  1
  Tm  Tm7  1  0.949813  0.351457  0.346123  1
  Tm  Tm8  1  0.809662  0.186320  0.186555  1
  Tm  Tm9  1  0.186320  0.809662  0.817463  1
  Tm  Tm10  1  0.188325  0.808149  0.190041  1
  Tm  Tm11  1  0.808149  0.188325  0.813485  1
  Tm  Tm12  1  0.190125  0.190125  0.809875  1
  Tm  Tm13  1  0.812089  0.812089  0.187911  1
  Tm  Tm14  1  0.948987  0.553883  0.549250  1
  Tm  Tm15  1  0.553883  0.948987  0.947880  1
  Cd  Cd16  1  0.584493  0.577474  0.577576  1
  Cd  Cd17  1  0.577474  0.584493  0.260456  1
  Cd  Cd18  1  0.577767  0.260468  0.583645  1
  Cd  Cd19  1  0.260468  0.577767  0.578120  1
  Ir  Ir20  1  0.138204  0.574375  0.148812  1
  Ir  Ir21  1  0.574375  0.138204  0.138610  1
  Pt  Pt22  1  0.147149  0.139085  0.140172  1
  Pt  Pt23  1  0.139085  0.147149  0.573594  1
