# generated using pymatgen
data_Li4Ca8Si11Pb
_symmetry_space_group_name_H-M   'P 1'
_cell_length_a   4.39987100
_cell_length_b   10.68790091
_cell_length_c   11.30569249
_cell_angle_alpha   89.46652513
_cell_angle_beta   90.00000000
_cell_angle_gamma   90.00000000
_symmetry_Int_Tables_number   1
_chemical_formula_structural   Li4Ca8Si11Pb
_chemical_formula_sum   'Li4 Ca8 Si11 Pb1'
_cell_volume   531.63149951
_cell_formula_units_Z   1
loop_
 _symmetry_equiv_pos_site_id
 _symmetry_equiv_pos_as_xyz
  1  'x, y, z'
loop_
 _atom_site_type_symbol
 _atom_site_label
 _atom_site_symmetry_multiplicity
 _atom_site_fract_x
 _atom_site_fract_y
 _atom_site_fract_z
 _atom_site_occupancy
  Li  Li0  1  0.500000  0.862750  0.299294  1
  Li  Li1  1  0.500000  0.141693  0.716514  1
  Li  Li2  1  0.000000  0.364144  0.217548  1
  Li  Li3  1  0.000000  0.635545  0.778402  1
  Ca  Ca4  1  0.500000  0.552958  0.349057  1
  Ca  Ca5  1  0.500000  0.447728  0.650305  1
  Ca  Ca6  1  0.000000  0.066239  0.154873  1
  Ca  Ca7  1  0.000000  0.950442  0.846365  1
  Ca  Ca8  1  0.500000  0.820185  0.575057  1
  Ca  Ca9  1  0.500000  0.178780  0.426979  1
  Ca  Ca10  1  0.000000  0.323936  0.924866  1
  Ca  Ca11  1  0.000000  0.661990  0.070384  1
  Si  Si12  1  0.500000  0.120929  0.955772  1
  Si  Si13  1  0.000000  0.392711  0.458231  1
  Si  Si14  1  0.000000  0.605592  0.540586  1
  Si  Si15  1  0.000000  0.964466  0.402174  1
  Si  Si16  1  0.000000  0.036269  0.597693  1
  Si  Si17  1  0.500000  0.467418  0.098763  1
  Si  Si18  1  0.500000  0.529894  0.898465  1
  Si  Si19  1  0.000000  0.254848  0.628925  1
  Si  Si20  1  0.000000  0.744257  0.370452  1
  Si  Si21  1  0.500000  0.745785  0.853015  1
  Si  Si22  1  0.500000  0.249776  0.130132  1
  Pb  Pb23  1  0.500000  0.881666  0.056149  1
