# generated using pymatgen
data_Tb20Ga4Si11Ge
_symmetry_space_group_name_H-M   'P 1'
_cell_length_a   7.46860540
_cell_length_b   7.83091475
_cell_length_c   14.81187700
_cell_angle_alpha   89.92719967
_cell_angle_beta   90.03503597
_cell_angle_gamma   90.16994383
_symmetry_Int_Tables_number   1
_chemical_formula_structural   Tb20Ga4Si11Ge
_chemical_formula_sum   'Tb20 Ga4 Si11 Ge1'
_cell_volume   866.28294844
_cell_formula_units_Z   1
loop_
 _symmetry_equiv_pos_site_id
 _symmetry_equiv_pos_as_xyz
  1  'x, y, z'
loop_
 _atom_site_type_symbol
 _atom_site_label
 _atom_site_symmetry_multiplicity
 _atom_site_fract_x
 _atom_site_fract_y
 _atom_site_fract_z
 _atom_site_occupancy
  Tb  Tb0  1  0.681278  0.174013  0.623889  1
  Tb  Tb1  1  0.179026  0.325202  0.875047  1
  Tb  Tb2  1  0.320040  0.824546  0.125270  1
  Tb  Tb3  1  0.820134  0.674755  0.375128  1
  Tb  Tb4  1  0.319950  0.823610  0.376632  1
  Tb  Tb5  1  0.820293  0.675671  0.123164  1
  Tb  Tb6  1  0.681656  0.174790  0.877828  1
  Tb  Tb7  1  0.179178  0.324374  0.623184  1
  Tb  Tb8  1  0.522843  0.685997  0.598996  1
  Tb  Tb9  1  0.023962  0.815463  0.899783  1
  Tb  Tb10  1  0.475730  0.314788  0.100482  1
  Tb  Tb11  1  0.976199  0.184521  0.400136  1
  Tb  Tb12  1  0.473251  0.318127  0.399414  1
  Tb  Tb13  1  0.973225  0.181319  0.100281  1
  Tb  Tb14  1  0.526253  0.682972  0.900656  1
  Tb  Tb15  1  0.026363  0.819491  0.600118  1
  Tb  Tb16  1  0.849503  0.513406  0.751603  1
  Tb  Tb17  1  0.347703  0.988283  0.748182  1
  Tb  Tb18  1  0.152024  0.487930  0.251722  1
  Tb  Tb19  1  0.652668  0.010848  0.248401  1
  Ga  Ga20  1  0.654722  0.966516  0.459919  1
  Ga  Ga21  1  0.155619  0.532542  0.039698  1
  Ga  Ga22  1  0.344741  0.032920  0.960283  1
  Ga  Ga23  1  0.845344  0.467912  0.539925  1
  Si  Si24  1  0.349206  0.032082  0.539199  1
  Si  Si25  1  0.849900  0.468926  0.960420  1
  Si  Si26  1  0.649773  0.967848  0.039885  1
  Si  Si27  1  0.151083  0.531379  0.460735  1
  Si  Si28  1  0.976423  0.104093  0.750949  1
  Si  Si29  1  0.523654  0.603362  0.249150  1
  Si  Si30  1  0.023626  0.896025  0.250922  1
  Si  Si31  1  0.731067  0.873309  0.750089  1
  Si  Si32  1  0.228997  0.631047  0.749806  1
  Si  Si33  1  0.267422  0.126520  0.250123  1
  Si  Si34  1  0.767850  0.372552  0.249900  1
  Ge  Ge35  1  0.479295  0.392858  0.749085  1
