# generated using pymatgen
data_Zr10InSn5Bi2
_symmetry_space_group_name_H-M   'P 1'
_cell_length_a   8.91444837
_cell_length_b   8.89124509
_cell_length_c   5.98387182
_cell_angle_alpha   89.93973593
_cell_angle_beta   90.03005300
_cell_angle_gamma   119.91393609
_symmetry_Int_Tables_number   1
_chemical_formula_structural   Zr10InSn5Bi2
_chemical_formula_sum   'Zr10 In1 Sn5 Bi2'
_cell_volume   411.09832994
_cell_formula_units_Z   1
loop_
 _symmetry_equiv_pos_site_id
 _symmetry_equiv_pos_as_xyz
  1  'x, y, z'
loop_
 _atom_site_type_symbol
 _atom_site_label
 _atom_site_symmetry_multiplicity
 _atom_site_fract_x
 _atom_site_fract_y
 _atom_site_fract_z
 _atom_site_occupancy
  Zr  Zr0  1  0.328906  0.664453  0.000000  1
  Zr  Zr1  1  0.667395  0.333697  0.500000  1
  Zr  Zr2  1  0.667602  0.333801  0.000000  1
  Zr  Zr3  1  0.328860  0.664430  0.500000  1
  Zr  Zr4  1  0.279726  0.000521  0.250893  1
  Zr  Zr5  1  0.279726  0.279205  0.749107  1
  Zr  Zr6  1  0.004293  0.719217  0.748776  1
  Zr  Zr7  1  0.004293  0.285076  0.251224  1
  Zr  Zr8  1  0.720632  0.716794  0.251200  1
  Zr  Zr9  1  0.720632  0.003839  0.748800  1
  In  In10  1  0.001023  0.000512  0.000000  1
  Sn  Sn11  1  0.000708  0.000354  0.500000  1
  Sn  Sn12  1  0.000077  0.384413  0.751866  1
  Sn  Sn13  1  0.000077  0.615663  0.248134  1
  Sn  Sn14  1  0.383313  0.382933  0.248662  1
  Sn  Sn15  1  0.383313  0.000379  0.751338  1
  Bi  Bi16  1  0.614713  0.999767  0.248480  1
  Bi  Bi17  1  0.614713  0.614946  0.751520  1
