# generated using pymatgen
data_Er4Hf3Sc(PtRh)2
_symmetry_space_group_name_H-M   'P 1'
_cell_length_a   4.63958400
_cell_length_b   6.96682673
_cell_length_c   8.21282974
_cell_angle_alpha   91.01640272
_cell_angle_beta   90.00000000
_cell_angle_gamma   90.00000000
_symmetry_Int_Tables_number   1
_chemical_formula_structural   Er4Hf3Sc(PtRh)2
_chemical_formula_sum   'Er4 Hf3 Sc1 Pt2 Rh2'
_cell_volume   265.42298755
_cell_formula_units_Z   1
loop_
 _symmetry_equiv_pos_site_id
 _symmetry_equiv_pos_as_xyz
  1  'x, y, z'
loop_
 _atom_site_type_symbol
 _atom_site_label
 _atom_site_symmetry_multiplicity
 _atom_site_fract_x
 _atom_site_fract_y
 _atom_site_fract_z
 _atom_site_occupancy
  Er  Er0  1  0.250000  0.982666  0.325577  1
  Er  Er1  1  0.250000  0.482076  0.177527  1
  Er  Er2  1  0.750000  0.017846  0.676711  1
  Er  Er3  1  0.750000  0.515513  0.820656  1
  Hf  Hf4  1  0.250000  0.364245  0.574879  1
  Hf  Hf5  1  0.250000  0.855246  0.925443  1
  Hf  Hf6  1  0.750000  0.640192  0.424214  1
  Sc  Sc7  1  0.750000  0.145014  0.076956  1
  Pt  Pt8  1  0.250000  0.233200  0.897654  1
  Pt  Pt9  1  0.750000  0.760186  0.095202  1
  Rh  Rh10  1  0.250000  0.735205  0.588139  1
  Rh  Rh11  1  0.750000  0.268612  0.417043  1
