# generated using pymatgen
data_ReNi(Sb6Pt)2
_symmetry_space_group_name_H-M   'P 1'
_cell_length_a   8.21689042
_cell_length_b   8.17266491
_cell_length_c   8.20889400
_cell_angle_alpha   109.33532168
_cell_angle_beta   109.62110548
_cell_angle_gamma   109.43071590
_symmetry_Int_Tables_number   1
_chemical_formula_structural   ReNi(Sb6Pt)2
_chemical_formula_sum   'Re1 Ni1 Sb12 Pt2'
_cell_volume   424.49628822
_cell_formula_units_Z   1
loop_
 _symmetry_equiv_pos_site_id
 _symmetry_equiv_pos_as_xyz
  1  'x, y, z'
loop_
 _atom_site_type_symbol
 _atom_site_label
 _atom_site_symmetry_multiplicity
 _atom_site_fract_x
 _atom_site_fract_y
 _atom_site_fract_z
 _atom_site_occupancy
  Re  Re0  1  0.000000  0.500000  0.000000  1
  Ni  Ni1  1  0.500000  0.000000  0.000000  1
  Sb  Sb2  1  0.845779  0.652264  0.499881  1
  Sb  Sb3  1  0.842286  0.332477  0.177454  1
  Sb  Sb4  1  0.157714  0.667523  0.822546  1
  Sb  Sb5  1  0.336040  0.491916  0.148675  1
  Sb  Sb6  1  0.154221  0.347736  0.500119  1
  Sb  Sb7  1  0.653028  0.815750  0.151898  1
  Sb  Sb8  1  0.187409  0.843715  0.336295  1
  Sb  Sb9  1  0.663960  0.508084  0.851325  1
  Sb  Sb10  1  0.812591  0.156285  0.663705  1
  Sb  Sb11  1  0.346972  0.184250  0.848102  1
  Sb  Sb12  1  0.501391  0.850590  0.666154  1
  Sb  Sb13  1  0.498609  0.149410  0.333846  1
  Pt  Pt14  1  0.000000  0.000000  0.500000  1
  Pt  Pt15  1  0.500000  0.500000  0.500000  1
