# generated using pymatgen
data_Pr10Tl2Bi3PbBr2
_symmetry_space_group_name_H-M   'P 1'
_cell_length_a   9.76822416
_cell_length_b   9.69849648
_cell_length_c   6.84272200
_cell_angle_alpha   90.00000000
_cell_angle_beta   90.00000000
_cell_angle_gamma   120.30627985
_symmetry_Int_Tables_number   1
_chemical_formula_structural   Pr10Tl2Bi3PbBr2
_chemical_formula_sum   'Pr10 Tl2 Bi3 Pb1 Br2'
_cell_volume   559.66856324
_cell_formula_units_Z   1
loop_
 _symmetry_equiv_pos_site_id
 _symmetry_equiv_pos_as_xyz
  1  'x, y, z'
loop_
 _atom_site_type_symbol
 _atom_site_label
 _atom_site_symmetry_multiplicity
 _atom_site_fract_x
 _atom_site_fract_y
 _atom_site_fract_z
 _atom_site_occupancy
  Pr  Pr0  1  0.268782  0.996450  0.750000  1
  Pr  Pr1  1  0.729624  0.000470  0.250000  1
  Pr  Pr2  1  0.997264  0.267407  0.750000  1
  Pr  Pr3  1  0.002320  0.734164  0.250000  1
  Pr  Pr4  1  0.733860  0.733514  0.750000  1
  Pr  Pr5  1  0.267873  0.266302  0.250000  1
  Pr  Pr6  1  0.333662  0.669810  0.500013  1
  Pr  Pr7  1  0.666122  0.330536  0.500373  1
  Pr  Pr8  1  0.666122  0.330536  0.999627  1
  Pr  Pr9  1  0.333662  0.669810  0.999987  1
  Tl  Tl10  1  0.612545  0.999625  0.750000  1
  Tl  Tl11  1  0.388325  0.000063  0.250000  1
  Bi  Bi12  1  0.000127  0.384442  0.250000  1
  Bi  Bi13  1  0.383268  0.382905  0.750000  1
  Bi  Bi14  1  0.616866  0.616395  0.250000  1
  Pb  Pb15  1  0.999710  0.615485  0.750000  1
  Br  Br16  1  0.999934  0.001043  0.499788  1
  Br  Br17  1  0.999934  0.001043  0.000212  1
