# generated using pymatgen
data_CeNp2Sb4Pd2Au
_symmetry_space_group_name_H-M   'P 1'
_cell_length_a   8.57443555
_cell_length_b   8.57120800
_cell_length_c   8.57443706
_cell_angle_alpha   109.27260805
_cell_angle_beta   109.19804374
_cell_angle_gamma   109.95946238
_symmetry_Int_Tables_number   1
_chemical_formula_structural   CeNp2Sb4Pd2Au
_chemical_formula_sum   'Ce2 Np4 Sb8 Pd4 Au2'
_cell_volume   484.98195030
_cell_formula_units_Z   2
loop_
 _symmetry_equiv_pos_site_id
 _symmetry_equiv_pos_as_xyz
  1  'x, y, z'
loop_
 _atom_site_type_symbol
 _atom_site_label
 _atom_site_symmetry_multiplicity
 _atom_site_fract_x
 _atom_site_fract_y
 _atom_site_fract_z
 _atom_site_occupancy
  Ce  Ce0  1  0.126675  0.876823  0.250916  1
  Ce  Ce1  1  0.374093  0.623177  0.749852  1
  Np  Np2  1  0.874592  0.250000  0.124592  1
  Np  Np3  1  0.622698  0.750000  0.372698  1
  Np  Np4  1  0.251164  0.121670  0.872175  1
  Np  Np5  1  0.750505  0.378330  0.629494  1
  Sb  Sb6  1  0.671211  0.503025  0.995913  1
  Sb  Sb7  1  0.492888  0.996975  0.668186  1
  Sb  Sb8  1  0.005811  0.677127  0.507002  1
  Sb  Sb9  1  0.829875  0.822873  0.828684  1
  Sb  Sb10  1  0.499863  0.991262  0.168723  1
  Sb  Sb11  1  0.177461  0.508738  0.008601  1
  Sb  Sb12  1  0.001062  0.171898  0.491868  1
  Sb  Sb13  1  0.319970  0.328102  0.329163  1
  Pd  Pd14  1  0.375494  0.250000  0.625494  1
  Pd  Pd15  1  0.125639  0.750000  0.875639  1
  Pd  Pd16  1  0.247366  0.623718  0.376383  1
  Pd  Pd17  1  0.752665  0.876282  0.123648  1
  Au  Au18  1  0.623959  0.375076  0.252088  1
  Au  Au19  1  0.877012  0.124924  0.748883  1
