# generated using pymatgen
data_Hf5Zr8Nb7Si16
_symmetry_space_group_name_H-M   'P 1'
_cell_length_a   6.96746492
_cell_length_b   6.97185487
_cell_length_c   12.82831500
_cell_angle_alpha   90.21002362
_cell_angle_beta   90.18652195
_cell_angle_gamma   89.83115706
_symmetry_Int_Tables_number   1
_chemical_formula_structural   Hf5Zr8Nb7Si16
_chemical_formula_sum   'Hf5 Zr8 Nb7 Si16'
_cell_volume   623.14003532
_cell_formula_units_Z   1
loop_
 _symmetry_equiv_pos_site_id
 _symmetry_equiv_pos_as_xyz
  1  'x, y, z'
loop_
 _atom_site_type_symbol
 _atom_site_label
 _atom_site_symmetry_multiplicity
 _atom_site_fract_x
 _atom_site_fract_y
 _atom_site_fract_z
 _atom_site_occupancy
  Hf  Hf0  1  0.997733  0.851313  0.625691  1
  Hf  Hf1  1  0.648341  0.495486  0.877277  1
  Hf  Hf2  1  0.502113  0.351029  0.623178  1
  Hf  Hf3  1  0.499812  0.647630  0.124150  1
  Hf  Hf4  1  0.147210  0.001232  0.873716  1
  Zr  Zr5  1  0.000482  0.654285  0.033768  1
  Zr  Zr6  1  0.000504  0.345420  0.528580  1
  Zr  Zr7  1  0.654840  0.998143  0.971039  1
  Zr  Zr8  1  0.153460  0.498469  0.783387  1
  Zr  Zr9  1  0.845250  0.499127  0.281471  1
  Zr  Zr10  1  0.501028  0.156111  0.219824  1
  Zr  Zr11  1  0.499363  0.845013  0.715283  1
  Zr  Zr12  1  0.343656  0.001418  0.466445  1
  Nb  Nb13  1  0.351008  0.504549  0.374860  1
  Nb  Nb14  1  0.852381  0.996070  0.374532  1
  Nb  Nb15  1  0.007372  0.148620  0.126225  1
  Nb  Nb16  1  0.672019  0.672356  0.498745  1
  Nb  Nb17  1  0.826655  0.172492  0.749843  1
  Nb  Nb18  1  0.172489  0.830131  0.250748  1
  Nb  Nb19  1  0.328689  0.326234  0.001444  1
  Si  Si20  1  0.047253  0.700975  0.434596  1
  Si  Si21  1  0.954388  0.299209  0.937856  1
  Si  Si22  1  0.700430  0.047891  0.562131  1
  Si  Si23  1  0.201034  0.451750  0.186790  1
  Si  Si24  1  0.800353  0.545958  0.685204  1
  Si  Si25  1  0.453358  0.197507  0.814821  1
  Si  Si26  1  0.548377  0.799221  0.314572  1
  Si  Si27  1  0.299448  0.953901  0.065222  1
  Si  Si28  1  0.853902  0.795696  0.821601  1
  Si  Si29  1  0.137145  0.208022  0.322551  1
  Si  Si30  1  0.797238  0.864774  0.178831  1
  Si  Si31  1  0.294381  0.642144  0.568423  1
  Si  Si32  1  0.710583  0.354936  0.074400  1
  Si  Si33  1  0.639225  0.293168  0.425358  1
  Si  Si34  1  0.356330  0.704479  0.929346  1
  Si  Si35  1  0.202148  0.145238  0.678087  1
