# generated using pymatgen
data_Yb3PrOs7Ru
_symmetry_space_group_name_H-M   'P 1'
_cell_length_a   5.28884900
_cell_length_b   5.28884774
_cell_length_c   8.95010400
_cell_angle_alpha   90.00000000
_cell_angle_beta   90.00000000
_cell_angle_gamma   119.99998913
_symmetry_Int_Tables_number   1
_chemical_formula_structural   Yb3PrOs7Ru
_chemical_formula_sum   'Yb3 Pr1 Os7 Ru1'
_cell_volume   216.81084055
_cell_formula_units_Z   1
loop_
 _symmetry_equiv_pos_site_id
 _symmetry_equiv_pos_as_xyz
  1  'x, y, z'
loop_
 _atom_site_type_symbol
 _atom_site_label
 _atom_site_symmetry_multiplicity
 _atom_site_fract_x
 _atom_site_fract_y
 _atom_site_fract_z
 _atom_site_occupancy
  Yb  Yb0  1  0.666667  0.333333  0.569177  1
  Yb  Yb1  1  0.666667  0.333333  0.935082  1
  Yb  Yb2  1  0.333333  0.666667  0.059998  1
  Pr  Pr3  1  0.333333  0.666667  0.437114  1
  Os  Os4  1  0.000000  0.000000  0.001069  1
  Os  Os5  1  0.827705  0.172295  0.244990  1
  Os  Os6  1  0.827705  0.655408  0.244990  1
  Os  Os7  1  0.344592  0.172295  0.244990  1
  Os  Os8  1  0.171366  0.828634  0.753962  1
  Os  Os9  1  0.171366  0.342733  0.753962  1
  Os  Os10  1  0.657267  0.828634  0.753962  1
  Ru  Ru11  1  0.000000  0.000000  0.500701  1
