# generated using pymatgen
data_Pr4Nd2HoFeBr12
_symmetry_space_group_name_H-M   'P 1'
_cell_length_a   9.49063788
_cell_length_b   9.57747745
_cell_length_c   9.57898400
_cell_angle_alpha   107.04805355
_cell_angle_beta   107.17378755
_cell_angle_gamma   106.87810928
_symmetry_Int_Tables_number   1
_chemical_formula_structural   Pr4Nd2HoFeBr12
_chemical_formula_sum   'Pr4 Nd2 Ho1 Fe1 Br12'
_cell_volume   724.45923569
_cell_formula_units_Z   1
loop_
 _symmetry_equiv_pos_site_id
 _symmetry_equiv_pos_as_xyz
  1  'x, y, z'
loop_
 _atom_site_type_symbol
 _atom_site_label
 _atom_site_symmetry_multiplicity
 _atom_site_fract_x
 _atom_site_fract_y
 _atom_site_fract_z
 _atom_site_occupancy
  Pr  Pr0  1  0.700290  0.976726  0.902655  1
  Pr  Pr1  1  0.976343  0.897929  0.687378  1
  Pr  Pr2  1  0.101577  0.311912  0.024136  1
  Pr  Pr3  1  0.299867  0.023704  0.098165  1
  Nd  Nd4  1  0.898946  0.690349  0.975660  1
  Nd  Nd5  1  0.023456  0.100605  0.310098  1
  Ho  Ho6  1  0.499823  0.499731  0.500505  1
  Fe  Fe7  1  0.000035  0.000004  0.999917  1
  Br  Br8  1  0.071191  0.223397  0.682687  1
  Br  Br9  1  0.389921  0.180317  0.465097  1
  Br  Br10  1  0.607632  0.818633  0.534683  1
  Br  Br11  1  0.222339  0.684022  0.070824  1
  Br  Br12  1  0.775801  0.317082  0.928783  1
  Br  Br13  1  0.684724  0.071159  0.224100  1
  Br  Br14  1  0.535524  0.609019  0.820161  1
  Br  Br15  1  0.821522  0.534302  0.610924  1
  Br  Br16  1  0.928722  0.776727  0.313788  1
  Br  Br17  1  0.317843  0.929501  0.777689  1
  Br  Br18  1  0.466785  0.391362  0.181786  1
  Br  Br19  1  0.177662  0.463520  0.390966  1
