# generated using pymatgen
data_Ca5Nd(RuO6)2
_symmetry_space_group_name_H-M   'P 1'
_cell_length_a   5.86735782
_cell_length_b   5.59093265
_cell_length_c   9.79713961
_cell_angle_alpha   55.48921948
_cell_angle_beta   89.56370446
_cell_angle_gamma   89.85187252
_symmetry_Int_Tables_number   1
_chemical_formula_structural   Ca5Nd(RuO6)2
_chemical_formula_sum   'Ca5 Nd1 Ru2 O12'
_cell_volume   264.81960119
_cell_formula_units_Z   1
loop_
 _symmetry_equiv_pos_site_id
 _symmetry_equiv_pos_as_xyz
  1  'x, y, z'
loop_
 _atom_site_type_symbol
 _atom_site_label
 _atom_site_symmetry_multiplicity
 _atom_site_fract_x
 _atom_site_fract_y
 _atom_site_fract_z
 _atom_site_occupancy
  Ca  Ca0  1  0.560536  0.764495  0.252298  1
  Ca  Ca1  1  0.939151  0.766943  0.753342  1
  Ca  Ca2  1  0.061073  0.234321  0.246202  1
  Ca  Ca3  1  0.996836  0.503979  0.495652  1
  Ca  Ca4  1  0.501990  0.494957  0.004715  1
  Nd  Nd5  1  0.434989  0.233821  0.747852  1
  Ru  Ru6  1  0.998921  0.998808  0.002061  1
  Ru  Ru7  1  0.500938  0.001143  0.497403  1
  O  O8  1  0.717589  0.897905  0.931756  1
  O  O9  1  0.282970  0.103301  0.063608  1
  O  O10  1  0.225190  0.102896  0.573403  1
  O  O11  1  0.778491  0.902501  0.429067  1
  O  O12  1  0.045299  0.346526  0.770941  1
  O  O13  1  0.949338  0.654962  0.224709  1
  O  O14  1  0.550553  0.654458  0.729419  1
  O  O15  1  0.446182  0.340737  0.275267  1
  O  O16  1  0.184783  0.781810  0.939070  1
  O  O17  1  0.821795  0.225165  0.057844  1
  O  O18  1  0.679831  0.230691  0.555006  1
  O  O19  1  0.323547  0.760582  0.450387  1
