# generated using pymatgen
data_Y3Lu9Ru4
_symmetry_space_group_name_H-M   'P 1'
_cell_length_a   6.20470739
_cell_length_b   7.29678731
_cell_length_c   8.92779800
_cell_angle_alpha   90.00000000
_cell_angle_beta   90.00000000
_cell_angle_gamma   89.84916546
_symmetry_Int_Tables_number   1
_chemical_formula_structural   Y3Lu9Ru4
_chemical_formula_sum   'Y3 Lu9 Ru4'
_cell_volume   404.19956593
_cell_formula_units_Z   1
loop_
 _symmetry_equiv_pos_site_id
 _symmetry_equiv_pos_as_xyz
  1  'x, y, z'
loop_
 _atom_site_type_symbol
 _atom_site_label
 _atom_site_symmetry_multiplicity
 _atom_site_fract_x
 _atom_site_fract_y
 _atom_site_fract_z
 _atom_site_occupancy
  Y  Y0  1  0.871326  0.539952  0.250000  1
  Y  Y1  1  0.629445  0.040218  0.250000  1
  Y  Y2  1  0.129464  0.460120  0.750000  1
  Lu  Lu3  1  0.334988  0.676626  0.063397  1
  Lu  Lu4  1  0.166364  0.174105  0.436937  1
  Lu  Lu5  1  0.664622  0.323642  0.564502  1
  Lu  Lu6  1  0.832988  0.825109  0.935274  1
  Lu  Lu7  1  0.664622  0.323642  0.935498  1
  Lu  Lu8  1  0.832988  0.825109  0.564726  1
  Lu  Lu9  1  0.334988  0.676626  0.436603  1
  Lu  Lu10  1  0.166364  0.174105  0.063063  1
  Lu  Lu11  1  0.369256  0.958747  0.750000  1
  Ru  Ru12  1  0.044595  0.885223  0.250000  1
  Ru  Ru13  1  0.455223  0.384993  0.250000  1
  Ru  Ru14  1  0.960374  0.113671  0.750000  1
  Ru  Ru15  1  0.542393  0.618112  0.750000  1
