# generated using pymatgen
data_MgInBi2(Pt2O7)2
_symmetry_space_group_name_H-M   'P 1'
_cell_length_a   7.29705897
_cell_length_b   7.32702110
_cell_length_c   7.23691502
_cell_angle_alpha   59.58727318
_cell_angle_beta   59.29944214
_cell_angle_gamma   59.86408517
_symmetry_Int_Tables_number   1
_chemical_formula_structural   MgInBi2(Pt2O7)2
_chemical_formula_sum   'Mg1 In1 Bi2 Pt4 O14'
_cell_volume   270.99553701
_cell_formula_units_Z   1
loop_
 _symmetry_equiv_pos_site_id
 _symmetry_equiv_pos_as_xyz
  1  'x, y, z'
loop_
 _atom_site_type_symbol
 _atom_site_label
 _atom_site_symmetry_multiplicity
 _atom_site_fract_x
 _atom_site_fract_y
 _atom_site_fract_z
 _atom_site_occupancy
  Mg  Mg0  1  0.125000  0.125000  0.625000  1
  In  In1  1  0.625000  0.125000  0.125000  1
  Bi  Bi2  1  0.125000  0.625000  0.125000  1
  Bi  Bi3  1  0.125000  0.125000  0.125000  1
  Pt  Pt4  1  0.625000  0.625000  0.125000  1
  Pt  Pt5  1  0.625000  0.125000  0.625000  1
  Pt  Pt6  1  0.125000  0.625000  0.625000  1
  Pt  Pt7  1  0.625000  0.625000  0.625000  1
  O  O8  1  0.261084  0.234419  0.270078  1
  O  O9  1  0.988916  0.015581  0.979922  1
  O  O10  1  0.538675  0.962614  0.536097  1
  O  O11  1  0.289635  0.711328  0.287709  1
  O  O12  1  0.544257  0.531185  0.963271  1
  O  O13  1  0.961771  0.530314  0.545831  1
  O  O14  1  0.544257  0.961288  0.963271  1
  O  O15  1  0.961771  0.962084  0.545831  1
  O  O16  1  0.960365  0.538672  0.962291  1
  O  O17  1  0.705743  0.288712  0.286729  1
  O  O18  1  0.288229  0.719686  0.704169  1
  O  O19  1  0.711325  0.287386  0.713903  1
  O  O20  1  0.288229  0.287916  0.704169  1
  O  O21  1  0.705743  0.718815  0.286729  1
