# generated using pymatgen
data_Mn4P7N12
_symmetry_space_group_name_H-M   'P 1'
_cell_length_a   7.22564131
_cell_length_b   7.22564094
_cell_length_c   7.22564200
_cell_angle_alpha   109.47122081
_cell_angle_beta   109.47121975
_cell_angle_gamma   109.47122257
_symmetry_Int_Tables_number   1
_chemical_formula_structural   Mn4P7N12
_chemical_formula_sum   'Mn4 P7 N12'
_cell_volume   290.40715928
_cell_formula_units_Z   1
loop_
 _symmetry_equiv_pos_site_id
 _symmetry_equiv_pos_as_xyz
  1  'x, y, z'
loop_
 _atom_site_type_symbol
 _atom_site_label
 _atom_site_symmetry_multiplicity
 _atom_site_fract_x
 _atom_site_fract_y
 _atom_site_fract_z
 _atom_site_occupancy
  Mn  Mn0  1  0.000000  0.331497  0.000000  1
  Mn  Mn1  1  0.668503  0.668503  0.668503  1
  Mn  Mn2  1  0.331497  0.000000  0.000000  1
  Mn  Mn3  1  0.000000  0.000000  0.331497  1
  P  P4  1  0.750000  0.250000  0.500000  1
  P  P5  1  0.250000  0.750000  0.500000  1
  P  P6  1  0.500000  0.750000  0.250000  1
  P  P7  1  0.500000  0.250000  0.750000  1
  P  P8  1  0.750000  0.500000  0.250000  1
  P  P9  1  0.250000  0.500000  0.750000  1
  P  P10  1  0.000000  0.000000  0.000000  1
  N  N11  1  0.557911  0.274517  0.000000  1
  N  N12  1  0.442089  0.442089  0.716606  1
  N  N13  1  0.000000  0.274517  0.557911  1
  N  N14  1  0.274517  0.000000  0.557911  1
  N  N15  1  0.716606  0.442089  0.442089  1
  N  N16  1  0.000000  0.557911  0.274517  1
  N  N17  1  0.557911  0.000000  0.274517  1
  N  N18  1  0.442089  0.716606  0.442089  1
  N  N19  1  0.274517  0.557911  0.000000  1
  N  N20  1  0.725483  0.283394  0.725483  1
  N  N21  1  0.725483  0.725483  0.283394  1
  N  N22  1  0.283394  0.725483  0.725483  1
