# generated using pymatgen
data_CaSm(FeO3)2
_symmetry_space_group_name_H-M   'P 1'
_cell_length_a   5.41621770
_cell_length_b   5.56489481
_cell_length_c   7.70759000
_cell_angle_alpha   90.00000000
_cell_angle_beta   90.00000000
_cell_angle_gamma   89.88525746
_symmetry_Int_Tables_number   1
_chemical_formula_structural   CaSm(FeO3)2
_chemical_formula_sum   'Ca2 Sm2 Fe4 O12'
_cell_volume   232.31155136
_cell_formula_units_Z   2
loop_
 _symmetry_equiv_pos_site_id
 _symmetry_equiv_pos_as_xyz
  1  'x, y, z'
loop_
 _atom_site_type_symbol
 _atom_site_label
 _atom_site_symmetry_multiplicity
 _atom_site_fract_x
 _atom_site_fract_y
 _atom_site_fract_z
 _atom_site_occupancy
  Ca  Ca0  1  0.987582  0.049339  0.750000  1
  Ca  Ca1  1  0.012418  0.950661  0.250000  1
  Sm  Sm2  1  0.512131  0.555385  0.750000  1
  Sm  Sm3  1  0.487869  0.444615  0.250000  1
  Fe  Fe4  1  0.500000  0.000000  0.500000  1
  Fe  Fe5  1  0.500000  0.000000  0.000000  1
  Fe  Fe6  1  0.000000  0.500000  0.000000  1
  Fe  Fe7  1  0.000000  0.500000  0.500000  1
  O  O8  1  0.212630  0.211510  0.050632  1
  O  O9  1  0.212630  0.211510  0.449368  1
  O  O10  1  0.701507  0.298849  0.958972  1
  O  O11  1  0.787370  0.788490  0.550632  1
  O  O12  1  0.298493  0.701151  0.458972  1
  O  O13  1  0.787370  0.788490  0.949368  1
  O  O14  1  0.412766  0.977679  0.750000  1
  O  O15  1  0.913659  0.526591  0.250000  1
  O  O16  1  0.086341  0.473409  0.750000  1
  O  O17  1  0.701507  0.298849  0.541028  1
  O  O18  1  0.298493  0.701151  0.041028  1
  O  O19  1  0.587234  0.022321  0.250000  1
