# generated using pymatgen
data_Ta2Nb11Co8W3N4
_symmetry_space_group_name_H-M   'P 1'
_cell_length_a   8.17833720
_cell_length_b   8.19905650
_cell_length_c   8.20244300
_cell_angle_alpha   59.98633998
_cell_angle_beta   59.90245293
_cell_angle_gamma   59.86507515
_symmetry_Int_Tables_number   1
_chemical_formula_structural   Ta2Nb11Co8W3N4
_chemical_formula_sum   'Ta2 Nb11 Co8 W3 N4'
_cell_volume   388.19243992
_cell_formula_units_Z   1
loop_
 _symmetry_equiv_pos_site_id
 _symmetry_equiv_pos_as_xyz
  1  'x, y, z'
loop_
 _atom_site_type_symbol
 _atom_site_label
 _atom_site_symmetry_multiplicity
 _atom_site_fract_x
 _atom_site_fract_y
 _atom_site_fract_z
 _atom_site_occupancy
  Ta  Ta0  1  0.125142  0.625335  0.624761  1
  Ta  Ta1  1  0.808737  0.809013  0.191125  1
  Nb  Nb2  1  0.189056  0.186890  0.812027  1
  Nb  Nb3  1  0.809079  0.190983  0.809103  1
  Nb  Nb4  1  0.189106  0.812205  0.186739  1
  Nb  Nb5  1  0.189106  0.812205  0.811950  1
  Nb  Nb6  1  0.809079  0.190983  0.190836  1
  Nb  Nb7  1  0.440316  0.439942  0.059871  1
  Nb  Nb8  1  0.061368  0.063715  0.437459  1
  Nb  Nb9  1  0.440845  0.059058  0.441398  1
  Nb  Nb10  1  0.060920  0.437730  0.062708  1
  Nb  Nb11  1  0.060920  0.437730  0.438642  1
  Nb  Nb12  1  0.440845  0.059058  0.058698  1
  Co  Co13  1  0.730770  0.424085  0.422573  1
  Co  Co14  1  0.426819  0.732937  0.420123  1
  Co  Co15  1  0.425919  0.420886  0.732469  1
  Co  Co16  1  0.425919  0.420886  0.420729  1
  Co  Co17  1  0.519910  0.827024  0.826533  1
  Co  Co18  1  0.824015  0.517894  0.829044  1
  Co  Co19  1  0.824004  0.828997  0.516630  1
  Co  Co20  1  0.824004  0.828997  0.830367  1
  W  W21  1  0.625421  0.125148  0.624716  1
  W  W22  1  0.625006  0.625029  0.124759  1
  W  W23  1  0.625006  0.625029  0.625206  1
  N  N24  1  0.626549  0.122179  0.125636  1
  N  N25  1  0.122302  0.626411  0.125644  1
  N  N26  1  0.124918  0.124825  0.625191  1
  N  N27  1  0.124918  0.124825  0.125066  1
