# generated using pymatgen
data_Y6Al24GaFe4Ru3
_symmetry_space_group_name_H-M   'P 1'
_cell_length_a   8.77399455
_cell_length_b   8.77399614
_cell_length_c   9.44424508
_cell_angle_alpha   90.18440195
_cell_angle_beta   89.81560455
_cell_angle_gamma   119.74133276
_symmetry_Int_Tables_number   1
_chemical_formula_structural   Y6Al24GaFe4Ru3
_chemical_formula_sum   'Y6 Al24 Ga1 Fe4 Ru3'
_cell_volume   631.27090193
_cell_formula_units_Z   1
loop_
 _symmetry_equiv_pos_site_id
 _symmetry_equiv_pos_as_xyz
  1  'x, y, z'
loop_
 _atom_site_type_symbol
 _atom_site_label
 _atom_site_symmetry_multiplicity
 _atom_site_fract_x
 _atom_site_fract_y
 _atom_site_fract_z
 _atom_site_occupancy
  Y  Y0  1  0.193467  0.385249  0.243151  1
  Y  Y1  1  0.806533  0.614751  0.756849  1
  Y  Y2  1  0.614751  0.806533  0.243151  1
  Y  Y3  1  0.385249  0.193467  0.756849  1
  Y  Y4  1  0.194617  0.805383  0.253321  1
  Y  Y5  1  0.805383  0.194617  0.746679  1
  Al  Al6  1  0.323693  0.676307  0.016805  1
  Al  Al7  1  0.676307  0.323693  0.983195  1
  Al  Al8  1  0.666544  0.333456  0.517919  1
  Al  Al9  1  0.333456  0.666544  0.482081  1
  Al  Al10  1  0.158768  0.318726  0.573123  1
  Al  Al11  1  0.841232  0.681274  0.426877  1
  Al  Al12  1  0.681274  0.841232  0.573123  1
  Al  Al13  1  0.857246  0.682693  0.078945  1
  Al  Al14  1  0.318726  0.158768  0.426877  1
  Al  Al15  1  0.142754  0.317307  0.921055  1
  Al  Al16  1  0.159917  0.840083  0.578368  1
  Al  Al17  1  0.317307  0.142754  0.078945  1
  Al  Al18  1  0.840083  0.159917  0.421632  1
  Al  Al19  1  0.682693  0.857246  0.921055  1
  Al  Al20  1  0.839465  0.160535  0.076867  1
  Al  Al21  1  0.160535  0.839465  0.923133  1
  Al  Al22  1  0.560716  0.118038  0.244064  1
  Al  Al23  1  0.439284  0.881962  0.755936  1
  Al  Al24  1  0.881962  0.439284  0.244064  1
  Al  Al25  1  0.118038  0.560716  0.755936  1
  Al  Al26  1  0.566574  0.433426  0.257375  1
  Al  Al27  1  0.433426  0.566574  0.742625  1
  Al  Al28  1  0.998968  0.001032  0.250434  1
  Al  Al29  1  0.001032  0.998968  0.749566  1
  Ga  Ga30  1  0.500000  0.500000  0.000000  1
  Fe  Fe31  1  0.500000  0.000000  0.000000  1
  Fe  Fe32  1  0.000000  0.500000  0.000000  1
  Fe  Fe33  1  0.000000  0.000000  0.000000  1
  Fe  Fe34  1  0.000000  0.000000  0.500000  1
  Ru  Ru35  1  0.500000  0.000000  0.500000  1
  Ru  Ru36  1  0.000000  0.500000  0.500000  1
  Ru  Ru37  1  0.500000  0.500000  0.500000  1
