# generated using pymatgen
data_PrNd5(Co3P2)6
_symmetry_space_group_name_H-M   'P 1'
_cell_length_a   3.78939600
_cell_length_b   10.67897800
_cell_length_c   12.41784800
_cell_angle_alpha   90.00000000
_cell_angle_beta   90.00000000
_cell_angle_gamma   90.00000000
_symmetry_Int_Tables_number   1
_chemical_formula_structural   PrNd5(Co3P2)6
_chemical_formula_sum   'Pr1 Nd5 Co18 P12'
_cell_volume   502.51152163
_cell_formula_units_Z   1
loop_
 _symmetry_equiv_pos_site_id
 _symmetry_equiv_pos_as_xyz
  1  'x, y, z'
loop_
 _atom_site_type_symbol
 _atom_site_label
 _atom_site_symmetry_multiplicity
 _atom_site_fract_x
 _atom_site_fract_y
 _atom_site_fract_z
 _atom_site_occupancy
  Pr  Pr0  1  0.500000  0.000000  0.479300  1
  Nd  Nd1  1  0.000000  0.500000  0.520417  1
  Nd  Nd2  1  0.500000  0.816842  0.205821  1
  Nd  Nd3  1  0.500000  0.183158  0.205821  1
  Nd  Nd4  1  0.000000  0.682974  0.794064  1
  Nd  Nd5  1  0.000000  0.317026  0.794064  1
  Co  Co6  1  0.500000  0.500000  0.157009  1
  Co  Co7  1  0.000000  0.000000  0.843538  1
  Co  Co8  1  0.500000  0.500000  0.705002  1
  Co  Co9  1  0.000000  0.000000  0.294407  1
  Co  Co10  1  0.000000  0.500000  0.987455  1
  Co  Co11  1  0.500000  0.000000  0.012462  1
  Co  Co12  1  0.500000  0.333817  0.996078  1
  Co  Co13  1  0.500000  0.666183  0.996078  1
  Co  Co14  1  0.000000  0.166391  0.003986  1
  Co  Co15  1  0.000000  0.833609  0.003986  1
  Co  Co16  1  0.500000  0.297854  0.429671  1
  Co  Co17  1  0.500000  0.702146  0.429671  1
  Co  Co18  1  0.000000  0.203558  0.570301  1
  Co  Co19  1  0.000000  0.796442  0.570301  1
  Co  Co20  1  0.500000  0.881585  0.711758  1
  Co  Co21  1  0.500000  0.118415  0.711758  1
  Co  Co22  1  0.000000  0.618048  0.288343  1
  Co  Co23  1  0.000000  0.381952  0.288343  1
  P  P24  1  0.500000  0.500000  0.886525  1
  P  P25  1  0.000000  0.000000  0.113316  1
  P  P26  1  0.500000  0.500000  0.338822  1
  P  P27  1  0.000000  0.000000  0.661983  1
  P  P28  1  0.500000  0.305905  0.614022  1
  P  P29  1  0.500000  0.694095  0.614022  1
  P  P30  1  0.000000  0.195339  0.385767  1
  P  P31  1  0.000000  0.804661  0.385767  1
  P  P32  1  0.500000  0.848149  0.896148  1
  P  P33  1  0.500000  0.151851  0.896148  1
  P  P34  1  0.000000  0.651568  0.103921  1
  P  P35  1  0.000000  0.348432  0.103921  1
