# generated using pymatgen
data_Sc8Co8Si13As
_symmetry_space_group_name_H-M   'P 1'
_cell_length_a   9.48238223
_cell_length_b   9.48220172
_cell_length_c   9.48238137
_cell_angle_alpha   94.05415532
_cell_angle_beta   94.06831365
_cell_angle_gamma   149.13434567
_symmetry_Int_Tables_number   1
_chemical_formula_structural   Sc8Co8Si13As
_chemical_formula_sum   'Sc8 Co8 Si13 As1'
_cell_volume   421.62986402
_cell_formula_units_Z   1
loop_
 _symmetry_equiv_pos_site_id
 _symmetry_equiv_pos_as_xyz
  1  'x, y, z'
loop_
 _atom_site_type_symbol
 _atom_site_label
 _atom_site_symmetry_multiplicity
 _atom_site_fract_x
 _atom_site_fract_y
 _atom_site_fract_z
 _atom_site_occupancy
  Sc  Sc0  1  0.136633  0.136751  0.278601  1
  Sc  Sc1  1  0.858120  0.858138  0.721418  1
  Sc  Sc2  1  0.858152  0.136751  0.000118  1
  Sc  Sc3  1  0.136719  0.858138  0.000017  1
  Sc  Sc4  1  0.502545  0.700181  0.197636  1
  Sc  Sc5  1  0.502539  0.304951  0.802411  1
  Sc  Sc6  1  0.304946  0.502621  0.802314  1
  Sc  Sc7  1  0.700308  0.502621  0.197676  1
  Co  Co8  1  0.397312  0.897032  0.794387  1
  Co  Co9  1  0.102656  0.602902  0.205598  1
  Co  Co10  1  0.102645  0.897032  0.499721  1
  Co  Co11  1  0.397304  0.602902  0.500245  1
  Co  Co12  1  0.602864  0.397250  0.500073  1
  Co  Co13  1  0.897184  0.102746  0.499894  1
  Co  Co14  1  0.897177  0.397250  0.794387  1
  Co  Co15  1  0.602852  0.102746  0.205562  1
  Si  Si16  1  0.289202  0.289151  0.579086  1
  Si  Si17  1  0.709989  0.710024  0.420865  1
  Si  Si18  1  0.710065  0.289151  0.999949  1
  Si  Si19  1  0.289159  0.710024  0.000035  1
  Si  Si20  1  0.000359  0.301332  0.300973  1
  Si  Si21  1  0.000318  0.699271  0.698954  1
  Si  Si22  1  0.699339  0.000414  0.698941  1
  Si  Si23  1  0.301473  0.000414  0.301076  1
  Si  Si24  1  0.499983  0.908897  0.408914  1
  Si  Si25  1  0.499990  0.091058  0.591070  1
  Si  Si26  1  0.090983  0.499932  0.591079  1
  Si  Si27  1  0.908854  0.499932  0.408949  1
  Si  Si28  1  0.750087  0.750112  0.000025  1
  As  As29  1  0.250244  0.250271  0.000026  1
