# generated using pymatgen
data_Ho7Tm3(Bi2Sb)2
_symmetry_space_group_name_H-M   'P 1'
_cell_length_a   8.14630000
_cell_length_b   9.39868100
_cell_length_c   11.93259801
_cell_angle_alpha   89.99635320
_cell_angle_beta   90.00000000
_cell_angle_gamma   90.00000000
_symmetry_Int_Tables_number   1
_chemical_formula_structural   Ho7Tm3(Bi2Sb)2
_chemical_formula_sum   'Ho14 Tm6 Bi8 Sb4'
_cell_volume   913.61310081
_cell_formula_units_Z   2
loop_
 _symmetry_equiv_pos_site_id
 _symmetry_equiv_pos_as_xyz
  1  'x, y, z'
loop_
 _atom_site_type_symbol
 _atom_site_label
 _atom_site_symmetry_multiplicity
 _atom_site_fract_x
 _atom_site_fract_y
 _atom_site_fract_z
 _atom_site_occupancy
  Ho  Ho0  1  0.353709  0.749965  0.214254  1
  Ho  Ho1  1  0.853709  0.750035  0.285746  1
  Ho  Ho2  1  0.646566  0.249871  0.785868  1
  Ho  Ho3  1  0.146566  0.250129  0.714132  1
  Ho  Ho4  1  0.688789  0.936679  0.058031  1
  Ho  Ho5  1  0.188789  0.563321  0.441969  1
  Ho  Ho6  1  0.473561  0.249849  0.488407  1
  Ho  Ho7  1  0.973561  0.250151  0.011593  1
  Ho  Ho8  1  0.526864  0.750191  0.511768  1
  Ho  Ho9  1  0.026864  0.749809  0.988232  1
  Ho  Ho10  1  0.316148  0.250019  0.217361  1
  Ho  Ho11  1  0.816148  0.249981  0.282639  1
  Ho  Ho12  1  0.683983  0.749863  0.782530  1
  Ho  Ho13  1  0.183983  0.750137  0.717470  1
  Tm  Tm14  1  0.688711  0.564187  0.058176  1
  Tm  Tm15  1  0.188711  0.935813  0.441824  1
  Tm  Tm16  1  0.311446  0.064416  0.941900  1
  Tm  Tm17  1  0.811446  0.435584  0.558100  1
  Tm  Tm18  1  0.311141  0.435735  0.941892  1
  Tm  Tm19  1  0.811141  0.064265  0.558108  1
  Bi  Bi20  1  0.565999  0.996044  0.325446  1
  Bi  Bi21  1  0.065999  0.503956  0.174554  1
  Bi  Bi22  1  0.433750  0.495961  0.674744  1
  Bi  Bi23  1  0.933750  0.004039  0.825256  1
  Bi  Bi24  1  0.433809  0.004144  0.674574  1
  Bi  Bi25  1  0.933809  0.495856  0.825426  1
  Bi  Bi26  1  0.566242  0.504014  0.325320  1
  Bi  Bi27  1  0.066242  0.995986  0.174680  1
  Sb  Sb28  1  0.405825  0.749599  0.958066  1
  Sb  Sb29  1  0.905825  0.750401  0.541934  1
  Sb  Sb30  1  0.593455  0.251183  0.041505  1
  Sb  Sb31  1  0.093455  0.248817  0.458495  1
