# generated using pymatgen
data_Sr4Np3NiO16
_symmetry_space_group_name_H-M   'P 1'
_cell_length_a   5.45804119
_cell_length_b   7.96936117
_cell_length_c   8.05618088
_cell_angle_alpha   91.14382225
_cell_angle_beta   90.28739690
_cell_angle_gamma   89.42405610
_symmetry_Int_Tables_number   1
_chemical_formula_structural   Sr4Np3NiO16
_chemical_formula_sum   'Sr4 Np3 Ni1 O16'
_cell_volume   350.32892752
_cell_formula_units_Z   1
loop_
 _symmetry_equiv_pos_site_id
 _symmetry_equiv_pos_as_xyz
  1  'x, y, z'
loop_
 _atom_site_type_symbol
 _atom_site_label
 _atom_site_symmetry_multiplicity
 _atom_site_fract_x
 _atom_site_fract_y
 _atom_site_fract_z
 _atom_site_occupancy
  Sr  Sr0  1  0.478897  0.179485  0.220390  1
  Sr  Sr1  1  0.478959  0.291738  0.762845  1
  Sr  Sr2  1  0.521041  0.708262  0.237155  1
  Sr  Sr3  1  0.521103  0.820515  0.779610  1
  Np  Np4  1  0.000000  0.500000  0.000000  1
  Np  Np5  1  0.000000  0.500000  0.500000  1
  Np  Np6  1  0.000000  0.000000  0.500000  1
  Ni  Ni7  1  0.000000  0.000000  0.000000  1
  O  O8  1  0.108927  0.976111  0.732305  1
  O  O9  1  0.137688  0.533807  0.257222  1
  O  O10  1  0.862312  0.466193  0.742778  1
  O  O11  1  0.891073  0.023889  0.267695  1
  O  O12  1  0.168404  0.260236  0.502164  1
  O  O13  1  0.859657  0.731712  0.005950  1
  O  O14  1  0.831596  0.739764  0.497836  1
  O  O15  1  0.140343  0.268288  0.994050  1
  O  O16  1  0.337546  0.926276  0.059477  1
  O  O17  1  0.306918  0.576778  0.924448  1
  O  O18  1  0.705944  0.415399  0.415003  1
  O  O19  1  0.692253  0.079457  0.576831  1
  O  O20  1  0.662454  0.073724  0.940523  1
  O  O21  1  0.693082  0.423222  0.075552  1
  O  O22  1  0.294056  0.584601  0.584997  1
  O  O23  1  0.307747  0.920543  0.423169  1
