# generated using pymatgen
data_NdDy3V4(WO6)4
_symmetry_space_group_name_H-M   'P 1'
_cell_length_a   5.27661313
_cell_length_b   7.47082629
_cell_length_c   11.19110670
_cell_angle_alpha   89.84602108
_cell_angle_beta   90.17081506
_cell_angle_gamma   90.06533552
_symmetry_Int_Tables_number   1
_chemical_formula_structural   NdDy3V4(WO6)4
_chemical_formula_sum   'Nd1 Dy3 V4 W4 O24'
_cell_volume   441.15697688
_cell_formula_units_Z   1
loop_
 _symmetry_equiv_pos_site_id
 _symmetry_equiv_pos_as_xyz
  1  'x, y, z'
loop_
 _atom_site_type_symbol
 _atom_site_label
 _atom_site_symmetry_multiplicity
 _atom_site_fract_x
 _atom_site_fract_y
 _atom_site_fract_z
 _atom_site_occupancy
  Nd  Nd0  1  0.459240  0.753656  0.954922  1
  Dy  Dy1  1  0.547678  0.253367  0.046439  1
  Dy  Dy2  1  0.045302  0.753455  0.454347  1
  Dy  Dy3  1  0.954406  0.253191  0.545013  1
  V  V4  1  0.050550  0.504687  0.135210  1
  V  V5  1  0.551097  0.006697  0.365981  1
  V  V6  1  0.449722  0.505401  0.632943  1
  V  V7  1  0.950226  0.008319  0.865826  1
  W  W8  1  0.056460  0.000455  0.145426  1
  W  W9  1  0.556631  0.499306  0.356860  1
  W  W10  1  0.443352  0.999200  0.641527  1
  W  W11  1  0.945454  0.495234  0.855494  1
  O  O12  1  0.760722  0.535868  0.020322  1
  O  O13  1  0.767869  0.965850  0.030691  1
  O  O14  1  0.166020  0.756060  0.119317  1
  O  O15  1  0.934757  0.246786  0.146315  1
  O  O16  1  0.375646  0.070880  0.206472  1
  O  O17  1  0.392603  0.437439  0.213811  1
  O  O18  1  0.891646  0.938625  0.287867  1
  O  O19  1  0.872282  0.571409  0.293569  1
  O  O20  1  0.434163  0.746454  0.357523  1
  O  O21  1  0.676312  0.255919  0.384543  1
  O  O22  1  0.264276  0.458956  0.470347  1
  O  O23  1  0.256007  0.044319  0.479601  1
  O  O24  1  0.744274  0.544213  0.519137  1
  O  O25  1  0.735685  0.959003  0.528550  1
  O  O26  1  0.323238  0.755277  0.615788  1
  O  O27  1  0.565826  0.246285  0.640520  1
  O  O28  1  0.128785  0.070826  0.706173  1
  O  O29  1  0.110944  0.435395  0.713731  1
  O  O30  1  0.613705  0.940037  0.783033  1
  O  O31  1  0.629505  0.564553  0.790182  1
  O  O32  1  0.051950  0.745525  0.857422  1
  O  O33  1  0.820058  0.254068  0.883059  1
  O  O34  1  0.233683  0.455019  0.970598  1
  O  O35  1  0.239913  0.048670  0.981439  1
