# generated using pymatgen
data_TmZrMn3Co9P7
_symmetry_space_group_name_H-M   'P 1'
_cell_length_a   9.03785300
_cell_length_b   9.03785473
_cell_length_c   3.57577400
_cell_angle_alpha   90.00000000
_cell_angle_beta   90.00000000
_cell_angle_gamma   119.99999734
_symmetry_Int_Tables_number   1
_chemical_formula_structural   TmZrMn3Co9P7
_chemical_formula_sum   'Tm1 Zr1 Mn3 Co9 P7'
_cell_volume   252.94804967
_cell_formula_units_Z   1
loop_
 _symmetry_equiv_pos_site_id
 _symmetry_equiv_pos_as_xyz
  1  'x, y, z'
loop_
 _atom_site_type_symbol
 _atom_site_label
 _atom_site_symmetry_multiplicity
 _atom_site_fract_x
 _atom_site_fract_y
 _atom_site_fract_z
 _atom_site_occupancy
  Tm  Tm0  1  0.666667  0.333333  0.500000  1
  Zr  Zr1  1  0.000000  0.000000  0.000000  1
  Mn  Mn2  1  0.455906  0.567095  0.500000  1
  Mn  Mn3  1  0.432905  0.888811  0.500000  1
  Mn  Mn4  1  0.111189  0.544094  0.500000  1
  Co  Co5  1  0.704858  0.606835  0.000000  1
  Co  Co6  1  0.393165  0.098023  0.000000  1
  Co  Co7  1  0.901977  0.295142  0.000000  1
  Co  Co8  1  0.215434  0.388272  0.000000  1
  Co  Co9  1  0.611728  0.827162  0.000000  1
  Co  Co10  1  0.172838  0.784566  0.000000  1
  Co  Co11  1  0.279217  0.226089  0.500000  1
  Co  Co12  1  0.773911  0.053127  0.500000  1
  Co  Co13  1  0.946873  0.720783  0.500000  1
  P  P14  1  0.447406  0.367363  0.000000  1
  P  P15  1  0.632637  0.080043  0.000000  1
  P  P16  1  0.919957  0.552594  0.000000  1
  P  P17  1  0.044346  0.256279  0.500000  1
  P  P18  1  0.743721  0.788068  0.500000  1
  P  P19  1  0.211932  0.955654  0.500000  1
  P  P20  1  0.333333  0.666667  0.000000  1
