# generated using pymatgen
data_Be8TcW3
_symmetry_space_group_name_H-M   'P 1'
_cell_length_a   4.43853600
_cell_length_b   4.43853519
_cell_length_c   7.26127500
_cell_angle_alpha   90.00000000
_cell_angle_beta   90.00000000
_cell_angle_gamma   120.00000601
_symmetry_Int_Tables_number   1
_chemical_formula_structural   Be8TcW3
_chemical_formula_sum   'Be8 Tc1 W3'
_cell_volume   123.88619220
_cell_formula_units_Z   1
loop_
 _symmetry_equiv_pos_site_id
 _symmetry_equiv_pos_as_xyz
  1  'x, y, z'
loop_
 _atom_site_type_symbol
 _atom_site_label
 _atom_site_symmetry_multiplicity
 _atom_site_fract_x
 _atom_site_fract_y
 _atom_site_fract_z
 _atom_site_occupancy
  Be  Be0  1  0.000000  0.000000  0.500553  1
  Be  Be1  1  0.000000  0.000000  0.002143  1
  Be  Be2  1  0.830165  0.169835  0.250797  1
  Be  Be3  1  0.830165  0.660330  0.250797  1
  Be  Be4  1  0.339670  0.169835  0.250797  1
  Be  Be5  1  0.169375  0.830625  0.749186  1
  Be  Be6  1  0.169375  0.338749  0.749186  1
  Be  Be7  1  0.661251  0.830625  0.749186  1
  Tc  Tc8  1  0.333333  0.666667  0.435808  1
  W  W9  1  0.666667  0.333333  0.560347  1
  W  W10  1  0.666667  0.333333  0.936258  1
  W  W11  1  0.333333  0.666667  0.064945  1
