# generated using pymatgen
data_Zr4Sc6TlSb5
_symmetry_space_group_name_H-M   'P 1'
_cell_length_a   8.54094500
_cell_length_b   8.54094461
_cell_length_c   5.86006900
_cell_angle_alpha   90.00000000
_cell_angle_beta   90.00000000
_cell_angle_gamma   120.12077178
_symmetry_Int_Tables_number   1
_chemical_formula_structural   Zr4Sc6TlSb5
_chemical_formula_sum   'Zr4 Sc6 Tl1 Sb5'
_cell_volume   369.75612633
_cell_formula_units_Z   1
loop_
 _symmetry_equiv_pos_site_id
 _symmetry_equiv_pos_as_xyz
  1  'x, y, z'
loop_
 _atom_site_type_symbol
 _atom_site_label
 _atom_site_symmetry_multiplicity
 _atom_site_fract_x
 _atom_site_fract_y
 _atom_site_fract_z
 _atom_site_occupancy
  Zr  Zr0  1  0.668321  0.332722  0.999529  1
  Zr  Zr1  1  0.332722  0.668321  0.999529  1
  Zr  Zr2  1  0.332722  0.668321  0.500471  1
  Zr  Zr3  1  0.668321  0.332722  0.500471  1
  Sc  Sc4  1  0.750706  0.750706  0.750000  1
  Sc  Sc5  1  0.251812  0.000959  0.750000  1
  Sc  Sc6  1  0.000959  0.251812  0.750000  1
  Sc  Sc7  1  0.248774  0.248774  0.250000  1
  Sc  Sc8  1  0.747391  0.997797  0.250000  1
  Sc  Sc9  1  0.997797  0.747391  0.250000  1
  Tl  Tl10  1  0.387270  0.387270  0.750000  1
  Sb  Sb11  1  0.615348  0.000334  0.750000  1
  Sb  Sb12  1  0.000334  0.615348  0.750000  1
  Sb  Sb13  1  0.611592  0.611592  0.250000  1
  Sb  Sb14  1  0.385397  0.000536  0.250000  1
  Sb  Sb15  1  0.000536  0.385397  0.250000  1
