# generated using pymatgen
data_Na3Pr(PS4)2
_symmetry_space_group_name_H-M   'P 1'
_cell_length_a   10.31100020
_cell_length_b   10.31100145
_cell_length_c   9.32084400
_cell_angle_alpha   65.68292225
_cell_angle_beta   65.68291912
_cell_angle_gamma   55.96374030
_symmetry_Int_Tables_number   1
_chemical_formula_structural   Na3Pr(PS4)2
_chemical_formula_sum   'Na6 Pr2 P4 S16'
_cell_volume   726.45062093
_cell_formula_units_Z   2
loop_
 _symmetry_equiv_pos_site_id
 _symmetry_equiv_pos_as_xyz
  1  'x, y, z'
loop_
 _atom_site_type_symbol
 _atom_site_label
 _atom_site_symmetry_multiplicity
 _atom_site_fract_x
 _atom_site_fract_y
 _atom_site_fract_z
 _atom_site_occupancy
  Na  Na0  1  0.813462  0.530540  0.206410  1
  Na  Na1  1  0.469460  0.186538  0.293590  1
  Na  Na2  1  0.186538  0.469460  0.793590  1
  Na  Na3  1  0.530540  0.813462  0.706410  1
  Na  Na4  1  0.420694  0.579306  0.250000  1
  Na  Na5  1  0.579306  0.420694  0.750000  1
  Pr  Pr6  1  0.025832  0.974168  0.250000  1
  Pr  Pr7  1  0.974168  0.025832  0.750000  1
  P  P8  1  0.851581  0.340314  0.934245  1
  P  P9  1  0.659686  0.148419  0.565755  1
  P  P10  1  0.148419  0.659686  0.065755  1
  P  P11  1  0.340314  0.851581  0.434245  1
  S  S12  1  0.217207  0.841670  0.943790  1
  S  S13  1  0.646007  0.091813  0.807116  1
  S  S14  1  0.326449  0.441019  0.020987  1
  S  S15  1  0.091813  0.646007  0.307116  1
  S  S16  1  0.737148  0.950074  0.489884  1
  S  S17  1  0.782793  0.158330  0.056210  1
  S  S18  1  0.049926  0.262852  0.010116  1
  S  S19  1  0.262852  0.049926  0.510116  1
  S  S20  1  0.950074  0.737148  0.989884  1
  S  S21  1  0.841670  0.217207  0.443790  1
  S  S22  1  0.908187  0.353993  0.692884  1
  S  S23  1  0.353993  0.908187  0.192884  1
  S  S24  1  0.673551  0.558981  0.979013  1
  S  S25  1  0.441019  0.326449  0.520987  1
  S  S26  1  0.158330  0.782793  0.556210  1
  S  S27  1  0.558981  0.673551  0.479013  1
