# generated using pymatgen
data_NaTa(MoSe3)2
_symmetry_space_group_name_H-M   'P 1'
_cell_length_a   5.74274300
_cell_length_b   5.74274383
_cell_length_c   17.08139800
_cell_angle_alpha   90.00000000
_cell_angle_beta   90.00000000
_cell_angle_gamma   120.00000095
_symmetry_Int_Tables_number   1
_chemical_formula_structural   NaTa(MoSe3)2
_chemical_formula_sum   'Na2 Ta2 Mo4 Se12'
_cell_volume   487.85736390
_cell_formula_units_Z   2
loop_
 _symmetry_equiv_pos_site_id
 _symmetry_equiv_pos_as_xyz
  1  'x, y, z'
loop_
 _atom_site_type_symbol
 _atom_site_label
 _atom_site_symmetry_multiplicity
 _atom_site_fract_x
 _atom_site_fract_y
 _atom_site_fract_z
 _atom_site_occupancy
  Na  Na0  1  0.000000  0.000000  0.000000  1
  Na  Na1  1  0.000000  0.000000  0.500000  1
  Ta  Ta2  1  0.666667  0.333333  0.250000  1
  Ta  Ta3  1  0.333333  0.666667  0.750000  1
  Mo  Mo4  1  0.000000  0.000000  0.750000  1
  Mo  Mo5  1  0.000000  0.000000  0.250000  1
  Mo  Mo6  1  0.333333  0.666667  0.250000  1
  Mo  Mo7  1  0.666667  0.333333  0.750000  1
  Se  Se8  1  0.328321  0.995072  0.150702  1
  Se  Se9  1  0.004928  0.333248  0.150702  1
  Se  Se10  1  0.666752  0.671679  0.150702  1
  Se  Se11  1  0.333248  0.328321  0.650702  1
  Se  Se12  1  0.666752  0.671679  0.349298  1
  Se  Se13  1  0.671679  0.004928  0.650702  1
  Se  Se14  1  0.995072  0.666752  0.650702  1
  Se  Se15  1  0.995072  0.666752  0.849298  1
  Se  Se16  1  0.333248  0.328321  0.849298  1
  Se  Se17  1  0.004928  0.333248  0.349298  1
  Se  Se18  1  0.328321  0.995072  0.349298  1
  Se  Se19  1  0.671679  0.004928  0.849298  1
