# generated using pymatgen
data_Y5Nb3Co16Si7P5
_symmetry_space_group_name_H-M   'P 1'
_cell_length_a   12.28687500
_cell_length_b   12.30197969
_cell_length_c   3.75153200
_cell_angle_alpha   90.00000000
_cell_angle_beta   90.00000000
_cell_angle_gamma   119.95938945
_symmetry_Int_Tables_number   1
_chemical_formula_structural   Y5Nb3Co16Si7P5
_chemical_formula_sum   'Y5 Nb3 Co16 Si7 P5'
_cell_volume   491.28477875
_cell_formula_units_Z   1
loop_
 _symmetry_equiv_pos_site_id
 _symmetry_equiv_pos_as_xyz
  1  'x, y, z'
loop_
 _atom_site_type_symbol
 _atom_site_label
 _atom_site_symmetry_multiplicity
 _atom_site_fract_x
 _atom_site_fract_y
 _atom_site_fract_z
 _atom_site_occupancy
  Y  Y0  1  0.815509  0.000000  0.500000  1
  Y  Y1  1  0.998653  0.814844  0.500000  1
  Y  Y2  1  0.183809  0.185156  0.500000  1
  Y  Y3  1  0.333397  0.665943  0.000000  1
  Y  Y4  1  0.667454  0.334057  0.000000  1
  Nb  Nb5  1  0.438755  0.000000  0.000000  1
  Nb  Nb6  1  0.999807  0.439967  0.000000  1
  Nb  Nb7  1  0.559840  0.560033  0.000000  1
  Co  Co8  1  0.280804  0.000000  0.500000  1
  Co  Co9  1  0.999823  0.276300  0.500000  1
  Co  Co10  1  0.723524  0.723700  0.500000  1
  Co  Co11  1  0.628481  0.807484  0.000000  1
  Co  Co12  1  0.192777  0.817225  0.000000  1
  Co  Co13  1  0.178649  0.371272  0.000000  1
  Co  Co14  1  0.375552  0.182775  0.000000  1
  Co  Co15  1  0.807377  0.628728  0.000000  1
  Co  Co16  1  0.820997  0.192516  0.000000  1
  Co  Co17  1  0.523434  0.879420  0.500000  1
  Co  Co18  1  0.119772  0.642560  0.500000  1
  Co  Co19  1  0.356143  0.477404  0.500000  1
  Co  Co20  1  0.477211  0.357440  0.500000  1
  Co  Co21  1  0.878740  0.522596  0.500000  1
  Co  Co22  1  0.644014  0.120580  0.500000  1
  Co  Co23  1  0.995890  0.000000  0.000000  1
  Si  Si24  1  0.181913  0.000000  0.000000  1
  Si  Si25  1  0.522413  0.691452  0.500000  1
  Si  Si26  1  0.308456  0.830028  0.500000  1
  Si  Si27  1  0.168559  0.477412  0.500000  1
  Si  Si28  1  0.478427  0.169972  0.500000  1
  Si  Si29  1  0.691145  0.522588  0.500000  1
  Si  Si30  1  0.830960  0.308548  0.500000  1
  P  P31  1  0.999756  0.181578  0.000000  1
  P  P32  1  0.818178  0.818422  0.000000  1
  P  P33  1  0.642146  0.000000  0.000000  1
  P  P34  1  0.999916  0.642198  0.000000  1
  P  P35  1  0.357718  0.357802  0.000000  1
