# generated using pymatgen
data_Eu10Ga2Cu3Ru
_symmetry_space_group_name_H-M   'P 1'
_cell_length_a   9.23575428
_cell_length_b   9.23575394
_cell_length_c   9.21797200
_cell_angle_alpha   128.40647510
_cell_angle_beta   128.40647342
_cell_angle_gamma   76.10871040
_symmetry_Int_Tables_number   1
_chemical_formula_structural   Eu10Ga2Cu3Ru
_chemical_formula_sum   'Eu10 Ga2 Cu3 Ru1'
_cell_volume   469.01297888
_cell_formula_units_Z   1
loop_
 _symmetry_equiv_pos_site_id
 _symmetry_equiv_pos_as_xyz
  1  'x, y, z'
loop_
 _atom_site_type_symbol
 _atom_site_label
 _atom_site_symmetry_multiplicity
 _atom_site_fract_x
 _atom_site_fract_y
 _atom_site_fract_z
 _atom_site_occupancy
  Eu  Eu0  1  0.494447  0.501097  0.995545  1
  Eu  Eu1  1  0.001097  0.994447  0.995545  1
  Eu  Eu2  1  0.529091  0.029091  0.840712  1
  Eu  Eu3  1  0.181686  0.681686  0.140926  1
  Eu  Eu4  1  0.031054  0.197634  0.509962  1
  Eu  Eu5  1  0.697634  0.531054  0.509962  1
  Eu  Eu6  1  0.459240  0.959240  0.140926  1
  Eu  Eu7  1  0.811619  0.311619  0.840712  1
  Eu  Eu8  1  0.978908  0.812328  0.509962  1
  Eu  Eu9  1  0.312328  0.478908  0.509962  1
  Ga  Ga10  1  0.251596  0.251596  0.003192  1
  Ga  Ga11  1  0.751596  0.751596  0.003192  1
  Cu  Cu12  1  0.884452  0.384452  0.268905  1
  Cu  Cu13  1  0.613184  0.885280  0.498463  1
  Cu  Cu14  1  0.385280  0.113184  0.498463  1
  Ru  Ru15  1  0.116786  0.616786  0.733571  1
