# generated using pymatgen
data_Nb3V2Si3H
_symmetry_space_group_name_H-M   'P 1'
_cell_length_a   7.41615100
_cell_length_b   7.41615061
_cell_length_c   5.03377200
_cell_angle_alpha   90.00000000
_cell_angle_beta   90.00000000
_cell_angle_gamma   119.99999729
_symmetry_Int_Tables_number   1
_chemical_formula_structural   Nb3V2Si3H
_chemical_formula_sum   'Nb6 V4 Si6 H2'
_cell_volume   239.76251695
_cell_formula_units_Z   2
loop_
 _symmetry_equiv_pos_site_id
 _symmetry_equiv_pos_as_xyz
  1  'x, y, z'
loop_
 _atom_site_type_symbol
 _atom_site_label
 _atom_site_symmetry_multiplicity
 _atom_site_fract_x
 _atom_site_fract_y
 _atom_site_fract_z
 _atom_site_occupancy
  Nb  Nb0  1  0.243978  0.000000  0.250000  1
  Nb  Nb1  1  0.756022  0.000000  0.750000  1
  Nb  Nb2  1  0.000000  0.243978  0.250000  1
  Nb  Nb3  1  0.000000  0.756022  0.750000  1
  Nb  Nb4  1  0.756022  0.756022  0.250000  1
  Nb  Nb5  1  0.243978  0.243978  0.750000  1
  V  V6  1  0.333333  0.666667  0.000000  1
  V  V7  1  0.666667  0.333333  0.000000  1
  V  V8  1  0.666667  0.333333  0.500000  1
  V  V9  1  0.333333  0.666667  0.500000  1
  Si  Si10  1  0.594610  0.000000  0.250000  1
  Si  Si11  1  0.405390  0.000000  0.750000  1
  Si  Si12  1  0.000000  0.594610  0.250000  1
  Si  Si13  1  0.000000  0.405390  0.750000  1
  Si  Si14  1  0.405390  0.405390  0.250000  1
  Si  Si15  1  0.594610  0.594610  0.750000  1
  H  H16  1  0.000000  0.000000  0.000000  1
  H  H17  1  0.000000  0.000000  0.500000  1
