# generated using pymatgen
data_Ba6Dy4ReTeO18
_symmetry_space_group_name_H-M   'P 1'
_cell_length_a   6.09614600
_cell_length_b   6.09614301
_cell_length_c   14.83931700
_cell_angle_alpha   90.00000000
_cell_angle_beta   90.00000000
_cell_angle_gamma   119.99999454
_symmetry_Int_Tables_number   1
_chemical_formula_structural   Ba6Dy4ReTeO18
_chemical_formula_sum   'Ba6 Dy4 Re1 Te1 O18'
_cell_volume   477.58983425
_cell_formula_units_Z   1
loop_
 _symmetry_equiv_pos_site_id
 _symmetry_equiv_pos_as_xyz
  1  'x, y, z'
loop_
 _atom_site_type_symbol
 _atom_site_label
 _atom_site_symmetry_multiplicity
 _atom_site_fract_x
 _atom_site_fract_y
 _atom_site_fract_z
 _atom_site_occupancy
  Ba  Ba0  1  0.333333  0.666667  0.090743  1
  Ba  Ba1  1  0.666667  0.333333  0.909257  1
  Ba  Ba2  1  0.333333  0.666667  0.590207  1
  Ba  Ba3  1  0.666667  0.333333  0.409793  1
  Ba  Ba4  1  0.000000  0.000000  0.250616  1
  Ba  Ba5  1  0.000000  0.000000  0.749384  1
  Dy  Dy6  1  0.333333  0.666667  0.833758  1
  Dy  Dy7  1  0.666667  0.333333  0.166242  1
  Dy  Dy8  1  0.333333  0.666667  0.334068  1
  Dy  Dy9  1  0.666667  0.333333  0.665932  1
  Re  Re10  1  0.000000  0.000000  0.500000  1
  Te  Te11  1  0.000000  0.000000  0.000000  1
  O  O12  1  0.885760  0.697693  0.574608  1
  O  O13  1  0.999289  0.548164  0.250306  1
  O  O14  1  0.188795  0.303307  0.924539  1
  O  O15  1  0.885487  0.188795  0.075461  1
  O  O16  1  0.811932  0.114240  0.574608  1
  O  O17  1  0.811205  0.696693  0.075461  1
  O  O18  1  0.697693  0.811932  0.425392  1
  O  O19  1  0.451125  0.999289  0.749694  1
  O  O20  1  0.548164  0.548875  0.749694  1
  O  O21  1  0.302307  0.188068  0.574608  1
  O  O22  1  0.114240  0.302307  0.425392  1
  O  O23  1  0.188068  0.885760  0.425392  1
  O  O24  1  0.303307  0.114513  0.075461  1
  O  O25  1  0.548875  0.000711  0.250306  1
  O  O26  1  0.451836  0.451125  0.250306  1
  O  O27  1  0.000711  0.451836  0.749694  1
  O  O28  1  0.114513  0.811205  0.924539  1
  O  O29  1  0.696693  0.885487  0.924539  1
