# generated using pymatgen
data_Lu4Zr2NbSb2
_symmetry_space_group_name_H-M   'P 1'
_cell_length_a   7.93302000
_cell_length_b   7.88521975
_cell_length_c   4.27341600
_cell_angle_alpha   90.00000000
_cell_angle_beta   90.00000000
_cell_angle_gamma   120.20073295
_symmetry_Int_Tables_number   1
_chemical_formula_structural   Lu4Zr2NbSb2
_chemical_formula_sum   'Lu4 Zr2 Nb1 Sb2'
_cell_volume   231.03412901
_cell_formula_units_Z   1
loop_
 _symmetry_equiv_pos_site_id
 _symmetry_equiv_pos_as_xyz
  1  'x, y, z'
loop_
 _atom_site_type_symbol
 _atom_site_label
 _atom_site_symmetry_multiplicity
 _atom_site_fract_x
 _atom_site_fract_y
 _atom_site_fract_z
 _atom_site_occupancy
  Lu  Lu0  1  0.600301  0.000000  0.500000  1
  Lu  Lu1  1  0.402899  0.404317  0.500000  1
  Lu  Lu2  1  0.998582  0.595683  0.500000  1
  Lu  Lu3  1  0.241100  0.000000  0.000000  1
  Zr  Zr4  1  0.994736  0.232011  0.000000  1
  Zr  Zr5  1  0.762725  0.767989  0.000000  1
  Nb  Nb6  1  0.993468  0.000000  0.500000  1
  Sb  Sb7  1  0.672185  0.338180  0.000000  1
  Sb  Sb8  1  0.334004  0.661820  0.000000  1
