# generated using pymatgen
data_Li4BeN2
_symmetry_space_group_name_H-M   'P 1'
_cell_length_a   3.59970304
_cell_length_b   3.61048173
_cell_length_c   7.12061988
_cell_angle_alpha   119.87351301
_cell_angle_beta   90.46161403
_cell_angle_gamma   119.67994643
_symmetry_Int_Tables_number   1
_chemical_formula_structural   Li4BeN2
_chemical_formula_sum   'Li4 Be1 N2'
_cell_volume   65.61464629
_cell_formula_units_Z   1
loop_
 _symmetry_equiv_pos_site_id
 _symmetry_equiv_pos_as_xyz
  1  'x, y, z'
loop_
 _atom_site_type_symbol
 _atom_site_label
 _atom_site_symmetry_multiplicity
 _atom_site_fract_x
 _atom_site_fract_y
 _atom_site_fract_z
 _atom_site_occupancy
  Li  Li0  1  0.449583  0.249641  0.980388  1
  Li  Li1  1  0.676037  0.699562  0.816536  1
  Li  Li2  1  0.046683  0.438060  0.372011  1
  Li  Li3  1  0.268120  0.882777  0.206559  1
  Be  Be4  1  0.861644  0.069822  0.593692  1
  N  N5  1  0.685255  0.714421  0.330004  1
  N  N6  1  0.036895  0.423762  0.857723  1
