# generated using pymatgen
data_Ba8As5Au
_symmetry_space_group_name_H-M   'P 1'
_cell_length_a   8.74734049
_cell_length_b   8.74734069
_cell_length_c   8.74734059
_cell_angle_alpha   109.29695052
_cell_angle_beta   109.29695185
_cell_angle_gamma   109.82032242
_symmetry_Int_Tables_number   1
_chemical_formula_structural   Ba8As5Au
_chemical_formula_sum   'Ba8 As5 Au1'
_cell_volume   515.22168123
_cell_formula_units_Z   1
loop_
 _symmetry_equiv_pos_site_id
 _symmetry_equiv_pos_as_xyz
  1  'x, y, z'
loop_
 _atom_site_type_symbol
 _atom_site_label
 _atom_site_symmetry_multiplicity
 _atom_site_fract_x
 _atom_site_fract_y
 _atom_site_fract_z
 _atom_site_occupancy
  Ba  Ba0  1  0.374904  0.380630  0.372727  1
  Ba  Ba1  1  0.140516  0.487787  0.995434  1
  Ba  Ba2  1  0.992353  0.145081  0.504566  1
  Ba  Ba3  1  0.854919  0.859484  0.847271  1
  Ba  Ba4  1  0.507902  0.002177  0.127273  1
  Ba  Ba5  1  0.619370  0.492098  0.994274  1
  Ba  Ba6  1  0.512213  0.007647  0.652729  1
  Ba  Ba7  1  0.997823  0.625096  0.505726  1
  As  As8  1  0.375000  0.625000  0.750000  1
  As  As9  1  0.880902  0.249309  0.124675  1
  As  As10  1  0.624634  0.756227  0.375325  1
  As  As11  1  0.243773  0.119098  0.868407  1
  As  As12  1  0.750691  0.375366  0.631593  1
  Au  Au13  1  0.125000  0.875000  0.250000  1
