# generated using pymatgen
data_Tm10In8NiRh3
_symmetry_space_group_name_H-M   'P 1'
_cell_length_a   3.55650900
_cell_length_b   7.97120857
_cell_length_c   18.07272570
_cell_angle_alpha   89.90846526
_cell_angle_beta   90.00000000
_cell_angle_gamma   90.00000000
_symmetry_Int_Tables_number   1
_chemical_formula_structural   Tm10In8NiRh3
_chemical_formula_sum   'Tm10 In8 Ni1 Rh3'
_cell_volume   512.35524663
_cell_formula_units_Z   1
loop_
 _symmetry_equiv_pos_site_id
 _symmetry_equiv_pos_as_xyz
  1  'x, y, z'
loop_
 _atom_site_type_symbol
 _atom_site_label
 _atom_site_symmetry_multiplicity
 _atom_site_fract_x
 _atom_site_fract_y
 _atom_site_fract_z
 _atom_site_occupancy
  Tm  Tm0  1  0.000000  0.499815  0.499188  1
  Tm  Tm1  1  0.000000  0.999528  0.000665  1
  Tm  Tm2  1  0.000000  0.747745  0.279061  1
  Tm  Tm3  1  0.000000  0.253962  0.721324  1
  Tm  Tm4  1  0.000000  0.754420  0.778404  1
  Tm  Tm5  1  0.000000  0.246514  0.222795  1
  Tm  Tm6  1  0.000000  0.617086  0.087803  1
  Tm  Tm7  1  0.000000  0.381501  0.913496  1
  Tm  Tm8  1  0.000000  0.882470  0.586189  1
  Tm  Tm9  1  0.000000  0.116060  0.409698  1
  In  In10  1  0.500000  0.706555  0.933323  1
  In  In11  1  0.500000  0.292514  0.068602  1
  In  In12  1  0.500000  0.795023  0.431279  1
  In  In13  1  0.500000  0.206482  0.566198  1
  In  In14  1  0.500000  0.571815  0.649307  1
  In  In15  1  0.500000  0.429660  0.350472  1
  In  In16  1  0.500000  0.928656  0.151535  1
  In  In17  1  0.500000  0.070527  0.850548  1
  Ni  Ni18  1  0.500000  0.023915  0.304402  1
  Rh  Rh19  1  0.500000  0.525442  0.196099  1
  Rh  Rh20  1  0.500000  0.475573  0.804737  1
  Rh  Rh21  1  0.500000  0.974735  0.694874  1
