# generated using pymatgen
data_K7Ru(SO4)6
_symmetry_space_group_name_H-M   'P 1'
_cell_length_a   9.37988485
_cell_length_b   9.37988460
_cell_length_c   9.37988596
_cell_angle_alpha   109.51142325
_cell_angle_beta   109.51142134
_cell_angle_gamma   109.51143107
_symmetry_Int_Tables_number   1
_chemical_formula_structural   K7Ru(SO4)6
_chemical_formula_sum   'K7 Ru1 S6 O24'
_cell_volume   634.34061524
_cell_formula_units_Z   1
loop_
 _symmetry_equiv_pos_site_id
 _symmetry_equiv_pos_as_xyz
  1  'x, y, z'
loop_
 _atom_site_type_symbol
 _atom_site_label
 _atom_site_symmetry_multiplicity
 _atom_site_fract_x
 _atom_site_fract_y
 _atom_site_fract_z
 _atom_site_occupancy
  K  K0  1  0.500000  0.500000  0.500000  1
  K  K1  1  0.837643  0.336040  0.679703  1
  K  K2  1  0.336040  0.679703  0.837643  1
  K  K3  1  0.679703  0.837643  0.336040  1
  K  K4  1  0.162357  0.663960  0.320297  1
  K  K5  1  0.663960  0.320297  0.162357  1
  K  K6  1  0.320297  0.162357  0.663960  1
  Ru  Ru7  1  0.000000  0.000000  0.000000  1
  S  S8  1  0.969070  0.751019  0.625303  1
  S  S9  1  0.751019  0.625303  0.969070  1
  S  S10  1  0.625303  0.969070  0.751019  1
  S  S11  1  0.030930  0.248981  0.374697  1
  S  S12  1  0.248981  0.374697  0.030930  1
  S  S13  1  0.374697  0.030930  0.248981  1
  O  O14  1  0.423292  0.906888  0.165468  1
  O  O15  1  0.906888  0.165468  0.423292  1
  O  O16  1  0.165468  0.423292  0.906888  1
  O  O17  1  0.576708  0.093112  0.834532  1
  O  O18  1  0.093112  0.834532  0.576708  1
  O  O19  1  0.834532  0.576708  0.093112  1
  O  O20  1  0.297466  0.983241  0.349933  1
  O  O21  1  0.983241  0.349933  0.297466  1
  O  O22  1  0.349933  0.297466  0.983241  1
  O  O23  1  0.702534  0.016759  0.650067  1
  O  O24  1  0.016759  0.650067  0.702534  1
  O  O25  1  0.650067  0.702534  0.016759  1
  O  O26  1  0.763726  0.974618  0.908449  1
  O  O27  1  0.974618  0.908449  0.763726  1
  O  O28  1  0.647026  0.477679  0.787127  1
  O  O29  1  0.787127  0.647026  0.477679  1
  O  O30  1  0.477679  0.787127  0.647026  1
  O  O31  1  0.352974  0.522321  0.212873  1
  O  O32  1  0.212873  0.352974  0.522321  1
  O  O33  1  0.522321  0.212873  0.352974  1
  O  O34  1  0.091551  0.236274  0.025382  1
  O  O35  1  0.025382  0.091551  0.236274  1
  O  O36  1  0.236274  0.025382  0.091551  1
  O  O37  1  0.908449  0.763726  0.974618  1
