# generated using pymatgen
data_Ce2ZrScTc8
_symmetry_space_group_name_H-M   'P 1'
_cell_length_a   5.24114400
_cell_length_b   5.24114363
_cell_length_c   9.05970800
_cell_angle_alpha   90.00000000
_cell_angle_beta   90.00000000
_cell_angle_gamma   119.99998971
_symmetry_Int_Tables_number   1
_chemical_formula_structural   Ce2ZrScTc8
_chemical_formula_sum   'Ce2 Zr1 Sc1 Tc8'
_cell_volume   215.52469076
_cell_formula_units_Z   1
loop_
 _symmetry_equiv_pos_site_id
 _symmetry_equiv_pos_as_xyz
  1  'x, y, z'
loop_
 _atom_site_type_symbol
 _atom_site_label
 _atom_site_symmetry_multiplicity
 _atom_site_fract_x
 _atom_site_fract_y
 _atom_site_fract_z
 _atom_site_occupancy
  Ce  Ce0  1  0.333333  0.666667  0.445038  1
  Ce  Ce1  1  0.666667  0.333333  0.556585  1
  Zr  Zr2  1  0.333333  0.666667  0.064846  1
  Sc  Sc3  1  0.666667  0.333333  0.934175  1
  Tc  Tc4  1  0.000000  0.000000  0.499657  1
  Tc  Tc5  1  0.000000  0.000000  0.999739  1
  Tc  Tc6  1  0.828938  0.171062  0.237702  1
  Tc  Tc7  1  0.828938  0.657875  0.237702  1
  Tc  Tc8  1  0.342125  0.171062  0.237702  1
  Tc  Tc9  1  0.171102  0.828898  0.762285  1
  Tc  Tc10  1  0.171102  0.342203  0.762285  1
  Tc  Tc11  1  0.657797  0.828898  0.762285  1
