# generated using pymatgen
data_LaZn3Si
_symmetry_space_group_name_H-M   'P 1'
_cell_length_a   6.01134430
_cell_length_b   6.01134448
_cell_length_c   5.94089900
_cell_angle_alpha   90.00000000
_cell_angle_beta   90.00000000
_cell_angle_gamma   117.18083090
_symmetry_Int_Tables_number   1
_chemical_formula_structural   LaZn3Si
_chemical_formula_sum   'La2 Zn6 Si2'
_cell_volume   190.97439864
_cell_formula_units_Z   2
loop_
 _symmetry_equiv_pos_site_id
 _symmetry_equiv_pos_as_xyz
  1  'x, y, z'
loop_
 _atom_site_type_symbol
 _atom_site_label
 _atom_site_symmetry_multiplicity
 _atom_site_fract_x
 _atom_site_fract_y
 _atom_site_fract_z
 _atom_site_occupancy
  La  La0  1  0.263439  0.736561  0.750000  1
  La  La1  1  0.736561  0.263439  0.250000  1
  Zn  Zn2  1  0.611013  0.388987  0.750000  1
  Zn  Zn3  1  0.388987  0.611013  0.250000  1
  Zn  Zn4  1  0.779910  0.779910  0.000000  1
  Zn  Zn5  1  0.779910  0.779910  0.500000  1
  Zn  Zn6  1  0.220090  0.220090  0.000000  1
  Zn  Zn7  1  0.220090  0.220090  0.500000  1
  Si  Si8  1  0.851109  0.148891  0.750000  1
  Si  Si9  1  0.148891  0.851109  0.250000  1
