# generated using pymatgen
data_YZr(NiAs)3
_symmetry_space_group_name_H-M   'P 1'
_cell_length_a   3.87687600
_cell_length_b   10.55185900
_cell_length_c   12.73627100
_cell_angle_alpha   90.00000000
_cell_angle_beta   90.00000000
_cell_angle_gamma   90.00000000
_symmetry_Int_Tables_number   1
_chemical_formula_structural   YZr(NiAs)3
_chemical_formula_sum   'Y4 Zr4 Ni12 As12'
_cell_volume   521.01854428
_cell_formula_units_Z   4
loop_
 _symmetry_equiv_pos_site_id
 _symmetry_equiv_pos_as_xyz
  1  'x, y, z'
loop_
 _atom_site_type_symbol
 _atom_site_label
 _atom_site_symmetry_multiplicity
 _atom_site_fract_x
 _atom_site_fract_y
 _atom_site_fract_z
 _atom_site_occupancy
  Y  Y0  1  0.250000  0.071414  0.206727  1
  Y  Y1  1  0.750000  0.928586  0.793273  1
  Y  Y2  1  0.750000  0.571414  0.293273  1
  Y  Y3  1  0.250000  0.428586  0.706727  1
  Zr  Zr4  1  0.250000  0.161388  0.496926  1
  Zr  Zr5  1  0.750000  0.838612  0.503074  1
  Zr  Zr6  1  0.750000  0.661388  0.003074  1
  Zr  Zr7  1  0.250000  0.338612  0.996926  1
  Ni  Ni8  1  0.250000  0.726372  0.663995  1
  Ni  Ni9  1  0.750000  0.273628  0.336005  1
  Ni  Ni10  1  0.750000  0.226372  0.836005  1
  Ni  Ni11  1  0.250000  0.773628  0.163995  1
  Ni  Ni12  1  0.250000  0.363418  0.220388  1
  Ni  Ni13  1  0.750000  0.636582  0.779612  1
  Ni  Ni14  1  0.750000  0.863418  0.279612  1
  Ni  Ni15  1  0.250000  0.136582  0.720388  1
  Ni  Ni16  1  0.250000  0.601371  0.482461  1
  Ni  Ni17  1  0.750000  0.398629  0.517539  1
  Ni  Ni18  1  0.750000  0.101371  0.017539  1
  Ni  Ni19  1  0.250000  0.898629  0.982461  1
  As  As20  1  0.250000  0.945905  0.622930  1
  As  As21  1  0.750000  0.054095  0.377070  1
  As  As22  1  0.750000  0.445905  0.877070  1
  As  As23  1  0.250000  0.554095  0.122930  1
  As  As24  1  0.250000  0.396311  0.403421  1
  As  As25  1  0.750000  0.603689  0.596579  1
  As  As26  1  0.750000  0.896311  0.096579  1
  As  As27  1  0.250000  0.103689  0.903421  1
  As  As28  1  0.250000  0.770716  0.355370  1
  As  As29  1  0.750000  0.229284  0.644630  1
  As  As30  1  0.750000  0.270716  0.144630  1
  As  As31  1  0.250000  0.729284  0.855370  1
