# generated using pymatgen
data_Hf18VZn2Re6W
_symmetry_space_group_name_H-M   'P 1'
_cell_length_a   8.65193500
_cell_length_b   8.65193432
_cell_length_c   8.53687100
_cell_angle_alpha   90.00000000
_cell_angle_beta   90.00000000
_cell_angle_gamma   119.99999879
_symmetry_Int_Tables_number   1
_chemical_formula_structural   Hf18VZn2Re6W
_chemical_formula_sum   'Hf18 V1 Zn2 Re6 W1'
_cell_volume   553.42123290
_cell_formula_units_Z   1
loop_
 _symmetry_equiv_pos_site_id
 _symmetry_equiv_pos_as_xyz
  1  'x, y, z'
loop_
 _atom_site_type_symbol
 _atom_site_label
 _atom_site_symmetry_multiplicity
 _atom_site_fract_x
 _atom_site_fract_y
 _atom_site_fract_z
 _atom_site_occupancy
  Hf  Hf0  1  0.193868  0.806132  0.451735  1
  Hf  Hf1  1  0.193868  0.387738  0.451735  1
  Hf  Hf2  1  0.612262  0.806132  0.451735  1
  Hf  Hf3  1  0.806132  0.193868  0.548265  1
  Hf  Hf4  1  0.806132  0.612262  0.548265  1
  Hf  Hf5  1  0.387738  0.193868  0.548265  1
  Hf  Hf6  1  0.804704  0.195296  0.951412  1
  Hf  Hf7  1  0.804704  0.609407  0.951412  1
  Hf  Hf8  1  0.390593  0.195296  0.951412  1
  Hf  Hf9  1  0.195296  0.804704  0.048588  1
  Hf  Hf10  1  0.195296  0.390593  0.048588  1
  Hf  Hf11  1  0.609407  0.804704  0.048588  1
  Hf  Hf12  1  0.540202  0.459798  0.250152  1
  Hf  Hf13  1  0.540202  0.080402  0.250152  1
  Hf  Hf14  1  0.919598  0.459798  0.250152  1
  Hf  Hf15  1  0.459798  0.540202  0.749848  1
  Hf  Hf16  1  0.459798  0.919598  0.749848  1
  Hf  Hf17  1  0.080402  0.540202  0.749848  1
  V  V18  1  0.000000  0.000000  0.500000  1
  Zn  Zn19  1  0.333333  0.666667  0.251260  1
  Zn  Zn20  1  0.666667  0.333333  0.748740  1
  Re  Re21  1  0.890085  0.109915  0.253202  1
  Re  Re22  1  0.890085  0.780171  0.253202  1
  Re  Re23  1  0.219829  0.109915  0.253202  1
  Re  Re24  1  0.109915  0.890085  0.746798  1
  Re  Re25  1  0.109915  0.219829  0.746798  1
  Re  Re26  1  0.780171  0.890085  0.746798  1
  W  W27  1  0.000000  0.000000  0.000000  1
