# generated using pymatgen
data_Lu4ZnPt3
_symmetry_space_group_name_H-M   'P 1'
_cell_length_a   4.50689900
_cell_length_b   5.47324582
_cell_length_c   6.88348128
_cell_angle_alpha   90.09335579
_cell_angle_beta   90.00000000
_cell_angle_gamma   90.00000000
_symmetry_Int_Tables_number   1
_chemical_formula_structural   Lu4ZnPt3
_chemical_formula_sum   'Lu4 Zn1 Pt3'
_cell_volume   169.79712747
_cell_formula_units_Z   1
loop_
 _symmetry_equiv_pos_site_id
 _symmetry_equiv_pos_as_xyz
  1  'x, y, z'
loop_
 _atom_site_type_symbol
 _atom_site_label
 _atom_site_symmetry_multiplicity
 _atom_site_fract_x
 _atom_site_fract_y
 _atom_site_fract_z
 _atom_site_occupancy
  Lu  Lu0  1  0.250000  0.642275  0.186305  1
  Lu  Lu1  1  0.750000  0.369561  0.808610  1
  Lu  Lu2  1  0.750000  0.140634  0.328830  1
  Lu  Lu3  1  0.250000  0.847962  0.678290  1
  Zn  Zn4  1  0.250000  0.139450  0.031609  1
  Pt  Pt5  1  0.750000  0.869252  0.969695  1
  Pt  Pt6  1  0.750000  0.657110  0.453240  1
  Pt  Pt7  1  0.250000  0.333757  0.543422  1
