# generated using pymatgen
data_Tm4NiTe2
_symmetry_space_group_name_H-M   'P 1'
_cell_length_a   15.22381900
_cell_length_b   4.05490500
_cell_length_c   11.57072500
_cell_angle_alpha   90.00000000
_cell_angle_beta   90.00000000
_cell_angle_gamma   90.00000000
_symmetry_Int_Tables_number   1
_chemical_formula_structural   Tm4NiTe2
_chemical_formula_sum   'Tm16 Ni4 Te8'
_cell_volume   714.27404236
_cell_formula_units_Z   4
loop_
 _symmetry_equiv_pos_site_id
 _symmetry_equiv_pos_as_xyz
  1  'x, y, z'
loop_
 _atom_site_type_symbol
 _atom_site_label
 _atom_site_symmetry_multiplicity
 _atom_site_fract_x
 _atom_site_fract_y
 _atom_site_fract_z
 _atom_site_occupancy
  Tm  Tm0  1  0.895657  0.249999  0.035199  1
  Tm  Tm1  1  0.604342  0.750000  0.535199  1
  Tm  Tm2  1  0.395658  0.249999  0.464802  1
  Tm  Tm3  1  0.221079  0.750000  0.624449  1
  Tm  Tm4  1  0.278921  0.249999  0.124449  1
  Tm  Tm5  1  0.957278  0.750000  0.305408  1
  Tm  Tm6  1  0.542723  0.249999  0.805408  1
  Tm  Tm7  1  0.457278  0.750000  0.194592  1
  Tm  Tm8  1  0.042722  0.249999  0.694592  1
  Tm  Tm9  1  0.869804  0.750000  0.582924  1
  Tm  Tm10  1  0.630195  0.249999  0.082924  1
  Tm  Tm11  1  0.369805  0.750000  0.917076  1
  Tm  Tm12  1  0.130195  0.249999  0.417076  1
  Tm  Tm13  1  0.104343  0.750000  0.964802  1
  Tm  Tm14  1  0.721079  0.750000  0.875551  1
  Tm  Tm15  1  0.778921  0.249999  0.375551  1
  Ni  Ni16  1  0.951852  0.249999  0.472542  1
  Ni  Ni17  1  0.548148  0.750000  0.972542  1
  Ni  Ni18  1  0.451852  0.249999  0.027458  1
  Ni  Ni19  1  0.048148  0.750000  0.527458  1
  Te  Te20  1  0.719670  0.249999  0.659458  1
  Te  Te21  1  0.780330  0.750000  0.159458  1
  Te  Te22  1  0.219670  0.249999  0.840541  1
  Te  Te23  1  0.280331  0.750000  0.340542  1
  Te  Te24  1  0.926263  0.750000  0.844941  1
  Te  Te25  1  0.573738  0.249999  0.344942  1
  Te  Te26  1  0.426263  0.750000  0.655059  1
  Te  Te27  1  0.073737  0.249999  0.155059  1
