# generated using pymatgen
data_DyHo3Ta4(Co4P3)4
_symmetry_space_group_name_H-M   'P 1'
_cell_length_a   3.68691000
_cell_length_b   10.52850901
_cell_length_c   11.98756401
_cell_angle_alpha   89.99579638
_cell_angle_beta   90.00000000
_cell_angle_gamma   90.00000000
_symmetry_Int_Tables_number   1
_chemical_formula_structural   DyHo3Ta4(Co4P3)4
_chemical_formula_sum   'Dy1 Ho3 Ta4 Co16 P12'
_cell_volume   465.32924430
_cell_formula_units_Z   1
loop_
 _symmetry_equiv_pos_site_id
 _symmetry_equiv_pos_as_xyz
  1  'x, y, z'
loop_
 _atom_site_type_symbol
 _atom_site_label
 _atom_site_symmetry_multiplicity
 _atom_site_fract_x
 _atom_site_fract_y
 _atom_site_fract_z
 _atom_site_occupancy
  Dy  Dy0  1  0.750000  0.082389  0.794569  1
  Ho  Ho1  1  0.250000  0.582313  0.705422  1
  Ho  Ho2  1  0.250000  0.917633  0.205464  1
  Ho  Ho3  1  0.750000  0.417643  0.294613  1
  Ta  Ta4  1  0.250000  0.706613  0.989094  1
  Ta  Ta5  1  0.250000  0.793286  0.489005  1
  Ta  Ta6  1  0.750000  0.293399  0.011070  1
  Ta  Ta7  1  0.750000  0.206793  0.510923  1
  Co  Co8  1  0.250000  0.406539  0.489476  1
  Co  Co9  1  0.250000  0.093431  0.989868  1
  Co  Co10  1  0.750000  0.593461  0.510507  1
  Co  Co11  1  0.750000  0.906448  0.010603  1
  Co  Co12  1  0.250000  0.222676  0.177186  1
  Co  Co13  1  0.250000  0.277644  0.677008  1
  Co  Co14  1  0.750000  0.777279  0.822842  1
  Co  Co15  1  0.750000  0.722655  0.322881  1
  Co  Co16  1  0.250000  0.887884  0.700918  1
  Co  Co17  1  0.250000  0.611744  0.201156  1
  Co  Co18  1  0.750000  0.111728  0.298877  1
  Co  Co19  1  0.750000  0.388385  0.798827  1
  Co  Co20  1  0.250000  0.465220  0.933004  1
  Co  Co21  1  0.250000  0.034870  0.432894  1
  Co  Co22  1  0.750000  0.534891  0.067037  1
  Co  Co23  1  0.750000  0.965034  0.566834  1
  P  P24  1  0.250000  0.422210  0.116892  1
  P  P25  1  0.250000  0.077808  0.616462  1
  P  P26  1  0.750000  0.577844  0.883160  1
  P  P27  1  0.750000  0.922179  0.383111  1
  P  P28  1  0.250000  0.269062  0.861602  1
  P  P29  1  0.250000  0.231415  0.361504  1
  P  P30  1  0.750000  0.731399  0.138481  1
  P  P31  1  0.750000  0.768610  0.638518  1
  P  P32  1  0.250000  0.591051  0.389554  1
  P  P33  1  0.250000  0.908566  0.889751  1
  P  P34  1  0.750000  0.408869  0.610461  1
  P  P35  1  0.750000  0.091029  0.110427  1
