# generated using pymatgen
data_TbY3Ho2(B7W)2
_symmetry_space_group_name_H-M   'P 1'
_cell_length_a   8.18616999
_cell_length_b   8.18617163
_cell_length_c   9.49847400
_cell_angle_alpha   90.04941608
_cell_angle_beta   89.95058277
_cell_angle_gamma   155.60988874
_symmetry_Int_Tables_number   1
_chemical_formula_structural   TbY3Ho2(B7W)2
_chemical_formula_sum   'Tb1 Y3 Ho2 B14 W2'
_cell_volume   262.85113074
_cell_formula_units_Z   1
loop_
 _symmetry_equiv_pos_site_id
 _symmetry_equiv_pos_as_xyz
  1  'x, y, z'
loop_
 _atom_site_type_symbol
 _atom_site_label
 _atom_site_symmetry_multiplicity
 _atom_site_fract_x
 _atom_site_fract_y
 _atom_site_fract_z
 _atom_site_occupancy
  Tb  Tb0  1  0.107482  0.892518  0.938814  1
  Y  Y1  1  0.892659  0.107341  0.439085  1
  Y  Y2  1  0.245119  0.754881  0.249930  1
  Y  Y3  1  0.755033  0.244967  0.749918  1
  Ho  Ho4  1  0.106933  0.893067  0.560206  1
  Ho  Ho5  1  0.893090  0.106910  0.060149  1
  B  B6  1  0.727307  0.272693  0.467422  1
  B  B7  1  0.272108  0.727892  0.532950  1
  B  B8  1  0.728073  0.271927  0.033179  1
  B  B9  1  0.272871  0.727129  0.967538  1
  B  B10  1  0.635112  0.364888  0.147294  1
  B  B11  1  0.365064  0.634936  0.853740  1
  B  B12  1  0.634939  0.365061  0.353571  1
  B  B13  1  0.364977  0.635023  0.646906  1
  B  B14  1  0.519525  0.480475  0.091631  1
  B  B15  1  0.479803  0.520197  0.908528  1
  B  B16  1  0.520020  0.479980  0.408725  1
  B  B17  1  0.480291  0.519709  0.591440  1
  B  B18  1  0.455685  0.544315  0.249641  1
  B  B19  1  0.544031  0.455969  0.749248  1
  W  W20  1  0.053272  0.946728  0.250115  1
  W  W21  1  0.946608  0.053392  0.749969  1
