# generated using pymatgen
data_K4Ba2TiBiSb3
_symmetry_space_group_name_H-M   'P 1'
_cell_length_a   11.12417981
_cell_length_b   11.12418092
_cell_length_c   8.62632964
_cell_angle_alpha   89.04474082
_cell_angle_beta   89.04474255
_cell_angle_gamma   119.80661579
_symmetry_Int_Tables_number   1
_chemical_formula_structural   K4Ba2TiBiSb3
_chemical_formula_sum   'K8 Ba4 Ti2 Bi2 Sb6'
_cell_volume   925.75396322
_cell_formula_units_Z   2
loop_
 _symmetry_equiv_pos_site_id
 _symmetry_equiv_pos_as_xyz
  1  'x, y, z'
loop_
 _atom_site_type_symbol
 _atom_site_label
 _atom_site_symmetry_multiplicity
 _atom_site_fract_x
 _atom_site_fract_y
 _atom_site_fract_z
 _atom_site_occupancy
  K  K0  1  0.050447  0.523876  0.622260  1
  K  K1  1  0.523876  0.050447  0.122260  1
  K  K2  1  0.276951  0.135456  0.822496  1
  K  K3  1  0.869752  0.726247  0.783883  1
  K  K4  1  0.861197  0.145504  0.803570  1
  K  K5  1  0.726247  0.869752  0.283883  1
  K  K6  1  0.135456  0.276951  0.322496  1
  K  K7  1  0.145504  0.861197  0.303570  1
  Ba  Ba8  1  0.471502  0.946628  0.619662  1
  Ba  Ba9  1  0.470741  0.521629  0.625970  1
  Ba  Ba10  1  0.946628  0.471502  0.119662  1
  Ba  Ba11  1  0.521629  0.470741  0.125970  1
  Ti  Ti12  1  0.667391  0.335418  0.508011  1
  Ti  Ti13  1  0.335418  0.667391  0.008011  1
  Bi  Bi14  1  0.666472  0.343102  0.832533  1
  Bi  Bi15  1  0.343102  0.666472  0.332533  1
  Sb  Sb16  1  0.601011  0.795156  0.893658  1
  Sb  Sb17  1  0.200628  0.396235  0.923136  1
  Sb  Sb18  1  0.198129  0.796089  0.910455  1
  Sb  Sb19  1  0.396235  0.200628  0.423136  1
  Sb  Sb20  1  0.795156  0.601011  0.393658  1
  Sb  Sb21  1  0.796089  0.198129  0.410455  1
