# generated using pymatgen
data_DyScMn9Fe3P7
_symmetry_space_group_name_H-M   'P 1'
_cell_length_a   9.21397700
_cell_length_b   9.21397798
_cell_length_c   3.53592700
_cell_angle_alpha   90.00000000
_cell_angle_beta   90.00000000
_cell_angle_gamma   120.00000006
_symmetry_Int_Tables_number   1
_chemical_formula_structural   DyScMn9Fe3P7
_chemical_formula_sum   'Dy1 Sc1 Mn9 Fe3 P7'
_cell_volume   259.97298206
_cell_formula_units_Z   1
loop_
 _symmetry_equiv_pos_site_id
 _symmetry_equiv_pos_as_xyz
  1  'x, y, z'
loop_
 _atom_site_type_symbol
 _atom_site_label
 _atom_site_symmetry_multiplicity
 _atom_site_fract_x
 _atom_site_fract_y
 _atom_site_fract_z
 _atom_site_occupancy
  Dy  Dy0  1  0.000000  0.000000  0.500000  1
  Sc  Sc1  1  0.333333  0.666667  0.000000  1
  Mn  Mn2  1  0.714500  0.760583  0.000000  1
  Mn  Mn3  1  0.239417  0.953917  0.000000  1
  Mn  Mn4  1  0.046083  0.285500  0.000000  1
  Mn  Mn5  1  0.106255  0.724648  0.500000  1
  Mn  Mn6  1  0.275352  0.381606  0.500000  1
  Mn  Mn7  1  0.618394  0.893745  0.500000  1
  Mn  Mn8  1  0.768870  0.563035  0.500000  1
  Mn  Mn9  1  0.436965  0.205836  0.500000  1
  Mn  Mn10  1  0.794164  0.231130  0.500000  1
  Fe  Fe11  1  0.941759  0.489502  0.000000  1
  Fe  Fe12  1  0.510498  0.452257  0.000000  1
  Fe  Fe13  1  0.547743  0.058241  0.000000  1
  P  P14  1  0.954860  0.740711  0.000000  1
  P  P15  1  0.259289  0.214149  0.000000  1
  P  P16  1  0.785851  0.045140  0.000000  1
  P  P17  1  0.078691  0.464651  0.500000  1
  P  P18  1  0.535349  0.614039  0.500000  1
  P  P19  1  0.385961  0.921309  0.500000  1
  P  P20  1  0.666667  0.333333  0.000000  1
