# generated using pymatgen
data_La4Nd2Cd23Sb
_symmetry_space_group_name_H-M   'P 1'
_cell_length_a   10.21074516
_cell_length_b   10.21209640
_cell_length_c   10.18059309
_cell_angle_alpha   60.09322282
_cell_angle_beta   60.10640720
_cell_angle_gamma   60.29123898
_symmetry_Int_Tables_number   1
_chemical_formula_structural   La4Nd2Cd23Sb
_chemical_formula_sum   'La4 Nd2 Cd23 Sb1'
_cell_volume   753.41397035
_cell_formula_units_Z   1
loop_
 _symmetry_equiv_pos_site_id
 _symmetry_equiv_pos_as_xyz
  1  'x, y, z'
loop_
 _atom_site_type_symbol
 _atom_site_label
 _atom_site_symmetry_multiplicity
 _atom_site_fract_x
 _atom_site_fract_y
 _atom_site_fract_z
 _atom_site_occupancy
  La  La0  1  0.781470  0.781440  0.218122  1
  La  La1  1  0.218467  0.781533  0.217663  1
  La  La2  1  0.781586  0.218414  0.217664  1
  La  La3  1  0.218560  0.218530  0.781033  1
  Nd  Nd4  1  0.782050  0.217950  0.782107  1
  Nd  Nd5  1  0.217910  0.782090  0.782127  1
  Cd  Cd6  1  0.833544  0.833589  0.497522  1
  Cd  Cd7  1  0.833128  0.496437  0.834530  1
  Cd  Cd8  1  0.496436  0.833129  0.834595  1
  Cd  Cd9  1  0.834800  0.834768  0.835250  1
  Cd  Cd10  1  0.165232  0.165200  0.504817  1
  Cd  Cd11  1  0.166871  0.503564  0.164160  1
  Cd  Cd12  1  0.503563  0.166872  0.164095  1
  Cd  Cd13  1  0.166411  0.166456  0.164654  1
  Cd  Cd14  1  0.623662  0.623642  0.129814  1
  Cd  Cd15  1  0.624168  0.131001  0.623695  1
  Cd  Cd16  1  0.130996  0.624175  0.623695  1
  Cd  Cd17  1  0.622524  0.622557  0.624223  1
  Cd  Cd18  1  0.377443  0.377476  0.869302  1
  Cd  Cd19  1  0.375825  0.869004  0.378865  1
  Cd  Cd20  1  0.868999  0.375832  0.378863  1
  Cd  Cd21  1  0.376358  0.376338  0.377118  1
  Cd  Cd22  1  0.000004  0.999996  0.500478  1
  Cd  Cd23  1  0.499573  0.999722  0.500164  1
  Cd  Cd24  1  0.999721  0.499567  0.500162  1
  Cd  Cd25  1  0.500003  0.499997  0.999146  1
  Cd  Cd26  1  0.000278  0.500427  0.999459  1
  Cd  Cd27  1  0.500433  0.000279  0.999449  1
  Cd  Cd28  1  0.499995  0.500005  0.499946  1
  Sb  Sb29  1  0.999992  0.000008  0.997283  1
