# generated using pymatgen
data_DyY3Er2PtI10
_symmetry_space_group_name_H-M   'P 1'
_cell_length_a   7.72079576
_cell_length_b   9.73507383
_cell_length_c   9.75742557
_cell_angle_alpha   107.02674832
_cell_angle_beta   96.79974809
_cell_angle_gamma   104.23425704
_symmetry_Int_Tables_number   1
_chemical_formula_structural   DyY3Er2PtI10
_chemical_formula_sum   'Dy1 Y3 Er2 Pt1 I10'
_cell_volume   665.21952894
_cell_formula_units_Z   1
loop_
 _symmetry_equiv_pos_site_id
 _symmetry_equiv_pos_as_xyz
  1  'x, y, z'
loop_
 _atom_site_type_symbol
 _atom_site_label
 _atom_site_symmetry_multiplicity
 _atom_site_fract_x
 _atom_site_fract_y
 _atom_site_fract_z
 _atom_site_occupancy
  Dy  Dy0  1  0.885120  0.959293  0.242065  1
  Y  Y1  1  0.651431  0.876318  0.833973  1
  Y  Y2  1  0.969672  0.286601  0.086176  1
  Y  Y3  1  0.031875  0.713479  0.913282  1
  Er  Er4  1  0.115893  0.041485  0.761727  1
  Er  Er5  1  0.343735  0.122184  0.164042  1
  Pt  Pt6  1  0.999761  0.999787  0.000251  1
  I  I7  1  0.353280  0.448038  0.271911  1
  I  I8  1  0.649114  0.549661  0.728707  1
  I  I9  1  0.914765  0.626890  0.179851  1
  I  I10  1  0.086605  0.371228  0.818491  1
  I  I11  1  0.455329  0.818641  0.093941  1
  I  I12  1  0.543017  0.183476  0.908431  1
  I  I13  1  0.257471  0.087312  0.462622  1
  I  I14  1  0.748652  0.915229  0.539002  1
  I  I15  1  0.769317  0.254413  0.342937  1
  I  I16  1  0.224966  0.745962  0.652591  1
