# generated using pymatgen
data_TbY(HoAl4)2
_symmetry_space_group_name_H-M   'P 1'
_cell_length_a   9.63682190
_cell_length_b   9.63682109
_cell_length_c   9.63682312
_cell_angle_alpha   33.52840696
_cell_angle_beta   33.52841077
_cell_angle_gamma   33.52841791
_symmetry_Int_Tables_number   1
_chemical_formula_structural   TbY(HoAl4)2
_chemical_formula_sum   'Tb1 Y1 Ho2 Al8'
_cell_volume   243.19419452
_cell_formula_units_Z   1
loop_
 _symmetry_equiv_pos_site_id
 _symmetry_equiv_pos_as_xyz
  1  'x, y, z'
loop_
 _atom_site_type_symbol
 _atom_site_label
 _atom_site_symmetry_multiplicity
 _atom_site_fract_x
 _atom_site_fract_y
 _atom_site_fract_z
 _atom_site_occupancy
  Tb  Tb0  1  0.812455  0.812455  0.812455  1
  Y  Y1  1  0.187344  0.187344  0.187344  1
  Ho  Ho2  1  0.312622  0.312622  0.312622  1
  Ho  Ho3  1  0.687558  0.687558  0.687558  1
  Al  Al4  1  0.500032  0.500032  0.500032  1
  Al  Al5  1  0.000007  0.000007  0.000007  1
  Al  Al6  1  0.249811  0.249811  0.750058  1
  Al  Al7  1  0.750065  0.750065  0.250170  1
  Al  Al8  1  0.249811  0.750058  0.249811  1
  Al  Al9  1  0.750065  0.250170  0.750065  1
  Al  Al10  1  0.750058  0.249811  0.249811  1
  Al  Al11  1  0.250170  0.750065  0.750065  1
