# generated using pymatgen
data_YEr10TmIn20
_symmetry_space_group_name_H-M   'P 1'
_cell_length_a   6.47298961
_cell_length_b   10.38427285
_cell_length_c   12.20757015
_cell_angle_alpha   89.92548393
_cell_angle_beta   89.97743644
_cell_angle_gamma   90.01519552
_symmetry_Int_Tables_number   1
_chemical_formula_structural   YEr10TmIn20
_chemical_formula_sum   'Y1 Er10 Tm1 In20'
_cell_volume   820.55899955
_cell_formula_units_Z   1
loop_
 _symmetry_equiv_pos_site_id
 _symmetry_equiv_pos_as_xyz
  1  'x, y, z'
loop_
 _atom_site_type_symbol
 _atom_site_label
 _atom_site_symmetry_multiplicity
 _atom_site_fract_x
 _atom_site_fract_y
 _atom_site_fract_z
 _atom_site_occupancy
  Y  Y0  1  0.609097  0.493694  0.642010  1
  Er  Er1  1  0.150400  0.749857  0.555184  1
  Er  Er2  1  0.650852  0.250268  0.944880  1
  Er  Er3  1  0.849174  0.249708  0.444667  1
  Er  Er4  1  0.891546  0.493348  0.141459  1
  Er  Er5  1  0.608402  0.006281  0.641269  1
  Er  Er6  1  0.108833  0.993208  0.858929  1
  Er  Er7  1  0.391118  0.506546  0.357969  1
  Er  Er8  1  0.108827  0.506802  0.858813  1
  Er  Er9  1  0.391401  0.993567  0.358579  1
  Er  Er10  1  0.891450  0.006759  0.141320  1
  Tm  Tm11  1  0.348505  0.750001  0.054937  1
  In  In12  1  0.615583  0.750791  0.504658  1
  In  In13  1  0.884709  0.750165  0.006066  1
  In  In14  1  0.383794  0.249855  0.494196  1
  In  In15  1  0.115849  0.249984  0.994176  1
  In  In16  1  0.649952  0.750028  0.244691  1
  In  In17  1  0.850255  0.750612  0.745796  1
  In  In18  1  0.349144  0.249437  0.755127  1
  In  In19  1  0.150679  0.249827  0.254794  1
  In  In20  1  0.128581  0.750137  0.284355  1
  In  In21  1  0.371438  0.750134  0.784712  1
  In  In22  1  0.872572  0.249013  0.715757  1
  In  In23  1  0.628449  0.249939  0.215436  1
  In  In24  1  0.875377  0.543470  0.400395  1
  In  In25  1  0.624499  0.956572  0.900754  1
  In  In26  1  0.124481  0.043346  0.599269  1
  In  In27  1  0.375359  0.456692  0.099313  1
  In  In28  1  0.124145  0.456268  0.598957  1
  In  In29  1  0.375365  0.043217  0.099324  1
  In  In30  1  0.875653  0.956601  0.400495  1
  In  In31  1  0.624511  0.543877  0.901711  1
