# generated using pymatgen
data_Pr12IrOs3
_symmetry_space_group_name_H-M   'P 1'
_cell_length_a   6.60541106
_cell_length_b   7.53486807
_cell_length_c   9.83555400
_cell_angle_alpha   90.00000000
_cell_angle_beta   90.00000000
_cell_angle_gamma   90.01537735
_symmetry_Int_Tables_number   1
_chemical_formula_structural   Pr12IrOs3
_chemical_formula_sum   'Pr12 Ir1 Os3'
_cell_volume   489.52436548
_cell_formula_units_Z   1
loop_
 _symmetry_equiv_pos_site_id
 _symmetry_equiv_pos_as_xyz
  1  'x, y, z'
loop_
 _atom_site_type_symbol
 _atom_site_label
 _atom_site_symmetry_multiplicity
 _atom_site_fract_x
 _atom_site_fract_y
 _atom_site_fract_z
 _atom_site_occupancy
  Pr  Pr0  1  0.329787  0.674090  0.066694  1
  Pr  Pr1  1  0.172248  0.176734  0.433681  1
  Pr  Pr2  1  0.672554  0.324312  0.567802  1
  Pr  Pr3  1  0.826158  0.824748  0.931067  1
  Pr  Pr4  1  0.672554  0.324312  0.932198  1
  Pr  Pr5  1  0.826158  0.824748  0.568933  1
  Pr  Pr6  1  0.329787  0.674090  0.433306  1
  Pr  Pr7  1  0.172248  0.176734  0.066319  1
  Pr  Pr8  1  0.856799  0.538800  0.250000  1
  Pr  Pr9  1  0.641984  0.041952  0.250000  1
  Pr  Pr10  1  0.142600  0.460808  0.750000  1
  Pr  Pr11  1  0.355952  0.959957  0.750000  1
  Ir  Ir12  1  0.053753  0.884642  0.250000  1
  Os  Os13  1  0.446358  0.384886  0.250000  1
  Os  Os14  1  0.949119  0.114099  0.750000  1
  Os  Os15  1  0.551941  0.615090  0.750000  1
