# generated using pymatgen
data_NpPaReB6
_symmetry_space_group_name_H-M   'P 1'
_cell_length_a   3.66928300
_cell_length_b   9.28700000
_cell_length_c   11.35494900
_cell_angle_alpha   90.00000000
_cell_angle_beta   90.00000000
_cell_angle_gamma   90.00000000
_symmetry_Int_Tables_number   1
_chemical_formula_structural   NpPaReB6
_chemical_formula_sum   'Np4 Pa4 Re4 B24'
_cell_volume   386.93840961
_cell_formula_units_Z   4
loop_
 _symmetry_equiv_pos_site_id
 _symmetry_equiv_pos_as_xyz
  1  'x, y, z'
loop_
 _atom_site_type_symbol
 _atom_site_label
 _atom_site_symmetry_multiplicity
 _atom_site_fract_x
 _atom_site_fract_y
 _atom_site_fract_z
 _atom_site_occupancy
  Np  Np0  1  0.000000  0.958527  0.400594  1
  Np  Np1  1  0.000000  0.041473  0.599406  1
  Np  Np2  1  0.000000  0.458527  0.099406  1
  Np  Np3  1  0.000000  0.541473  0.900594  1
  Pa  Pa4  1  0.000000  0.335020  0.407181  1
  Pa  Pa5  1  0.000000  0.664980  0.592819  1
  Pa  Pa6  1  0.000000  0.835020  0.092819  1
  Pa  Pa7  1  0.000000  0.164980  0.907181  1
  Re  Re8  1  0.000000  0.646155  0.319121  1
  Re  Re9  1  0.000000  0.353845  0.680879  1
  Re  Re10  1  0.000000  0.146155  0.180879  1
  Re  Re11  1  0.000000  0.853845  0.819121  1
  B  B12  1  0.500000  0.551522  0.431866  1
  B  B13  1  0.500000  0.448478  0.568134  1
  B  B14  1  0.500000  0.051522  0.068134  1
  B  B15  1  0.500000  0.948478  0.931866  1
  B  B16  1  0.500000  0.744282  0.423287  1
  B  B17  1  0.500000  0.255718  0.576713  1
  B  B18  1  0.500000  0.244282  0.076713  1
  B  B19  1  0.500000  0.755718  0.923287  1
  B  B20  1  0.500000  0.804781  0.274076  1
  B  B21  1  0.500000  0.195219  0.725924  1
  B  B22  1  0.500000  0.304781  0.225924  1
  B  B23  1  0.500000  0.695219  0.774076  1
  B  B24  1  0.500000  0.644494  0.188131  1
  B  B25  1  0.500000  0.355506  0.811869  1
  B  B26  1  0.500000  0.144494  0.311869  1
  B  B27  1  0.500000  0.855506  0.688131  1
  B  B28  1  0.500000  0.986936  0.220438  1
  B  B29  1  0.500000  0.013064  0.779562  1
  B  B30  1  0.500000  0.486936  0.279562  1
  B  B31  1  0.500000  0.513064  0.720438  1
  B  B32  1  0.500000  0.640862  0.039043  1
  B  B33  1  0.500000  0.359138  0.960957  1
  B  B34  1  0.500000  0.140862  0.460957  1
  B  B35  1  0.500000  0.859138  0.539043  1
