# generated using pymatgen
data_La4Y3Ho3Ir4
_symmetry_space_group_name_H-M   'P 1'
_cell_length_a   6.57934973
_cell_length_b   7.23784968
_cell_length_c   8.86741294
_cell_angle_alpha   96.89463157
_cell_angle_beta   111.76476284
_cell_angle_gamma   90.14516420
_symmetry_Int_Tables_number   1
_chemical_formula_structural   La4Y3Ho3Ir4
_chemical_formula_sum   'La4 Y3 Ho3 Ir4'
_cell_volume   388.82430510
_cell_formula_units_Z   1
loop_
 _symmetry_equiv_pos_site_id
 _symmetry_equiv_pos_as_xyz
  1  'x, y, z'
loop_
 _atom_site_type_symbol
 _atom_site_label
 _atom_site_symmetry_multiplicity
 _atom_site_fract_x
 _atom_site_fract_y
 _atom_site_fract_z
 _atom_site_occupancy
  La  La0  1  0.976098  0.917829  0.193754  1
  La  La1  1  0.781850  0.582118  0.805925  1
  La  La2  1  0.023721  0.082422  0.806024  1
  La  La3  1  0.218214  0.417880  0.193912  1
  Y  Y4  1  0.641109  0.816215  0.433083  1
  Y  Y5  1  0.207639  0.682995  0.565881  1
  Y  Y6  1  0.359095  0.183938  0.566815  1
  Ho  Ho7  1  0.791660  0.317224  0.433311  1
  Ho  Ho8  1  0.430236  0.750491  0.000138  1
  Ho  Ho9  1  0.569766  0.249470  0.000015  1
  Ir  Ir10  1  0.815562  0.575251  0.225525  1
  Ir  Ir11  1  0.591183  0.923849  0.776001  1
  Ir  Ir12  1  0.183491  0.423283  0.774735  1
  Ir  Ir13  1  0.410376  0.077036  0.224881  1
