# generated using pymatgen
data_YbLu15(HfIr3)4
_symmetry_space_group_name_H-M   'P 1'
_cell_length_a   6.07870326
_cell_length_b   10.67669603
_cell_length_c   10.69497000
_cell_angle_alpha   89.91830139
_cell_angle_beta   90.01662686
_cell_angle_gamma   89.53333204
_symmetry_Int_Tables_number   1
_chemical_formula_structural   YbLu15(HfIr3)4
_chemical_formula_sum   'Yb1 Lu15 Hf4 Ir12'
_cell_volume   694.08478631
_cell_formula_units_Z   1
loop_
 _symmetry_equiv_pos_site_id
 _symmetry_equiv_pos_as_xyz
  1  'x, y, z'
loop_
 _atom_site_type_symbol
 _atom_site_label
 _atom_site_symmetry_multiplicity
 _atom_site_fract_x
 _atom_site_fract_y
 _atom_site_fract_z
 _atom_site_occupancy
  Yb  Yb0  1  0.137198  0.036684  0.336354  1
  Lu  Lu1  1  0.366847  0.835472  0.540459  1
  Lu  Lu2  1  0.866314  0.665416  0.538783  1
  Lu  Lu3  1  0.866532  0.834136  0.959474  1
  Lu  Lu4  1  0.369088  0.663331  0.959898  1
  Lu  Lu5  1  0.868792  0.539760  0.834342  1
  Lu  Lu6  1  0.367495  0.960202  0.835709  1
  Lu  Lu7  1  0.368051  0.539162  0.663792  1
  Lu  Lu8  1  0.863893  0.960881  0.666148  1
  Lu  Lu9  1  0.631262  0.166115  0.459649  1
  Lu  Lu10  1  0.131805  0.333502  0.460563  1
  Lu  Lu11  1  0.133093  0.164717  0.041404  1
  Lu  Lu12  1  0.632875  0.336561  0.040664  1
  Lu  Lu13  1  0.131033  0.460861  0.165674  1
  Lu  Lu14  1  0.631035  0.040700  0.163785  1
  Lu  Lu15  1  0.630837  0.460136  0.334545  1
  Hf  Hf16  1  0.500767  0.750123  0.250161  1
  Hf  Hf17  1  0.000116  0.751849  0.249159  1
  Hf  Hf18  1  0.001468  0.249779  0.751365  1
  Hf  Hf19  1  0.502293  0.249348  0.750749  1
  Ir  Ir20  1  0.254742  0.892992  0.097068  1
  Ir  Ir21  1  0.752455  0.604274  0.103727  1
  Ir  Ir22  1  0.741594  0.896838  0.396975  1
  Ir  Ir23  1  0.249605  0.605077  0.397161  1
  Ir  Ir24  1  0.752776  0.102155  0.897936  1
  Ir  Ir25  1  0.250295  0.395800  0.897209  1
  Ir  Ir26  1  0.253633  0.103330  0.607985  1
  Ir  Ir27  1  0.750540  0.395470  0.602933  1
  Ir  Ir28  1  0.114967  0.749812  0.749151  1
  Ir  Ir29  1  0.614128  0.749606  0.749023  1
  Ir  Ir30  1  0.881724  0.253083  0.249056  1
  Ir  Ir31  1  0.382747  0.252831  0.249101  1
