# generated using pymatgen
data_Al10GaTc4
_symmetry_space_group_name_H-M   'P 1'
_cell_length_a   5.19215535
_cell_length_b   5.17440303
_cell_length_c   8.99900989
_cell_angle_alpha   105.15866552
_cell_angle_beta   90.63870101
_cell_angle_gamma   99.55389925
_symmetry_Int_Tables_number   1
_chemical_formula_structural   Al10GaTc4
_chemical_formula_sum   'Al10 Ga1 Tc4'
_cell_volume   229.74292715
_cell_formula_units_Z   1
loop_
 _symmetry_equiv_pos_site_id
 _symmetry_equiv_pos_as_xyz
  1  'x, y, z'
loop_
 _atom_site_type_symbol
 _atom_site_label
 _atom_site_symmetry_multiplicity
 _atom_site_fract_x
 _atom_site_fract_y
 _atom_site_fract_z
 _atom_site_occupancy
  Al  Al0  1  0.798409  0.257316  0.636219  1
  Al  Al1  1  0.201591  0.742684  0.363781  1
  Al  Al2  1  0.149234  0.465019  0.871961  1
  Al  Al3  1  0.850766  0.534981  0.128039  1
  Al  Al4  1  0.497058  0.099276  0.872388  1
  Al  Al5  1  0.502942  0.900724  0.127612  1
  Al  Al6  1  0.564887  0.320417  0.377084  1
  Al  Al7  1  0.435113  0.679583  0.622916  1
  Al  Al8  1  0.944169  0.797824  0.665437  1
  Al  Al9  1  0.055831  0.202176  0.334563  1
  Ga  Ga10  1  0.000000  0.000000  0.000000  1
  Tc  Tc11  1  0.279150  0.154081  0.603178  1
  Tc  Tc12  1  0.720850  0.845919  0.396822  1
  Tc  Tc13  1  0.662211  0.610075  0.867270  1
  Tc  Tc14  1  0.337789  0.389925  0.132730  1
