# generated using pymatgen
data_PrMnAl10Rh
_symmetry_space_group_name_H-M   'P 1'
_cell_length_a   6.87419095
_cell_length_b   6.87419060
_cell_length_c   9.17839028
_cell_angle_alpha   90.34201654
_cell_angle_beta   90.34202103
_cell_angle_gamma   96.82876746
_symmetry_Int_Tables_number   1
_chemical_formula_structural   PrMnAl10Rh
_chemical_formula_sum   'Pr2 Mn2 Al20 Rh2'
_cell_volume   430.62597627
_cell_formula_units_Z   2
loop_
 _symmetry_equiv_pos_site_id
 _symmetry_equiv_pos_as_xyz
  1  'x, y, z'
loop_
 _atom_site_type_symbol
 _atom_site_label
 _atom_site_symmetry_multiplicity
 _atom_site_fract_x
 _atom_site_fract_y
 _atom_site_fract_z
 _atom_site_occupancy
  Pr  Pr0  1  0.876363  0.123637  0.750000  1
  Pr  Pr1  1  0.123637  0.876363  0.250000  1
  Mn  Mn2  1  0.000000  0.500000  0.000000  1
  Mn  Mn3  1  0.500000  0.000000  0.500000  1
  Al  Al4  1  0.618967  0.373368  0.548688  1
  Al  Al5  1  0.381033  0.626632  0.451312  1
  Al  Al6  1  0.373368  0.618967  0.048688  1
  Al  Al7  1  0.626632  0.381033  0.951312  1
  Al  Al8  1  0.231397  0.224397  0.496956  1
  Al  Al9  1  0.768603  0.775603  0.503044  1
  Al  Al10  1  0.775603  0.768603  0.003044  1
  Al  Al11  1  0.224397  0.231397  0.996956  1
  Al  Al12  1  0.844437  0.165236  0.100317  1
  Al  Al13  1  0.155563  0.834764  0.899683  1
  Al  Al14  1  0.165236  0.844437  0.600317  1
  Al  Al15  1  0.834764  0.155563  0.399683  1
  Al  Al16  1  0.862981  0.589617  0.753469  1
  Al  Al17  1  0.137019  0.410383  0.246531  1
  Al  Al18  1  0.410383  0.137019  0.746531  1
  Al  Al19  1  0.589617  0.862981  0.253469  1
  Al  Al20  1  0.222336  0.480692  0.755710  1
  Al  Al21  1  0.777664  0.519308  0.244290  1
  Al  Al22  1  0.519308  0.777664  0.744290  1
  Al  Al23  1  0.480692  0.222336  0.255710  1
  Rh  Rh24  1  0.000000  0.500000  0.500000  1
  Rh  Rh25  1  0.500000  0.000000  0.000000  1
