# generated using pymatgen
data_Ac5Yb(InSn4)2
_symmetry_space_group_name_H-M   'P 1'
_cell_length_a   6.87463358
_cell_length_b   6.87463330
_cell_length_c   10.85894021
_cell_angle_alpha   90.03383611
_cell_angle_beta   90.03383869
_cell_angle_gamma   102.21166465
_symmetry_Int_Tables_number   1
_chemical_formula_structural   Ac5Yb(InSn4)2
_chemical_formula_sum   'Ac5 Yb1 In2 Sn8'
_cell_volume   501.58739475
_cell_formula_units_Z   1
loop_
 _symmetry_equiv_pos_site_id
 _symmetry_equiv_pos_as_xyz
  1  'x, y, z'
loop_
 _atom_site_type_symbol
 _atom_site_label
 _atom_site_symmetry_multiplicity
 _atom_site_fract_x
 _atom_site_fract_y
 _atom_site_fract_z
 _atom_site_occupancy
  Ac  Ac0  1  0.137440  0.137440  0.253812  1
  Ac  Ac1  1  0.292870  0.701827  0.500871  1
  Ac  Ac2  1  0.293791  0.703464  0.999758  1
  Ac  Ac3  1  0.701827  0.292870  0.500871  1
  Ac  Ac4  1  0.703464  0.293791  0.999758  1
  Yb  Yb5  1  0.865323  0.865323  0.746498  1
  In  In6  1  0.810527  0.810527  0.036993  1
  In  In7  1  0.184019  0.184019  0.947805  1
  Sn  Sn8  1  0.985280  0.586460  0.247733  1
  Sn  Sn9  1  0.428677  0.010433  0.751469  1
  Sn  Sn10  1  0.010433  0.428677  0.751469  1
  Sn  Sn11  1  0.586460  0.985280  0.247733  1
  Sn  Sn12  1  0.808937  0.808937  0.457343  1
  Sn  Sn13  1  0.184802  0.184802  0.557126  1
  Sn  Sn14  1  0.530752  0.530752  0.249869  1
  Sn  Sn15  1  0.475398  0.475398  0.750894  1
