# generated using pymatgen
data_Dy3Tm4LuAu4
_symmetry_space_group_name_H-M   'P 1'
_cell_length_a   4.87680600
_cell_length_b   7.13523978
_cell_length_c   8.86209509
_cell_angle_alpha   89.63565713
_cell_angle_beta   90.00000000
_cell_angle_gamma   90.00000000
_symmetry_Int_Tables_number   1
_chemical_formula_structural   Dy3Tm4LuAu4
_chemical_formula_sum   'Dy3 Tm4 Lu1 Au4'
_cell_volume   308.36968493
_cell_formula_units_Z   1
loop_
 _symmetry_equiv_pos_site_id
 _symmetry_equiv_pos_as_xyz
  1  'x, y, z'
loop_
 _atom_site_type_symbol
 _atom_site_label
 _atom_site_symmetry_multiplicity
 _atom_site_fract_x
 _atom_site_fract_y
 _atom_site_fract_z
 _atom_site_occupancy
  Dy  Dy0  1  0.250000  0.983923  0.323037  1
  Dy  Dy1  1  0.750000  0.515988  0.822904  1
  Dy  Dy2  1  0.750000  0.015150  0.676558  1
  Tm  Tm3  1  0.250000  0.852082  0.923329  1
  Tm  Tm4  1  0.250000  0.352061  0.576953  1
  Tm  Tm5  1  0.750000  0.148652  0.078398  1
  Tm  Tm6  1  0.250000  0.483688  0.176343  1
  Lu  Lu7  1  0.750000  0.647938  0.420406  1
  Au  Au8  1  0.250000  0.253786  0.900003  1
  Au  Au9  1  0.250000  0.751912  0.602756  1
  Au  Au10  1  0.750000  0.746043  0.102192  1
  Au  Au11  1  0.750000  0.248777  0.397124  1
