# generated using pymatgen
data_Nd3CdHgPd3Au
_symmetry_space_group_name_H-M   'P 1'
_cell_length_a   7.81959171
_cell_length_b   7.71711728
_cell_length_c   3.99407400
_cell_angle_alpha   90.00000000
_cell_angle_beta   90.00000000
_cell_angle_gamma   120.53594819
_symmetry_Int_Tables_number   1
_chemical_formula_structural   Nd3CdHgPd3Au
_chemical_formula_sum   'Nd3 Cd1 Hg1 Pd3 Au1'
_cell_volume   207.59412254
_cell_formula_units_Z   1
loop_
 _symmetry_equiv_pos_site_id
 _symmetry_equiv_pos_as_xyz
  1  'x, y, z'
loop_
 _atom_site_type_symbol
 _atom_site_label
 _atom_site_symmetry_multiplicity
 _atom_site_fract_x
 _atom_site_fract_y
 _atom_site_fract_z
 _atom_site_occupancy
  Nd  Nd0  1  0.589848  0.003582  0.000000  1
  Nd  Nd1  1  0.012559  0.611562  0.000000  1
  Nd  Nd2  1  0.391192  0.382006  0.000000  1
  Cd  Cd3  1  0.742187  0.743720  0.500000  1
  Hg  Hg4  1  0.996596  0.259478  0.500000  1
  Pd  Pd5  1  0.340668  0.664780  0.500000  1
  Pd  Pd6  1  0.671045  0.341826  0.500000  1
  Pd  Pd7  1  0.993440  0.995776  0.000000  1
  Au  Au8  1  0.262465  0.997270  0.500000  1
