# generated using pymatgen
data_Nd10Ag2(BiPb)3
_symmetry_space_group_name_H-M   'P 1'
_cell_length_a   9.71929500
_cell_length_b   9.71929529
_cell_length_c   6.66141900
_cell_angle_alpha   90.00000000
_cell_angle_beta   90.00000000
_cell_angle_gamma   119.99928228
_symmetry_Int_Tables_number   1
_chemical_formula_structural   Nd10Ag2(BiPb)3
_chemical_formula_sum   'Nd10 Ag2 Bi3 Pb3'
_cell_volume   544.96682451
_cell_formula_units_Z   1
loop_
 _symmetry_equiv_pos_site_id
 _symmetry_equiv_pos_as_xyz
  1  'x, y, z'
loop_
 _atom_site_type_symbol
 _atom_site_label
 _atom_site_symmetry_multiplicity
 _atom_site_fract_x
 _atom_site_fract_y
 _atom_site_fract_z
 _atom_site_occupancy
  Nd  Nd0  1  0.666665  0.333337  0.999819  1
  Nd  Nd1  1  0.333335  0.666663  0.999819  1
  Nd  Nd2  1  0.333335  0.666663  0.500181  1
  Nd  Nd3  1  0.666665  0.333337  0.500181  1
  Nd  Nd4  1  0.727097  0.727098  0.750000  1
  Nd  Nd5  1  0.272896  0.999996  0.750000  1
  Nd  Nd6  1  0.999998  0.272895  0.750000  1
  Nd  Nd7  1  0.274896  0.274896  0.250000  1
  Nd  Nd8  1  0.725112  0.000001  0.250000  1
  Nd  Nd9  1  0.999999  0.725111  0.250000  1
  Ag  Ag10  1  0.999999  0.999999  0.004648  1
  Ag  Ag11  1  0.999999  0.999999  0.495352  1
  Bi  Bi12  1  0.378606  0.378608  0.750000  1
  Bi  Bi13  1  0.621385  0.000002  0.750000  1
  Bi  Bi14  1  0.000001  0.621382  0.750000  1
  Pb  Pb15  1  0.624155  0.624155  0.250000  1
  Pb  Pb16  1  0.375856  0.999997  0.250000  1
  Pb  Pb17  1  0.999999  0.375860  0.250000  1
