# generated using pymatgen
data_Tm(GaCu)6
_symmetry_space_group_name_H-M   'P 1'
_cell_length_a   5.23130501
_cell_length_b   6.58737311
_cell_length_c   6.58737286
_cell_angle_alpha   100.11670278
_cell_angle_beta   113.39517827
_cell_angle_gamma   66.60482047
_symmetry_Int_Tables_number   1
_chemical_formula_structural   Tm(GaCu)6
_chemical_formula_sum   'Tm1 Ga6 Cu6'
_cell_volume   191.17023905
_cell_formula_units_Z   1
loop_
 _symmetry_equiv_pos_site_id
 _symmetry_equiv_pos_as_xyz
  1  'x, y, z'
loop_
 _atom_site_type_symbol
 _atom_site_label
 _atom_site_symmetry_multiplicity
 _atom_site_fract_x
 _atom_site_fract_y
 _atom_site_fract_z
 _atom_site_occupancy
  Tm  Tm0  1  0.000000  0.000000  0.000000  1
  Ga  Ga1  1  0.687811  0.812189  0.187811  1
  Ga  Ga2  1  0.000000  0.347449  0.347449  1
  Ga  Ga3  1  0.346803  0.653197  0.346803  1
  Ga  Ga4  1  0.653197  0.346803  0.653197  1
  Ga  Ga5  1  0.000000  0.652552  0.652552  1
  Ga  Ga6  1  0.312189  0.187811  0.812189  1
  Cu  Cu7  1  0.000001  0.500000  0.000001  1
  Cu  Cu8  1  0.500001  0.500000  0.000001  1
  Cu  Cu9  1  0.500000  0.235636  0.235636  1
  Cu  Cu10  1  0.999998  0.000001  0.500000  1
  Cu  Cu11  1  0.500000  0.000001  0.500000  1
  Cu  Cu12  1  0.500000  0.764365  0.764365  1
