# generated using pymatgen
data_Er3Mg2ZnSn2Pd
_symmetry_space_group_name_H-M   'P 1'
_cell_length_a   7.29262983
_cell_length_b   7.29262935
_cell_length_c   4.48766600
_cell_angle_alpha   90.00000000
_cell_angle_beta   90.00000000
_cell_angle_gamma   120.41932696
_symmetry_Int_Tables_number   1
_chemical_formula_structural   Er3Mg2ZnSn2Pd
_chemical_formula_sum   'Er3 Mg2 Zn1 Sn2 Pd1'
_cell_volume   205.81112261
_cell_formula_units_Z   1
loop_
 _symmetry_equiv_pos_site_id
 _symmetry_equiv_pos_as_xyz
  1  'x, y, z'
loop_
 _atom_site_type_symbol
 _atom_site_label
 _atom_site_symmetry_multiplicity
 _atom_site_fract_x
 _atom_site_fract_y
 _atom_site_fract_z
 _atom_site_occupancy
  Er  Er0  1  0.411855  0.411855  0.500000  1
  Er  Er1  1  0.597927  0.999486  0.500000  1
  Er  Er2  1  0.999486  0.597927  0.500000  1
  Mg  Mg3  1  0.224854  0.995833  0.000000  1
  Mg  Mg4  1  0.995833  0.224854  0.000000  1
  Zn  Zn5  1  0.768735  0.768735  0.000000  1
  Sn  Sn6  1  0.667839  0.338609  0.000000  1
  Sn  Sn7  1  0.338609  0.667839  0.000000  1
  Pd  Pd8  1  0.994863  0.994863  0.500000  1
