# generated using pymatgen
data_Na3Nd4Tl(GaSe2)16
_symmetry_space_group_name_H-M   'P 1'
_cell_length_a   12.55955042
_cell_length_b   12.55968337
_cell_length_c   12.54950778
_cell_angle_alpha   105.34451622
_cell_angle_beta   105.34386875
_cell_angle_gamma   118.17610250
_symmetry_Int_Tables_number   1
_chemical_formula_structural   Na3Nd4Tl(GaSe2)16
_chemical_formula_sum   'Na3 Nd4 Tl1 Ga16 Se32'
_cell_volume   1495.71538751
_cell_formula_units_Z   1
loop_
 _symmetry_equiv_pos_site_id
 _symmetry_equiv_pos_as_xyz
  1  'x, y, z'
loop_
 _atom_site_type_symbol
 _atom_site_label
 _atom_site_symmetry_multiplicity
 _atom_site_fract_x
 _atom_site_fract_y
 _atom_site_fract_z
 _atom_site_occupancy
  Na  Na0  1  0.128412  0.871587  0.250000  1
  Na  Na1  1  0.871547  0.128453  0.750000  1
  Na  Na2  1  0.378381  0.621621  0.750001  1
  Nd  Nd3  1  0.876572  0.123434  0.250000  1
  Nd  Nd4  1  0.373814  0.626187  0.250000  1
  Nd  Nd5  1  0.624951  0.375051  0.749999  1
  Nd  Nd6  1  0.125253  0.874751  0.750000  1
  Tl  Tl7  1  0.621298  0.378702  0.250000  1
  Ga  Ga8  1  0.129312  0.135854  0.019773  1
  Ga  Ga9  1  0.389497  0.883222  0.021474  1
  Ga  Ga10  1  0.973149  0.469208  0.109070  1
  Ga  Ga11  1  0.638256  0.642269  0.108731  1
  Ga  Ga12  1  0.530794  0.026854  0.390930  1
  Ga  Ga13  1  0.357725  0.361738  0.391270  1
  Ga  Ga14  1  0.116778  0.610501  0.478526  1
  Ga  Ga15  1  0.864146  0.870684  0.480226  1
  Ga  Ga16  1  0.137941  0.132247  0.521910  1
  Ga  Ga17  1  0.885213  0.388725  0.522483  1
  Ga  Ga18  1  0.640720  0.639600  0.610887  1
  Ga  Ga19  1  0.468836  0.971181  0.610066  1
  Ga  Ga20  1  0.360398  0.359279  0.889109  1
  Ga  Ga21  1  0.028818  0.531164  0.889935  1
  Ga  Ga22  1  0.611276  0.114793  0.977518  1
  Ga  Ga23  1  0.867753  0.862062  0.978088  1
  Se  Se24  1  0.095242  0.421966  0.003843  1
  Se  Se25  1  0.410413  0.583933  0.004519  1
  Se  Se26  1  0.907738  0.080111  0.003628  1
  Se  Se27  1  0.595175  0.922107  0.005898  1
  Se  Se28  1  0.821529  0.312864  0.164431  1
  Se  Se29  1  0.851288  0.850284  0.166615  1
  Se  Se30  1  0.332291  0.350043  0.186754  1
  Se  Se31  1  0.344311  0.838073  0.186553  1
  Se  Se32  1  0.649963  0.667714  0.313248  1
  Se  Se33  1  0.161928  0.655695  0.313447  1
  Se  Se34  1  0.149733  0.148709  0.333387  1
  Se  Se35  1  0.687127  0.178474  0.335565  1
  Se  Se36  1  0.919892  0.092262  0.496372  1
  Se  Se37  1  0.077883  0.404815  0.494092  1
  Se  Se38  1  0.416066  0.589588  0.495482  1
  Se  Se39  1  0.578033  0.904758  0.496157  1
  Se  Se40  1  0.421120  0.093414  0.504704  1
  Se  Se41  1  0.582016  0.411127  0.508318  1
  Se  Se42  1  0.925946  0.596348  0.509293  1
  Se  Se43  1  0.082518  0.910309  0.505696  1
  Se  Se44  1  0.316447  0.816554  0.666635  1
  Se  Se45  1  0.850461  0.850250  0.666906  1
  Se  Se46  1  0.837624  0.344956  0.686976  1
  Se  Se47  1  0.348932  0.341550  0.686191  1
  Se  Se48  1  0.655046  0.162378  0.813026  1
  Se  Se49  1  0.658446  0.651067  0.813813  1
  Se  Se50  1  0.149747  0.149537  0.833097  1
  Se  Se51  1  0.183442  0.683548  0.833362  1
  Se  Se52  1  0.403649  0.074051  0.990708  1
  Se  Se53  1  0.089694  0.917485  0.994307  1
  Se  Se54  1  0.588874  0.417985  0.991684  1
  Se  Se55  1  0.906584  0.578874  0.995297  1
