# generated using pymatgen
data_InHg(BiO3)4
_symmetry_space_group_name_H-M   'P 1'
_cell_length_a   5.06000083
_cell_length_b   5.06000036
_cell_length_c   10.41893200
_cell_angle_alpha   90.00000000
_cell_angle_beta   90.00000000
_cell_angle_gamma   89.54775715
_symmetry_Int_Tables_number   1
_chemical_formula_structural   InHg(BiO3)4
_chemical_formula_sum   'In1 Hg1 Bi4 O12'
_cell_volume   266.75392053
_cell_formula_units_Z   1
loop_
 _symmetry_equiv_pos_site_id
 _symmetry_equiv_pos_as_xyz
  1  'x, y, z'
loop_
 _atom_site_type_symbol
 _atom_site_label
 _atom_site_symmetry_multiplicity
 _atom_site_fract_x
 _atom_site_fract_y
 _atom_site_fract_z
 _atom_site_occupancy
  In  In0  1  0.000000  0.000000  0.000000  1
  Hg  Hg1  1  0.500000  0.500000  0.500000  1
  Bi  Bi2  1  0.000000  0.000000  0.329901  1
  Bi  Bi3  1  0.000000  0.000000  0.670099  1
  Bi  Bi4  1  0.500000  0.500000  0.164017  1
  Bi  Bi5  1  0.500000  0.500000  0.835983  1
  O  O6  1  0.193822  0.806178  0.836154  1
  O  O7  1  0.193822  0.806178  0.163846  1
  O  O8  1  0.187450  0.812550  0.500000  1
  O  O9  1  0.308409  0.308409  0.000000  1
  O  O10  1  0.301798  0.301798  0.320539  1
  O  O11  1  0.301798  0.301798  0.679461  1
  O  O12  1  0.698202  0.698202  0.320539  1
  O  O13  1  0.698202  0.698202  0.679461  1
  O  O14  1  0.691591  0.691591  0.000000  1
  O  O15  1  0.812550  0.187450  0.500000  1
  O  O16  1  0.806178  0.193822  0.163846  1
  O  O17  1  0.806178  0.193822  0.836154  1
