# generated using pymatgen
data_CeHo9Ru4
_symmetry_space_group_name_H-M   'P 1'
_cell_length_a   6.34290053
_cell_length_b   7.20083019
_cell_length_c   8.54305236
_cell_angle_alpha   96.09261128
_cell_angle_beta   111.75832539
_cell_angle_gamma   91.38859104
_symmetry_Int_Tables_number   1
_chemical_formula_structural   CeHo9Ru4
_chemical_formula_sum   'Ce1 Ho9 Ru4'
_cell_volume   359.49549251
_cell_formula_units_Z   1
loop_
 _symmetry_equiv_pos_site_id
 _symmetry_equiv_pos_as_xyz
  1  'x, y, z'
loop_
 _atom_site_type_symbol
 _atom_site_label
 _atom_site_symmetry_multiplicity
 _atom_site_fract_x
 _atom_site_fract_y
 _atom_site_fract_z
 _atom_site_occupancy
  Ce  Ce0  1  0.993287  0.902808  0.190385  1
  Ho  Ho1  1  0.791348  0.582067  0.808106  1
  Ho  Ho2  1  0.020823  0.083437  0.814194  1
  Ho  Ho3  1  0.209486  0.416283  0.184622  1
  Ho  Ho4  1  0.639145  0.815698  0.436936  1
  Ho  Ho5  1  0.208652  0.684866  0.568978  1
  Ho  Ho6  1  0.355849  0.188130  0.568424  1
  Ho  Ho7  1  0.792248  0.313076  0.435405  1
  Ho  Ho8  1  0.425130  0.749047  0.996601  1
  Ho  Ho9  1  0.579842  0.249197  0.001776  1
  Ru  Ru10  1  0.836900  0.598621  0.219624  1
  Ru  Ru11  1  0.603142  0.926021  0.778550  1
  Ru  Ru12  1  0.175676  0.424130  0.778728  1
  Ru  Ru13  1  0.368473  0.066619  0.217670  1
