# generated using pymatgen
data_Cd(BrF4)2
_symmetry_space_group_name_H-M   'P 1'
_cell_length_a   6.03693000
_cell_length_b   6.03693000
_cell_length_c   10.48461900
_cell_angle_alpha   90.00000000
_cell_angle_beta   90.00000000
_cell_angle_gamma   90.00000000
_symmetry_Int_Tables_number   1
_chemical_formula_structural   Cd(BrF4)2
_chemical_formula_sum   'Cd2 Br4 F16'
_cell_volume   382.10694694
_cell_formula_units_Z   2
loop_
 _symmetry_equiv_pos_site_id
 _symmetry_equiv_pos_as_xyz
  1  'x, y, z'
loop_
 _atom_site_type_symbol
 _atom_site_label
 _atom_site_symmetry_multiplicity
 _atom_site_fract_x
 _atom_site_fract_y
 _atom_site_fract_z
 _atom_site_occupancy
  Cd  Cd0  1  0.000000  0.000000  0.250000  1
  Cd  Cd1  1  0.000000  0.000000  0.750001  1
  Br  Br2  1  0.499999  0.000000  0.000000  1
  Br  Br3  1  0.000000  0.499999  0.000000  1
  Br  Br4  1  0.499999  0.000000  0.500000  1
  Br  Br5  1  0.000000  0.499999  0.500000  1
  F  F6  1  0.691901  0.125380  0.129537  1
  F  F7  1  0.125380  0.308100  0.129537  1
  F  F8  1  0.874621  0.691901  0.129537  1
  F  F9  1  0.308100  0.874621  0.129537  1
  F  F10  1  0.308100  0.125380  0.370463  1
  F  F11  1  0.874621  0.308100  0.370463  1
  F  F12  1  0.125380  0.691901  0.370463  1
  F  F13  1  0.691901  0.874621  0.370463  1
  F  F14  1  0.308100  0.125380  0.629537  1
  F  F15  1  0.874621  0.308100  0.629537  1
  F  F16  1  0.125380  0.691901  0.629537  1
  F  F17  1  0.691901  0.874621  0.629537  1
  F  F18  1  0.691901  0.125380  0.870462  1
  F  F19  1  0.125380  0.308100  0.870462  1
  F  F20  1  0.874621  0.691901  0.870462  1
  F  F21  1  0.308100  0.874621  0.870462  1
