# generated using pymatgen
data_YEr3Sb10
_symmetry_space_group_name_H-M   'P 1'
_cell_length_a   4.20524300
_cell_length_b   13.18462816
_cell_length_c   14.62209832
_cell_angle_alpha   78.37275637
_cell_angle_beta   90.00000000
_cell_angle_gamma   90.00000000
_symmetry_Int_Tables_number   1
_chemical_formula_structural   YEr3Sb10
_chemical_formula_sum   'Y2 Er6 Sb20'
_cell_volume   794.07961265
_cell_formula_units_Z   2
loop_
 _symmetry_equiv_pos_site_id
 _symmetry_equiv_pos_as_xyz
  1  'x, y, z'
loop_
 _atom_site_type_symbol
 _atom_site_label
 _atom_site_symmetry_multiplicity
 _atom_site_fract_x
 _atom_site_fract_y
 _atom_site_fract_z
 _atom_site_occupancy
  Y  Y0  1  0.250000  0.953430  0.359114  1
  Y  Y1  1  0.750000  0.046570  0.640886  1
  Er  Er2  1  0.250000  0.395064  0.770510  1
  Er  Er3  1  0.750000  0.604936  0.229490  1
  Er  Er4  1  0.250000  0.661943  0.856003  1
  Er  Er5  1  0.750000  0.338057  0.143997  1
  Er  Er6  1  0.250000  0.668592  0.576267  1
  Er  Er7  1  0.750000  0.331408  0.423733  1
  Sb  Sb8  1  0.250000  0.144551  0.779198  1
  Sb  Sb9  1  0.750000  0.855449  0.220802  1
  Sb  Sb10  1  0.250000  0.144915  0.482190  1
  Sb  Sb11  1  0.750000  0.855085  0.517810  1
  Sb  Sb12  1  0.250000  0.153056  0.171014  1
  Sb  Sb13  1  0.750000  0.846944  0.828986  1
  Sb  Sb14  1  0.250000  0.420587  0.975424  1
  Sb  Sb15  1  0.750000  0.579413  0.024576  1
  Sb  Sb16  1  0.750000  0.029012  0.909411  1
  Sb  Sb17  1  0.250000  0.970988  0.090589  1
  Sb  Sb18  1  0.750000  0.140426  0.322066  1
  Sb  Sb19  1  0.250000  0.859574  0.677934  1
  Sb  Sb20  1  0.750000  0.279562  0.936920  1
  Sb  Sb21  1  0.250000  0.720438  0.063080  1
  Sb  Sb22  1  0.750000  0.285740  0.652990  1
  Sb  Sb23  1  0.250000  0.714260  0.347010  1
  Sb  Sb24  1  0.750000  0.576523  0.734313  1
  Sb  Sb25  1  0.250000  0.423477  0.265687  1
  Sb  Sb26  1  0.750000  0.572257  0.447318  1
  Sb  Sb27  1  0.250000  0.427743  0.552682  1
