# generated using pymatgen
data_SrSmSi3Pt
_symmetry_space_group_name_H-M   'P 1'
_cell_length_a   6.02500410
_cell_length_b   6.02500380
_cell_length_c   8.27930663
_cell_angle_alpha   110.19736814
_cell_angle_beta   110.19736652
_cell_angle_gamma   92.98411439
_symmetry_Int_Tables_number   1
_chemical_formula_structural   SrSmSi3Pt
_chemical_formula_sum   'Sr2 Sm2 Si6 Pt2'
_cell_volume   259.66700836
_cell_formula_units_Z   2
loop_
 _symmetry_equiv_pos_site_id
 _symmetry_equiv_pos_as_xyz
  1  'x, y, z'
loop_
 _atom_site_type_symbol
 _atom_site_label
 _atom_site_symmetry_multiplicity
 _atom_site_fract_x
 _atom_site_fract_y
 _atom_site_fract_z
 _atom_site_occupancy
  Sr  Sr0  1  0.750040  0.249959  0.500000  1
  Sr  Sr1  1  0.249959  0.750040  0.500000  1
  Sm  Sm2  1  0.753496  0.246503  0.000000  1
  Sm  Sm3  1  0.246503  0.753496  0.000000  1
  Si  Si4  1  0.329650  0.329650  0.164167  1
  Si  Si5  1  0.834630  0.834630  0.164099  1
  Si  Si6  1  0.165390  0.165390  0.330775  1
  Si  Si7  1  0.834609  0.834609  0.669226  1
  Si  Si8  1  0.165370  0.165370  0.835902  1
  Si  Si9  1  0.670349  0.670349  0.835833  1
  Pt  Pt10  1  0.663312  0.663312  0.326473  1
  Pt  Pt11  1  0.336689  0.336689  0.673528  1
