# generated using pymatgen
data_Sc2P7Ru11Pt
_symmetry_space_group_name_H-M   'P 1'
_cell_length_a   9.29513999
_cell_length_b   9.41232614
_cell_length_c   3.91455900
_cell_angle_alpha   90.00000000
_cell_angle_beta   90.00000000
_cell_angle_gamma   119.20582803
_symmetry_Int_Tables_number   1
_chemical_formula_structural   Sc2P7Ru11Pt
_chemical_formula_sum   'Sc2 P7 Ru11 Pt1'
_cell_volume   298.94172117
_cell_formula_units_Z   1
loop_
 _symmetry_equiv_pos_site_id
 _symmetry_equiv_pos_as_xyz
  1  'x, y, z'
loop_
 _atom_site_type_symbol
 _atom_site_label
 _atom_site_symmetry_multiplicity
 _atom_site_fract_x
 _atom_site_fract_y
 _atom_site_fract_z
 _atom_site_occupancy
  Sc  Sc0  1  0.671642  0.338249  0.500000  1
  Sc  Sc1  1  0.326053  0.654665  0.000000  1
  P  P2  1  0.596130  0.705619  0.500000  1
  P  P3  1  0.997470  0.001404  0.000000  1
  P  P4  1  0.270929  0.875105  0.500000  1
  P  P5  1  0.121066  0.403908  0.500000  1
  P  P6  1  0.885662  0.578900  0.000000  1
  P  P7  1  0.429883  0.308783  0.000000  1
  P  P8  1  0.704861  0.129788  0.000000  1
  Ru  Ru9  1  0.390995  0.440883  0.500000  1
  Ru  Ru10  1  0.910600  0.128911  0.500000  1
  Ru  Ru11  1  0.212626  0.087321  0.500000  1
  Ru  Ru12  1  0.875496  0.793507  0.500000  1
  Ru  Ru13  1  0.722110  0.892671  0.000000  1
  Ru  Ru14  1  0.112232  0.839252  0.000000  1
  Ru  Ru15  1  0.164487  0.271324  0.000000  1
  Ru  Ru16  1  0.436150  0.070570  0.000000  1
  Ru  Ru17  1  0.937163  0.366998  0.000000  1
  Ru  Ru18  1  0.640454  0.572684  0.000000  1
  Ru  Ru19  1  0.053951  0.608693  0.500000  1
  Pt  Pt20  1  0.540041  0.930766  0.500000  1
