# generated using pymatgen
data_Ho3Tm9Co5Hg
_symmetry_space_group_name_H-M   'P 1'
_cell_length_a   8.16421928
_cell_length_b   8.16421887
_cell_length_c   8.16420452
_cell_angle_alpha   110.92227276
_cell_angle_beta   110.50220830
_cell_angle_gamma   107.01707283
_symmetry_Int_Tables_number   1
_chemical_formula_structural   Ho3Tm9Co5Hg
_chemical_formula_sum   'Ho3 Tm9 Co5 Hg1'
_cell_volume   418.33091964
_cell_formula_units_Z   1
loop_
 _symmetry_equiv_pos_site_id
 _symmetry_equiv_pos_as_xyz
  1  'x, y, z'
loop_
 _atom_site_type_symbol
 _atom_site_label
 _atom_site_symmetry_multiplicity
 _atom_site_fract_x
 _atom_site_fract_y
 _atom_site_fract_z
 _atom_site_occupancy
  Ho  Ho0  1  0.287276  0.185150  0.472426  1
  Ho  Ho1  1  0.713129  0.815400  0.528529  1
  Ho  Ho2  1  0.286770  0.814848  0.101616  1
  Tm  Tm3  1  0.713519  0.184675  0.898195  1
  Tm  Tm4  1  0.619879  0.315039  0.304120  1
  Tm  Tm5  1  0.380359  0.685285  0.695539  1
  Tm  Tm6  1  0.010254  0.315178  0.695539  1
  Tm  Tm7  1  0.989081  0.684242  0.304120  1
  Tm  Tm8  1  0.213956  0.406562  0.191957  1
  Tm  Tm9  1  0.785129  0.592604  0.807827  1
  Tm  Tm10  1  0.215223  0.022698  0.807827  1
  Tm  Tm11  1  0.785395  0.978001  0.191957  1
  Co  Co12  1  0.999410  0.375867  0.375277  1
  Co  Co13  1  0.000274  0.623585  0.623859  1
  Co  Co14  1  0.386533  0.886597  0.500839  1
  Co  Co15  1  0.614242  0.114306  0.500839  1
  Co  Co16  1  0.999522  0.000050  0.999573  1
  Hg  Hg17  1  0.500050  0.499913  0.999963  1
