# generated using pymatgen
data_Er16In2Hg2PtRh3
_symmetry_space_group_name_H-M   'P 1'
_cell_length_a   9.56838937
_cell_length_b   9.56374712
_cell_length_c   9.55425665
_cell_angle_alpha   60.03936161
_cell_angle_beta   59.95105806
_cell_angle_gamma   59.98394511
_symmetry_Int_Tables_number   1
_chemical_formula_structural   Er16In2Hg2PtRh3
_chemical_formula_sum   'Er16 In2 Hg2 Pt1 Rh3'
_cell_volume   618.10769530
_cell_formula_units_Z   1
loop_
 _symmetry_equiv_pos_site_id
 _symmetry_equiv_pos_as_xyz
  1  'x, y, z'
loop_
 _atom_site_type_symbol
 _atom_site_label
 _atom_site_symmetry_multiplicity
 _atom_site_fract_x
 _atom_site_fract_y
 _atom_site_fract_z
 _atom_site_occupancy
  Er  Er0  1  0.192506  0.187260  0.809956  1
  Er  Er1  1  0.438546  0.061516  0.061392  1
  Er  Er2  1  0.437340  0.060925  0.435293  1
  Er  Er3  1  0.066772  0.435895  0.061015  1
  Er  Er4  1  0.650130  0.051991  0.647749  1
  Er  Er5  1  0.189067  0.810829  0.811036  1
  Er  Er6  1  0.066441  0.060925  0.435293  1
  Er  Er7  1  0.809109  0.188015  0.193768  1
  Er  Er8  1  0.811110  0.810423  0.189341  1
  Er  Er9  1  0.648479  0.649396  0.053646  1
  Er  Er10  1  0.649887  0.650589  0.647511  1
  Er  Er11  1  0.065495  0.435268  0.433741  1
  Er  Er12  1  0.052013  0.650589  0.647511  1
  Er  Er13  1  0.810276  0.187260  0.809956  1
  Er  Er14  1  0.436318  0.435895  0.061015  1
  Er  Er15  1  0.189126  0.810423  0.189341  1
  In  In16  1  0.745686  0.419459  0.419357  1
  In  In17  1  0.415499  0.419459  0.419357  1
  Hg  Hg18  1  0.412907  0.760030  0.414157  1
  Hg  Hg19  1  0.412978  0.414661  0.759384  1
  Pt  Pt20  1  0.857503  0.427201  0.857793  1
  Rh  Rh21  1  0.857322  0.857791  0.427565  1
  Rh  Rh22  1  0.428991  0.857099  0.857412  1
  Rh  Rh23  1  0.856498  0.857099  0.857412  1
