# generated using pymatgen
data_Zr4MnRe5Tc2
_symmetry_space_group_name_H-M   'P 1'
_cell_length_a   5.26230000
_cell_length_b   5.23975667
_cell_length_c   8.67258840
_cell_angle_alpha   90.00000146
_cell_angle_beta   90.12082480
_cell_angle_gamma   119.85839178
_symmetry_Int_Tables_number   1
_chemical_formula_structural   Zr4MnRe5Tc2
_chemical_formula_sum   'Zr4 Mn1 Re5 Tc2'
_cell_volume   207.38758289
_cell_formula_units_Z   1
loop_
 _symmetry_equiv_pos_site_id
 _symmetry_equiv_pos_as_xyz
  1  'x, y, z'
loop_
 _atom_site_type_symbol
 _atom_site_label
 _atom_site_symmetry_multiplicity
 _atom_site_fract_x
 _atom_site_fract_y
 _atom_site_fract_z
 _atom_site_occupancy
  Zr  Zr0  1  0.332932  0.666466  0.063805  1
  Zr  Zr1  1  0.667605  0.333802  0.564410  1
  Zr  Zr2  1  0.667157  0.333578  0.936106  1
  Zr  Zr3  1  0.332893  0.666447  0.436017  1
  Mn  Mn4  1  0.998320  0.999160  0.000711  1
  Re  Re5  1  0.169627  0.338815  0.753987  1
  Re  Re6  1  0.831090  0.170100  0.245865  1
  Re  Re7  1  0.831090  0.660990  0.245865  1
  Re  Re8  1  0.169627  0.830811  0.753987  1
  Re  Re9  1  0.660647  0.830324  0.754738  1
  Tc  Tc10  1  0.998172  0.999086  0.499132  1
  Tc  Tc11  1  0.340840  0.170420  0.245375  1
