# generated using pymatgen
data_Cr8Ga3NiS16
_symmetry_space_group_name_H-M   'P 1'
_cell_length_a   12.20818266
_cell_length_b   12.20818234
_cell_length_c   12.20818421
_cell_angle_alpha   33.59674813
_cell_angle_beta   33.59675087
_cell_angle_gamma   33.59675043
_symmetry_Int_Tables_number   1
_chemical_formula_structural   Cr8Ga3NiS16
_chemical_formula_sum   'Cr8 Ga3 Ni1 S16'
_cell_volume   496.26665447
_cell_formula_units_Z   1
loop_
 _symmetry_equiv_pos_site_id
 _symmetry_equiv_pos_as_xyz
  1  'x, y, z'
loop_
 _atom_site_type_symbol
 _atom_site_label
 _atom_site_symmetry_multiplicity
 _atom_site_fract_x
 _atom_site_fract_y
 _atom_site_fract_z
 _atom_site_occupancy
  Cr  Cr0  1  0.746810  0.746810  0.746810  1
  Cr  Cr1  1  0.250420  0.250420  0.250420  1
  Cr  Cr2  1  0.994719  0.505647  0.505647  1
  Cr  Cr3  1  0.492104  0.002342  0.002342  1
  Cr  Cr4  1  0.505647  0.994719  0.505647  1
  Cr  Cr5  1  0.002342  0.492104  0.002342  1
  Cr  Cr6  1  0.505647  0.505647  0.994719  1
  Cr  Cr7  1  0.002342  0.002342  0.492104  1
  Ga  Ga8  1  0.562654  0.562654  0.562654  1
  Ga  Ga9  1  0.437558  0.437558  0.437558  1
  Ga  Ga10  1  0.937605  0.937605  0.937605  1
  Ni  Ni11  1  0.062515  0.062515  0.062515  1
  S  S12  1  0.127063  0.127063  0.127063  1
  S  S13  1  0.630280  0.630280  0.630280  1
  S  S14  1  0.388358  0.867010  0.867010  1
  S  S15  1  0.901677  0.359149  0.359149  1
  S  S16  1  0.867010  0.388358  0.867010  1
  S  S17  1  0.359149  0.901677  0.359149  1
  S  S18  1  0.867010  0.867010  0.388358  1
  S  S19  1  0.359149  0.359149  0.901677  1
  S  S20  1  0.370331  0.370331  0.370331  1
  S  S21  1  0.869829  0.869829  0.869829  1
  S  S22  1  0.098995  0.639905  0.639905  1
  S  S23  1  0.600664  0.140155  0.140155  1
  S  S24  1  0.639905  0.098995  0.639905  1
  S  S25  1  0.140155  0.600665  0.140155  1
  S  S26  1  0.639905  0.639905  0.098995  1
  S  S27  1  0.140155  0.140155  0.600664  1
