# generated using pymatgen
data_TmHf5(ScPt2)2
_symmetry_space_group_name_H-M   'P 1'
_cell_length_a   4.59011100
_cell_length_b   6.75969044
_cell_length_c   8.11797844
_cell_angle_alpha   89.71054655
_cell_angle_beta   90.00000000
_cell_angle_gamma   90.00000000
_symmetry_Int_Tables_number   1
_chemical_formula_structural   TmHf5(ScPt2)2
_chemical_formula_sum   'Tm1 Hf5 Sc2 Pt4'
_cell_volume   251.87922431
_cell_formula_units_Z   1
loop_
 _symmetry_equiv_pos_site_id
 _symmetry_equiv_pos_as_xyz
  1  'x, y, z'
loop_
 _atom_site_type_symbol
 _atom_site_label
 _atom_site_symmetry_multiplicity
 _atom_site_fract_x
 _atom_site_fract_y
 _atom_site_fract_z
 _atom_site_occupancy
  Tm  Tm0  1  0.750000  0.514997  0.817770  1
  Hf  Hf1  1  0.250000  0.850760  0.922362  1
  Hf  Hf2  1  0.250000  0.343160  0.578249  1
  Hf  Hf3  1  0.750000  0.149460  0.080514  1
  Hf  Hf4  1  0.750000  0.653593  0.417820  1
  Hf  Hf5  1  0.250000  0.988132  0.326928  1
  Sc  Sc6  1  0.250000  0.483283  0.181705  1
  Sc  Sc7  1  0.750000  0.013727  0.675258  1
  Pt  Pt8  1  0.250000  0.240366  0.908934  1
  Pt  Pt9  1  0.250000  0.743430  0.591564  1
  Pt  Pt10  1  0.750000  0.761435  0.095915  1
  Pt  Pt11  1  0.750000  0.257657  0.402983  1
