# generated using pymatgen
data_Ce8(TcOs)3
_symmetry_space_group_name_H-M   'P 1'
_cell_length_a   8.20017187
_cell_length_b   8.20017223
_cell_length_c   6.11458875
_cell_angle_alpha   75.30206759
_cell_angle_beta   75.30207240
_cell_angle_gamma   118.64763562
_symmetry_Int_Tables_number   1
_chemical_formula_structural   Ce8(TcOs)3
_chemical_formula_sum   'Ce8 Tc3 Os3'
_cell_volume   313.04494668
_cell_formula_units_Z   1
loop_
 _symmetry_equiv_pos_site_id
 _symmetry_equiv_pos_as_xyz
  1  'x, y, z'
loop_
 _atom_site_type_symbol
 _atom_site_label
 _atom_site_symmetry_multiplicity
 _atom_site_fract_x
 _atom_site_fract_y
 _atom_site_fract_z
 _atom_site_occupancy
  Ce  Ce0  1  0.880778  0.613252  0.167685  1
  Ce  Ce1  1  0.342393  0.342393  0.278998  1
  Ce  Ce2  1  0.119847  0.392885  0.825327  1
  Ce  Ce3  1  0.392885  0.119847  0.825327  1
  Ce  Ce4  1  0.165241  0.833240  0.499286  1
  Ce  Ce5  1  0.658526  0.658526  0.710851  1
  Ce  Ce6  1  0.833240  0.165241  0.499286  1
  Ce  Ce7  1  0.613252  0.880778  0.167685  1
  Tc  Tc8  1  0.805122  0.407927  0.748866  1
  Tc  Tc9  1  0.998546  0.998546  0.257320  1
  Tc  Tc10  1  0.407927  0.805122  0.748866  1
  Os  Os11  1  0.588414  0.191586  0.252750  1
  Os  Os12  1  0.002240  0.002240  0.764999  1
  Os  Os13  1  0.191586  0.588414  0.252750  1
