# generated using pymatgen
data_K5HO6
_symmetry_space_group_name_H-M   'P 1'
_cell_length_a   8.28265294
_cell_length_b   4.99324358
_cell_length_c   8.25436816
_cell_angle_alpha   75.59320711
_cell_angle_beta   128.96558415
_cell_angle_gamma   109.19147692
_symmetry_Int_Tables_number   1
_chemical_formula_structural   K5HO6
_chemical_formula_sum   'K5 H1 O6'
_cell_volume   250.26664103
_cell_formula_units_Z   1
loop_
 _symmetry_equiv_pos_site_id
 _symmetry_equiv_pos_as_xyz
  1  'x, y, z'
loop_
 _atom_site_type_symbol
 _atom_site_label
 _atom_site_symmetry_multiplicity
 _atom_site_fract_x
 _atom_site_fract_y
 _atom_site_fract_z
 _atom_site_occupancy
  K  K0  1  0.692622  0.825251  0.136609  1
  K  K1  1  0.153888  0.607962  0.634293  1
  K  K2  1  0.519095  0.307210  0.738387  1
  K  K3  1  0.923199  0.895933  0.817655  1
  K  K4  1  0.462923  0.985616  0.373445  1
  H  H5  1  0.429863  0.262531  0.034743  1
  O  O6  1  0.912341  0.385270  0.234339  1
  O  O7  1  0.806156  0.402805  0.633012  1
  O  O8  1  0.057469  0.223263  0.374027  1
  O  O9  1  0.327175  0.094142  0.958234  1
  O  O10  1  0.667987  0.565239  0.459091  1
  O  O11  1  0.547889  0.817272  0.747168  1
