# generated using pymatgen
data_Yb4Al3GaO10
_symmetry_space_group_name_H-M   'P 1'
_cell_length_a   5.26268900
_cell_length_b   5.48157544
_cell_length_c   15.30638651
_cell_angle_alpha   69.34717274
_cell_angle_beta   90.00000000
_cell_angle_gamma   90.00000000
_symmetry_Int_Tables_number   1
_chemical_formula_structural   Yb4Al3GaO10
_chemical_formula_sum   'Yb8 Al6 Ga2 O20'
_cell_volume   413.17927476
_cell_formula_units_Z   2
loop_
 _symmetry_equiv_pos_site_id
 _symmetry_equiv_pos_as_xyz
  1  'x, y, z'
loop_
 _atom_site_type_symbol
 _atom_site_label
 _atom_site_symmetry_multiplicity
 _atom_site_fract_x
 _atom_site_fract_y
 _atom_site_fract_z
 _atom_site_occupancy
  Yb  Yb0  1  0.006165  0.633094  0.893472  1
  Yb  Yb1  1  0.506165  0.366906  0.606528  1
  Yb  Yb2  1  0.990570  0.078848  0.393072  1
  Yb  Yb3  1  0.490570  0.921152  0.106928  1
  Yb  Yb4  1  0.993835  0.366906  0.106528  1
  Yb  Yb5  1  0.493835  0.633094  0.393472  1
  Yb  Yb6  1  0.009430  0.921152  0.606928  1
  Yb  Yb7  1  0.509430  0.078848  0.893072  1
  Al  Al8  1  0.548467  0.673734  0.751956  1
  Al  Al9  1  0.048467  0.326266  0.748044  1
  Al  Al10  1  0.451533  0.326266  0.248044  1
  Al  Al11  1  0.951533  0.673734  0.251956  1
  Al  Al12  1  0.500000  0.500000  0.000000  1
  Al  Al13  1  0.000000  0.500000  0.500000  1
  Ga  Ga14  1  0.500000  0.000000  0.500000  1
  Ga  Ga15  1  0.000000  0.000000  0.000000  1
  O  O16  1  0.252307  0.730535  0.012708  1
  O  O17  1  0.752307  0.269465  0.487292  1
  O  O18  1  0.755553  0.734571  0.512865  1
  O  O19  1  0.255553  0.265429  0.987135  1
  O  O20  1  0.747693  0.269465  0.987292  1
  O  O21  1  0.247693  0.730535  0.512708  1
  O  O22  1  0.244447  0.265429  0.487135  1
  O  O23  1  0.744447  0.734571  0.012865  1
  O  O24  1  0.885909  0.613479  0.749625  1
  O  O25  1  0.385909  0.386521  0.750375  1
  O  O26  1  0.114091  0.386521  0.250375  1
  O  O27  1  0.614091  0.613479  0.249625  1
  O  O28  1  0.485167  0.700231  0.860842  1
  O  O29  1  0.985167  0.299769  0.639158  1
  O  O30  1  0.524009  0.075072  0.353658  1
  O  O31  1  0.024009  0.924928  0.146342  1
  O  O32  1  0.514833  0.299769  0.139158  1
  O  O33  1  0.014833  0.700231  0.360842  1
  O  O34  1  0.475991  0.924928  0.646342  1
  O  O35  1  0.975991  0.075072  0.853658  1
