# generated using pymatgen
data_Nb4Ni(RhS6)2
_symmetry_space_group_name_H-M   'P 1'
_cell_length_a   6.93588625
_cell_length_b   6.93588582
_cell_length_c   18.73168009
_cell_angle_alpha   69.96961417
_cell_angle_beta   69.96961520
_cell_angle_gamma   28.52981717
_symmetry_Int_Tables_number   1
_chemical_formula_structural   Nb4Ni(RhS6)2
_chemical_formula_sum   'Nb4 Ni1 Rh2 S12'
_cell_volume   402.61298301
_cell_formula_units_Z   1
loop_
 _symmetry_equiv_pos_site_id
 _symmetry_equiv_pos_as_xyz
  1  'x, y, z'
loop_
 _atom_site_type_symbol
 _atom_site_label
 _atom_site_symmetry_multiplicity
 _atom_site_fract_x
 _atom_site_fract_y
 _atom_site_fract_z
 _atom_site_occupancy
  Nb  Nb0  1  0.742001  0.742001  0.594409  1
  Nb  Nb1  1  0.257999  0.257999  0.405591  1
  Nb  Nb2  1  0.617610  0.617610  0.855373  1
  Nb  Nb3  1  0.382390  0.382390  0.144627  1
  Ni  Ni4  1  0.000000  0.000000  0.000000  1
  Rh  Rh5  1  0.770972  0.770972  0.278738  1
  Rh  Rh6  1  0.229028  0.229028  0.721262  1
  S  S7  1  0.858477  0.858477  0.449726  1
  S  S8  1  0.027189  0.027189  0.109321  1
  S  S9  1  0.804087  0.804087  0.772896  1
  S  S10  1  0.396267  0.396267  0.278042  1
  S  S11  1  0.171666  0.171666  0.932624  1
  S  S12  1  0.603733  0.603733  0.721958  1
  S  S13  1  0.141523  0.141523  0.550274  1
  S  S14  1  0.828334  0.828334  0.067376  1
  S  S15  1  0.370487  0.370487  0.599692  1
  S  S16  1  0.972811  0.972811  0.890679  1
  S  S17  1  0.195913  0.195913  0.227104  1
  S  S18  1  0.629513  0.629513  0.400308  1
