# generated using pymatgen
data_Hg4IrPd3O14
_symmetry_space_group_name_H-M   'P 1'
_cell_length_a   7.31781034
_cell_length_b   7.30485105
_cell_length_c   7.30485200
_cell_angle_alpha   60.00000475
_cell_angle_beta   60.05856918
_cell_angle_gamma   60.05856192
_symmetry_Int_Tables_number   1
_chemical_formula_structural   Hg4IrPd3O14
_chemical_formula_sum   'Hg4 Ir1 Pd3 O14'
_cell_volume   276.35850322
_cell_formula_units_Z   1
loop_
 _symmetry_equiv_pos_site_id
 _symmetry_equiv_pos_as_xyz
  1  'x, y, z'
loop_
 _atom_site_type_symbol
 _atom_site_label
 _atom_site_symmetry_multiplicity
 _atom_site_fract_x
 _atom_site_fract_y
 _atom_site_fract_z
 _atom_site_occupancy
  Hg  Hg0  1  0.625000  0.125000  0.125000  1
  Hg  Hg1  1  0.125000  0.625000  0.125000  1
  Hg  Hg2  1  0.125000  0.125000  0.625000  1
  Hg  Hg3  1  0.125000  0.125000  0.125000  1
  Ir  Ir4  1  0.125000  0.625000  0.625000  1
  Pd  Pd5  1  0.625000  0.125000  0.625000  1
  Pd  Pd6  1  0.625000  0.625000  0.125000  1
  Pd  Pd7  1  0.625000  0.625000  0.625000  1
  O  O8  1  0.712585  0.704147  0.291634  1
  O  O9  1  0.296821  0.309466  0.696857  1
  O  O10  1  0.712585  0.291634  0.704147  1
  O  O11  1  0.296821  0.696857  0.309466  1
  O  O12  1  0.296821  0.696857  0.696857  1
  O  O13  1  0.712585  0.291634  0.291634  1
  O  O14  1  0.537415  0.545853  0.958366  1
  O  O15  1  0.953179  0.940534  0.553143  1
  O  O16  1  0.537415  0.958366  0.545853  1
  O  O17  1  0.953179  0.553143  0.940534  1
  O  O18  1  0.953179  0.553143  0.553143  1
  O  O19  1  0.537415  0.958366  0.958366  1
  O  O20  1  0.235349  0.254884  0.254884  1
  O  O21  1  0.014651  0.995116  0.995116  1
