# generated using pymatgen
data_CsAuS5
_symmetry_space_group_name_H-M   'P 1'
_cell_length_a   10.95585167
_cell_length_b   10.95585156
_cell_length_c   10.95585156
_cell_angle_alpha   126.47216045
_cell_angle_beta   117.14837402
_cell_angle_gamma   87.09222258
_symmetry_Int_Tables_number   1
_chemical_formula_structural   CsAuS5
_chemical_formula_sum   'Cs4 Au4 S20'
_cell_volume   895.18248942
_cell_formula_units_Z   4
loop_
 _symmetry_equiv_pos_site_id
 _symmetry_equiv_pos_as_xyz
  1  'x, y, z'
loop_
 _atom_site_type_symbol
 _atom_site_label
 _atom_site_symmetry_multiplicity
 _atom_site_fract_x
 _atom_site_fract_y
 _atom_site_fract_z
 _atom_site_occupancy
  Cs  Cs0  1  0.250000  0.250000  0.000000  1
  Cs  Cs1  1  0.750000  0.750000  0.000000  1
  Cs  Cs2  1  0.000000  0.500000  0.500000  1
  Cs  Cs3  1  0.500000  0.000000  0.500000  1
  Au  Au4  1  0.891943  0.250000  0.641943  1
  Au  Au5  1  0.608057  0.250000  0.358057  1
  Au  Au6  1  0.108057  0.750000  0.358057  1
  Au  Au7  1  0.391943  0.750000  0.641943  1
  S  S8  1  0.415509  0.406038  0.606418  1
  S  S9  1  0.084491  0.690909  0.990530  1
  S  S10  1  0.700379  0.093962  0.009470  1
  S  S11  1  0.799621  0.809091  0.393582  1
  S  S12  1  0.584491  0.593962  0.393582  1
  S  S13  1  0.915509  0.309091  0.009470  1
  S  S14  1  0.299621  0.906038  0.990530  1
  S  S15  1  0.200379  0.190909  0.606418  1
  S  S16  1  0.983054  0.157098  0.456432  1
  S  S17  1  0.516946  0.973378  0.174044  1
  S  S18  1  0.799334  0.342902  0.825956  1
  S  S19  1  0.700666  0.526622  0.543568  1
  S  S20  1  0.016946  0.842902  0.543568  1
  S  S21  1  0.483054  0.026622  0.825956  1
  S  S22  1  0.200666  0.657098  0.174044  1
  S  S23  1  0.299334  0.473378  0.456432  1
  S  S24  1  0.329057  0.417322  0.746377  1
  S  S25  1  0.170943  0.917322  0.088265  1
  S  S26  1  0.829057  0.082678  0.911735  1
  S  S27  1  0.670943  0.582678  0.253623  1
