# generated using pymatgen
data_TbY3Al18(Pd2Rh)2
_symmetry_space_group_name_H-M   'P 1'
_cell_length_a   7.61147601
_cell_length_b   7.61164559
_cell_length_c   9.46596400
_cell_angle_alpha   90.00000000
_cell_angle_beta   90.00000000
_cell_angle_gamma   119.57931993
_symmetry_Int_Tables_number   1
_chemical_formula_structural   TbY3Al18(Pd2Rh)2
_chemical_formula_sum   'Tb1 Y3 Al18 Pd4 Rh2'
_cell_volume   476.94505890
_cell_formula_units_Z   1
loop_
 _symmetry_equiv_pos_site_id
 _symmetry_equiv_pos_as_xyz
  1  'x, y, z'
loop_
 _atom_site_type_symbol
 _atom_site_label
 _atom_site_symmetry_multiplicity
 _atom_site_fract_x
 _atom_site_fract_y
 _atom_site_fract_z
 _atom_site_occupancy
  Tb  Tb0  1  0.993854  0.667988  0.250000  1
  Y  Y1  1  0.006120  0.331933  0.750000  1
  Y  Y2  1  0.668039  0.993890  0.250000  1
  Y  Y3  1  0.331960  0.006146  0.750000  1
  Al  Al4  1  0.126752  0.126740  0.250000  1
  Al  Al5  1  0.873285  0.873293  0.750000  1
  Al  Al6  1  0.999985  0.330766  0.075630  1
  Al  Al7  1  0.000006  0.669204  0.924349  1
  Al  Al8  1  0.000006  0.669204  0.575651  1
  Al  Al9  1  0.330827  0.000018  0.424368  1
  Al  Al10  1  0.999985  0.330766  0.424370  1
  Al  Al11  1  0.669205  0.000015  0.575651  1
  Al  Al12  1  0.669205  0.000015  0.924349  1
  Al  Al13  1  0.330827  0.000018  0.075632  1
  Al  Al14  1  0.329896  0.329896  0.554477  1
  Al  Al15  1  0.670078  0.670103  0.445545  1
  Al  Al16  1  0.670078  0.670103  0.054455  1
  Al  Al17  1  0.329896  0.329896  0.945523  1
  Al  Al18  1  0.340443  0.546850  0.250000  1
  Al  Al19  1  0.659534  0.453128  0.750000  1
  Al  Al20  1  0.546855  0.340468  0.250000  1
  Al  Al21  1  0.453139  0.659551  0.750000  1
  Pd  Pd22  1  0.672221  0.327706  0.999966  1
  Pd  Pd23  1  0.327787  0.672260  0.999974  1
  Pd  Pd24  1  0.327787  0.672260  0.500026  1
  Pd  Pd25  1  0.672221  0.327706  0.500034  1
  Rh  Rh26  1  0.000004  0.000039  0.999969  1
  Rh  Rh27  1  0.000004  0.000039  0.500031  1
