# generated using pymatgen
data_NdTm7(Si3Pt)4
_symmetry_space_group_name_H-M   'P 1'
_cell_length_a   8.15614200
_cell_length_b   8.17845500
_cell_length_c   7.84658000
_cell_angle_alpha   90.00000000
_cell_angle_beta   90.00000000
_cell_angle_gamma   119.91103820
_symmetry_Int_Tables_number   1
_chemical_formula_structural   NdTm7(Si3Pt)4
_chemical_formula_sum   'Nd1 Tm7 Si12 Pt4'
_cell_volume   453.68634265
_cell_formula_units_Z   1
loop_
 _symmetry_equiv_pos_site_id
 _symmetry_equiv_pos_as_xyz
  1  'x, y, z'
loop_
 _atom_site_type_symbol
 _atom_site_label
 _atom_site_symmetry_multiplicity
 _atom_site_fract_x
 _atom_site_fract_y
 _atom_site_fract_z
 _atom_site_occupancy
  Nd  Nd0  1  0.512273  0.024530  0.250000  1
  Tm  Tm1  1  0.488447  0.976892  0.750000  1
  Tm  Tm2  1  0.978222  0.491024  0.250000  1
  Tm  Tm3  1  0.025086  0.511184  0.750000  1
  Tm  Tm4  1  0.512806  0.491032  0.250000  1
  Tm  Tm5  1  0.486102  0.511183  0.750000  1
  Tm  Tm6  1  0.999787  0.999590  0.250000  1
  Tm  Tm7  1  0.999910  0.999816  0.750000  1
  Si  Si8  1  0.163752  0.327495  0.002363  1
  Si  Si9  1  0.834931  0.669867  0.998336  1
  Si  Si10  1  0.669822  0.834792  0.000749  1
  Si  Si11  1  0.834931  0.669867  0.501664  1
  Si  Si12  1  0.331012  0.166089  0.993176  1
  Si  Si13  1  0.163752  0.327495  0.497637  1
  Si  Si14  1  0.164974  0.834797  0.000753  1
  Si  Si15  1  0.331012  0.166089  0.506824  1
  Si  Si16  1  0.835077  0.166086  0.993180  1
  Si  Si17  1  0.669822  0.834792  0.499251  1
  Si  Si18  1  0.835077  0.166086  0.506820  1
  Si  Si19  1  0.164974  0.834797  0.499247  1
  Pt  Pt20  1  0.330372  0.660762  0.032289  1
  Pt  Pt21  1  0.668743  0.337485  0.952295  1
  Pt  Pt22  1  0.668743  0.337485  0.547705  1
  Pt  Pt23  1  0.330372  0.660762  0.467711  1
