# generated using pymatgen
data_TbEr15Cd2(HgPd2)2
_symmetry_space_group_name_H-M   'P 1'
_cell_length_a   9.59598310
_cell_length_b   9.59586213
_cell_length_c   9.60710705
_cell_angle_alpha   59.95255094
_cell_angle_beta   59.95191817
_cell_angle_gamma   59.96491186
_symmetry_Int_Tables_number   1
_chemical_formula_structural   TbEr15Cd2(HgPd2)2
_chemical_formula_sum   'Tb1 Er15 Cd2 Hg2 Pd4'
_cell_volume   624.91658017
_cell_formula_units_Z   1
loop_
 _symmetry_equiv_pos_site_id
 _symmetry_equiv_pos_as_xyz
  1  'x, y, z'
loop_
 _atom_site_type_symbol
 _atom_site_label
 _atom_site_symmetry_multiplicity
 _atom_site_fract_x
 _atom_site_fract_y
 _atom_site_fract_z
 _atom_site_occupancy
  Tb  Tb0  1  0.355276  0.355300  0.351491  1
  Er  Er1  1  0.355196  0.355203  0.938209  1
  Er  Er2  1  0.360326  0.928046  0.355915  1
  Er  Er3  1  0.928050  0.360333  0.355908  1
  Er  Er4  1  0.812018  0.188230  0.189069  1
  Er  Er5  1  0.188577  0.811536  0.810627  1
  Er  Er6  1  0.188226  0.812013  0.189082  1
  Er  Er7  1  0.811526  0.188590  0.810620  1
  Er  Er8  1  0.189006  0.189012  0.811136  1
  Er  Er9  1  0.811330  0.811318  0.188754  1
  Er  Er10  1  0.933445  0.565512  0.566042  1
  Er  Er11  1  0.565280  0.933844  0.935042  1
  Er  Er12  1  0.565512  0.933447  0.566048  1
  Er  Er13  1  0.933852  0.565288  0.935020  1
  Er  Er14  1  0.566223  0.566239  0.933675  1
  Er  Er15  1  0.934990  0.934989  0.565013  1
  Cd  Cd16  1  0.580450  0.252738  0.584010  1
  Cd  Cd17  1  0.252732  0.580454  0.583982  1
  Hg  Hg18  1  0.585367  0.585367  0.589812  1
  Hg  Hg19  1  0.585834  0.585809  0.239246  1
  Pd  Pd20  1  0.144732  0.144706  0.148655  1
  Pd  Pd21  1  0.143692  0.143683  0.563047  1
  Pd  Pd22  1  0.141595  0.566761  0.144793  1
  Pd  Pd23  1  0.566761  0.141580  0.144800  1
