# generated using pymatgen
data_Tb16Tm4Ir7Au5
_symmetry_space_group_name_H-M   'P 1'
_cell_length_a   11.18792595
_cell_length_b   11.18792587
_cell_length_c   6.34450365
_cell_angle_alpha   90.00146505
_cell_angle_beta   90.00146119
_cell_angle_gamma   89.79354967
_symmetry_Int_Tables_number   1
_chemical_formula_structural   Tb16Tm4Ir7Au5
_chemical_formula_sum   'Tb16 Tm4 Ir7 Au5'
_cell_volume   794.13437517
_cell_formula_units_Z   1
loop_
 _symmetry_equiv_pos_site_id
 _symmetry_equiv_pos_as_xyz
  1  'x, y, z'
loop_
 _atom_site_type_symbol
 _atom_site_label
 _atom_site_symmetry_multiplicity
 _atom_site_fract_x
 _atom_site_fract_y
 _atom_site_fract_z
 _atom_site_occupancy
  Tb  Tb0  1  0.298902  0.090376  0.363478  1
  Tb  Tb1  1  0.301236  0.907724  0.862576  1
  Tb  Tb2  1  0.698036  0.080349  0.859638  1
  Tb  Tb3  1  0.698818  0.905927  0.361309  1
  Tb  Tb4  1  0.581022  0.782602  0.876428  1
  Tb  Tb5  1  0.576160  0.208067  0.363256  1
  Tb  Tb6  1  0.417819  0.786638  0.375584  1
  Tb  Tb7  1  0.410733  0.209463  0.877294  1
  Tb  Tb8  1  0.217398  0.418978  0.623572  1
  Tb  Tb9  1  0.213362  0.582181  0.124416  1
  Tb  Tb10  1  0.791933  0.423840  0.136744  1
  Tb  Tb11  1  0.790537  0.589267  0.622706  1
  Tb  Tb12  1  0.909624  0.701098  0.136522  1
  Tb  Tb13  1  0.919651  0.301964  0.640362  1
  Tb  Tb14  1  0.092276  0.698764  0.637424  1
  Tb  Tb15  1  0.094073  0.301182  0.138691  1
  Tm  Tm16  1  0.998117  0.000627  0.499251  1
  Tm  Tm17  1  0.999373  0.001883  0.000749  1
  Tm  Tm18  1  0.495580  0.502049  0.001875  1
  Tm  Tm19  1  0.497951  0.504420  0.498125  1
  Ir  Ir20  1  0.651437  0.649116  0.250384  1
  Ir  Ir21  1  0.350884  0.348563  0.249616  1
  Ir  Ir22  1  0.347119  0.652881  0.750000  1
  Ir  Ir23  1  0.499307  0.999174  0.111248  1
  Ir  Ir24  1  0.499190  0.000466  0.611258  1
  Ir  Ir25  1  0.999534  0.500810  0.888742  1
  Ir  Ir26  1  0.000826  0.500693  0.388752  1
  Au  Au27  1  0.844454  0.155546  0.250000  1
  Au  Au28  1  0.846424  0.848124  0.750632  1
  Au  Au29  1  0.151876  0.153576  0.749368  1
  Au  Au30  1  0.153057  0.846943  0.250000  1
  Au  Au31  1  0.653291  0.346709  0.750000  1
