# generated using pymatgen
data_Hf18Cr2Re6SiAs
_symmetry_space_group_name_H-M   'P 1'
_cell_length_a   8.59446600
_cell_length_b   8.59446612
_cell_length_c   8.55783000
_cell_angle_alpha   90.00000000
_cell_angle_beta   90.00000000
_cell_angle_gamma   120.00291305
_symmetry_Int_Tables_number   1
_chemical_formula_structural   Hf18Cr2Re6SiAs
_chemical_formula_sum   'Hf18 Cr2 Re6 Si1 As1'
_cell_volume   547.41833513
_cell_formula_units_Z   1
loop_
 _symmetry_equiv_pos_site_id
 _symmetry_equiv_pos_as_xyz
  1  'x, y, z'
loop_
 _atom_site_type_symbol
 _atom_site_label
 _atom_site_symmetry_multiplicity
 _atom_site_fract_x
 _atom_site_fract_y
 _atom_site_fract_z
 _atom_site_occupancy
  Hf  Hf0  1  0.807061  0.614077  0.549167  1
  Hf  Hf1  1  0.807042  0.192958  0.549202  1
  Hf  Hf2  1  0.385923  0.192939  0.549167  1
  Hf  Hf3  1  0.191931  0.383882  0.452473  1
  Hf  Hf4  1  0.191929  0.808071  0.452448  1
  Hf  Hf5  1  0.616118  0.808069  0.452473  1
  Hf  Hf6  1  0.191931  0.383882  0.047527  1
  Hf  Hf7  1  0.191929  0.808071  0.047552  1
  Hf  Hf8  1  0.616118  0.808069  0.047527  1
  Hf  Hf9  1  0.807061  0.614077  0.950833  1
  Hf  Hf10  1  0.807042  0.192958  0.950798  1
  Hf  Hf11  1  0.385923  0.192939  0.950833  1
  Hf  Hf12  1  0.460165  0.920237  0.750000  1
  Hf  Hf13  1  0.460146  0.539854  0.750000  1
  Hf  Hf14  1  0.079763  0.539835  0.750000  1
  Hf  Hf15  1  0.541763  0.083620  0.250000  1
  Hf  Hf16  1  0.541771  0.458229  0.250000  1
  Hf  Hf17  1  0.916380  0.458237  0.250000  1
  Cr  Cr18  1  0.000000  0.000000  0.500118  1
  Cr  Cr19  1  0.000000  0.000000  0.999882  1
  Re  Re20  1  0.107245  0.214356  0.750000  1
  Re  Re21  1  0.107292  0.892708  0.750000  1
  Re  Re22  1  0.785644  0.892755  0.750000  1
  Re  Re23  1  0.892658  0.785449  0.250000  1
  Re  Re24  1  0.892624  0.107376  0.250000  1
  Re  Re25  1  0.214551  0.107342  0.250000  1
  Si  Si26  1  0.666662  0.333338  0.750000  1
  As  As27  1  0.333328  0.666672  0.250000  1
