# generated using pymatgen
data_Tb8Ga12CoAg3
_symmetry_space_group_name_H-M   'P 1'
_cell_length_a   7.16947800
_cell_length_b   8.95579080
_cell_length_c   8.95579000
_cell_angle_alpha   120.00000442
_cell_angle_beta   90.00000000
_cell_angle_gamma   90.00000000
_symmetry_Int_Tables_number   1
_chemical_formula_structural   Tb8Ga12CoAg3
_chemical_formula_sum   'Tb8 Ga12 Co1 Ag3'
_cell_volume   497.99615613
_cell_formula_units_Z   1
loop_
 _symmetry_equiv_pos_site_id
 _symmetry_equiv_pos_as_xyz
  1  'x, y, z'
loop_
 _atom_site_type_symbol
 _atom_site_label
 _atom_site_symmetry_multiplicity
 _atom_site_fract_x
 _atom_site_fract_y
 _atom_site_fract_z
 _atom_site_occupancy
  Tb  Tb0  1  0.739334  0.000000  0.000000  1
  Tb  Tb1  1  0.252917  0.000000  0.000000  1
  Tb  Tb2  1  0.749180  0.488237  0.511763  1
  Tb  Tb3  1  0.258323  0.522346  0.477654  1
  Tb  Tb4  1  0.749180  0.023526  0.511763  1
  Tb  Tb5  1  0.258323  0.955308  0.477654  1
  Tb  Tb6  1  0.749180  0.488237  0.976474  1
  Tb  Tb7  1  0.258323  0.522346  0.044692  1
  Ga  Ga8  1  0.963462  0.836960  0.163040  1
  Ga  Ga9  1  0.040251  0.165374  0.834626  1
  Ga  Ga10  1  0.963462  0.326080  0.163040  1
  Ga  Ga11  1  0.463644  0.164561  0.835439  1
  Ga  Ga12  1  0.040251  0.669250  0.834626  1
  Ga  Ga13  1  0.540139  0.825841  0.174159  1
  Ga  Ga14  1  0.963462  0.836960  0.673920  1
  Ga  Ga15  1  0.463644  0.670877  0.835439  1
  Ga  Ga16  1  0.040251  0.165374  0.330750  1
  Ga  Ga17  1  0.540139  0.348319  0.174159  1
  Ga  Ga18  1  0.463644  0.164561  0.329123  1
  Ga  Ga19  1  0.540139  0.825841  0.651681  1
  Co  Co20  1  0.511878  0.666667  0.333333  1
  Ag  Ag21  1  0.944006  0.666667  0.333333  1
  Ag  Ag22  1  0.041630  0.333333  0.666667  1
  Ag  Ag23  1  0.465237  0.333333  0.666667  1
