# generated using pymatgen
data_Yb4Al4GaOs3
_symmetry_space_group_name_H-M   'P 1'
_cell_length_a   5.50214113
_cell_length_b   5.53612788
_cell_length_c   8.60033200
_cell_angle_alpha   90.00000000
_cell_angle_beta   90.00000000
_cell_angle_gamma   120.47664729
_symmetry_Int_Tables_number   1
_chemical_formula_structural   Yb4Al4GaOs3
_chemical_formula_sum   'Yb4 Al4 Ga1 Os3'
_cell_volume   225.77594198
_cell_formula_units_Z   1
loop_
 _symmetry_equiv_pos_site_id
 _symmetry_equiv_pos_as_xyz
  1  'x, y, z'
loop_
 _atom_site_type_symbol
 _atom_site_label
 _atom_site_symmetry_multiplicity
 _atom_site_fract_x
 _atom_site_fract_y
 _atom_site_fract_z
 _atom_site_occupancy
  Yb  Yb0  1  0.333857  0.667076  0.440913  1
  Yb  Yb1  1  0.669616  0.332198  0.552788  1
  Yb  Yb2  1  0.669616  0.332198  0.947212  1
  Yb  Yb3  1  0.333857  0.667076  0.059087  1
  Al  Al4  1  0.838284  0.683722  0.250000  1
  Al  Al5  1  0.315522  0.161940  0.250000  1
  Al  Al6  1  0.188285  0.847140  0.750000  1
  Al  Al7  1  0.189235  0.339323  0.750000  1
  Ga  Ga8  1  0.834853  0.164785  0.250000  1
  Os  Os9  1  0.979330  0.985428  0.511063  1
  Os  Os10  1  0.979330  0.985428  0.988937  1
  Os  Os11  1  0.668214  0.833686  0.750000  1
