# generated using pymatgen
data_Tb15HoCd4Co3Pd
_symmetry_space_group_name_H-M   'P 1'
_cell_length_a   9.59403026
_cell_length_b   9.59402030
_cell_length_c   9.58935947
_cell_angle_alpha   59.93101580
_cell_angle_beta   59.94390664
_cell_angle_gamma   59.97825546
_symmetry_Int_Tables_number   1
_chemical_formula_structural   Tb15HoCd4Co3Pd
_chemical_formula_sum   'Tb15 Ho1 Cd4 Co3 Pd1'
_cell_volume   623.43882958
_cell_formula_units_Z   1
loop_
 _symmetry_equiv_pos_site_id
 _symmetry_equiv_pos_as_xyz
  1  'x, y, z'
loop_
 _atom_site_type_symbol
 _atom_site_label
 _atom_site_symmetry_multiplicity
 _atom_site_fract_x
 _atom_site_fract_y
 _atom_site_fract_z
 _atom_site_occupancy
  Tb  Tb0  1  0.594263  0.594210  0.595431  1
  Tb  Tb1  1  0.188211  0.813970  0.814737  1
  Tb  Tb2  1  0.061200  0.061232  0.436278  1
  Tb  Tb3  1  0.436527  0.061743  0.060918  1
  Tb  Tb4  1  0.813992  0.188237  0.814625  1
  Tb  Tb5  1  0.439292  0.049987  0.438634  1
  Tb  Tb6  1  0.604518  0.204515  0.604532  1
  Tb  Tb7  1  0.814383  0.814255  0.188187  1
  Tb  Tb8  1  0.204578  0.604497  0.604436  1
  Tb  Tb9  1  0.812205  0.188315  0.187790  1
  Tb  Tb10  1  0.050009  0.439338  0.438557  1
  Tb  Tb11  1  0.188311  0.812094  0.187826  1
  Tb  Tb12  1  0.604285  0.604334  0.204492  1
  Tb  Tb13  1  0.187857  0.187909  0.812758  1
  Tb  Tb14  1  0.061709  0.436545  0.060927  1
  Ho  Ho15  1  0.438977  0.439117  0.049827  1
  Cd  Cd16  1  0.829790  0.829798  0.507768  1
  Cd  Cd17  1  0.830932  0.831001  0.830808  1
  Cd  Cd18  1  0.507525  0.829747  0.829966  1
  Cd  Cd19  1  0.829775  0.507476  0.829995  1
  Co  Co20  1  0.826333  0.391381  0.391607  1
  Co  Co21  1  0.391380  0.826331  0.391591  1
  Co  Co22  1  0.391493  0.391489  0.826488  1
  Pd  Pd23  1  0.392452  0.392481  0.391818  1
