# generated using pymatgen
data_Tm5Lu5(Zn2Bi)2
_symmetry_space_group_name_H-M   'P 1'
_cell_length_a   8.50961061
_cell_length_b   8.50961019
_cell_length_c   8.50617627
_cell_angle_alpha   123.88142828
_cell_angle_beta   123.88142482
_cell_angle_gamma   83.43662410
_symmetry_Int_Tables_number   1
_chemical_formula_structural   Tm5Lu5(Zn2Bi)2
_chemical_formula_sum   'Tm5 Lu5 Zn4 Bi2'
_cell_volume   406.91792217
_cell_formula_units_Z   1
loop_
 _symmetry_equiv_pos_site_id
 _symmetry_equiv_pos_as_xyz
  1  'x, y, z'
loop_
 _atom_site_type_symbol
 _atom_site_label
 _atom_site_symmetry_multiplicity
 _atom_site_fract_x
 _atom_site_fract_y
 _atom_site_fract_z
 _atom_site_occupancy
  Tm  Tm0  1  0.294757  0.489529  0.499966  1
  Tm  Tm1  1  0.010307  0.205030  0.499914  1
  Tm  Tm2  1  0.510436  0.010436  0.805389  1
  Tm  Tm3  1  0.705030  0.510307  0.499914  1
  Tm  Tm4  1  0.989529  0.794757  0.499966  1
  Lu  Lu5  1  0.000252  0.000014  0.000125  1
  Lu  Lu6  1  0.500014  0.500252  0.000125  1
  Lu  Lu7  1  0.794525  0.294525  0.805044  1
  Lu  Lu8  1  0.205305  0.705305  0.194649  1
  Lu  Lu9  1  0.489508  0.989508  0.195246  1
  Zn  Zn10  1  0.138805  0.638805  0.777459  1
  Zn  Zn11  1  0.861505  0.361505  0.222797  1
  Zn  Zn12  1  0.638023  0.862005  0.499745  1
  Zn  Zn13  1  0.362005  0.138023  0.499745  1
  Bi  Bi14  1  0.249906  0.250092  0.999957  1
  Bi  Bi15  1  0.750092  0.749906  0.999957  1
