# generated using pymatgen
data_Ca11SmSn4N3
_symmetry_space_group_name_H-M   'P 1'
_cell_length_a   4.90954500
_cell_length_b   4.94220300
_cell_length_c   19.80831900
_cell_angle_alpha   90.00000000
_cell_angle_beta   90.00000000
_cell_angle_gamma   90.00000000
_symmetry_Int_Tables_number   1
_chemical_formula_structural   Ca11SmSn4N3
_chemical_formula_sum   'Ca11 Sm1 Sn4 N3'
_cell_volume   480.62841890
_cell_formula_units_Z   1
loop_
 _symmetry_equiv_pos_site_id
 _symmetry_equiv_pos_as_xyz
  1  'x, y, z'
loop_
 _atom_site_type_symbol
 _atom_site_label
 _atom_site_symmetry_multiplicity
 _atom_site_fract_x
 _atom_site_fract_y
 _atom_site_fract_z
 _atom_site_occupancy
  Ca  Ca0  1  0.500000  0.500000  0.863733  1
  Ca  Ca1  1  0.500000  0.500000  0.136267  1
  Ca  Ca2  1  0.500000  0.500000  0.374453  1
  Ca  Ca3  1  0.500000  0.500000  0.625547  1
  Ca  Ca4  1  0.500000  0.000000  0.000000  1
  Ca  Ca5  1  0.500000  0.000000  0.253884  1
  Ca  Ca6  1  0.500000  0.000000  0.746116  1
  Ca  Ca7  1  0.000000  0.500000  0.000000  1
  Ca  Ca8  1  0.000000  0.500000  0.253930  1
  Ca  Ca9  1  0.000000  0.500000  0.500000  1
  Ca  Ca10  1  0.000000  0.500000  0.746070  1
  Sm  Sm11  1  0.500000  0.000000  0.500000  1
  Sn  Sn12  1  0.000000  0.000000  0.882018  1
  Sn  Sn13  1  0.000000  0.000000  0.117982  1
  Sn  Sn14  1  0.000000  0.000000  0.378866  1
  Sn  Sn15  1  0.000000  0.000000  0.621134  1
  N  N16  1  0.500000  0.500000  0.251365  1
  N  N17  1  0.500000  0.500000  0.500000  1
  N  N18  1  0.500000  0.500000  0.748635  1
