# generated using pymatgen
data_Eu2ErTh(Sn2O7)2
_symmetry_space_group_name_H-M   'P 1'
_cell_length_a   7.54122671
_cell_length_b   7.53666960
_cell_length_c   7.50787700
_cell_angle_alpha   60.12629978
_cell_angle_beta   60.14618599
_cell_angle_gamma   60.09061071
_symmetry_Int_Tables_number   1
_chemical_formula_structural   Eu2ErTh(Sn2O7)2
_chemical_formula_sum   'Eu2 Er1 Th1 Sn4 O14'
_cell_volume   302.56077347
_cell_formula_units_Z   1
loop_
 _symmetry_equiv_pos_site_id
 _symmetry_equiv_pos_as_xyz
  1  'x, y, z'
loop_
 _atom_site_type_symbol
 _atom_site_label
 _atom_site_symmetry_multiplicity
 _atom_site_fract_x
 _atom_site_fract_y
 _atom_site_fract_z
 _atom_site_occupancy
  Eu  Eu0  1  0.125000  0.125000  0.125000  1
  Eu  Eu1  1  0.125000  0.125000  0.625000  1
  Er  Er2  1  0.625000  0.125000  0.125000  1
  Th  Th3  1  0.125000  0.625000  0.125000  1
  Sn  Sn4  1  0.625000  0.625000  0.625000  1
  Sn  Sn5  1  0.125000  0.625000  0.625000  1
  Sn  Sn6  1  0.625000  0.125000  0.625000  1
  Sn  Sn7  1  0.625000  0.625000  0.125000  1
  O  O8  1  0.959838  0.545173  0.961887  1
  O  O9  1  0.704204  0.290935  0.287456  1
  O  O10  1  0.290162  0.704827  0.716899  1
  O  O11  1  0.704204  0.290935  0.717406  1
  O  O12  1  0.290788  0.292316  0.708448  1
  O  O13  1  0.711309  0.711148  0.288772  1
  O  O14  1  0.959212  0.957684  0.541552  1
  O  O15  1  0.545796  0.959065  0.962544  1
  O  O16  1  0.959838  0.545173  0.533101  1
  O  O17  1  0.538691  0.538852  0.961228  1
  O  O18  1  0.290162  0.704827  0.288113  1
  O  O19  1  0.545796  0.959065  0.532594  1
  O  O20  1  0.985871  0.991050  0.011539  1
  O  O21  1  0.264129  0.258950  0.238461  1
