# generated using pymatgen
data_YbDy2(Si3Os)4
_symmetry_space_group_name_H-M   'P 1'
_cell_length_a   10.16196901
_cell_length_b   10.16196834
_cell_length_c   8.16347200
_cell_angle_alpha   90.00000000
_cell_angle_beta   90.00000000
_cell_angle_gamma   132.63340856
_symmetry_Int_Tables_number   1
_chemical_formula_structural   YbDy2(Si3Os)4
_chemical_formula_sum   'Yb2 Dy4 Si24 Os8'
_cell_volume   620.20136101
_cell_formula_units_Z   2
loop_
 _symmetry_equiv_pos_site_id
 _symmetry_equiv_pos_as_xyz
  1  'x, y, z'
loop_
 _atom_site_type_symbol
 _atom_site_label
 _atom_site_symmetry_multiplicity
 _atom_site_fract_x
 _atom_site_fract_y
 _atom_site_fract_z
 _atom_site_occupancy
  Yb  Yb0  1  0.500407  0.000407  0.250000  1
  Yb  Yb1  1  0.999593  0.499593  0.750000  1
  Dy  Dy2  1  0.502972  0.002972  0.750000  1
  Dy  Dy3  1  0.997028  0.497028  0.250000  1
  Dy  Dy4  1  0.999975  0.000025  0.000000  1
  Dy  Dy5  1  0.500025  0.499975  0.500000  1
  Si  Si6  1  0.794518  0.205482  0.500000  1
  Si  Si7  1  0.705482  0.294518  0.000000  1
  Si  Si8  1  0.204822  0.795178  0.500000  1
  Si  Si9  1  0.295178  0.704822  0.000000  1
  Si  Si10  1  0.673851  0.660113  0.167047  1
  Si  Si11  1  0.160113  0.173851  0.332953  1
  Si  Si12  1  0.826149  0.839887  0.667047  1
  Si  Si13  1  0.339887  0.326149  0.832953  1
  Si  Si14  1  0.845334  0.610252  0.996520  1
  Si  Si15  1  0.110252  0.345334  0.503480  1
  Si  Si16  1  0.654666  0.889748  0.496520  1
  Si  Si17  1  0.389748  0.154666  0.003480  1
  Si  Si18  1  0.154620  0.388462  0.007308  1
  Si  Si19  1  0.888462  0.654620  0.492692  1
  Si  Si20  1  0.124932  0.890474  0.728096  1
  Si  Si21  1  0.390474  0.624932  0.771904  1
  Si  Si22  1  0.375068  0.609526  0.228096  1
  Si  Si23  1  0.109526  0.875068  0.271904  1
  Si  Si24  1  0.877678  0.113096  0.272335  1
  Si  Si25  1  0.613096  0.377678  0.227665  1
  Si  Si26  1  0.622322  0.386904  0.772335  1
  Si  Si27  1  0.886904  0.122322  0.727665  1
  Si  Si28  1  0.611538  0.845380  0.992692  1
  Si  Si29  1  0.345380  0.111538  0.507308  1
  Os  Os30  1  0.626057  0.627819  0.873050  1
  Os  Os31  1  0.127819  0.126057  0.626950  1
  Os  Os32  1  0.372181  0.373943  0.126950  1
  Os  Os33  1  0.873943  0.872181  0.373050  1
  Os  Os34  1  0.170379  0.829621  0.000000  1
  Os  Os35  1  0.329621  0.670379  0.500000  1
  Os  Os36  1  0.831265  0.168735  0.000000  1
  Os  Os37  1  0.668735  0.331265  0.500000  1
