# generated using pymatgen
data_Ho10Tl7InNiPd3
_symmetry_space_group_name_H-M   'P 1'
_cell_length_a   3.62467500
_cell_length_b   8.17733031
_cell_length_c   18.29524044
_cell_angle_alpha   89.97603752
_cell_angle_beta   90.00000000
_cell_angle_gamma   90.00000000
_symmetry_Int_Tables_number   1
_chemical_formula_structural   Ho10Tl7InNiPd3
_chemical_formula_sum   'Ho10 Tl7 In1 Ni1 Pd3'
_cell_volume   542.27389325
_cell_formula_units_Z   1
loop_
 _symmetry_equiv_pos_site_id
 _symmetry_equiv_pos_as_xyz
  1  'x, y, z'
loop_
 _atom_site_type_symbol
 _atom_site_label
 _atom_site_symmetry_multiplicity
 _atom_site_fract_x
 _atom_site_fract_y
 _atom_site_fract_z
 _atom_site_occupancy
  Ho  Ho0  1  0.000000  0.500284  0.499019  1
  Ho  Ho1  1  0.000000  0.000849  0.000558  1
  Ho  Ho2  1  0.000000  0.734250  0.278299  1
  Ho  Ho3  1  0.000000  0.258310  0.718930  1
  Ho  Ho4  1  0.000000  0.756165  0.781869  1
  Ho  Ho5  1  0.000000  0.253520  0.217979  1
  Ho  Ho6  1  0.000000  0.614431  0.090728  1
  Ho  Ho7  1  0.000000  0.382595  0.916289  1
  Ho  Ho8  1  0.000000  0.882373  0.585248  1
  Ho  Ho9  1  0.000000  0.116874  0.412678  1
  Tl  Tl10  1  0.500000  0.708064  0.935519  1
  Tl  Tl11  1  0.500000  0.296420  0.067243  1
  Tl  Tl12  1  0.500000  0.794285  0.433229  1
  Tl  Tl13  1  0.500000  0.205206  0.564565  1
  Tl  Tl14  1  0.500000  0.581023  0.649633  1
  Tl  Tl15  1  0.500000  0.420349  0.347860  1
  Tl  Tl16  1  0.500000  0.919607  0.149266  1
  In  In17  1  0.500000  0.081831  0.850243  1
  Ni  Ni18  1  0.500000  0.524553  0.196040  1
  Pd  Pd19  1  0.500000  0.469325  0.804558  1
  Pd  Pd20  1  0.500000  0.973448  0.698165  1
  Pd  Pd21  1  0.500000  0.026238  0.302083  1
