# generated using pymatgen
data_Pr2Al3Re14C3
_symmetry_space_group_name_H-M   'P 1'
_cell_length_a   7.00686562
_cell_length_b   7.00686550
_cell_length_c   7.00686700
_cell_angle_alpha   82.62457074
_cell_angle_beta   82.62455921
_cell_angle_gamma   82.62456147
_symmetry_Int_Tables_number   1
_chemical_formula_structural   Pr2Al3Re14C3
_chemical_formula_sum   'Pr2 Al3 Re14 C3'
_cell_volume   336.14469840
_cell_formula_units_Z   1
loop_
 _symmetry_equiv_pos_site_id
 _symmetry_equiv_pos_as_xyz
  1  'x, y, z'
loop_
 _atom_site_type_symbol
 _atom_site_label
 _atom_site_symmetry_multiplicity
 _atom_site_fract_x
 _atom_site_fract_y
 _atom_site_fract_z
 _atom_site_occupancy
  Pr  Pr0  1  0.656847  0.656847  0.656847  1
  Pr  Pr1  1  0.343153  0.343153  0.343153  1
  Al  Al2  1  0.000000  0.000000  0.500000  1
  Al  Al3  1  0.500000  0.000000  0.000000  1
  Al  Al4  1  0.000000  0.500000  0.000000  1
  Re  Re5  1  0.721682  0.278318  0.000000  1
  Re  Re6  1  0.000000  0.721682  0.278318  1
  Re  Re7  1  0.278318  0.000000  0.721682  1
  Re  Re8  1  0.000000  0.278318  0.721682  1
  Re  Re9  1  0.721682  0.000000  0.278318  1
  Re  Re10  1  0.278318  0.721682  0.000000  1
  Re  Re11  1  0.349216  0.349216  0.850380  1
  Re  Re12  1  0.850380  0.349216  0.349216  1
  Re  Re13  1  0.349216  0.850380  0.349216  1
  Re  Re14  1  0.650784  0.650784  0.149620  1
  Re  Re15  1  0.149620  0.650784  0.650784  1
  Re  Re16  1  0.650784  0.149620  0.650784  1
  Re  Re17  1  0.904131  0.904131  0.904131  1
  Re  Re18  1  0.095869  0.095869  0.095869  1
  C  C19  1  0.500000  0.500000  0.000000  1
  C  C20  1  0.000000  0.500000  0.500000  1
  C  C21  1  0.500000  0.000000  0.500000  1
