# generated using pymatgen
data_LiTb2Dy2Sc5Si8
_symmetry_space_group_name_H-M   'P 1'
_cell_length_a   7.01696846
_cell_length_b   7.41326151
_cell_length_c   14.02736405
_cell_angle_alpha   90.00994649
_cell_angle_beta   90.01243115
_cell_angle_gamma   89.94415754
_symmetry_Int_Tables_number   1
_chemical_formula_structural   LiTb2Dy2Sc5Si8
_chemical_formula_sum   'Li2 Tb4 Dy4 Sc10 Si16'
_cell_volume   729.68377637
_cell_formula_units_Z   2
loop_
 _symmetry_equiv_pos_site_id
 _symmetry_equiv_pos_as_xyz
  1  'x, y, z'
loop_
 _atom_site_type_symbol
 _atom_site_label
 _atom_site_symmetry_multiplicity
 _atom_site_fract_x
 _atom_site_fract_y
 _atom_site_fract_z
 _atom_site_occupancy
  Li  Li0  1  0.158859  0.503608  0.749784  1
  Li  Li1  1  0.841035  0.496081  0.250193  1
  Tb  Tb2  1  0.009989  0.183192  0.099022  1
  Tb  Tb3  1  0.989917  0.816990  0.901188  1
  Tb  Tb4  1  0.483927  0.674100  0.902087  1
  Tb  Tb5  1  0.989932  0.816833  0.598499  1
  Dy  Dy6  1  0.515965  0.325692  0.098349  1
  Dy  Dy7  1  0.010300  0.183644  0.400900  1
  Dy  Dy8  1  0.515939  0.325593  0.401997  1
  Dy  Dy9  1  0.483876  0.674294  0.597954  1
  Sc  Sc10  1  0.340414  0.002110  0.250163  1
  Sc  Sc11  1  0.659674  0.998146  0.749838  1
  Sc  Sc12  1  0.327090  0.182360  0.625670  1
  Sc  Sc13  1  0.672892  0.817589  0.374268  1
  Sc  Sc14  1  0.166414  0.674458  0.373398  1
  Sc  Sc15  1  0.672997  0.817712  0.126071  1
  Sc  Sc16  1  0.833770  0.325326  0.626389  1
  Sc  Sc17  1  0.327119  0.182348  0.874147  1
  Sc  Sc18  1  0.833707  0.325530  0.873253  1
  Sc  Sc19  1  0.166324  0.674394  0.126841  1
  Si  Si20  1  0.030382  0.104839  0.749798  1
  Si  Si21  1  0.969785  0.895726  0.250301  1
  Si  Si22  1  0.464641  0.613773  0.250187  1
  Si  Si23  1  0.535717  0.385680  0.749739  1
  Si  Si24  1  0.288756  0.883844  0.749739  1
  Si  Si25  1  0.711357  0.116814  0.250387  1
  Si  Si26  1  0.220856  0.373715  0.250232  1
  Si  Si27  1  0.779314  0.625892  0.749655  1
  Si  Si28  1  0.159137  0.460476  0.533032  1
  Si  Si29  1  0.841005  0.538469  0.466431  1
  Si  Si30  1  0.343432  0.966829  0.461157  1
  Si  Si31  1  0.840851  0.539009  0.033401  1
  Si  Si32  1  0.655968  0.033441  0.538593  1
  Si  Si33  1  0.158483  0.460616  0.966950  1
  Si  Si34  1  0.656143  0.033948  0.961477  1
  Si  Si35  1  0.344036  0.966925  0.038911  1
