# generated using pymatgen
data_V3Si3Os10
_symmetry_space_group_name_H-M   'P 1'
_cell_length_a   4.02613900
_cell_length_b   5.30105071
_cell_length_c   10.30492184
_cell_angle_alpha   89.14861159
_cell_angle_beta   90.00000000
_cell_angle_gamma   90.00000000
_symmetry_Int_Tables_number   1
_chemical_formula_structural   V3Si3Os10
_chemical_formula_sum   'V3 Si3 Os10'
_cell_volume   219.91126498
_cell_formula_units_Z   1
loop_
 _symmetry_equiv_pos_site_id
 _symmetry_equiv_pos_as_xyz
  1  'x, y, z'
loop_
 _atom_site_type_symbol
 _atom_site_label
 _atom_site_symmetry_multiplicity
 _atom_site_fract_x
 _atom_site_fract_y
 _atom_site_fract_z
 _atom_site_occupancy
  V  V0  1  0.500000  0.168480  0.638137  1
  V  V1  1  0.500000  0.855066  0.354032  1
  V  V2  1  0.500000  0.663037  0.860095  1
  Si  Si3  1  0.500000  0.340351  0.141079  1
  Si  Si4  1  0.000000  0.478505  0.510032  1
  Si  Si5  1  0.000000  0.954064  0.989116  1
  Os  Os6  1  0.500000  0.331856  0.390343  1
  Os  Os7  1  0.500000  0.683281  0.607741  1
  Os  Os8  1  0.500000  0.812281  0.108002  1
  Os  Os9  1  0.500000  0.177691  0.893129  1
  Os  Os10  1  0.000000  0.431223  0.763945  1
  Os  Os11  1  0.000000  0.622202  0.273218  1
  Os  Os12  1  0.000000  0.930677  0.738508  1
  Os  Os13  1  0.000000  0.111808  0.228373  1
  Os  Os14  1  0.000000  0.457830  0.018013  1
  Os  Os15  1  0.000000  0.981648  0.486238  1
