# generated using pymatgen
data_HgCl30
_symmetry_space_group_name_H-M   'P 1'
_cell_length_a   13.15203361
_cell_length_b   13.15203411
_cell_length_c   16.65241294
_cell_angle_alpha   84.39825213
_cell_angle_beta   84.39825397
_cell_angle_gamma   124.60965285
_symmetry_Int_Tables_number   1
_chemical_formula_structural   HgCl30
_chemical_formula_sum   'Hg1 Cl30'
_cell_volume   2317.86462018
_cell_formula_units_Z   1
loop_
 _symmetry_equiv_pos_site_id
 _symmetry_equiv_pos_as_xyz
  1  'x, y, z'
loop_
 _atom_site_type_symbol
 _atom_site_label
 _atom_site_symmetry_multiplicity
 _atom_site_fract_x
 _atom_site_fract_y
 _atom_site_fract_z
 _atom_site_occupancy
  Hg  Hg0  1  0.000000  0.000000  0.000000  1
  Cl  Cl1  1  0.929613  0.929613  0.196412  1
  Cl  Cl2  1  0.070387  0.070387  0.803588  1
  Cl  Cl3  1  0.062883  0.205755  0.005478  1
  Cl  Cl4  1  0.937117  0.794245  0.994522  1
  Cl  Cl5  1  0.205755  0.062883  0.005478  1
  Cl  Cl6  1  0.794245  0.937117  0.994522  1
  Cl  Cl7  1  0.203953  0.744925  0.061175  1
  Cl  Cl8  1  0.796047  0.255075  0.938825  1
  Cl  Cl9  1  0.700120  0.081560  0.254395  1
  Cl  Cl10  1  0.255075  0.796047  0.938825  1
  Cl  Cl11  1  0.299880  0.918440  0.745605  1
  Cl  Cl12  1  0.744925  0.203953  0.061175  1
  Cl  Cl13  1  0.990686  0.196344  0.767050  1
  Cl  Cl14  1  0.918440  0.299880  0.745605  1
  Cl  Cl15  1  0.009314  0.803656  0.232950  1
  Cl  Cl16  1  0.081560  0.700120  0.254395  1
  Cl  Cl17  1  0.803656  0.009314  0.232950  1
  Cl  Cl18  1  0.196344  0.990686  0.767050  1
  Cl  Cl19  1  0.464751  0.550204  0.260853  1
  Cl  Cl20  1  0.535249  0.449796  0.739147  1
  Cl  Cl21  1  0.505914  0.204371  0.452243  1
  Cl  Cl22  1  0.449796  0.535249  0.739147  1
  Cl  Cl23  1  0.494086  0.795629  0.547757  1
  Cl  Cl24  1  0.550204  0.464751  0.260853  1
  Cl  Cl25  1  0.238998  0.428637  0.544648  1
  Cl  Cl26  1  0.795629  0.494086  0.547757  1
  Cl  Cl27  1  0.761002  0.571363  0.455352  1
  Cl  Cl28  1  0.204371  0.505914  0.452243  1
  Cl  Cl29  1  0.571363  0.761002  0.455352  1
  Cl  Cl30  1  0.428637  0.238998  0.544648  1
