# generated using pymatgen
data_Pt4Pb4O13
_symmetry_space_group_name_H-M   'P 1'
_cell_length_a   7.40940479
_cell_length_b   7.40940406
_cell_length_c   7.40940500
_cell_angle_alpha   60.00000027
_cell_angle_beta   60.00000351
_cell_angle_gamma   59.99999910
_symmetry_Int_Tables_number   1
_chemical_formula_structural   Pt4Pb4O13
_chemical_formula_sum   'Pt4 Pb4 O13'
_cell_volume   287.63050671
_cell_formula_units_Z   1
loop_
 _symmetry_equiv_pos_site_id
 _symmetry_equiv_pos_as_xyz
  1  'x, y, z'
loop_
 _atom_site_type_symbol
 _atom_site_label
 _atom_site_symmetry_multiplicity
 _atom_site_fract_x
 _atom_site_fract_y
 _atom_site_fract_z
 _atom_site_occupancy
  Pt  Pt0  1  0.874457  0.376628  0.874457  1
  Pt  Pt1  1  0.874457  0.874457  0.376628  1
  Pt  Pt2  1  0.874457  0.874457  0.874457  1
  Pt  Pt3  1  0.376628  0.874457  0.874457  1
  Pb  Pb4  1  0.883674  0.372109  0.372109  1
  Pb  Pb5  1  0.372109  0.372109  0.372109  1
  Pb  Pb6  1  0.372109  0.372109  0.883674  1
  Pb  Pb7  1  0.372109  0.883674  0.372109  1
  O  O8  1  0.205467  0.794533  0.794533  1
  O  O9  1  0.205467  0.794533  0.205467  1
  O  O10  1  0.547284  0.952716  0.952716  1
  O  O11  1  0.547284  0.952716  0.547284  1
  O  O12  1  0.952716  0.952716  0.547284  1
  O  O13  1  0.794533  0.794533  0.205467  1
  O  O14  1  0.547284  0.547284  0.952716  1
  O  O15  1  0.794533  0.205467  0.794533  1
  O  O16  1  0.794533  0.205467  0.205467  1
  O  O17  1  0.952716  0.547284  0.952716  1
  O  O18  1  0.952716  0.547284  0.547284  1
  O  O19  1  0.205467  0.205467  0.794533  1
  O  O20  1  0.500000  0.500000  0.500000  1
