# generated using pymatgen
data_Sc12In2Fe3
_symmetry_space_group_name_H-M   'P 1'
_cell_length_a   7.80234214
_cell_length_b   7.80234175
_cell_length_c   7.80234220
_cell_angle_alpha   108.52520349
_cell_angle_beta   108.52520343
_cell_angle_gamma   111.38028863
_symmetry_Int_Tables_number   1
_chemical_formula_structural   Sc12In2Fe3
_chemical_formula_sum   'Sc12 In2 Fe3'
_cell_volume   365.33387849
_cell_formula_units_Z   1
loop_
 _symmetry_equiv_pos_site_id
 _symmetry_equiv_pos_as_xyz
  1  'x, y, z'
loop_
 _atom_site_type_symbol
 _atom_site_label
 _atom_site_symmetry_multiplicity
 _atom_site_fract_x
 _atom_site_fract_y
 _atom_site_fract_z
 _atom_site_occupancy
  Sc  Sc0  1  0.305897  0.305897  0.611794  1
  Sc  Sc1  1  0.694103  0.694103  0.388206  1
  Sc  Sc2  1  0.694103  0.305897  0.000000  1
  Sc  Sc3  1  0.305897  0.694103  0.000000  1
  Sc  Sc4  1  0.192254  0.427620  0.235366  1
  Sc  Sc5  1  0.807746  0.572380  0.764634  1
  Sc  Sc6  1  0.192254  0.956887  0.764634  1
  Sc  Sc7  1  0.956887  0.192254  0.764634  1
  Sc  Sc8  1  0.807746  0.043113  0.235366  1
  Sc  Sc9  1  0.043113  0.807746  0.235366  1
  Sc  Sc10  1  0.427620  0.192254  0.235366  1
  Sc  Sc11  1  0.572380  0.807746  0.764634  1
  In  In12  1  0.000000  0.500000  0.500000  1
  In  In13  1  0.500000  0.000000  0.500000  1
  Fe  Fe14  1  0.378501  0.378501  0.000000  1
  Fe  Fe15  1  0.621499  0.621499  0.000000  1
  Fe  Fe16  1  0.000000  0.000000  0.000000  1
