# generated using pymatgen
data_Y8Hf7Si16Mo5
_symmetry_space_group_name_H-M   'P 1'
_cell_length_a   7.13609163
_cell_length_b   7.13231192
_cell_length_c   13.07612796
_cell_angle_alpha   89.75123169
_cell_angle_beta   89.97392884
_cell_angle_gamma   90.11222721
_symmetry_Int_Tables_number   1
_chemical_formula_structural   Y8Hf7Si16Mo5
_chemical_formula_sum   'Y8 Hf7 Si16 Mo5'
_cell_volume   665.52585789
_cell_formula_units_Z   1
loop_
 _symmetry_equiv_pos_site_id
 _symmetry_equiv_pos_as_xyz
  1  'x, y, z'
loop_
 _atom_site_type_symbol
 _atom_site_label
 _atom_site_symmetry_multiplicity
 _atom_site_fract_x
 _atom_site_fract_y
 _atom_site_fract_z
 _atom_site_occupancy
  Y  Y0  1  0.998966  0.344939  0.218746  1
  Y  Y1  1  0.001672  0.656948  0.714024  1
  Y  Y2  1  0.154815  0.500128  0.465709  1
  Y  Y3  1  0.499483  0.845270  0.036021  1
  Y  Y4  1  0.844391  0.501806  0.965702  1
  Y  Y5  1  0.499359  0.154760  0.532136  1
  Y  Y6  1  0.345252  0.999432  0.784134  1
  Y  Y7  1  0.655641  0.001013  0.284227  1
  Hf  Hf8  1  0.852896  0.006379  0.874508  1
  Hf  Hf9  1  0.504710  0.648494  0.620984  1
  Hf  Hf10  1  0.353174  0.492918  0.876023  1
  Hf  Hf11  1  0.491623  0.349367  0.125842  1
  Hf  Hf12  1  0.647455  0.510411  0.377072  1
  Hf  Hf13  1  0.994112  0.147376  0.625904  1
  Hf  Hf14  1  0.004088  0.852044  0.124435  1
  Si  Si15  1  0.361180  0.289177  0.320695  1
  Si  Si16  1  0.639010  0.702038  0.815327  1
  Si  Si17  1  0.199470  0.863783  0.560995  1
  Si  Si18  1  0.139520  0.796602  0.932746  1
  Si  Si19  1  0.797749  0.140492  0.067111  1
  Si  Si20  1  0.870409  0.197041  0.430333  1
  Si  Si21  1  0.299548  0.360156  0.682670  1
  Si  Si22  1  0.702838  0.638458  0.183625  1
  Si  Si23  1  0.293714  0.046053  0.189422  1
  Si  Si24  1  0.705188  0.948934  0.683548  1
  Si  Si25  1  0.438879  0.797626  0.430599  1
  Si  Si26  1  0.204178  0.550149  0.066507  1
  Si  Si27  1  0.550597  0.203863  0.934567  1
  Si  Si28  1  0.794726  0.446363  0.566470  1
  Si  Si29  1  0.050690  0.296332  0.816465  1
  Si  Si30  1  0.956394  0.714652  0.317786  1
  Mo  Mo31  1  0.173839  0.174102  0.002019  1
  Mo  Mo32  1  0.827091  0.827176  0.499106  1
  Mo  Mo33  1  0.323151  0.674493  0.250135  1
  Mo  Mo34  1  0.676521  0.325185  0.750007  1
  Mo  Mo35  1  0.147670  0.996040  0.374398  1
