# generated using pymatgen
data_Tb3Ho3Al24Ir3Ru4Au
_symmetry_space_group_name_H-M   'P 1'
_cell_length_a   8.85959773
_cell_length_b   8.86301561
_cell_length_c   9.52844012
_cell_angle_alpha   89.79065407
_cell_angle_beta   90.11237536
_cell_angle_gamma   120.08684615
_symmetry_Int_Tables_number   1
_chemical_formula_structural   Tb3Ho3Al24Ir3Ru4Au
_chemical_formula_sum   'Tb3 Ho3 Al24 Ir3 Ru4 Au1'
_cell_volume   647.38752889
_cell_formula_units_Z   1
loop_
 _symmetry_equiv_pos_site_id
 _symmetry_equiv_pos_as_xyz
  1  'x, y, z'
loop_
 _atom_site_type_symbol
 _atom_site_label
 _atom_site_symmetry_multiplicity
 _atom_site_fract_x
 _atom_site_fract_y
 _atom_site_fract_z
 _atom_site_occupancy
  Tb  Tb0  1  0.192272  0.384961  0.250180  1
  Tb  Tb1  1  0.807518  0.614766  0.749833  1
  Tb  Tb2  1  0.615012  0.807967  0.249798  1
  Ho  Ho3  1  0.386461  0.192551  0.749915  1
  Ho  Ho4  1  0.193793  0.807080  0.253726  1
  Ho  Ho5  1  0.805834  0.192889  0.746262  1
  Al  Al6  1  0.329931  0.673700  0.028117  1
  Al  Al7  1  0.669562  0.326109  0.971497  1
  Al  Al8  1  0.665177  0.334203  0.524076  1
  Al  Al9  1  0.334371  0.665527  0.476296  1
  Al  Al10  1  0.162985  0.325283  0.575829  1
  Al  Al11  1  0.837127  0.674505  0.424544  1
  Al  Al12  1  0.674446  0.837262  0.575179  1
  Al  Al13  1  0.848270  0.678045  0.079626  1
  Al  Al14  1  0.325509  0.162714  0.425355  1
  Al  Al15  1  0.151791  0.321765  0.920060  1
  Al  Al16  1  0.163133  0.837702  0.576412  1
  Al  Al17  1  0.322856  0.150773  0.078857  1
  Al  Al18  1  0.836944  0.162590  0.423895  1
  Al  Al19  1  0.677084  0.849215  0.920626  1
  Al  Al20  1  0.835823  0.161828  0.076391  1
  Al  Al21  1  0.164287  0.838544  0.923273  1
  Al  Al22  1  0.561945  0.122803  0.248036  1
  Al  Al23  1  0.437760  0.877544  0.751950  1
  Al  Al24  1  0.875701  0.437252  0.249673  1
  Al  Al25  1  0.124323  0.562737  0.750327  1
  Al  Al26  1  0.564867  0.435225  0.257768  1
  Al  Al27  1  0.434860  0.564169  0.742354  1
  Al  Al28  1  0.000793  0.000603  0.250407  1
  Al  Al29  1  0.000101  0.999904  0.749643  1
  Ir  Ir30  1  0.999913  0.499956  0.000001  1
  Ir  Ir31  1  0.499846  0.000164  0.500179  1
  Ir  Ir32  1  0.999854  0.499915  0.500022  1
  Ru  Ru33  1  0.499877  0.000142  0.999831  1
  Ru  Ru34  1  0.499895  0.499747  0.500177  1
  Ru  Ru35  1  0.000077  0.000042  0.999956  1
  Ru  Ru36  1  0.000108  0.000033  0.500065  1
  Au  Au37  1  0.499894  0.499786  0.999864  1
