# generated using pymatgen
data_NdSmLu2(NiP)4
_symmetry_space_group_name_H-M   'P 1'
_cell_length_a   3.90473000
_cell_length_b   3.90473004
_cell_length_c   15.59016900
_cell_angle_alpha   90.00000000
_cell_angle_beta   90.00000000
_cell_angle_gamma   119.99998271
_symmetry_Int_Tables_number   1
_chemical_formula_structural   NdSmLu2(NiP)4
_chemical_formula_sum   'Nd1 Sm1 Lu2 Ni4 P4'
_cell_volume   205.85601117
_cell_formula_units_Z   1
loop_
 _symmetry_equiv_pos_site_id
 _symmetry_equiv_pos_as_xyz
  1  'x, y, z'
loop_
 _atom_site_type_symbol
 _atom_site_label
 _atom_site_symmetry_multiplicity
 _atom_site_fract_x
 _atom_site_fract_y
 _atom_site_fract_z
 _atom_site_occupancy
  Nd  Nd0  1  0.000000  0.000000  0.000000  1
  Sm  Sm1  1  0.000000  0.000000  0.500000  1
  Lu  Lu2  1  0.000000  0.000000  0.252235  1
  Lu  Lu3  1  0.000000  0.000000  0.747765  1
  Ni  Ni4  1  0.333333  0.666667  0.361981  1
  Ni  Ni5  1  0.666667  0.333333  0.638019  1
  Ni  Ni6  1  0.666667  0.333333  0.860042  1
  Ni  Ni7  1  0.333333  0.666667  0.139958  1
  P  P8  1  0.333333  0.666667  0.870841  1
  P  P9  1  0.666667  0.333333  0.129159  1
  P  P10  1  0.666667  0.333333  0.374814  1
  P  P11  1  0.333333  0.666667  0.625186  1
