# generated using pymatgen
data_Ho2TmLu3(Co3P2)6
_symmetry_space_group_name_H-M   'P 1'
_cell_length_a   3.66752400
_cell_length_b   10.46254301
_cell_length_c   12.09811902
_cell_angle_alpha   90.00594778
_cell_angle_beta   90.00000000
_cell_angle_gamma   90.00000000
_symmetry_Int_Tables_number   1
_chemical_formula_structural   Ho2TmLu3(Co3P2)6
_chemical_formula_sum   'Ho2 Tm1 Lu3 Co18 P12'
_cell_volume   464.22451512
_cell_formula_units_Z   1
loop_
 _symmetry_equiv_pos_site_id
 _symmetry_equiv_pos_as_xyz
  1  'x, y, z'
loop_
 _atom_site_type_symbol
 _atom_site_label
 _atom_site_symmetry_multiplicity
 _atom_site_fract_x
 _atom_site_fract_y
 _atom_site_fract_z
 _atom_site_occupancy
  Ho  Ho0  1  0.000000  0.500086  0.522701  1
  Ho  Ho1  1  0.500000  0.999976  0.477242  1
  Tm  Tm2  1  0.000000  0.317949  0.794114  1
  Lu  Lu3  1  0.500000  0.817951  0.205919  1
  Lu  Lu4  1  0.500000  0.182044  0.205900  1
  Lu  Lu5  1  0.000000  0.682095  0.794088  1
  Co  Co6  1  0.500000  0.500006  0.159099  1
  Co  Co7  1  0.000000  0.000008  0.840910  1
  Co  Co8  1  0.500000  0.500406  0.703982  1
  Co  Co9  1  0.000000  0.999976  0.295814  1
  Co  Co10  1  0.000000  0.500112  0.985953  1
  Co  Co11  1  0.500000  0.999907  0.014205  1
  Co  Co12  1  0.500000  0.333057  0.994602  1
  Co  Co13  1  0.500000  0.667038  0.994391  1
  Co  Co14  1  0.000000  0.166850  0.005782  1
  Co  Co15  1  0.000000  0.833050  0.005638  1
  Co  Co16  1  0.500000  0.297422  0.430308  1
  Co  Co17  1  0.500000  0.702588  0.430353  1
  Co  Co18  1  0.000000  0.202519  0.569496  1
  Co  Co19  1  0.000000  0.797397  0.569622  1
  Co  Co20  1  0.500000  0.878226  0.710069  1
  Co  Co21  1  0.500000  0.121391  0.709883  1
  Co  Co22  1  0.000000  0.621789  0.289955  1
  Co  Co23  1  0.000000  0.378267  0.289924  1
  P  P24  1  0.500000  0.500314  0.881787  1
  P  P25  1  0.000000  0.999966  0.118408  1
  P  P26  1  0.500000  0.500002  0.344452  1
  P  P27  1  0.000000  0.000070  0.655567  1
  P  P28  1  0.500000  0.311324  0.616859  1
  P  P29  1  0.500000  0.688600  0.617243  1
  P  P30  1  0.000000  0.188569  0.382714  1
  P  P31  1  0.000000  0.811381  0.382745  1
  P  P32  1  0.500000  0.846592  0.892117  1
  P  P33  1  0.500000  0.153058  0.892349  1
  P  P34  1  0.000000  0.653473  0.107931  1
  P  P35  1  0.000000  0.346541  0.107877  1
