# generated using pymatgen
data_Th2PaRe5O24
_symmetry_space_group_name_H-M   'P 1'
_cell_length_a   10.70345200
_cell_length_b   10.50359128
_cell_length_c   6.40519600
_cell_angle_alpha   90.00000000
_cell_angle_beta   90.00000000
_cell_angle_gamma   120.55070763
_symmetry_Int_Tables_number   1
_chemical_formula_structural   Th2PaRe5O24
_chemical_formula_sum   'Th2 Pa1 Re5 O24'
_cell_volume   620.13730743
_cell_formula_units_Z   1
loop_
 _symmetry_equiv_pos_site_id
 _symmetry_equiv_pos_as_xyz
  1  'x, y, z'
loop_
 _atom_site_type_symbol
 _atom_site_label
 _atom_site_symmetry_multiplicity
 _atom_site_fract_x
 _atom_site_fract_y
 _atom_site_fract_z
 _atom_site_occupancy
  Th  Th0  1  0.677110  0.337276  0.750000  1
  Th  Th1  1  0.302340  0.640453  0.250000  1
  Pa  Pa2  1  0.083798  0.358425  0.750000  1
  Re  Re3  1  0.400958  0.297889  0.250000  1
  Re  Re4  1  0.594606  0.685569  0.750000  1
  Re  Re5  1  0.909738  0.622683  0.250000  1
  Re  Re6  1  0.312298  0.912736  0.750000  1
  Re  Re7  1  0.685777  0.083319  0.250000  1
  O  O8  1  0.485939  0.643820  0.525697  1
  O  O9  1  0.352639  0.843483  0.525369  1
  O  O10  1  0.858014  0.753869  0.250000  1
  O  O11  1  0.130767  0.858864  0.750000  1
  O  O12  1  0.277947  0.110287  0.250000  1
  O  O13  1  0.223813  0.301105  0.750000  1
  O  O14  1  0.514676  0.344959  0.029035  1
  O  O15  1  0.870121  0.145068  0.250000  1
  O  O16  1  0.099738  0.711927  0.250000  1
  O  O17  1  0.159263  0.512629  0.001126  1
  O  O18  1  0.159263  0.512629  0.498874  1
  O  O19  1  0.868334  0.319444  0.750000  1
  O  O20  1  0.309087  0.396533  0.250000  1
  O  O21  1  0.682615  0.581768  0.750000  1
  O  O22  1  0.837236  0.508909  0.472564  1
  O  O23  1  0.420497  0.107394  0.750000  1
  O  O24  1  0.642486  0.152410  0.027266  1
  O  O25  1  0.485939  0.643820  0.974303  1
  O  O26  1  0.352639  0.843483  0.974631  1
  O  O27  1  0.642486  0.152410  0.472734  1
  O  O28  1  0.514676  0.344959  0.470965  1
  O  O29  1  0.837236  0.508909  0.027436  1
  O  O30  1  0.722323  0.872549  0.750000  1
  O  O31  1  0.585643  0.890422  0.250000  1
