# generated using pymatgen
data_Tm20IrOs3Pd8
_symmetry_space_group_name_H-M   'P 1'
_cell_length_a   10.87036300
_cell_length_b   10.87036300
_cell_length_c   6.23199300
_cell_angle_alpha   90.00000000
_cell_angle_beta   90.00000000
_cell_angle_gamma   90.00000000
_symmetry_Int_Tables_number   1
_chemical_formula_structural   Tm20IrOs3Pd8
_chemical_formula_sum   'Tm20 Ir1 Os3 Pd8'
_cell_volume   736.40215504
_cell_formula_units_Z   1
loop_
 _symmetry_equiv_pos_site_id
 _symmetry_equiv_pos_as_xyz
  1  'x, y, z'
loop_
 _atom_site_type_symbol
 _atom_site_label
 _atom_site_symmetry_multiplicity
 _atom_site_fract_x
 _atom_site_fract_y
 _atom_site_fract_z
 _atom_site_occupancy
  Tm  Tm0  1  0.297212  0.084600  0.361620  1
  Tm  Tm1  1  0.297360  0.915922  0.861937  1
  Tm  Tm2  1  0.702640  0.084078  0.861937  1
  Tm  Tm3  1  0.702788  0.915400  0.361620  1
  Tm  Tm4  1  0.584078  0.797360  0.861937  1
  Tm  Tm5  1  0.584600  0.202788  0.361620  1
  Tm  Tm6  1  0.415400  0.797212  0.361620  1
  Tm  Tm7  1  0.415922  0.202640  0.861937  1
  Tm  Tm8  1  0.204493  0.414462  0.640873  1
  Tm  Tm9  1  0.203784  0.585542  0.137010  1
  Tm  Tm10  1  0.796216  0.414458  0.137010  1
  Tm  Tm11  1  0.795507  0.585538  0.640873  1
  Tm  Tm12  1  0.914458  0.703784  0.137010  1
  Tm  Tm13  1  0.914462  0.295507  0.640873  1
  Tm  Tm14  1  0.085538  0.704493  0.640873  1
  Tm  Tm15  1  0.085542  0.296216  0.137010  1
  Tm  Tm16  1  0.000000  0.000000  0.498367  1
  Tm  Tm17  1  0.000000  0.000000  0.998641  1
  Tm  Tm18  1  0.500000  0.500000  0.998641  1
  Tm  Tm19  1  0.500000  0.500000  0.498367  1
  Ir  Ir20  1  0.000000  0.500000  0.389766  1
  Os  Os21  1  0.500000  0.000000  0.113264  1
  Os  Os22  1  0.500000  0.000000  0.612723  1
  Os  Os23  1  0.000000  0.500000  0.887685  1
  Pd  Pd24  1  0.846858  0.155006  0.249400  1
  Pd  Pd25  1  0.846224  0.845571  0.749798  1
  Pd  Pd26  1  0.153776  0.154429  0.749798  1
  Pd  Pd27  1  0.153142  0.844994  0.249400  1
  Pd  Pd28  1  0.654429  0.346224  0.749798  1
  Pd  Pd29  1  0.655006  0.653142  0.249400  1
  Pd  Pd30  1  0.344994  0.346858  0.249400  1
  Pd  Pd31  1  0.345571  0.653776  0.749798  1
