# generated using pymatgen
data_TbTmMn12P7
_symmetry_space_group_name_H-M   'P 1'
_cell_length_a   9.28465400
_cell_length_b   9.28465380
_cell_length_c   3.59176800
_cell_angle_alpha   90.00000000
_cell_angle_beta   90.00000000
_cell_angle_gamma   120.00000071
_symmetry_Int_Tables_number   1
_chemical_formula_structural   TbTmMn12P7
_chemical_formula_sum   'Tb1 Tm1 Mn12 P7'
_cell_volume   268.14539580
_cell_formula_units_Z   1
loop_
 _symmetry_equiv_pos_site_id
 _symmetry_equiv_pos_as_xyz
  1  'x, y, z'
loop_
 _atom_site_type_symbol
 _atom_site_label
 _atom_site_symmetry_multiplicity
 _atom_site_fract_x
 _atom_site_fract_y
 _atom_site_fract_z
 _atom_site_occupancy
  Tb  Tb0  1  0.666667  0.333333  0.500000  1
  Tm  Tm1  1  0.000000  0.000000  0.000000  1
  Mn  Mn2  1  0.710305  0.618772  0.000000  1
  Mn  Mn3  1  0.381228  0.091533  0.000000  1
  Mn  Mn4  1  0.908467  0.289695  0.000000  1
  Mn  Mn5  1  0.213849  0.389945  0.000000  1
  Mn  Mn6  1  0.610055  0.823904  0.000000  1
  Mn  Mn7  1  0.176096  0.786151  0.000000  1
  Mn  Mn8  1  0.288107  0.229177  0.500000  1
  Mn  Mn9  1  0.770823  0.058928  0.500000  1
  Mn  Mn10  1  0.941072  0.711893  0.500000  1
  Mn  Mn11  1  0.458345  0.563676  0.500000  1
  Mn  Mn12  1  0.436324  0.894670  0.500000  1
  Mn  Mn13  1  0.105330  0.541655  0.500000  1
  P  P14  1  0.453416  0.376058  0.000000  1
  P  P15  1  0.623942  0.077358  0.000000  1
  P  P16  1  0.922642  0.546584  0.000000  1
  P  P17  1  0.052250  0.256983  0.500000  1
  P  P18  1  0.743017  0.795269  0.500000  1
  P  P19  1  0.204731  0.947750  0.500000  1
  P  P20  1  0.333333  0.666667  0.000000  1
