# generated using pymatgen
data_Tm4MnNiOs6
_symmetry_space_group_name_H-M   'P 1'
_cell_length_a   5.27842458
_cell_length_b   5.27842500
_cell_length_c   8.66416100
_cell_angle_alpha   89.77533946
_cell_angle_beta   90.22466055
_cell_angle_gamma   121.30854229
_symmetry_Int_Tables_number   1
_chemical_formula_structural   Tm4MnNiOs6
_chemical_formula_sum   'Tm4 Mn1 Ni1 Os6'
_cell_volume   206.24458886
_cell_formula_units_Z   1
loop_
 _symmetry_equiv_pos_site_id
 _symmetry_equiv_pos_as_xyz
  1  'x, y, z'
loop_
 _atom_site_type_symbol
 _atom_site_label
 _atom_site_symmetry_multiplicity
 _atom_site_fract_x
 _atom_site_fract_y
 _atom_site_fract_z
 _atom_site_occupancy
  Tm  Tm0  1  0.332140  0.667860  0.430588  1
  Tm  Tm1  1  0.665498  0.334502  0.566056  1
  Tm  Tm2  1  0.668209  0.331791  0.937882  1
  Tm  Tm3  1  0.336045  0.663955  0.065463  1
  Mn  Mn4  1  0.004173  0.995827  0.498688  1
  Ni  Ni5  1  0.829767  0.170233  0.252217  1
  Os  Os6  1  0.003855  0.996145  0.002372  1
  Os  Os7  1  0.824883  0.660114  0.253497  1
  Os  Os8  1  0.339886  0.175117  0.253497  1
  Os  Os9  1  0.168881  0.831119  0.747274  1
  Os  Os10  1  0.169755  0.343092  0.746232  1
  Os  Os11  1  0.656908  0.830245  0.746232  1
