# generated using pymatgen
data_Tb3Al7CuPd
_symmetry_space_group_name_H-M   'P 1'
_cell_length_a   9.15174274
_cell_length_b   9.15174359
_cell_length_c   9.15174382
_cell_angle_alpha   35.09326234
_cell_angle_beta   35.09325249
_cell_angle_gamma   35.09325502
_symmetry_Int_Tables_number   1
_chemical_formula_structural   Tb3Al7CuPd
_chemical_formula_sum   'Tb3 Al7 Cu1 Pd1'
_cell_volume   226.24154635
_cell_formula_units_Z   1
loop_
 _symmetry_equiv_pos_site_id
 _symmetry_equiv_pos_as_xyz
  1  'x, y, z'
loop_
 _atom_site_type_symbol
 _atom_site_label
 _atom_site_symmetry_multiplicity
 _atom_site_fract_x
 _atom_site_fract_y
 _atom_site_fract_z
 _atom_site_occupancy
  Tb  Tb0  1  0.999761  0.999761  0.999761  1
  Tb  Tb1  1  0.857594  0.857594  0.857594  1
  Tb  Tb2  1  0.142696  0.142696  0.142696  1
  Al  Al3  1  0.416714  0.416714  0.928612  1
  Al  Al4  1  0.928612  0.416714  0.416714  1
  Al  Al5  1  0.416714  0.928612  0.416714  1
  Al  Al6  1  0.500082  0.500082  0.500082  1
  Al  Al7  1  0.581233  0.075382  0.581233  1
  Al  Al8  1  0.075382  0.581233  0.581233  1
  Al  Al9  1  0.581233  0.581233  0.075382  1
  Cu  Cu10  1  0.335338  0.335338  0.335338  1
  Pd  Pd11  1  0.664641  0.664641  0.664641  1
