# generated using pymatgen
data_Ti6SiBiPb
_symmetry_space_group_name_H-M   'P 1'
_cell_length_a   7.22595400
_cell_length_b   7.22595287
_cell_length_c   3.73947000
_cell_angle_alpha   90.00000000
_cell_angle_beta   90.00000000
_cell_angle_gamma   119.99999603
_symmetry_Int_Tables_number   1
_chemical_formula_structural   Ti6SiBiPb
_chemical_formula_sum   'Ti6 Si1 Bi1 Pb1'
_cell_volume   169.09509869
_cell_formula_units_Z   1
loop_
 _symmetry_equiv_pos_site_id
 _symmetry_equiv_pos_as_xyz
  1  'x, y, z'
loop_
 _atom_site_type_symbol
 _atom_site_label
 _atom_site_symmetry_multiplicity
 _atom_site_fract_x
 _atom_site_fract_y
 _atom_site_fract_z
 _atom_site_occupancy
  Ti  Ti0  1  0.626449  0.999652  0.500000  1
  Ti  Ti1  1  0.373204  0.373551  0.500000  1
  Ti  Ti2  1  0.000348  0.626796  0.500000  1
  Ti  Ti3  1  0.229751  0.997327  0.000000  1
  Ti  Ti4  1  0.767577  0.770249  0.000000  1
  Ti  Ti5  1  0.002673  0.232423  0.000000  1
  Si  Si6  1  0.000000  0.000000  0.500000  1
  Bi  Bi7  1  0.666667  0.333333  0.000000  1
  Pb  Pb8  1  0.333333  0.666667  0.000000  1
