# generated using pymatgen
data_Dy8Co3Si12Ni
_symmetry_space_group_name_H-M   'P 1'
_cell_length_a   8.01024300
_cell_length_b   8.01024428
_cell_length_c   7.96707900
_cell_angle_alpha   89.99994278
_cell_angle_beta   90.00000000
_cell_angle_gamma   119.99995756
_symmetry_Int_Tables_number   1
_chemical_formula_structural   Dy8Co3Si12Ni
_chemical_formula_sum   'Dy8 Co3 Si12 Ni1'
_cell_volume   442.71210031
_cell_formula_units_Z   1
loop_
 _symmetry_equiv_pos_site_id
 _symmetry_equiv_pos_as_xyz
  1  'x, y, z'
loop_
 _atom_site_type_symbol
 _atom_site_label
 _atom_site_symmetry_multiplicity
 _atom_site_fract_x
 _atom_site_fract_y
 _atom_site_fract_z
 _atom_site_occupancy
  Dy  Dy0  1  0.000000  0.000000  0.250244  1
  Dy  Dy1  1  0.000000  0.000000  0.750587  1
  Dy  Dy2  1  0.011219  0.505610  0.247887  1
  Dy  Dy3  1  0.494390  0.505609  0.247886  1
  Dy  Dy4  1  0.503535  0.007070  0.751533  1
  Dy  Dy5  1  0.494390  0.988781  0.247886  1
  Dy  Dy6  1  0.503535  0.496466  0.751532  1
  Dy  Dy7  1  0.992930  0.496465  0.751533  1
  Co  Co8  1  0.333333  0.666667  0.968040  1
  Co  Co9  1  0.333333  0.666667  0.532254  1
  Co  Co10  1  0.666667  0.333334  0.027220  1
  Si  Si11  1  0.171350  0.342700  0.000144  1
  Si  Si12  1  0.657300  0.828650  0.000143  1
  Si  Si13  1  0.172003  0.344006  0.498661  1
  Si  Si14  1  0.343172  0.171585  0.000066  1
  Si  Si15  1  0.171350  0.828649  0.000144  1
  Si  Si16  1  0.655994  0.827997  0.498660  1
  Si  Si17  1  0.828414  0.656828  0.000066  1
  Si  Si18  1  0.339303  0.169651  0.500866  1
  Si  Si19  1  0.172003  0.827997  0.498661  1
  Si  Si20  1  0.830349  0.660697  0.500867  1
  Si  Si21  1  0.828414  0.171585  0.000066  1
  Si  Si22  1  0.830349  0.169651  0.500867  1
  Ni  Ni23  1  0.666667  0.333333  0.474180  1
