# generated using pymatgen
data_HoLu3TcB12Rh
_symmetry_space_group_name_H-M   'P 1'
_cell_length_a   3.62464000
_cell_length_b   9.05032296
_cell_length_c   11.43800502
_cell_angle_alpha   90.34092264
_cell_angle_beta   90.00000000
_cell_angle_gamma   90.00000000
_symmetry_Int_Tables_number   1
_chemical_formula_structural   HoLu3TcB12Rh
_chemical_formula_sum   'Ho2 Lu6 Tc2 B24 Rh2'
_cell_volume   375.20753457
_cell_formula_units_Z   2
loop_
 _symmetry_equiv_pos_site_id
 _symmetry_equiv_pos_as_xyz
  1  'x, y, z'
loop_
 _atom_site_type_symbol
 _atom_site_label
 _atom_site_symmetry_multiplicity
 _atom_site_fract_x
 _atom_site_fract_y
 _atom_site_fract_z
 _atom_site_occupancy
  Ho  Ho0  1  0.500000  0.318144  0.411080  1
  Ho  Ho1  1  0.500000  0.681856  0.588920  1
  Lu  Lu2  1  0.500000  0.173959  0.917635  1
  Lu  Lu3  1  0.500000  0.826041  0.082365  1
  Lu  Lu4  1  0.500000  0.441979  0.126196  1
  Lu  Lu5  1  0.500000  0.558021  0.873804  1
  Lu  Lu6  1  0.500000  0.053645  0.628571  1
  Lu  Lu7  1  0.500000  0.946355  0.371429  1
  Tc  Tc8  1  0.500000  0.138871  0.179749  1
  Tc  Tc9  1  0.500000  0.861129  0.820251  1
  B  B10  1  0.000000  0.104782  0.471958  1
  B  B11  1  0.000000  0.895218  0.528042  1
  B  B12  1  0.000000  0.394680  0.970789  1
  B  B13  1  0.000000  0.605320  0.029211  1
  B  B14  1  0.000000  0.131458  0.315282  1
  B  B15  1  0.000000  0.868542  0.684718  1
  B  B16  1  0.000000  0.367542  0.817682  1
  B  B17  1  0.000000  0.632458  0.182318  1
  B  B18  1  0.000000  0.052977  0.066633  1
  B  B19  1  0.000000  0.947023  0.933367  1
  B  B20  1  0.000000  0.445197  0.566004  1
  B  B21  1  0.000000  0.554803  0.433996  1
  B  B22  1  0.000000  0.483211  0.286933  1
  B  B23  1  0.000000  0.516789  0.713067  1
  B  B24  1  0.000000  0.018015  0.787113  1
  B  B25  1  0.000000  0.981985  0.212887  1
  B  B26  1  0.000000  0.249266  0.080233  1
  B  B27  1  0.000000  0.750734  0.919767  1
  B  B28  1  0.000000  0.249284  0.579138  1
  B  B29  1  0.000000  0.750716  0.420862  1
  B  B30  1  0.000000  0.293638  0.234479  1
  B  B31  1  0.000000  0.706362  0.765521  1
  B  B32  1  0.000000  0.207190  0.735789  1
  B  B33  1  0.000000  0.792810  0.264211  1
  Rh  Rh34  1  0.500000  0.360801  0.679907  1
  Rh  Rh35  1  0.500000  0.639199  0.320093  1
