# generated using pymatgen
data_ZrTa(GaPt6)2
_symmetry_space_group_name_H-M   'P 1'
_cell_length_a   5.64161050
_cell_length_b   5.64161154
_cell_length_c   7.98286900
_cell_angle_alpha   90.00000000
_cell_angle_beta   90.00000000
_cell_angle_gamma   90.01147623
_symmetry_Int_Tables_number   1
_chemical_formula_structural   ZrTa(GaPt6)2
_chemical_formula_sum   'Zr1 Ta1 Ga2 Pt12'
_cell_volume   254.07695274
_cell_formula_units_Z   1
loop_
 _symmetry_equiv_pos_site_id
 _symmetry_equiv_pos_as_xyz
  1  'x, y, z'
loop_
 _atom_site_type_symbol
 _atom_site_label
 _atom_site_symmetry_multiplicity
 _atom_site_fract_x
 _atom_site_fract_y
 _atom_site_fract_z
 _atom_site_occupancy
  Zr  Zr0  1  0.500000  0.000000  0.750005  1
  Ta  Ta1  1  0.000000  0.500000  0.750029  1
  Ga  Ga2  1  0.500000  0.000000  0.249961  1
  Ga  Ga3  1  0.000000  0.500000  0.249945  1
  Pt  Pt4  1  0.243911  0.256089  0.998724  1
  Pt  Pt5  1  0.756555  0.256555  0.501355  1
  Pt  Pt6  1  0.749233  0.249233  0.999662  1
  Pt  Pt7  1  0.756089  0.743911  0.998724  1
  Pt  Pt8  1  0.500000  0.500000  0.750004  1
  Pt  Pt9  1  0.251209  0.248791  0.500266  1
  Pt  Pt10  1  0.748791  0.751209  0.500266  1
  Pt  Pt11  1  0.243445  0.743445  0.501355  1
  Pt  Pt12  1  0.500000  0.500000  0.250019  1
  Pt  Pt13  1  0.000000  0.000000  0.750004  1
  Pt  Pt14  1  0.000000  0.000000  0.250019  1
  Pt  Pt15  1  0.250767  0.750767  0.999662  1
