# generated using pymatgen
data_Zr13Sn3Ir6(RhN2)2
_symmetry_space_group_name_H-M   'P 1'
_cell_length_a   8.76011449
_cell_length_b   8.76011463
_cell_length_c   8.78500170
_cell_angle_alpha   60.06085798
_cell_angle_beta   60.06086583
_cell_angle_gamma   60.00177525
_symmetry_Int_Tables_number   1
_chemical_formula_structural   Zr13Sn3Ir6(RhN2)2
_chemical_formula_sum   'Zr13 Sn3 Ir6 Rh2 N4'
_cell_volume   477.14586876
_cell_formula_units_Z   1
loop_
 _symmetry_equiv_pos_site_id
 _symmetry_equiv_pos_as_xyz
  1  'x, y, z'
loop_
 _atom_site_type_symbol
 _atom_site_label
 _atom_site_symmetry_multiplicity
 _atom_site_fract_x
 _atom_site_fract_y
 _atom_site_fract_z
 _atom_site_occupancy
  Zr  Zr0  1  0.625913  0.625913  0.123553  1
  Zr  Zr1  1  0.812795  0.812795  0.190437  1
  Zr  Zr2  1  0.186100  0.186100  0.815655  1
  Zr  Zr3  1  0.812499  0.186730  0.815910  1
  Zr  Zr4  1  0.185695  0.812772  0.188927  1
  Zr  Zr5  1  0.186730  0.812499  0.815910  1
  Zr  Zr6  1  0.812772  0.185695  0.188927  1
  Zr  Zr7  1  0.437244  0.437244  0.060127  1
  Zr  Zr8  1  0.065000  0.065000  0.433371  1
  Zr  Zr9  1  0.436859  0.065030  0.433600  1
  Zr  Zr10  1  0.066693  0.436244  0.060341  1
  Zr  Zr11  1  0.065030  0.436859  0.433600  1
  Zr  Zr12  1  0.436244  0.066693  0.060341  1
  Sn  Sn13  1  0.122555  0.626681  0.625375  1
  Sn  Sn14  1  0.626681  0.122555  0.625375  1
  Sn  Sn15  1  0.625977  0.625977  0.624526  1
  Ir  Ir16  1  0.772504  0.413215  0.400964  1
  Ir  Ir17  1  0.413215  0.772504  0.400964  1
  Ir  Ir18  1  0.408703  0.408703  0.773563  1
  Ir  Ir19  1  0.413006  0.413006  0.401812  1
  Ir  Ir20  1  0.475759  0.837017  0.849408  1
  Ir  Ir21  1  0.837017  0.475759  0.849408  1
  Rh  Rh22  1  0.840330  0.840330  0.478046  1
  Rh  Rh23  1  0.836218  0.836218  0.847969  1
  N  N24  1  0.625619  0.123971  0.125319  1
  N  N25  1  0.123971  0.625619  0.125319  1
  N  N26  1  0.124508  0.124508  0.625462  1
  N  N27  1  0.124362  0.124362  0.125790  1
