# generated using pymatgen
data_TlSbMoO6
_symmetry_space_group_name_H-M   'P 1'
_cell_length_a   7.35623349
_cell_length_b   7.35623335
_cell_length_c   7.35623300
_cell_angle_alpha   120.84870737
_cell_angle_beta   115.00434337
_cell_angle_gamma   93.70044716
_symmetry_Int_Tables_number   1
_chemical_formula_structural   TlSbMoO6
_chemical_formula_sum   'Tl2 Sb2 Mo2 O12'
_cell_volume   288.77890976
_cell_formula_units_Z   2
loop_
 _symmetry_equiv_pos_site_id
 _symmetry_equiv_pos_as_xyz
  1  'x, y, z'
loop_
 _atom_site_type_symbol
 _atom_site_label
 _atom_site_symmetry_multiplicity
 _atom_site_fract_x
 _atom_site_fract_y
 _atom_site_fract_z
 _atom_site_occupancy
  Tl  Tl0  1  0.049752  0.908515  0.641238  1
  Tl  Tl1  1  0.732723  0.091485  0.141238  1
  Sb  Sb2  1  0.511748  0.000000  0.511748  1
  Sb  Sb3  1  0.511748  0.500000  0.011748  1
  Mo  Mo4  1  0.453511  0.482111  0.471400  1
  Mo  Mo5  1  0.989289  0.517889  0.971400  1
  O  O6  1  0.851707  0.584567  0.767140  1
  O  O7  1  0.439885  0.169948  0.769938  1
  O  O8  1  0.460868  0.192726  0.393145  1
  O  O9  1  0.824075  0.566811  0.127987  1
  O  O10  1  0.824075  0.196088  0.757263  1
  O  O11  1  0.460868  0.567722  0.768142  1
  O  O12  1  0.182574  0.415433  0.267140  1
  O  O13  1  0.599990  0.830052  0.269938  1
  O  O14  1  0.561176  0.803912  0.627987  1
  O  O15  1  0.200419  0.432278  0.893145  1
  O  O16  1  0.200419  0.807274  0.268142  1
  O  O17  1  0.561176  0.433189  0.257263  1
