# generated using pymatgen
data_Ce8Al2FeSi12Rh
_symmetry_space_group_name_H-M   'P 1'
_cell_length_a   8.19979900
_cell_length_b   8.19979854
_cell_length_c   8.28774700
_cell_angle_alpha   90.00000000
_cell_angle_beta   90.00000000
_cell_angle_gamma   119.99999781
_symmetry_Int_Tables_number   1
_chemical_formula_structural   Ce8Al2FeSi12Rh
_chemical_formula_sum   'Ce8 Al2 Fe1 Si12 Rh1'
_cell_volume   482.58466289
_cell_formula_units_Z   1
loop_
 _symmetry_equiv_pos_site_id
 _symmetry_equiv_pos_as_xyz
  1  'x, y, z'
loop_
 _atom_site_type_symbol
 _atom_site_label
 _atom_site_symmetry_multiplicity
 _atom_site_fract_x
 _atom_site_fract_y
 _atom_site_fract_z
 _atom_site_occupancy
  Ce  Ce0  1  0.000000  0.000000  0.250816  1
  Ce  Ce1  1  0.000000  0.000000  0.749240  1
  Ce  Ce2  1  0.502429  0.497571  0.243517  1
  Ce  Ce3  1  0.502429  0.004857  0.243517  1
  Ce  Ce4  1  0.995143  0.497571  0.243517  1
  Ce  Ce5  1  0.501380  0.498620  0.756905  1
  Ce  Ce6  1  0.501380  0.002760  0.756905  1
  Ce  Ce7  1  0.997240  0.498620  0.756905  1
  Al  Al8  1  0.333333  0.666667  0.497384  1
  Al  Al9  1  0.666667  0.333333  0.502958  1
  Fe  Fe10  1  0.666667  0.333333  0.995240  1
  Si  Si11  1  0.164788  0.835212  0.500637  1
  Si  Si12  1  0.164788  0.329576  0.500637  1
  Si  Si13  1  0.670424  0.835212  0.500637  1
  Si  Si14  1  0.835189  0.164811  0.499693  1
  Si  Si15  1  0.835189  0.670377  0.499693  1
  Si  Si16  1  0.329623  0.164811  0.499693  1
  Si  Si17  1  0.829846  0.170154  0.999783  1
  Si  Si18  1  0.829846  0.659690  0.999783  1
  Si  Si19  1  0.340310  0.170154  0.999783  1
  Si  Si20  1  0.164458  0.835542  0.000201  1
  Si  Si21  1  0.164458  0.328919  0.000201  1
  Si  Si22  1  0.671081  0.835542  0.000201  1
  Rh  Rh23  1  0.333333  0.666667  0.002156  1
