# generated using pymatgen
data_TbCo3P3Rh2
_symmetry_space_group_name_H-M   'P 1'
_cell_length_a   3.74171000
_cell_length_b   10.49754600
_cell_length_c   12.08165500
_cell_angle_alpha   90.00000000
_cell_angle_beta   90.00000000
_cell_angle_gamma   90.00000000
_symmetry_Int_Tables_number   1
_chemical_formula_structural   TbCo3P3Rh2
_chemical_formula_sum   'Tb4 Co12 P12 Rh8'
_cell_volume   474.55258232
_cell_formula_units_Z   4
loop_
 _symmetry_equiv_pos_site_id
 _symmetry_equiv_pos_as_xyz
  1  'x, y, z'
loop_
 _atom_site_type_symbol
 _atom_site_label
 _atom_site_symmetry_multiplicity
 _atom_site_fract_x
 _atom_site_fract_y
 _atom_site_fract_z
 _atom_site_occupancy
  Tb  Tb0  1  0.250000  0.584557  0.709274  1
  Tb  Tb1  1  0.250000  0.915443  0.209274  1
  Tb  Tb2  1  0.750000  0.415443  0.290726  1
  Tb  Tb3  1  0.750000  0.084557  0.790726  1
  Co  Co4  1  0.250000  0.221998  0.178797  1
  Co  Co5  1  0.250000  0.278002  0.678797  1
  Co  Co6  1  0.750000  0.778002  0.821203  1
  Co  Co7  1  0.750000  0.721998  0.321203  1
  Co  Co8  1  0.250000  0.883314  0.697485  1
  Co  Co9  1  0.250000  0.616686  0.197485  1
  Co  Co10  1  0.750000  0.116686  0.302515  1
  Co  Co11  1  0.750000  0.383314  0.802515  1
  Co  Co12  1  0.250000  0.464056  0.931581  1
  Co  Co13  1  0.250000  0.035944  0.431581  1
  Co  Co14  1  0.750000  0.535944  0.068419  1
  Co  Co15  1  0.750000  0.964056  0.568419  1
  P  P16  1  0.250000  0.422045  0.110878  1
  P  P17  1  0.250000  0.077955  0.610878  1
  P  P18  1  0.750000  0.577955  0.889122  1
  P  P19  1  0.750000  0.922045  0.389122  1
  P  P20  1  0.250000  0.275631  0.862863  1
  P  P21  1  0.250000  0.224369  0.362863  1
  P  P22  1  0.750000  0.724369  0.137137  1
  P  P23  1  0.750000  0.775631  0.637137  1
  P  P24  1  0.250000  0.604824  0.379865  1
  P  P25  1  0.250000  0.895176  0.879865  1
  P  P26  1  0.750000  0.395176  0.620135  1
  P  P27  1  0.750000  0.104824  0.120135  1
  Rh  Rh28  1  0.250000  0.711902  0.987649  1
  Rh  Rh29  1  0.250000  0.788098  0.487649  1
  Rh  Rh30  1  0.750000  0.288098  0.012351  1
  Rh  Rh31  1  0.750000  0.211902  0.512351  1
  Rh  Rh32  1  0.250000  0.406272  0.481565  1
  Rh  Rh33  1  0.250000  0.093728  0.981565  1
  Rh  Rh34  1  0.750000  0.593728  0.518435  1
  Rh  Rh35  1  0.750000  0.906272  0.018435  1
