# generated using pymatgen
data_Ca4ZnSb5Pd18
_symmetry_space_group_name_H-M   'P 1'
_cell_length_a   7.99219916
_cell_length_b   7.99219905
_cell_length_c   9.39689061
_cell_angle_alpha   90.22773367
_cell_angle_beta   90.22773689
_cell_angle_gamma   119.51025170
_symmetry_Int_Tables_number   1
_chemical_formula_structural   Ca4ZnSb5Pd18
_chemical_formula_sum   'Ca4 Zn1 Sb5 Pd18'
_cell_volume   522.34331432
_cell_formula_units_Z   1
loop_
 _symmetry_equiv_pos_site_id
 _symmetry_equiv_pos_as_xyz
  1  'x, y, z'
loop_
 _atom_site_type_symbol
 _atom_site_label
 _atom_site_symmetry_multiplicity
 _atom_site_fract_x
 _atom_site_fract_y
 _atom_site_fract_z
 _atom_site_occupancy
  Ca  Ca0  1  0.323546  0.017342  0.744045  1
  Ca  Ca1  1  0.676454  0.982658  0.255955  1
  Ca  Ca2  1  0.017342  0.323546  0.744045  1
  Ca  Ca3  1  0.982658  0.676454  0.255955  1
  Zn  Zn4  1  0.000000  0.000000  0.500000  1
  Sb  Sb5  1  0.675541  0.324459  0.000000  1
  Sb  Sb6  1  0.323086  0.676914  0.500000  1
  Sb  Sb7  1  0.324459  0.675541  0.000000  1
  Sb  Sb8  1  0.000000  0.000000  0.000000  1
  Sb  Sb9  1  0.676914  0.323086  0.500000  1
  Pd  Pd10  1  0.330763  0.330763  0.962959  1
  Pd  Pd11  1  0.451740  0.651064  0.749289  1
  Pd  Pd12  1  0.548260  0.348936  0.250711  1
  Pd  Pd13  1  0.651064  0.451740  0.749289  1
  Pd  Pd14  1  0.999542  0.338586  0.081364  1
  Pd  Pd15  1  0.000961  0.666771  0.579706  1
  Pd  Pd16  1  0.333229  0.999039  0.420294  1
  Pd  Pd17  1  0.661414  0.000458  0.918636  1
  Pd  Pd18  1  0.000458  0.661414  0.918636  1
  Pd  Pd19  1  0.999039  0.333229  0.420294  1
  Pd  Pd20  1  0.666771  0.000961  0.579706  1
  Pd  Pd21  1  0.865938  0.865938  0.744899  1
  Pd  Pd22  1  0.328454  0.328454  0.527643  1
  Pd  Pd23  1  0.669237  0.669237  0.037041  1
  Pd  Pd24  1  0.338586  0.999542  0.081364  1
  Pd  Pd25  1  0.671546  0.671546  0.472357  1
  Pd  Pd26  1  0.134062  0.134062  0.255101  1
  Pd  Pd27  1  0.348936  0.548260  0.250711  1
