# generated using pymatgen
data_Ca3Ce(Pt2O7)2
_symmetry_space_group_name_H-M   'P 1'
_cell_length_a   7.28286689
_cell_length_b   7.25607596
_cell_length_c   7.28286600
_cell_angle_alpha   59.87779152
_cell_angle_beta   60.00000406
_cell_angle_gamma   59.87779543
_symmetry_Int_Tables_number   1
_chemical_formula_structural   Ca3Ce(Pt2O7)2
_chemical_formula_sum   'Ca3 Ce1 Pt4 O14'
_cell_volume   271.63569933
_cell_formula_units_Z   1
loop_
 _symmetry_equiv_pos_site_id
 _symmetry_equiv_pos_as_xyz
  1  'x, y, z'
loop_
 _atom_site_type_symbol
 _atom_site_label
 _atom_site_symmetry_multiplicity
 _atom_site_fract_x
 _atom_site_fract_y
 _atom_site_fract_z
 _atom_site_occupancy
  Ca  Ca0  1  0.125000  0.125000  0.125000  1
  Ca  Ca1  1  0.625000  0.125000  0.125000  1
  Ca  Ca2  1  0.125000  0.125000  0.625000  1
  Ce  Ce3  1  0.125000  0.625000  0.125000  1
  Pt  Pt4  1  0.625000  0.625000  0.125000  1
  Pt  Pt5  1  0.625000  0.125000  0.625000  1
  Pt  Pt6  1  0.125000  0.625000  0.625000  1
  Pt  Pt7  1  0.625000  0.625000  0.625000  1
  O  O8  1  0.242485  0.272545  0.242485  1
  O  O9  1  0.707500  0.292321  0.292679  1
  O  O10  1  0.707500  0.292321  0.707500  1
  O  O11  1  0.291070  0.708066  0.291070  1
  O  O12  1  0.709793  0.708066  0.291070  1
  O  O13  1  0.292679  0.292321  0.707500  1
  O  O14  1  0.958930  0.541934  0.540207  1
  O  O15  1  0.291070  0.708066  0.709793  1
  O  O16  1  0.957321  0.957679  0.542500  1
  O  O17  1  0.542500  0.957679  0.542500  1
  O  O18  1  0.540207  0.541934  0.958930  1
  O  O19  1  0.958930  0.541934  0.958930  1
  O  O20  1  0.542500  0.957679  0.957321  1
  O  O21  1  0.007515  0.977455  0.007515  1
