# generated using pymatgen
data_TbTmMgNi9
_symmetry_space_group_name_H-M   'P 1'
_cell_length_a   8.41972932
_cell_length_b   8.41972917
_cell_length_c   8.41973023
_cell_angle_alpha   33.81067879
_cell_angle_beta   33.81068222
_cell_angle_gamma   33.81066978
_symmetry_Int_Tables_number   1
_chemical_formula_structural   TbTmMgNi9
_chemical_formula_sum   'Tb1 Tm1 Mg1 Ni9'
_cell_volume   164.69178805
_cell_formula_units_Z   1
loop_
 _symmetry_equiv_pos_site_id
 _symmetry_equiv_pos_as_xyz
  1  'x, y, z'
loop_
 _atom_site_type_symbol
 _atom_site_label
 _atom_site_symmetry_multiplicity
 _atom_site_fract_x
 _atom_site_fract_y
 _atom_site_fract_z
 _atom_site_occupancy
  Tb  Tb0  1  0.003757  0.003757  0.003757  1
  Tm  Tm1  1  0.856805  0.856805  0.856805  1
  Mg  Mg2  1  0.140114  0.140114  0.140114  1
  Ni  Ni3  1  0.584399  0.082934  0.584399  1
  Ni  Ni4  1  0.082934  0.584399  0.584399  1
  Ni  Ni5  1  0.584399  0.584399  0.082934  1
  Ni  Ni6  1  0.415092  0.918696  0.415092  1
  Ni  Ni7  1  0.918696  0.415092  0.415092  1
  Ni  Ni8  1  0.332828  0.332828  0.332828  1
  Ni  Ni9  1  0.415092  0.415092  0.918696  1
  Ni  Ni10  1  0.499491  0.499491  0.499491  1
  Ni  Ni11  1  0.666392  0.666392  0.666392  1
