# generated using pymatgen
data_Tm4Al7Mo
_symmetry_space_group_name_H-M   'P 1'
_cell_length_a   5.53250000
_cell_length_b   5.53249989
_cell_length_c   8.94771400
_cell_angle_alpha   90.00000000
_cell_angle_beta   90.00000000
_cell_angle_gamma   119.99998868
_symmetry_Int_Tables_number   1
_chemical_formula_structural   Tm4Al7Mo
_chemical_formula_sum   'Tm4 Al7 Mo1'
_cell_volume   237.18412186
_cell_formula_units_Z   1
loop_
 _symmetry_equiv_pos_site_id
 _symmetry_equiv_pos_as_xyz
  1  'x, y, z'
loop_
 _atom_site_type_symbol
 _atom_site_label
 _atom_site_symmetry_multiplicity
 _atom_site_fract_x
 _atom_site_fract_y
 _atom_site_fract_z
 _atom_site_occupancy
  Tm  Tm0  1  0.333333  0.666667  0.055396  1
  Tm  Tm1  1  0.666667  0.333333  0.558578  1
  Tm  Tm2  1  0.666667  0.333333  0.944604  1
  Tm  Tm3  1  0.333333  0.666667  0.441422  1
  Al  Al4  1  0.000000  0.000000  0.000000  1
  Al  Al5  1  0.832596  0.665192  0.253227  1
  Al  Al6  1  0.167404  0.832596  0.746773  1
  Al  Al7  1  0.665192  0.832596  0.746773  1
  Al  Al8  1  0.334808  0.167404  0.253227  1
  Al  Al9  1  0.832596  0.167404  0.253227  1
  Al  Al10  1  0.167404  0.334808  0.746773  1
  Mo  Mo11  1  0.000000  0.000000  0.500000  1
