# generated using pymatgen
data_Li2LaTbSb2
_symmetry_space_group_name_H-M   'P 1'
_cell_length_a   4.73776600
_cell_length_b   4.73776675
_cell_length_c   7.49031000
_cell_angle_alpha   90.00000000
_cell_angle_beta   90.00000000
_cell_angle_gamma   120.00000874
_symmetry_Int_Tables_number   1
_chemical_formula_structural   Li2LaTbSb2
_chemical_formula_sum   'Li2 La1 Tb1 Sb2'
_cell_volume   145.60546247
_cell_formula_units_Z   1
loop_
 _symmetry_equiv_pos_site_id
 _symmetry_equiv_pos_as_xyz
  1  'x, y, z'
loop_
 _atom_site_type_symbol
 _atom_site_label
 _atom_site_symmetry_multiplicity
 _atom_site_fract_x
 _atom_site_fract_y
 _atom_site_fract_z
 _atom_site_occupancy
  Li  Li0  1  0.666667  0.333333  0.285042  1
  Li  Li1  1  0.333333  0.666667  0.714958  1
  La  La2  1  0.000000  0.000000  0.000000  1
  Tb  Tb3  1  0.000000  0.000000  0.500000  1
  Sb  Sb4  1  0.333333  0.666667  0.264854  1
  Sb  Sb5  1  0.666667  0.333333  0.735146  1
