# generated using pymatgen
data_Tb12Si12PdAu11
_symmetry_space_group_name_H-M   'P 1'
_cell_length_a   4.35170400
_cell_length_b   7.53971107
_cell_length_c   22.49102803
_cell_angle_alpha   90.01065192
_cell_angle_beta   90.00000000
_cell_angle_gamma   90.00000000
_symmetry_Int_Tables_number   1
_chemical_formula_structural   Tb12Si12PdAu11
_chemical_formula_sum   'Tb12 Si12 Pd1 Au11'
_cell_volume   737.94390514
_cell_formula_units_Z   1
loop_
 _symmetry_equiv_pos_site_id
 _symmetry_equiv_pos_as_xyz
  1  'x, y, z'
loop_
 _atom_site_type_symbol
 _atom_site_label
 _atom_site_symmetry_multiplicity
 _atom_site_fract_x
 _atom_site_fract_y
 _atom_site_fract_z
 _atom_site_occupancy
  Tb  Tb0  1  0.250000  0.739067  0.336301  1
  Tb  Tb1  1  0.750000  0.276571  0.664015  1
  Tb  Tb2  1  0.750000  0.242315  0.166491  1
  Tb  Tb3  1  0.250000  0.771364  0.829888  1
  Tb  Tb4  1  0.250000  0.758680  0.167990  1
  Tb  Tb5  1  0.750000  0.232050  0.830628  1
  Tb  Tb6  1  0.750000  0.262973  0.336130  1
  Tb  Tb7  1  0.250000  0.720399  0.664532  1
  Tb  Tb8  1  0.250000  0.731264  0.996629  1
  Tb  Tb9  1  0.750000  0.269864  0.998720  1
  Tb  Tb10  1  0.750000  0.227152  0.505472  1
  Tb  Tb11  1  0.250000  0.779205  0.503911  1
  Si  Si12  1  0.250000  0.082247  0.071972  1
  Si  Si13  1  0.750000  0.914349  0.909380  1
  Si  Si14  1  0.750000  0.588269  0.433929  1
  Si  Si15  1  0.250000  0.406774  0.582660  1
  Si  Si16  1  0.250000  0.085244  0.248257  1
  Si  Si17  1  0.750000  0.910629  0.734300  1
  Si  Si18  1  0.750000  0.585531  0.255796  1
  Si  Si19  1  0.250000  0.411561  0.750845  1
  Si  Si20  1  0.250000  0.088351  0.420149  1
  Si  Si21  1  0.750000  0.917001  0.601199  1
  Si  Si22  1  0.750000  0.588392  0.082284  1
  Si  Si23  1  0.250000  0.413252  0.912280  1
  Pd  Pd24  1  0.250000  0.076715  0.592998  1
  Au  Au25  1  0.250000  0.418308  0.247433  1
  Au  Au26  1  0.750000  0.580286  0.757688  1
  Au  Au27  1  0.750000  0.920089  0.257138  1
  Au  Au28  1  0.250000  0.078380  0.738826  1
  Au  Au29  1  0.250000  0.421309  0.423875  1
  Au  Au30  1  0.750000  0.585395  0.569014  1
  Au  Au31  1  0.750000  0.919899  0.081915  1
  Au  Au32  1  0.250000  0.079375  0.924342  1
  Au  Au33  1  0.250000  0.417390  0.088350  1
  Au  Au34  1  0.750000  0.580440  0.903014  1
  Au  Au35  1  0.750000  0.919910  0.411649  1
