# generated using pymatgen
data_LiTm2Al3Ge2Pt
_symmetry_space_group_name_H-M   'P 1'
_cell_length_a   6.85736700
_cell_length_b   6.77657409
_cell_length_c   4.18161100
_cell_angle_alpha   90.00000000
_cell_angle_beta   90.00000000
_cell_angle_gamma   120.39518408
_symmetry_Int_Tables_number   1
_chemical_formula_structural   LiTm2Al3Ge2Pt
_chemical_formula_sum   'Li1 Tm2 Al3 Ge2 Pt1'
_cell_volume   167.60949404
_cell_formula_units_Z   1
loop_
 _symmetry_equiv_pos_site_id
 _symmetry_equiv_pos_as_xyz
  1  'x, y, z'
loop_
 _atom_site_type_symbol
 _atom_site_label
 _atom_site_symmetry_multiplicity
 _atom_site_fract_x
 _atom_site_fract_y
 _atom_site_fract_z
 _atom_site_occupancy
  Li  Li0  1  0.409480  0.000000  0.000000  1
  Tm  Tm1  1  0.000411  0.421642  0.000000  1
  Tm  Tm2  1  0.578768  0.578358  0.000000  1
  Al  Al3  1  0.762285  0.000000  0.499999  1
  Al  Al4  1  0.237993  0.233704  0.499999  1
  Al  Al5  1  0.004288  0.766296  0.499999  1
  Ge  Ge6  1  0.665594  0.328767  0.499999  1
  Ge  Ge7  1  0.336828  0.671233  0.499999  1
  Pt  Pt8  1  0.004352  0.000000  0.000000  1
