# generated using pymatgen
data_BaNa(PPt3)4
_symmetry_space_group_name_H-M   'P 1'
_cell_length_a   8.57742331
_cell_length_b   8.58770400
_cell_length_c   8.59009230
_cell_angle_alpha   90.00000000
_cell_angle_beta   90.03057781
_cell_angle_gamma   90.00000000
_symmetry_Int_Tables_number   1
_chemical_formula_structural   BaNa(PPt3)4
_chemical_formula_sum   'Ba2 Na2 P8 Pt24'
_cell_volume   632.74930834
_cell_formula_units_Z   2
loop_
 _symmetry_equiv_pos_site_id
 _symmetry_equiv_pos_as_xyz
  1  'x, y, z'
loop_
 _atom_site_type_symbol
 _atom_site_label
 _atom_site_symmetry_multiplicity
 _atom_site_fract_x
 _atom_site_fract_y
 _atom_site_fract_z
 _atom_site_occupancy
  Ba  Ba0  1  0.000000  0.500000  0.500000  1
  Ba  Ba1  1  0.000000  0.000000  0.000000  1
  Na  Na2  1  0.500000  0.500000  0.000000  1
  Na  Na3  1  0.500000  0.000000  0.500000  1
  P  P4  1  0.802434  0.304268  0.192446  1
  P  P5  1  0.197566  0.804268  0.307554  1
  P  P6  1  0.691484  0.693613  0.698233  1
  P  P7  1  0.308516  0.193613  0.801767  1
  P  P8  1  0.197566  0.695732  0.807554  1
  P  P9  1  0.802434  0.195732  0.692446  1
  P  P10  1  0.308516  0.306387  0.301767  1
  P  P11  1  0.691484  0.806387  0.198233  1
  Pt  Pt12  1  0.420416  0.843205  0.155996  1
  Pt  Pt13  1  0.579584  0.343205  0.344004  1
  Pt  Pt14  1  0.074829  0.158319  0.655325  1
  Pt  Pt15  1  0.925171  0.658319  0.844675  1
  Pt  Pt16  1  0.162807  0.420537  0.846250  1
  Pt  Pt17  1  0.350044  0.575239  0.336697  1
  Pt  Pt18  1  0.649956  0.075239  0.163303  1
  Pt  Pt19  1  0.837193  0.920537  0.653750  1
  Pt  Pt20  1  0.837154  0.151391  0.422555  1
  Pt  Pt21  1  0.345742  0.339427  0.575055  1
  Pt  Pt22  1  0.162846  0.651391  0.077445  1
  Pt  Pt23  1  0.654258  0.839427  0.924945  1
  Pt  Pt24  1  0.579584  0.156795  0.844004  1
  Pt  Pt25  1  0.420416  0.656795  0.655996  1
  Pt  Pt26  1  0.925171  0.841681  0.344675  1
  Pt  Pt27  1  0.074829  0.341681  0.155325  1
  Pt  Pt28  1  0.837193  0.579463  0.153750  1
  Pt  Pt29  1  0.649956  0.424761  0.663303  1
  Pt  Pt30  1  0.350044  0.924761  0.836697  1
  Pt  Pt31  1  0.162807  0.079463  0.346250  1
  Pt  Pt32  1  0.162846  0.848609  0.577445  1
  Pt  Pt33  1  0.654258  0.660573  0.424945  1
  Pt  Pt34  1  0.837154  0.348609  0.922555  1
  Pt  Pt35  1  0.345742  0.160573  0.075055  1
