# generated using pymatgen
data_Rb2LiGaSb2
_symmetry_space_group_name_H-M   'P 1'
_cell_length_a   10.85307401
_cell_length_b   10.85307378
_cell_length_c   6.85502500
_cell_angle_alpha   90.00000000
_cell_angle_beta   90.00000000
_cell_angle_gamma   101.75354036
_symmetry_Int_Tables_number   1
_chemical_formula_structural   Rb2LiGaSb2
_chemical_formula_sum   'Rb8 Li4 Ga4 Sb8'
_cell_volume   790.51814612
_cell_formula_units_Z   4
loop_
 _symmetry_equiv_pos_site_id
 _symmetry_equiv_pos_as_xyz
  1  'x, y, z'
loop_
 _atom_site_type_symbol
 _atom_site_label
 _atom_site_symmetry_multiplicity
 _atom_site_fract_x
 _atom_site_fract_y
 _atom_site_fract_z
 _atom_site_occupancy
  Rb  Rb0  1  0.078584  0.421416  0.750000  1
  Rb  Rb1  1  0.670399  0.329601  0.780146  1
  Rb  Rb2  1  0.329601  0.670399  0.219854  1
  Rb  Rb3  1  0.578584  0.921416  0.750000  1
  Rb  Rb4  1  0.421416  0.078584  0.250000  1
  Rb  Rb5  1  0.921416  0.578584  0.250000  1
  Rb  Rb6  1  0.829601  0.170399  0.280146  1
  Rb  Rb7  1  0.170399  0.829601  0.719854  1
  Li  Li8  1  0.119599  0.119599  0.500000  1
  Li  Li9  1  0.880401  0.880401  0.500000  1
  Li  Li10  1  0.380401  0.380401  0.000000  1
  Li  Li11  1  0.619599  0.619599  0.000000  1
  Ga  Ga12  1  0.867827  0.867827  0.000000  1
  Ga  Ga13  1  0.367827  0.367827  0.500000  1
  Ga  Ga14  1  0.632173  0.632173  0.500000  1
  Ga  Ga15  1  0.132173  0.132173  0.000000  1
  Sb  Sb16  1  0.841675  0.658325  0.750000  1
  Sb  Sb17  1  0.090755  0.909245  0.211730  1
  Sb  Sb18  1  0.409245  0.590755  0.711730  1
  Sb  Sb19  1  0.590755  0.409245  0.288270  1
  Sb  Sb20  1  0.658325  0.841675  0.250000  1
  Sb  Sb21  1  0.158325  0.341675  0.250000  1
  Sb  Sb22  1  0.341675  0.158325  0.750000  1
  Sb  Sb23  1  0.909245  0.090755  0.788270  1
