# generated using pymatgen
data_Ho6InNiRu
_symmetry_space_group_name_H-M   'P 1'
_cell_length_a   8.40324020
_cell_length_b   8.40324073
_cell_length_c   8.40323995
_cell_angle_alpha   113.12306226
_cell_angle_beta   110.11323059
_cell_angle_gamma   105.27285655
_symmetry_Int_Tables_number   1
_chemical_formula_structural   Ho6InNiRu
_chemical_formula_sum   'Ho12 In2 Ni2 Ru2'
_cell_volume   454.63018865
_cell_formula_units_Z   2
loop_
 _symmetry_equiv_pos_site_id
 _symmetry_equiv_pos_as_xyz
  1  'x, y, z'
loop_
 _atom_site_type_symbol
 _atom_site_label
 _atom_site_symmetry_multiplicity
 _atom_site_fract_x
 _atom_site_fract_y
 _atom_site_fract_z
 _atom_site_occupancy
  Ho  Ho0  1  0.439972  0.239889  0.200084  1
  Ho  Ho1  1  0.560028  0.760111  0.799916  1
  Ho  Ho2  1  0.039805  0.239889  0.799916  1
  Ho  Ho3  1  0.960195  0.760111  0.200084  1
  Ho  Ho4  1  0.184925  0.283269  0.468195  1
  Ho  Ho5  1  0.815075  0.716731  0.531805  1
  Ho  Ho6  1  0.184925  0.716731  0.901656  1
  Ho  Ho7  1  0.815075  0.283269  0.098344  1
  Ho  Ho8  1  0.326074  0.638600  0.312526  1
  Ho  Ho9  1  0.673926  0.361400  0.687474  1
  Ho  Ho10  1  0.326074  0.013547  0.687474  1
  Ho  Ho11  1  0.673926  0.986453  0.312526  1
  In  In12  1  0.500000  0.500000  0.000000  1
  In  In13  1  0.000000  0.000000  0.000000  1
  Ni  Ni14  1  0.115773  0.615773  0.500000  1
  Ni  Ni15  1  0.884227  0.384227  0.500000  1
  Ru  Ru16  1  0.332139  0.000000  0.332139  1
  Ru  Ru17  1  0.667861  0.000000  0.667861  1
