# generated using pymatgen
data_Sm6Sc(TcC4)3
_symmetry_space_group_name_H-M   'P 1'
_cell_length_a   8.51567100
_cell_length_b   8.51567139
_cell_length_c   5.29357900
_cell_angle_alpha   90.00000000
_cell_angle_beta   90.00000000
_cell_angle_gamma   120.00001014
_symmetry_Int_Tables_number   1
_chemical_formula_structural   Sm6Sc(TcC4)3
_chemical_formula_sum   'Sm6 Sc1 Tc3 C12'
_cell_volume   332.44342998
_cell_formula_units_Z   1
loop_
 _symmetry_equiv_pos_site_id
 _symmetry_equiv_pos_as_xyz
  1  'x, y, z'
loop_
 _atom_site_type_symbol
 _atom_site_label
 _atom_site_symmetry_multiplicity
 _atom_site_fract_x
 _atom_site_fract_y
 _atom_site_fract_z
 _atom_site_occupancy
  Sm  Sm0  1  0.620296  0.685681  0.748426  1
  Sm  Sm1  1  0.934616  0.620296  0.251574  1
  Sm  Sm2  1  0.685681  0.065384  0.251574  1
  Sm  Sm3  1  0.314319  0.934616  0.748426  1
  Sm  Sm4  1  0.065384  0.379704  0.748426  1
  Sm  Sm5  1  0.379704  0.314319  0.251574  1
  Sc  Sc6  1  0.000000  0.000000  0.500000  1
  Tc  Tc7  1  0.000000  0.000000  0.000000  1
  Tc  Tc8  1  0.666667  0.333333  0.752378  1
  Tc  Tc9  1  0.333333  0.666667  0.247622  1
  C  C10  1  0.963353  0.765596  0.759954  1
  C  C11  1  0.197756  0.963353  0.240046  1
  C  C12  1  0.765596  0.802244  0.240046  1
  C  C13  1  0.234404  0.197756  0.759954  1
  C  C14  1  0.802244  0.036647  0.759954  1
  C  C15  1  0.036647  0.234404  0.240046  1
  C  C16  1  0.866152  0.581967  0.759209  1
  C  C17  1  0.284184  0.866152  0.240791  1
  C  C18  1  0.581967  0.715816  0.240791  1
  C  C19  1  0.418033  0.284184  0.759209  1
  C  C20  1  0.133848  0.418033  0.240791  1
  C  C21  1  0.715816  0.133848  0.759209  1
