# generated using pymatgen
data_Ho2UGa3IrRh2
_symmetry_space_group_name_H-M   'P 1'
_cell_length_a   7.21831162
_cell_length_b   7.23813977
_cell_length_c   3.73608900
_cell_angle_alpha   90.00000000
_cell_angle_beta   90.00000000
_cell_angle_gamma   118.96378565
_symmetry_Int_Tables_number   1
_chemical_formula_structural   Ho2UGa3IrRh2
_chemical_formula_sum   'Ho2 U1 Ga3 Ir1 Rh2'
_cell_volume   170.78554462
_cell_formula_units_Z   1
loop_
 _symmetry_equiv_pos_site_id
 _symmetry_equiv_pos_as_xyz
  1  'x, y, z'
loop_
 _atom_site_type_symbol
 _atom_site_label
 _atom_site_symmetry_multiplicity
 _atom_site_fract_x
 _atom_site_fract_y
 _atom_site_fract_z
 _atom_site_occupancy
  Ho  Ho0  1  0.590737  0.994599  0.500000  1
  Ho  Ho1  1  0.999657  0.594346  0.500000  1
  U  U2  1  0.413712  0.412614  0.500000  1
  Ga  Ga3  1  0.761284  0.759941  0.000000  1
  Ga  Ga4  1  0.255077  0.988376  0.000000  1
  Ga  Ga5  1  0.986593  0.254884  0.000000  1
  Ir  Ir6  1  0.338872  0.637938  0.000000  1
  Rh  Rh7  1  0.636207  0.338656  0.000000  1
  Rh  Rh8  1  0.017862  0.018645  0.500000  1
