# generated using pymatgen
data_ErCu7O12
_symmetry_space_group_name_H-M   'P 1'
_cell_length_a   6.33116842
_cell_length_b   6.33116905
_cell_length_c   6.33116800
_cell_angle_alpha   109.47121406
_cell_angle_beta   109.47121608
_cell_angle_gamma   109.47122769
_symmetry_Int_Tables_number   1
_chemical_formula_structural   ErCu7O12
_chemical_formula_sum   'Er1 Cu7 O12'
_cell_volume   195.35734566
_cell_formula_units_Z   1
loop_
 _symmetry_equiv_pos_site_id
 _symmetry_equiv_pos_as_xyz
  1  'x, y, z'
loop_
 _atom_site_type_symbol
 _atom_site_label
 _atom_site_symmetry_multiplicity
 _atom_site_fract_x
 _atom_site_fract_y
 _atom_site_fract_z
 _atom_site_occupancy
  Er  Er0  1  0.000000  0.000000  0.000000  1
  Cu  Cu1  1  0.000000  0.000000  0.500000  1
  Cu  Cu2  1  0.000000  0.500000  0.000000  1
  Cu  Cu3  1  0.500000  0.000000  0.000000  1
  Cu  Cu4  1  0.500000  0.500000  0.500000  1
  Cu  Cu5  1  0.000000  0.500000  0.500000  1
  Cu  Cu6  1  0.500000  0.000000  0.500000  1
  Cu  Cu7  1  0.500000  0.500000  0.000000  1
  O  O8  1  0.304117  0.136308  0.832191  1
  O  O9  1  0.695883  0.863692  0.167809  1
  O  O10  1  0.695883  0.528074  0.832191  1
  O  O11  1  0.471926  0.167809  0.304117  1
  O  O12  1  0.167809  0.304117  0.471926  1
  O  O13  1  0.832191  0.304117  0.136308  1
  O  O14  1  0.863692  0.167809  0.695883  1
  O  O15  1  0.832191  0.695883  0.528074  1
  O  O16  1  0.304117  0.471926  0.167809  1
  O  O17  1  0.528074  0.832191  0.695883  1
  O  O18  1  0.167809  0.695883  0.863692  1
  O  O19  1  0.136308  0.832191  0.304117  1
