# generated using pymatgen
data_Dy3Ho9InNi5
_symmetry_space_group_name_H-M   'P 1'
_cell_length_a   8.27798285
_cell_length_b   8.28084274
_cell_length_c   8.28084300
_cell_angle_alpha   107.27639418
_cell_angle_beta   109.73286746
_cell_angle_gamma   111.44612753
_symmetry_Int_Tables_number   1
_chemical_formula_structural   Dy3Ho9InNi5
_chemical_formula_sum   'Dy3 Ho9 In1 Ni5'
_cell_volume   436.30799503
_cell_formula_units_Z   1
loop_
 _symmetry_equiv_pos_site_id
 _symmetry_equiv_pos_as_xyz
  1  'x, y, z'
loop_
 _atom_site_type_symbol
 _atom_site_label
 _atom_site_symmetry_multiplicity
 _atom_site_fract_x
 _atom_site_fract_y
 _atom_site_fract_z
 _atom_site_occupancy
  Dy  Dy0  1  0.477117  0.294552  0.182566  1
  Dy  Dy1  1  0.112276  0.294739  0.817535  1
  Dy  Dy2  1  0.887872  0.705601  0.182271  1
  Ho  Ho3  1  0.522990  0.705468  0.817522  1
  Ho  Ho4  1  0.305478  0.626882  0.321824  1
  Ho  Ho5  1  0.305478  0.983656  0.678597  1
  Ho  Ho6  1  0.694568  0.373173  0.678444  1
  Ho  Ho7  1  0.694568  0.016122  0.321396  1
  Ho  Ho8  1  0.190839  0.212053  0.402669  1
  Ho  Ho9  1  0.809338  0.788229  0.597843  1
  Ho  Ho10  1  0.190839  0.788170  0.978785  1
  Ho  Ho11  1  0.809338  0.211495  0.021111  1
  In  In12  1  0.999700  0.499963  0.499737  1
  Ni  Ni13  1  0.500005  0.624745  0.124365  1
  Ni  Ni14  1  0.500005  0.375639  0.875259  1
  Ni  Ni15  1  0.365313  0.000005  0.365307  1
  Ni  Ni16  1  0.634528  0.999755  0.634773  1
  Ni  Ni17  1  0.999749  0.999753  0.999997  1
