# generated using pymatgen
data_Tb8Nb(Pd5Pt3)3
_symmetry_space_group_name_H-M   'P 1'
_cell_length_a   8.35523900
_cell_length_b   8.35568500
_cell_length_c   8.36525600
_cell_angle_alpha   90.00000000
_cell_angle_beta   90.00000000
_cell_angle_gamma   90.00000000
_symmetry_Int_Tables_number   1
_chemical_formula_structural   Tb8Nb(Pd5Pt3)3
_chemical_formula_sum   'Tb8 Nb1 Pd15 Pt9'
_cell_volume   584.00985078
_cell_formula_units_Z   1
loop_
 _symmetry_equiv_pos_site_id
 _symmetry_equiv_pos_as_xyz
  1  'x, y, z'
loop_
 _atom_site_type_symbol
 _atom_site_label
 _atom_site_symmetry_multiplicity
 _atom_site_fract_x
 _atom_site_fract_y
 _atom_site_fract_z
 _atom_site_occupancy
  Tb  Tb0  1  0.251865  0.252060  0.252340  1
  Tb  Tb1  1  0.748305  0.747827  0.747224  1
  Tb  Tb2  1  0.748305  0.747827  0.252776  1
  Tb  Tb3  1  0.748135  0.252060  0.747660  1
  Tb  Tb4  1  0.251865  0.252060  0.747660  1
  Tb  Tb5  1  0.251695  0.747827  0.252776  1
  Tb  Tb6  1  0.251695  0.747827  0.747224  1
  Tb  Tb7  1  0.748135  0.252060  0.252340  1
  Nb  Nb8  1  0.000000  0.000369  0.000000  1
  Pd  Pd9  1  0.500000  0.735486  0.000000  1
  Pd  Pd10  1  0.500000  0.999793  0.265592  1
  Pd  Pd11  1  0.263960  0.999934  0.500000  1
  Pd  Pd12  1  0.500000  0.999793  0.734408  1
  Pd  Pd13  1  0.736040  0.999934  0.500000  1
  Pd  Pd14  1  0.000000  0.499954  0.265400  1
  Pd  Pd15  1  0.000000  0.499954  0.734600  1
  Pd  Pd16  1  0.254310  0.500070  0.500000  1
  Pd  Pd17  1  0.745690  0.500070  0.500000  1
  Pd  Pd18  1  0.500000  0.254022  0.500000  1
  Pd  Pd19  1  0.500000  0.745877  0.500000  1
  Pd  Pd20  1  0.500000  0.500120  0.255080  1
  Pd  Pd21  1  0.500000  0.500120  0.744920  1
  Pd  Pd22  1  0.000000  0.000023  0.305688  1
  Pd  Pd23  1  0.000000  0.000023  0.694312  1
  Pt  Pt24  1  0.265001  0.500094  0.000000  1
  Pt  Pt25  1  0.734999  0.500094  0.000000  1
  Pt  Pt26  1  0.000000  0.263835  0.500000  1
  Pt  Pt27  1  0.500000  0.264573  0.000000  1
  Pt  Pt28  1  0.000000  0.736397  0.500000  1
  Pt  Pt29  1  0.305231  0.999809  0.000000  1
  Pt  Pt30  1  0.694769  0.999809  0.000000  1
  Pt  Pt31  1  0.000000  0.305403  0.000000  1
  Pt  Pt32  1  0.000000  0.694892  0.000000  1
