# generated using pymatgen
data_Rb17Tm5O16
_symmetry_space_group_name_H-M   'P 1'
_cell_length_a   20.38196696
_cell_length_b   20.38196750
_cell_length_c   7.34803724
_cell_angle_alpha   84.90411281
_cell_angle_beta   84.90411186
_cell_angle_gamma   159.27205741
_symmetry_Int_Tables_number   1
_chemical_formula_structural   Rb17Tm5O16
_chemical_formula_sum   'Rb17 Tm5 O16'
_cell_volume   939.52547962
_cell_formula_units_Z   1
loop_
 _symmetry_equiv_pos_site_id
 _symmetry_equiv_pos_as_xyz
  1  'x, y, z'
loop_
 _atom_site_type_symbol
 _atom_site_label
 _atom_site_symmetry_multiplicity
 _atom_site_fract_x
 _atom_site_fract_y
 _atom_site_fract_z
 _atom_site_occupancy
  Rb  Rb0  1  0.387575  0.665379  0.062188  1
  Rb  Rb1  1  0.477385  0.569489  0.081416  1
  Rb  Rb2  1  0.322244  0.783245  0.059423  1
  Rb  Rb3  1  0.088207  0.915154  0.188244  1
  Rb  Rb4  1  0.169812  0.824525  0.473755  1
  Rb  Rb5  1  0.333265  0.606738  0.585531  1
  Rb  Rb6  1  0.222950  0.675405  0.612999  1
  Rb  Rb7  1  0.424242  0.516118  0.605987  1
  Rb  Rb8  1  0.665379  0.387575  0.062188  1
  Rb  Rb9  1  0.569489  0.477385  0.081416  1
  Rb  Rb10  1  0.783245  0.322244  0.059423  1
  Rb  Rb11  1  0.915154  0.088207  0.188244  1
  Rb  Rb12  1  0.824525  0.169812  0.473755  1
  Rb  Rb13  1  0.606738  0.333265  0.585531  1
  Rb  Rb14  1  0.675405  0.222950  0.612999  1
  Rb  Rb15  1  0.516118  0.424242  0.605987  1
  Rb  Rb16  1  0.993037  0.993037  0.492590  1
  Tm  Tm17  1  0.997789  0.997789  0.997851  1
  Tm  Tm18  1  0.085220  0.906369  0.681536  1
  Tm  Tm19  1  0.178606  0.820926  0.989539  1
  Tm  Tm20  1  0.906369  0.085220  0.681536  1
  Tm  Tm21  1  0.820926  0.178606  0.989539  1
  O  O22  1  0.088007  0.460597  0.011171  1
  O  O23  1  0.173692  0.359755  0.387954  1
  O  O24  1  0.460597  0.088007  0.011171  1
  O  O25  1  0.267725  0.267725  0.027478  1
  O  O26  1  0.538096  0.908800  0.279363  1
  O  O27  1  0.211721  0.783867  0.777522  1
  O  O28  1  0.039947  0.953859  0.826694  1
  O  O29  1  0.128687  0.870644  0.873471  1
  O  O30  1  0.359755  0.173692  0.387954  1
  O  O31  1  0.634138  0.819053  0.651597  1
  O  O32  1  0.908800  0.538096  0.279363  1
  O  O33  1  0.725733  0.725733  0.291796  1
  O  O34  1  0.783867  0.211721  0.777522  1
  O  O35  1  0.953859  0.039947  0.826694  1
  O  O36  1  0.870644  0.128687  0.873471  1
  O  O37  1  0.819053  0.634138  0.651597  1
