# generated using pymatgen
data_Tm2Tc3Mo
_symmetry_space_group_name_H-M   'P 1'
_cell_length_a   5.43676040
_cell_length_b   5.43675892
_cell_length_c   8.65832900
_cell_angle_alpha   90.00000000
_cell_angle_beta   90.00000000
_cell_angle_gamma   120.06077106
_symmetry_Int_Tables_number   1
_chemical_formula_structural   Tm2Tc3Mo
_chemical_formula_sum   'Tm4 Tc6 Mo2'
_cell_volume   221.50254027
_cell_formula_units_Z   2
loop_
 _symmetry_equiv_pos_site_id
 _symmetry_equiv_pos_as_xyz
  1  'x, y, z'
loop_
 _atom_site_type_symbol
 _atom_site_label
 _atom_site_symmetry_multiplicity
 _atom_site_fract_x
 _atom_site_fract_y
 _atom_site_fract_z
 _atom_site_occupancy
  Tm  Tm0  1  0.666649  0.333351  0.562685  1
  Tm  Tm1  1  0.333351  0.666649  0.437315  1
  Tm  Tm2  1  0.333351  0.666649  0.062685  1
  Tm  Tm3  1  0.666649  0.333351  0.937315  1
  Tc  Tc4  1  0.172072  0.344146  0.750000  1
  Tc  Tc5  1  0.172028  0.827972  0.750000  1
  Tc  Tc6  1  0.655854  0.827928  0.750000  1
  Tc  Tc7  1  0.827928  0.655854  0.250000  1
  Tc  Tc8  1  0.827972  0.172028  0.250000  1
  Tc  Tc9  1  0.344146  0.172072  0.250000  1
  Mo  Mo10  1  0.000000  0.000000  0.500000  1
  Mo  Mo11  1  0.000000  0.000000  0.000000  1
