# generated using pymatgen
data_PmFePt4
_symmetry_space_group_name_H-M   'P 1'
_cell_length_a   5.52208000
_cell_length_b   5.22483776
_cell_length_c   4.43705300
_cell_angle_alpha   90.00000000
_cell_angle_beta   90.00000000
_cell_angle_gamma   58.09950544
_symmetry_Int_Tables_number   1
_chemical_formula_structural   PmFePt4
_chemical_formula_sum   'Pm1 Fe1 Pt4'
_cell_volume   108.68284394
_cell_formula_units_Z   1
loop_
 _symmetry_equiv_pos_site_id
 _symmetry_equiv_pos_as_xyz
  1  'x, y, z'
loop_
 _atom_site_type_symbol
 _atom_site_label
 _atom_site_symmetry_multiplicity
 _atom_site_fract_x
 _atom_site_fract_y
 _atom_site_fract_z
 _atom_site_occupancy
  Pm  Pm0  1  0.000064  0.000001  0.000000  1
  Fe  Fe1  1  0.500248  0.000000  0.499999  1
  Pt  Pt2  1  0.340218  0.319588  0.000000  1
  Pt  Pt3  1  0.659807  0.680414  0.000000  1
  Pt  Pt4  1  0.999994  0.499670  0.499999  1
  Pt  Pt5  1  0.499663  0.500331  0.499999  1
