# generated using pymatgen
data_Pu(Ti5Bi6)3
_symmetry_space_group_name_H-M   'P 1'
_cell_length_a   10.36489301
_cell_length_b   10.36489323
_cell_length_c   7.50044100
_cell_angle_alpha   89.99989828
_cell_angle_beta   89.99989863
_cell_angle_gamma   90.00985615
_symmetry_Int_Tables_number   1
_chemical_formula_structural   Pu(Ti5Bi6)3
_chemical_formula_sum   'Pu1 Ti15 Bi18'
_cell_volume   805.77993630
_cell_formula_units_Z   1
loop_
 _symmetry_equiv_pos_site_id
 _symmetry_equiv_pos_as_xyz
  1  'x, y, z'
loop_
 _atom_site_type_symbol
 _atom_site_label
 _atom_site_symmetry_multiplicity
 _atom_site_fract_x
 _atom_site_fract_y
 _atom_site_fract_z
 _atom_site_occupancy
  Pu  Pu0  1  0.249980  0.249980  0.074519  1
  Ti  Ti1  1  0.999961  0.999961  0.000825  1
  Ti  Ti2  1  0.500024  0.999984  0.000840  1
  Ti  Ti3  1  0.999984  0.500024  0.000840  1
  Ti  Ti4  1  0.500046  0.500046  0.000826  1
  Ti  Ti5  1  0.609097  0.250052  0.146610  1
  Ti  Ti6  1  0.890853  0.250016  0.146661  1
  Ti  Ti7  1  0.250052  0.609097  0.146610  1
  Ti  Ti8  1  0.250016  0.890853  0.146661  1
  Ti  Ti9  1  0.750007  0.750007  0.425680  1
  Ti  Ti10  1  0.249996  0.249996  0.570941  1
  Ti  Ti11  1  0.749981  0.108230  0.851907  1
  Ti  Ti12  1  0.749955  0.391825  0.851951  1
  Ti  Ti13  1  0.108230  0.749981  0.851907  1
  Ti  Ti14  1  0.391825  0.749955  0.851951  1
  Ti  Ti15  1  0.749979  0.749979  0.925122  1
  Bi  Bi16  1  0.750008  0.512878  0.192622  1
  Bi  Bi17  1  0.512878  0.750008  0.192622  1
  Bi  Bi18  1  0.987171  0.749996  0.192582  1
  Bi  Bi19  1  0.749996  0.987171  0.192582  1
  Bi  Bi20  1  0.080119  0.080119  0.353829  1
  Bi  Bi21  1  0.419912  0.080127  0.353837  1
  Bi  Bi22  1  0.080127  0.419912  0.353837  1
  Bi  Bi23  1  0.419879  0.419879  0.353817  1
  Bi  Bi24  1  0.749974  0.250032  0.495115  1
  Bi  Bi25  1  0.250032  0.749974  0.495115  1
  Bi  Bi26  1  0.585326  0.585326  0.655219  1
  Bi  Bi27  1  0.914619  0.585358  0.655321  1
  Bi  Bi28  1  0.585358  0.914619  0.655321  1
  Bi  Bi29  1  0.914659  0.914659  0.655245  1
  Bi  Bi30  1  0.250007  0.005483  0.802282  1
  Bi  Bi31  1  0.005483  0.250007  0.802282  1
  Bi  Bi32  1  0.494461  0.250008  0.802258  1
  Bi  Bi33  1  0.250008  0.494461  0.802258  1
