# generated using pymatgen
data_Ac3Yb(AsPd)4
_symmetry_space_group_name_H-M   'P 1'
_cell_length_a   4.44110900
_cell_length_b   8.17663052
_cell_length_c   7.76298200
_cell_angle_alpha   90.23963499
_cell_angle_beta   90.00000000
_cell_angle_gamma   90.00000000
_symmetry_Int_Tables_number   1
_chemical_formula_structural   Ac3Yb(AsPd)4
_chemical_formula_sum   'Ac3 Yb1 As4 Pd4'
_cell_volume   281.89708590
_cell_formula_units_Z   1
loop_
 _symmetry_equiv_pos_site_id
 _symmetry_equiv_pos_as_xyz
  1  'x, y, z'
loop_
 _atom_site_type_symbol
 _atom_site_label
 _atom_site_symmetry_multiplicity
 _atom_site_fract_x
 _atom_site_fract_y
 _atom_site_fract_z
 _atom_site_occupancy
  Ac  Ac0  1  0.250000  0.499502  0.250824  1
  Ac  Ac1  1  0.250000  0.999774  0.248885  1
  Ac  Ac2  1  0.750000  0.500171  0.749498  1
  Yb  Yb3  1  0.750000  0.000794  0.750464  1
  As  As4  1  0.250000  0.246009  0.912789  1
  As  As5  1  0.250000  0.758075  0.587217  1
  As  As6  1  0.750000  0.747128  0.079612  1
  As  As7  1  0.750000  0.252230  0.420379  1
  Pd  Pd8  1  0.250000  0.763455  0.914925  1
  Pd  Pd9  1  0.250000  0.234249  0.585137  1
  Pd  Pd10  1  0.750000  0.241131  0.082029  1
  Pd  Pd11  1  0.750000  0.757483  0.418239  1
