# generated using pymatgen
data_NdSm(PaPt2)2
_symmetry_space_group_name_H-M   'P 1'
_cell_length_a   4.47483900
_cell_length_b   5.72855418
_cell_length_c   7.29443117
_cell_angle_alpha   90.64541244
_cell_angle_beta   90.00000000
_cell_angle_gamma   90.00000000
_symmetry_Int_Tables_number   1
_chemical_formula_structural   NdSm(PaPt2)2
_chemical_formula_sum   'Nd1 Sm1 Pa2 Pt4'
_cell_volume   186.97619407
_cell_formula_units_Z   1
loop_
 _symmetry_equiv_pos_site_id
 _symmetry_equiv_pos_as_xyz
  1  'x, y, z'
loop_
 _atom_site_type_symbol
 _atom_site_label
 _atom_site_symmetry_multiplicity
 _atom_site_fract_x
 _atom_site_fract_y
 _atom_site_fract_z
 _atom_site_occupancy
  Nd  Nd0  1  0.750000  0.849431  0.815094  1
  Sm  Sm1  1  0.250000  0.352143  0.683466  1
  Pa  Pa2  1  0.250000  0.148505  0.177561  1
  Pa  Pa3  1  0.750000  0.649750  0.322514  1
  Pt  Pt4  1  0.250000  0.838806  0.525447  1
  Pt  Pt5  1  0.250000  0.659831  0.073709  1
  Pt  Pt6  1  0.750000  0.166775  0.430112  1
  Pt  Pt7  1  0.750000  0.334759  0.972098  1
