# generated using pymatgen
data_Na7Ga2Sb5
_symmetry_space_group_name_H-M   'P 1'
_cell_length_a   14.01460200
_cell_length_b   7.69867044
_cell_length_c   8.20530600
_cell_angle_alpha   62.27898993
_cell_angle_beta   90.00000000
_cell_angle_gamma   90.00000000
_symmetry_Int_Tables_number   1
_chemical_formula_structural   Na7Ga2Sb5
_chemical_formula_sum   'Na14 Ga4 Sb10'
_cell_volume   783.68949180
_cell_formula_units_Z   2
loop_
 _symmetry_equiv_pos_site_id
 _symmetry_equiv_pos_as_xyz
  1  'x, y, z'
loop_
 _atom_site_type_symbol
 _atom_site_label
 _atom_site_symmetry_multiplicity
 _atom_site_fract_x
 _atom_site_fract_y
 _atom_site_fract_z
 _atom_site_occupancy
  Na  Na0  1  0.250000  0.900365  0.403476  1
  Na  Na1  1  0.924146  0.893484  0.415175  1
  Na  Na2  1  0.923222  0.190377  0.886244  1
  Na  Na3  1  0.423222  0.809623  0.113756  1
  Na  Na4  1  0.750000  0.099635  0.596524  1
  Na  Na5  1  0.250000  0.438033  0.260971  1
  Na  Na6  1  0.750000  0.766663  0.147430  1
  Na  Na7  1  0.250000  0.233337  0.852570  1
  Na  Na8  1  0.075854  0.106516  0.584825  1
  Na  Na9  1  0.076778  0.809623  0.113756  1
  Na  Na10  1  0.424146  0.106516  0.584825  1
  Na  Na11  1  0.750000  0.561967  0.739029  1
  Na  Na12  1  0.576778  0.190377  0.886244  1
  Na  Na13  1  0.575854  0.893484  0.415175  1
  Ga  Ga14  1  0.089770  0.589582  0.837052  1
  Ga  Ga15  1  0.589770  0.410418  0.162948  1
  Ga  Ga16  1  0.910230  0.410418  0.162948  1
  Ga  Ga17  1  0.410230  0.589582  0.837052  1
  Sb  Sb18  1  0.099054  0.531145  0.533527  1
  Sb  Sb19  1  0.922914  0.774698  0.852130  1
  Sb  Sb20  1  0.422914  0.225302  0.147870  1
  Sb  Sb21  1  0.077086  0.225302  0.147870  1
  Sb  Sb22  1  0.900946  0.468855  0.466473  1
  Sb  Sb23  1  0.400946  0.531145  0.533527  1
  Sb  Sb24  1  0.599054  0.468855  0.466473  1
  Sb  Sb25  1  0.250000  0.809920  0.828953  1
  Sb  Sb26  1  0.750000  0.190080  0.171047  1
  Sb  Sb27  1  0.577086  0.774698  0.852130  1
