# generated using pymatgen
data_HoTh3(InPd2)2
_symmetry_space_group_name_H-M   'P 1'
_cell_length_a   7.93392934
_cell_length_b   7.93392934
_cell_length_c   3.78960600
_cell_angle_alpha   90.00000000
_cell_angle_beta   90.00000000
_cell_angle_gamma   89.47163592
_symmetry_Int_Tables_number   1
_chemical_formula_structural   HoTh3(InPd2)2
_chemical_formula_sum   'Ho1 Th3 In2 Pd4'
_cell_volume   238.53507558
_cell_formula_units_Z   1
loop_
 _symmetry_equiv_pos_site_id
 _symmetry_equiv_pos_as_xyz
  1  'x, y, z'
loop_
 _atom_site_type_symbol
 _atom_site_label
 _atom_site_symmetry_multiplicity
 _atom_site_fract_x
 _atom_site_fract_y
 _atom_site_fract_z
 _atom_site_occupancy
  Ho  Ho0  1  0.675169  0.175169  0.500000  1
  Th  Th1  1  0.329298  0.829298  0.500000  1
  Th  Th2  1  0.824119  0.671812  0.500000  1
  Th  Th3  1  0.171812  0.324119  0.500000  1
  In  In4  1  0.992728  0.003024  0.000000  1
  In  In5  1  0.503024  0.492728  0.000000  1
  Pd  Pd6  1  0.371690  0.128203  0.000000  1
  Pd  Pd7  1  0.873338  0.373338  0.000000  1
  Pd  Pd8  1  0.130619  0.630619  0.000000  1
  Pd  Pd9  1  0.628203  0.871690  0.000000  1
