# generated using pymatgen
data_Lu11ScSi12RuRh3
_symmetry_space_group_name_H-M   'P 1'
_cell_length_a   4.15247900
_cell_length_b   10.50824174
_cell_length_c   12.04716449
_cell_angle_alpha   89.99301761
_cell_angle_beta   90.00000000
_cell_angle_gamma   90.00000000
_symmetry_Int_Tables_number   1
_chemical_formula_structural   Lu11ScSi12RuRh3
_chemical_formula_sum   'Lu11 Sc1 Si12 Ru1 Rh3'
_cell_volume   525.68106813
_cell_formula_units_Z   1
loop_
 _symmetry_equiv_pos_site_id
 _symmetry_equiv_pos_as_xyz
  1  'x, y, z'
loop_
 _atom_site_type_symbol
 _atom_site_label
 _atom_site_symmetry_multiplicity
 _atom_site_fract_x
 _atom_site_fract_y
 _atom_site_fract_z
 _atom_site_occupancy
  Lu  Lu0  1  0.250000  0.877686  0.020955  1
  Lu  Lu1  1  0.250000  0.621687  0.519548  1
  Lu  Lu2  1  0.750000  0.120682  0.980795  1
  Lu  Lu3  1  0.750000  0.378125  0.481045  1
  Lu  Lu4  1  0.250000  0.921051  0.602427  1
  Lu  Lu5  1  0.250000  0.579972  0.104450  1
  Lu  Lu6  1  0.750000  0.077631  0.395943  1
  Lu  Lu7  1  0.750000  0.421128  0.896430  1
  Lu  Lu8  1  0.250000  0.660559  0.798623  1
  Lu  Lu9  1  0.750000  0.340681  0.200210  1
  Lu  Lu10  1  0.750000  0.159063  0.700531  1
  Sc  Sc11  1  0.250000  0.839521  0.298307  1
  Si  Si12  1  0.250000  0.014533  0.822603  1
  Si  Si13  1  0.250000  0.485066  0.322010  1
  Si  Si14  1  0.750000  0.983473  0.179103  1
  Si  Si15  1  0.750000  0.513338  0.679261  1
  Si  Si16  1  0.250000  0.250043  0.840794  1
  Si  Si17  1  0.250000  0.250517  0.342145  1
  Si  Si18  1  0.750000  0.752048  0.161321  1
  Si  Si19  1  0.750000  0.750517  0.656457  1
  Si  Si20  1  0.250000  0.198527  0.544375  1
  Si  Si21  1  0.250000  0.302560  0.043226  1
  Si  Si22  1  0.750000  0.803995  0.451692  1
  Si  Si23  1  0.750000  0.696225  0.957316  1
  Ru  Ru24  1  0.250000  0.391590  0.678607  1
  Rh  Rh25  1  0.250000  0.108746  0.179730  1
  Rh  Rh26  1  0.750000  0.610633  0.321081  1
  Rh  Rh27  1  0.750000  0.890401  0.821014  1
