# generated using pymatgen
data_Gd3Sc(SO4)6
_symmetry_space_group_name_H-M   'P 1'
_cell_length_a   9.06249683
_cell_length_b   9.06249686
_cell_length_c   9.67076900
_cell_angle_alpha   117.94028011
_cell_angle_beta   62.05971981
_cell_angle_gamma   120.00000284
_symmetry_Int_Tables_number   1
_chemical_formula_structural   Gd3Sc(SO4)6
_chemical_formula_sum   'Gd3 Sc1 S6 O24'
_cell_volume   578.47292776
_cell_formula_units_Z   1
loop_
 _symmetry_equiv_pos_site_id
 _symmetry_equiv_pos_as_xyz
  1  'x, y, z'
loop_
 _atom_site_type_symbol
 _atom_site_label
 _atom_site_symmetry_multiplicity
 _atom_site_fract_x
 _atom_site_fract_y
 _atom_site_fract_z
 _atom_site_occupancy
  Gd  Gd0  1  0.645994  0.354007  0.062022  1
  Gd  Gd1  1  0.854272  0.145729  0.437186  1
  Gd  Gd2  1  0.141093  0.858908  0.576723  1
  Sc  Sc3  1  0.349575  0.650426  0.951278  1
  S  S4  1  0.243010  0.020851  0.242543  1
  S  S5  1  0.979148  0.464702  0.242543  1
  S  S6  1  0.535298  0.756989  0.242543  1
  S  S7  1  0.463885  0.270037  0.755720  1
  S  S8  1  0.050431  0.536115  0.755720  1
  S  S9  1  0.729963  0.949569  0.755720  1
  O  O10  1  0.151511  0.490240  0.107212  1
  O  O11  1  0.509759  0.768482  0.107212  1
  O  O12  1  0.231518  0.848488  0.107212  1
  O  O13  1  0.425290  0.156122  0.202406  1
  O  O14  1  0.843878  0.471574  0.202406  1
  O  O15  1  0.528426  0.574710  0.202406  1
  O  O16  1  0.109848  0.084258  0.262441  1
  O  O17  1  0.915741  0.288031  0.262441  1
  O  O18  1  0.711969  0.890152  0.262441  1
  O  O19  1  0.204090  0.996805  0.399045  1
  O  O20  1  0.003196  0.606330  0.399045  1
  O  O21  1  0.393670  0.795910  0.399045  1
  O  O22  1  0.614575  0.242412  0.603045  1
  O  O23  1  0.024793  0.385425  0.603045  1
  O  O24  1  0.757587  0.975206  0.603045  1
  O  O25  1  0.291716  0.134609  0.725735  1
  O  O26  1  0.117158  0.708284  0.725735  1
  O  O27  1  0.865393  0.882842  0.725735  1
  O  O28  1  0.465498  0.452230  0.803357  1
  O  O29  1  0.183376  0.534502  0.803357  1
  O  O30  1  0.547769  0.816622  0.803357  1
  O  O31  1  0.749517  0.122562  0.889427  1
  O  O32  1  0.483616  0.250483  0.889427  1
  O  O33  1  0.877438  0.516385  0.889427  1
