# generated using pymatgen
data_Tb2Ho2BI6
_symmetry_space_group_name_H-M   'P 1'
_cell_length_a   4.12243200
_cell_length_b   13.74351500
_cell_length_c   14.24810300
_cell_angle_alpha   90.00000000
_cell_angle_beta   90.00000000
_cell_angle_gamma   90.00000000
_symmetry_Int_Tables_number   1
_chemical_formula_structural   Tb2Ho2BI6
_chemical_formula_sum   'Tb4 Ho4 B2 I12'
_cell_volume   807.25058313
_cell_formula_units_Z   2
loop_
 _symmetry_equiv_pos_site_id
 _symmetry_equiv_pos_as_xyz
  1  'x, y, z'
loop_
 _atom_site_type_symbol
 _atom_site_label
 _atom_site_symmetry_multiplicity
 _atom_site_fract_x
 _atom_site_fract_y
 _atom_site_fract_z
 _atom_site_occupancy
  Tb  Tb0  1  0.500000  0.119206  0.860244  1
  Tb  Tb1  1  0.500000  0.880794  0.139756  1
  Tb  Tb2  1  0.500000  0.619206  0.639756  1
  Tb  Tb3  1  0.500000  0.380794  0.360244  1
  Ho  Ho4  1  0.000000  0.095568  0.075960  1
  Ho  Ho5  1  0.000000  0.904432  0.924040  1
  Ho  Ho6  1  0.000000  0.595568  0.424040  1
  Ho  Ho7  1  0.000000  0.404432  0.575960  1
  B  B8  1  0.500000  0.000000  0.000000  1
  B  B9  1  0.500000  0.500000  0.500000  1
  I  I10  1  0.500000  0.269164  0.680613  1
  I  I11  1  0.500000  0.730836  0.319387  1
  I  I12  1  0.500000  0.769164  0.819387  1
  I  I13  1  0.500000  0.230836  0.180613  1
  I  I14  1  0.000000  0.267895  0.934391  1
  I  I15  1  0.000000  0.732105  0.065609  1
  I  I16  1  0.000000  0.484729  0.233407  1
  I  I17  1  0.000000  0.515271  0.766593  1
  I  I18  1  0.000000  0.984729  0.266593  1
  I  I19  1  0.000000  0.015271  0.733407  1
  I  I20  1  0.000000  0.232105  0.434391  1
  I  I21  1  0.000000  0.767895  0.565609  1
