# generated using pymatgen
data_KSrCoO4
_symmetry_space_group_name_H-M   'P 1'
_cell_length_a   5.82130000
_cell_length_b   7.55928300
_cell_length_c   9.95214800
_cell_angle_alpha   90.00000000
_cell_angle_beta   90.00000000
_cell_angle_gamma   90.00000000
_symmetry_Int_Tables_number   1
_chemical_formula_structural   KSrCoO4
_chemical_formula_sum   'K4 Sr4 Co4 O16'
_cell_volume   437.94282100
_cell_formula_units_Z   4
loop_
 _symmetry_equiv_pos_site_id
 _symmetry_equiv_pos_as_xyz
  1  'x, y, z'
loop_
 _atom_site_type_symbol
 _atom_site_label
 _atom_site_symmetry_multiplicity
 _atom_site_fract_x
 _atom_site_fract_y
 _atom_site_fract_z
 _atom_site_occupancy
  K  K0  1  0.487321  0.093476  0.578963  1
  K  K1  1  0.512679  0.593476  0.921037  1
  K  K2  1  0.012679  0.906524  0.078963  1
  K  K3  1  0.987321  0.406524  0.421037  1
  Sr  Sr4  1  0.978311  0.250714  0.806050  1
  Sr  Sr5  1  0.478311  0.249286  0.193950  1
  Sr  Sr6  1  0.521689  0.749286  0.306050  1
  Sr  Sr7  1  0.021689  0.750714  0.693950  1
  Co  Co8  1  0.486321  0.523475  0.584043  1
  Co  Co9  1  0.013679  0.476525  0.084043  1
  Co  Co10  1  0.986321  0.976525  0.415957  1
  Co  Co11  1  0.513679  0.023475  0.915957  1
  O  O12  1  0.506618  0.933477  0.072814  1
  O  O13  1  0.244715  0.551551  0.171758  1
  O  O14  1  0.255285  0.448449  0.671758  1
  O  O15  1  0.068957  0.258091  0.063768  1
  O  O16  1  0.744715  0.948449  0.828242  1
  O  O17  1  0.568957  0.241909  0.936232  1
  O  O18  1  0.764660  0.515341  0.167490  1
  O  O19  1  0.264660  0.984659  0.832510  1
  O  O20  1  0.993382  0.066523  0.572814  1
  O  O21  1  0.755285  0.051551  0.328242  1
  O  O22  1  0.006618  0.566523  0.927186  1
  O  O23  1  0.493382  0.433477  0.427186  1
  O  O24  1  0.235340  0.015341  0.332510  1
  O  O25  1  0.431043  0.741909  0.563768  1
  O  O26  1  0.735340  0.484659  0.667490  1
  O  O27  1  0.931043  0.758091  0.436232  1
