# generated using pymatgen
data_Th4Ga9GeIr6
_symmetry_space_group_name_H-M   'P 1'
_cell_length_a   8.63266155
_cell_length_b   8.67435666
_cell_length_c   8.67435549
_cell_angle_alpha   140.61385470
_cell_angle_beta   107.84383720
_cell_angle_gamma   85.51410570
_symmetry_Int_Tables_number   1
_chemical_formula_structural   Th4Ga9GeIr6
_chemical_formula_sum   'Th4 Ga9 Ge1 Ir6'
_cell_volume   378.57674879
_cell_formula_units_Z   1
loop_
 _symmetry_equiv_pos_site_id
 _symmetry_equiv_pos_as_xyz
  1  'x, y, z'
loop_
 _atom_site_type_symbol
 _atom_site_label
 _atom_site_symmetry_multiplicity
 _atom_site_fract_x
 _atom_site_fract_y
 _atom_site_fract_z
 _atom_site_occupancy
  Th  Th0  1  0.862907  0.637623  0.225284  1
  Th  Th1  1  0.136334  0.359516  0.776816  1
  Th  Th2  1  0.585383  0.860444  0.724938  1
  Th  Th3  1  0.418860  0.141825  0.277036  1
  Ga  Ga4  1  0.498685  0.751037  0.250013  1
  Ga  Ga5  1  0.498685  0.248672  0.747649  1
  Ga  Ga6  1  0.209522  0.957300  0.749957  1
  Ga  Ga7  1  0.792555  0.540129  0.750377  1
  Ga  Ga8  1  0.792555  0.042178  0.252426  1
  Ga  Ga9  1  0.209522  0.459565  0.252222  1
  Ga  Ga10  1  0.074858  0.910619  0.164239  1
  Ga  Ga11  1  0.929468  0.094157  0.835310  1
  Ga  Ga12  1  0.256522  0.591582  0.664940  1
  Ge  Ge13  1  0.741797  0.405746  0.336051  1
  Ir  Ir14  1  0.547883  0.650101  0.897781  1
  Ir  Ir15  1  0.455766  0.351952  0.103815  1
  Ir  Ir16  1  0.996343  0.749063  0.746562  1
  Ir  Ir17  1  0.996343  0.249780  0.247280  1
  Ir  Ir18  1  0.244320  0.850116  0.394204  1
  Ir  Ir19  1  0.751695  0.148597  0.603098  1
