# generated using pymatgen
data_Ti13Mn2(Al3Ir2)3
_symmetry_space_group_name_H-M   'P 1'
_cell_length_a   8.68888326
_cell_length_b   8.68888233
_cell_length_c   8.68888368
_cell_angle_alpha   59.88238291
_cell_angle_beta   59.88238925
_cell_angle_gamma   59.88239045
_symmetry_Int_Tables_number   1
_chemical_formula_structural   Ti13Mn2(Al3Ir2)3
_chemical_formula_sum   'Ti13 Mn2 Al9 Ir6'
_cell_volume   462.61145760
_cell_formula_units_Z   1
loop_
 _symmetry_equiv_pos_site_id
 _symmetry_equiv_pos_as_xyz
  1  'x, y, z'
loop_
 _atom_site_type_symbol
 _atom_site_label
 _atom_site_symmetry_multiplicity
 _atom_site_fract_x
 _atom_site_fract_y
 _atom_site_fract_z
 _atom_site_occupancy
  Ti  Ti0  1  0.207185  0.207185  0.794312  1
  Ti  Ti1  1  0.794312  0.207185  0.207185  1
  Ti  Ti2  1  0.207185  0.794312  0.207185  1
  Ti  Ti3  1  0.805183  0.805183  0.178741  1
  Ti  Ti4  1  0.178741  0.805183  0.805183  1
  Ti  Ti5  1  0.805183  0.178741  0.805183  1
  Ti  Ti6  1  0.381980  0.381980  0.381980  1
  Ti  Ti7  1  0.383520  0.855073  0.383520  1
  Ti  Ti8  1  0.855073  0.383520  0.383520  1
  Ti  Ti9  1  0.383520  0.383520  0.855073  1
  Ti  Ti10  1  0.843841  0.468053  0.843841  1
  Ti  Ti11  1  0.468053  0.843841  0.843841  1
  Ti  Ti12  1  0.843841  0.843841  0.468053  1
  Mn  Mn13  1  0.499885  0.499885  0.499885  1
  Mn  Mn14  1  0.003921  0.003921  0.003921  1
  Al  Al15  1  0.155726  0.155726  0.155726  1
  Al  Al16  1  0.158978  0.527121  0.158978  1
  Al  Al17  1  0.527121  0.158978  0.158978  1
  Al  Al18  1  0.158978  0.158978  0.527121  1
  Al  Al19  1  0.616651  0.616651  0.616651  1
  Al  Al20  1  0.617292  0.151042  0.617292  1
  Al  Al21  1  0.151042  0.617292  0.617292  1
  Al  Al22  1  0.617292  0.617292  0.151042  1
  Al  Al23  1  0.829639  0.829639  0.829639  1
  Ir  Ir24  1  0.002668  0.002668  0.498786  1
  Ir  Ir25  1  0.498786  0.002668  0.002668  1
  Ir  Ir26  1  0.002668  0.498786  0.002668  1
  Ir  Ir27  1  0.500223  0.500223  0.001286  1
  Ir  Ir28  1  0.001286  0.500223  0.500223  1
  Ir  Ir29  1  0.500223  0.001286  0.500223  1
