# generated using pymatgen
data_YHo7CdHgPt2
_symmetry_space_group_name_H-M   'P 1'
_cell_length_a   9.63158158
_cell_length_b   9.63158105
_cell_length_c   9.62607200
_cell_angle_alpha   60.01891907
_cell_angle_beta   60.01892087
_cell_angle_gamma   60.06871312
_symmetry_Int_Tables_number   1
_chemical_formula_structural   YHo7CdHgPt2
_chemical_formula_sum   'Y2 Ho14 Cd2 Hg2 Pt4'
_cell_volume   631.94398945
_cell_formula_units_Z   2
loop_
 _symmetry_equiv_pos_site_id
 _symmetry_equiv_pos_as_xyz
  1  'x, y, z'
loop_
 _atom_site_type_symbol
 _atom_site_label
 _atom_site_symmetry_multiplicity
 _atom_site_fract_x
 _atom_site_fract_y
 _atom_site_fract_z
 _atom_site_occupancy
  Y  Y0  1  0.564483  0.564483  0.935517  1
  Y  Y1  1  0.936227  0.936227  0.563773  1
  Ho  Ho2  1  0.353044  0.353044  0.350790  1
  Ho  Ho3  1  0.353044  0.353044  0.943122  1
  Ho  Ho4  1  0.356702  0.935918  0.353691  1
  Ho  Ho5  1  0.935918  0.356702  0.353691  1
  Ho  Ho6  1  0.810629  0.189491  0.190500  1
  Ho  Ho7  1  0.189491  0.810629  0.809380  1
  Ho  Ho8  1  0.189491  0.810629  0.190500  1
  Ho  Ho9  1  0.810629  0.189491  0.809380  1
  Ho  Ho10  1  0.190291  0.190291  0.809709  1
  Ho  Ho11  1  0.809938  0.809938  0.190062  1
  Ho  Ho12  1  0.935071  0.563539  0.564289  1
  Ho  Ho13  1  0.563539  0.935071  0.937101  1
  Ho  Ho14  1  0.563539  0.935071  0.564289  1
  Ho  Ho15  1  0.935071  0.563539  0.937101  1
  Cd  Cd16  1  0.580333  0.254271  0.582698  1
  Cd  Cd17  1  0.254271  0.580333  0.582698  1
  Hg  Hg18  1  0.584781  0.584781  0.587765  1
  Hg  Hg19  1  0.584781  0.584781  0.242674  1
  Pt  Pt20  1  0.143356  0.143356  0.145784  1
  Pt  Pt21  1  0.143356  0.143356  0.567503  1
  Pt  Pt22  1  0.141653  0.570365  0.143992  1
  Pt  Pt23  1  0.570365  0.141653  0.143992  1
