# generated using pymatgen
data_Tb7Tm3Si5Sn
_symmetry_space_group_name_H-M   'P 1'
_cell_length_a   8.52186109
_cell_length_b   8.55076416
_cell_length_c   6.37957916
_cell_angle_alpha   90.02463136
_cell_angle_beta   89.99459214
_cell_angle_gamma   119.90393400
_symmetry_Int_Tables_number   1
_chemical_formula_structural   Tb7Tm3Si5Sn
_chemical_formula_sum   'Tb7 Tm3 Si5 Sn1'
_cell_volume   402.97823636
_cell_formula_units_Z   1
loop_
 _symmetry_equiv_pos_site_id
 _symmetry_equiv_pos_as_xyz
  1  'x, y, z'
loop_
 _atom_site_type_symbol
 _atom_site_label
 _atom_site_symmetry_multiplicity
 _atom_site_fract_x
 _atom_site_fract_y
 _atom_site_fract_z
 _atom_site_occupancy
  Tb  Tb0  1  0.989725  0.747720  0.749534  1
  Tb  Tb1  1  0.998223  0.243740  0.250841  1
  Tb  Tb2  1  0.754774  0.755796  0.250714  1
  Tb  Tb3  1  0.764715  0.000260  0.749431  1
  Tb  Tb4  1  0.242051  0.252277  0.749229  1
  Tb  Tb5  1  0.242595  0.000273  0.250466  1
  Tb  Tb6  1  0.331345  0.657910  0.002969  1
  Tm  Tm7  1  0.331215  0.657611  0.497211  1
  Tm  Tm8  1  0.673702  0.342476  0.002964  1
  Tm  Tm9  1  0.673803  0.342434  0.497005  1
  Si  Si10  1  0.395257  0.392277  0.252134  1
  Si  Si11  1  0.999732  0.606216  0.251845  1
  Si  Si12  1  0.996908  0.394269  0.748102  1
  Si  Si13  1  0.604166  0.604124  0.748094  1
  Si  Si14  1  0.605461  0.001408  0.251702  1
  Sn  Sn15  1  0.396326  0.001209  0.747758  1
