# generated using pymatgen
data_EuZn2InAu3
_symmetry_space_group_name_H-M   'P 1'
_cell_length_a   4.49672800
_cell_length_b   7.46208600
_cell_length_c   8.96001500
_cell_angle_alpha   90.00000000
_cell_angle_beta   90.00000000
_cell_angle_gamma   90.00000000
_symmetry_Int_Tables_number   1
_chemical_formula_structural   EuZn2InAu3
_chemical_formula_sum   'Eu2 Zn4 In2 Au6'
_cell_volume   300.65304397
_cell_formula_units_Z   2
loop_
 _symmetry_equiv_pos_site_id
 _symmetry_equiv_pos_as_xyz
  1  'x, y, z'
loop_
 _atom_site_type_symbol
 _atom_site_label
 _atom_site_symmetry_multiplicity
 _atom_site_fract_x
 _atom_site_fract_y
 _atom_site_fract_z
 _atom_site_occupancy
  Eu  Eu0  1  0.000000  0.500000  0.251688  1
  Eu  Eu1  1  0.500000  0.000000  0.748312  1
  Zn  Zn2  1  0.000000  0.315535  0.894686  1
  Zn  Zn3  1  0.000000  0.684465  0.894686  1
  Zn  Zn4  1  0.500000  0.815535  0.105314  1
  Zn  Zn5  1  0.500000  0.184465  0.105314  1
  In  In6  1  0.500000  0.500000  0.649076  1
  In  In7  1  0.000000  0.000000  0.350924  1
  Au  Au8  1  0.000000  0.740207  0.603077  1
  Au  Au9  1  0.500000  0.500000  0.970823  1
  Au  Au10  1  0.000000  0.259793  0.603077  1
  Au  Au11  1  0.500000  0.759793  0.396923  1
  Au  Au12  1  0.000000  0.000000  0.029177  1
  Au  Au13  1  0.500000  0.240207  0.396923  1
