# generated using pymatgen
data_TbYPdPt
_symmetry_space_group_name_H-M   'P 1'
_cell_length_a   4.55275100
_cell_length_b   5.62985700
_cell_length_c   7.07827100
_cell_angle_alpha   90.00000000
_cell_angle_beta   90.00000000
_cell_angle_gamma   90.00000000
_symmetry_Int_Tables_number   1
_chemical_formula_structural   TbYPdPt
_chemical_formula_sum   'Tb2 Y2 Pd2 Pt2'
_cell_volume   181.42554999
_cell_formula_units_Z   2
loop_
 _symmetry_equiv_pos_site_id
 _symmetry_equiv_pos_as_xyz
  1  'x, y, z'
loop_
 _atom_site_type_symbol
 _atom_site_label
 _atom_site_symmetry_multiplicity
 _atom_site_fract_x
 _atom_site_fract_y
 _atom_site_fract_z
 _atom_site_occupancy
  Tb  Tb0  1  0.500000  0.394557  0.316530  1
  Tb  Tb1  1  0.500000  0.605443  0.816530  1
  Y  Y2  1  0.000000  0.113269  0.682148  1
  Y  Y3  1  0.000000  0.886731  0.182148  1
  Pd  Pd4  1  0.500000  0.906486  0.458166  1
  Pd  Pd5  1  0.500000  0.093514  0.958166  1
  Pt  Pt6  1  0.000000  0.601273  0.543156  1
  Pt  Pt7  1  0.000000  0.398727  0.043156  1
