# generated using pymatgen
data_Cs6PrNdBr12
_symmetry_space_group_name_H-M   'P 1'
_cell_length_a   10.13740923
_cell_length_b   10.13646925
_cell_length_c   8.43196100
_cell_angle_alpha   90.00000000
_cell_angle_beta   90.00000000
_cell_angle_gamma   89.96514816
_symmetry_Int_Tables_number   1
_chemical_formula_structural   Cs6PrNdBr12
_chemical_formula_sum   'Cs6 Pr1 Nd1 Br12'
_cell_volume   866.44738399
_cell_formula_units_Z   1
loop_
 _symmetry_equiv_pos_site_id
 _symmetry_equiv_pos_as_xyz
  1  'x, y, z'
loop_
 _atom_site_type_symbol
 _atom_site_label
 _atom_site_symmetry_multiplicity
 _atom_site_fract_x
 _atom_site_fract_y
 _atom_site_fract_z
 _atom_site_occupancy
  Cs  Cs0  1  0.000000  0.000000  0.500000  1
  Cs  Cs1  1  0.000000  0.000000  0.000000  1
  Cs  Cs2  1  0.235465  0.584510  0.500000  1
  Cs  Cs3  1  0.764535  0.415490  0.500000  1
  Cs  Cs4  1  0.415531  0.234579  0.000000  1
  Cs  Cs5  1  0.584469  0.765421  0.000000  1
  Pr  Pr6  1  0.000000  0.500000  0.000000  1
  Nd  Nd7  1  0.500000  0.000000  0.500000  1
  Br  Br8  1  0.695877  0.058426  0.744154  1
  Br  Br9  1  0.304123  0.941574  0.744154  1
  Br  Br10  1  0.941087  0.697007  0.245468  1
  Br  Br11  1  0.058913  0.302993  0.245468  1
  Br  Br12  1  0.304123  0.941574  0.255846  1
  Br  Br13  1  0.695877  0.058426  0.255846  1
  Br  Br14  1  0.058913  0.302993  0.754532  1
  Br  Br15  1  0.941087  0.697007  0.754532  1
  Br  Br16  1  0.569548  0.722524  0.500000  1
  Br  Br17  1  0.430452  0.277476  0.500000  1
  Br  Br18  1  0.279225  0.569641  0.000000  1
  Br  Br19  1  0.720775  0.430359  0.000000  1
