# generated using pymatgen
data_PrHo15Cd4TcPd3
_symmetry_space_group_name_H-M   'P 1'
_cell_length_a   9.71383820
_cell_length_b   9.71383922
_cell_length_c   9.71429112
_cell_angle_alpha   59.37433024
_cell_angle_beta   59.37432681
_cell_angle_gamma   59.07640342
_symmetry_Int_Tables_number   1
_chemical_formula_structural   PrHo15Cd4TcPd3
_chemical_formula_sum   'Pr1 Ho15 Cd4 Tc1 Pd3'
_cell_volume   637.44059182
_cell_formula_units_Z   1
loop_
 _symmetry_equiv_pos_site_id
 _symmetry_equiv_pos_as_xyz
  1  'x, y, z'
loop_
 _atom_site_type_symbol
 _atom_site_label
 _atom_site_symmetry_multiplicity
 _atom_site_fract_x
 _atom_site_fract_y
 _atom_site_fract_z
 _atom_site_occupancy
  Pr  Pr0  1  0.934629  0.934629  0.560170  1
  Ho  Ho1  1  0.353522  0.353522  0.352665  1
  Ho  Ho2  1  0.351818  0.351818  0.946454  1
  Ho  Ho3  1  0.352393  0.946744  0.349534  1
  Ho  Ho4  1  0.946744  0.352393  0.349534  1
  Ho  Ho5  1  0.816593  0.188827  0.185237  1
  Ho  Ho6  1  0.189380  0.810159  0.810821  1
  Ho  Ho7  1  0.188827  0.816593  0.185237  1
  Ho  Ho8  1  0.810159  0.189380  0.810821  1
  Ho  Ho9  1  0.187556  0.187556  0.817439  1
  Ho  Ho10  1  0.810497  0.810497  0.186776  1
  Ho  Ho11  1  0.933650  0.562276  0.566892  1
  Ho  Ho12  1  0.552869  0.937980  0.939929  1
  Ho  Ho13  1  0.562276  0.933650  0.566892  1
  Ho  Ho14  1  0.937980  0.552869  0.939929  1
  Ho  Ho15  1  0.566307  0.566307  0.934968  1
  Cd  Cd16  1  0.580947  0.580947  0.579417  1
  Cd  Cd17  1  0.581624  0.581624  0.252180  1
  Cd  Cd18  1  0.576855  0.257086  0.581678  1
  Cd  Cd19  1  0.257086  0.576855  0.581678  1
  Tc  Tc20  1  0.146421  0.146421  0.140828  1
  Pd  Pd21  1  0.146504  0.146504  0.570123  1
  Pd  Pd22  1  0.145419  0.569949  0.145399  1
  Pd  Pd23  1  0.569949  0.145419  0.145399  1
