# generated using pymatgen
data_Dy7(ErIn4)5
_symmetry_space_group_name_H-M   'P 1'
_cell_length_a   6.49177657
_cell_length_b   10.41036418
_cell_length_c   12.27003229
_cell_angle_alpha   90.05033904
_cell_angle_beta   89.95953193
_cell_angle_gamma   89.99708538
_symmetry_Int_Tables_number   1
_chemical_formula_structural   Dy7(ErIn4)5
_chemical_formula_sum   'Dy7 Er5 In20'
_cell_volume   829.22982801
_cell_formula_units_Z   1
loop_
 _symmetry_equiv_pos_site_id
 _symmetry_equiv_pos_as_xyz
  1  'x, y, z'
loop_
 _atom_site_type_symbol
 _atom_site_label
 _atom_site_symmetry_multiplicity
 _atom_site_fract_x
 _atom_site_fract_y
 _atom_site_fract_z
 _atom_site_occupancy
  Dy  Dy0  1  0.609300  0.006239  0.642236  1
  Dy  Dy1  1  0.109269  0.993561  0.857889  1
  Dy  Dy2  1  0.390828  0.506390  0.357741  1
  Dy  Dy3  1  0.109119  0.506371  0.858343  1
  Dy  Dy4  1  0.390804  0.993659  0.357660  1
  Dy  Dy5  1  0.890608  0.006444  0.142289  1
  Dy  Dy6  1  0.609347  0.493663  0.642159  1
  Er  Er7  1  0.348953  0.750167  0.056227  1
  Er  Er8  1  0.150296  0.749977  0.556104  1
  Er  Er9  1  0.650514  0.250250  0.943970  1
  Er  Er10  1  0.849455  0.249825  0.443824  1
  Er  Er11  1  0.891199  0.493628  0.141736  1
  In  In12  1  0.616049  0.749849  0.504620  1
  In  In13  1  0.883594  0.749194  0.005525  1
  In  In14  1  0.383945  0.250013  0.495217  1
  In  In15  1  0.115569  0.250115  0.995366  1
  In  In16  1  0.650501  0.749389  0.245405  1
  In  In17  1  0.850042  0.749933  0.745913  1
  In  In18  1  0.350146  0.250074  0.754278  1
  In  In19  1  0.149877  0.250513  0.254090  1
  In  In20  1  0.126209  0.749872  0.284990  1
  In  In21  1  0.373769  0.749930  0.784966  1
  In  In22  1  0.873760  0.250081  0.714984  1
  In  In23  1  0.627274  0.250805  0.214783  1
  In  In24  1  0.875940  0.543458  0.400814  1
  In  In25  1  0.624567  0.956183  0.901663  1
  In  In26  1  0.124243  0.043782  0.598412  1
  In  In27  1  0.375183  0.456502  0.098654  1
  In  In28  1  0.124100  0.456306  0.598429  1
  In  In29  1  0.375731  0.043922  0.098470  1
  In  In30  1  0.875707  0.956190  0.401517  1
  In  In31  1  0.624101  0.543711  0.901725  1
