# generated using pymatgen
data_Er16Tl5CdCoPt
_symmetry_space_group_name_H-M   'P 1'
_cell_length_a   10.33769134
_cell_length_b   10.33476880
_cell_length_c   7.06356470
_cell_angle_alpha   90.03631833
_cell_angle_beta   89.95465567
_cell_angle_gamma   120.10229787
_symmetry_Int_Tables_number   1
_chemical_formula_structural   Er16Tl5CdCoPt
_chemical_formula_sum   'Er16 Tl5 Cd1 Co1 Pt1'
_cell_volume   652.87513719
_cell_formula_units_Z   1
loop_
 _symmetry_equiv_pos_site_id
 _symmetry_equiv_pos_as_xyz
  1  'x, y, z'
loop_
 _atom_site_type_symbol
 _atom_site_label
 _atom_site_symmetry_multiplicity
 _atom_site_fract_x
 _atom_site_fract_y
 _atom_site_fract_z
 _atom_site_occupancy
  Er  Er0  1  0.532438  0.065069  0.794061  1
  Er  Er1  1  0.934954  0.467700  0.793983  1
  Er  Er2  1  0.532340  0.467658  0.793004  1
  Er  Er3  1  0.458963  0.921985  0.294327  1
  Er  Er4  1  0.078030  0.540990  0.294310  1
  Er  Er5  1  0.461947  0.537983  0.293504  1
  Er  Er6  1  0.829365  0.652150  0.497552  1
  Er  Er7  1  0.347746  0.170296  0.497733  1
  Er  Er8  1  0.825457  0.174674  0.494125  1
  Er  Er9  1  0.178409  0.357384  0.998755  1
  Er  Er10  1  0.642644  0.821635  0.998755  1
  Er  Er11  1  0.177849  0.822220  0.993180  1
  Er  Er12  1  0.666492  0.333546  0.171172  1
  Er  Er13  1  0.331592  0.668467  0.685380  1
  Er  Er14  1  0.999740  0.000225  0.776572  1
  Er  Er15  1  0.001395  0.998745  0.275137  1
  Tl  Tl16  1  0.836546  0.674070  0.040145  1
  Tl  Tl17  1  0.326019  0.163485  0.040236  1
  Tl  Tl18  1  0.836972  0.163075  0.040468  1
  Tl  Tl19  1  0.165187  0.328252  0.544141  1
  Tl  Tl20  1  0.671744  0.834978  0.544070  1
  Cd  Cd21  1  0.164160  0.835420  0.547284  1
  Co  Co22  1  0.333389  0.666684  0.064920  1
  Pt  Pt23  1  0.666618  0.333311  0.563089  1
