# generated using pymatgen
data_Tb4Y9Ho3(CdIr)4
_symmetry_space_group_name_H-M   'P 1'
_cell_length_a   9.65518560
_cell_length_b   9.66210552
_cell_length_c   9.67591714
_cell_angle_alpha   59.90537461
_cell_angle_beta   60.02677455
_cell_angle_gamma   60.11832858
_symmetry_Int_Tables_number   1
_chemical_formula_structural   Tb4Y9Ho3(CdIr)4
_chemical_formula_sum   'Tb4 Y9 Ho3 Cd4 Ir4'
_cell_volume   638.51654763
_cell_formula_units_Z   1
loop_
 _symmetry_equiv_pos_site_id
 _symmetry_equiv_pos_as_xyz
  1  'x, y, z'
loop_
 _atom_site_type_symbol
 _atom_site_label
 _atom_site_symmetry_multiplicity
 _atom_site_fract_x
 _atom_site_fract_y
 _atom_site_fract_z
 _atom_site_occupancy
  Tb  Tb0  1  0.349054  0.348479  0.348992  1
  Tb  Tb1  1  0.349392  0.348726  0.953162  1
  Tb  Tb2  1  0.348992  0.953476  0.349054  1
  Tb  Tb3  1  0.953162  0.348722  0.349392  1
  Y  Y4  1  0.810317  0.189683  0.810317  1
  Y  Y5  1  0.188579  0.190380  0.809928  1
  Y  Y6  1  0.809928  0.811113  0.188579  1
  Y  Y7  1  0.939076  0.562408  0.561208  1
  Y  Y8  1  0.561208  0.937308  0.939076  1
  Y  Y9  1  0.561582  0.938418  0.561582  1
  Y  Y10  1  0.938261  0.561739  0.938261  1
  Y  Y11  1  0.560813  0.562041  0.939460  1
  Y  Y12  1  0.939460  0.937686  0.560813  1
  Ho  Ho13  1  0.809943  0.190240  0.188709  1
  Ho  Ho14  1  0.188709  0.811108  0.809943  1
  Ho  Ho15  1  0.189253  0.810747  0.189253  1
  Cd  Cd16  1  0.580660  0.580553  0.580617  1
  Cd  Cd17  1  0.580737  0.580819  0.257655  1
  Cd  Cd18  1  0.580617  0.258172  0.580660  1
  Cd  Cd19  1  0.257655  0.580790  0.580737  1
  Ir  Ir20  1  0.140765  0.139661  0.143527  1
  Ir  Ir21  1  0.143225  0.139484  0.575087  1
  Ir  Ir22  1  0.143527  0.576046  0.140765  1
  Ir  Ir23  1  0.575087  0.142203  0.143225  1
