# generated using pymatgen
data_Yb4P7N12
_symmetry_space_group_name_H-M   'P 1'
_cell_length_a   7.55438887
_cell_length_b   7.55439051
_cell_length_c   7.55439000
_cell_angle_alpha   109.47121926
_cell_angle_beta   109.47122366
_cell_angle_gamma   109.47122080
_symmetry_Int_Tables_number   1
_chemical_formula_structural   Yb4P7N12
_chemical_formula_sum   'Yb4 P7 N12'
_cell_volume   331.87632280
_cell_formula_units_Z   1
loop_
 _symmetry_equiv_pos_site_id
 _symmetry_equiv_pos_as_xyz
  1  'x, y, z'
loop_
 _atom_site_type_symbol
 _atom_site_label
 _atom_site_symmetry_multiplicity
 _atom_site_fract_x
 _atom_site_fract_y
 _atom_site_fract_z
 _atom_site_occupancy
  Yb  Yb0  1  0.620940  0.000000  0.000000  1
  Yb  Yb1  1  0.000000  0.000000  0.620940  1
  Yb  Yb2  1  0.000000  0.620940  0.000000  1
  Yb  Yb3  1  0.379060  0.379060  0.379060  1
  P  P4  1  0.250000  0.750000  0.500000  1
  P  P5  1  0.750000  0.250000  0.500000  1
  P  P6  1  0.750000  0.500000  0.250000  1
  P  P7  1  0.250000  0.500000  0.750000  1
  P  P8  1  0.500000  0.750000  0.250000  1
  P  P9  1  0.500000  0.250000  0.750000  1
  P  P10  1  0.000000  0.000000  0.000000  1
  N  N11  1  0.696039  0.302718  0.302718  1
  N  N12  1  0.302718  0.696039  0.302718  1
  N  N13  1  0.303961  0.606679  0.606679  1
  N  N14  1  0.606679  0.606679  0.303961  1
  N  N15  1  0.393321  0.697282  0.000000  1
  N  N16  1  0.000000  0.697282  0.393321  1
  N  N17  1  0.606679  0.303961  0.606679  1
  N  N18  1  0.697282  0.000000  0.393321  1
  N  N19  1  0.393321  0.000000  0.697282  1
  N  N20  1  0.697282  0.393321  0.000000  1
  N  N21  1  0.302718  0.302718  0.696039  1
  N  N22  1  0.000000  0.393321  0.697282  1
