# generated using pymatgen
data_YTm3Cd2Si3Ge
_symmetry_space_group_name_H-M   'P 1'
_cell_length_a   7.14874372
_cell_length_b   7.14783004
_cell_length_c   4.15846100
_cell_angle_alpha   90.00000000
_cell_angle_beta   90.00000000
_cell_angle_gamma   89.84297298
_symmetry_Int_Tables_number   1
_chemical_formula_structural   YTm3Cd2Si3Ge
_chemical_formula_sum   'Y1 Tm3 Cd2 Si3 Ge1'
_cell_volume   212.48826362
_cell_formula_units_Z   1
loop_
 _symmetry_equiv_pos_site_id
 _symmetry_equiv_pos_as_xyz
  1  'x, y, z'
loop_
 _atom_site_type_symbol
 _atom_site_label
 _atom_site_symmetry_multiplicity
 _atom_site_fract_x
 _atom_site_fract_y
 _atom_site_fract_z
 _atom_site_occupancy
  Y  Y0  1  0.680106  0.177562  0.500000  1
  Tm  Tm1  1  0.322233  0.819596  0.500000  1
  Tm  Tm2  1  0.175483  0.324960  0.500000  1
  Tm  Tm3  1  0.823519  0.676844  0.500000  1
  Cd  Cd4  1  0.500965  0.503847  0.000000  1
  Cd  Cd5  1  0.997582  0.998141  0.000000  1
  Si  Si6  1  0.118036  0.618181  0.000000  1
  Si  Si7  1  0.883694  0.383843  0.000000  1
  Si  Si8  1  0.620029  0.877779  0.000000  1
  Ge  Ge9  1  0.378353  0.119247  0.000000  1
