# generated using pymatgen
data_Th3Ga3CoNi2
_symmetry_space_group_name_H-M   'P 1'
_cell_length_a   7.09497700
_cell_length_b   7.09497697
_cell_length_c   3.98512500
_cell_angle_alpha   90.00000000
_cell_angle_beta   90.00000000
_cell_angle_gamma   120.00000479
_symmetry_Int_Tables_number   1
_chemical_formula_structural   Th3Ga3CoNi2
_chemical_formula_sum   'Th3 Ga3 Co1 Ni2'
_cell_volume   173.72988859
_cell_formula_units_Z   1
loop_
 _symmetry_equiv_pos_site_id
 _symmetry_equiv_pos_as_xyz
  1  'x, y, z'
loop_
 _atom_site_type_symbol
 _atom_site_label
 _atom_site_symmetry_multiplicity
 _atom_site_fract_x
 _atom_site_fract_y
 _atom_site_fract_z
 _atom_site_occupancy
  Th  Th0  1  0.004855  0.422035  0.500000  1
  Th  Th1  1  0.577965  0.582820  0.500000  1
  Th  Th2  1  0.417180  0.995145  0.500000  1
  Ga  Ga3  1  0.001180  0.764965  0.000000  1
  Ga  Ga4  1  0.235035  0.236215  0.000000  1
  Ga  Ga5  1  0.763785  0.998820  0.000000  1
  Co  Co6  1  0.333333  0.666667  0.000000  1
  Ni  Ni7  1  0.666667  0.333333  0.000000  1
  Ni  Ni8  1  0.000000  0.000000  0.500000  1
