# generated using pymatgen
data_DyTh3(SiTc2)8
_symmetry_space_group_name_H-M   'P 1'
_cell_length_a   4.16854000
_cell_length_b   7.15165188
_cell_length_c   15.66876819
_cell_angle_alpha   90.20921872
_cell_angle_beta   90.00000000
_cell_angle_gamma   90.00000000
_symmetry_Int_Tables_number   1
_chemical_formula_structural   DyTh3(SiTc2)8
_chemical_formula_sum   'Dy1 Th3 Si8 Tc16'
_cell_volume   467.11337187
_cell_formula_units_Z   1
loop_
 _symmetry_equiv_pos_site_id
 _symmetry_equiv_pos_as_xyz
  1  'x, y, z'
loop_
 _atom_site_type_symbol
 _atom_site_label
 _atom_site_symmetry_multiplicity
 _atom_site_fract_x
 _atom_site_fract_y
 _atom_site_fract_z
 _atom_site_occupancy
  Dy  Dy0  1  0.000000  0.591602  0.117396  1
  Th  Th1  1  0.000000  0.409065  0.885333  1
  Th  Th2  1  0.500000  0.091190  0.381258  1
  Th  Th3  1  0.500000  0.907674  0.616876  1
  Si  Si4  1  0.000000  0.827079  0.472275  1
  Si  Si5  1  0.000000  0.172696  0.526243  1
  Si  Si6  1  0.500000  0.331963  0.028583  1
  Si  Si7  1  0.500000  0.672591  0.976089  1
  Si  Si8  1  0.000000  0.312798  0.270877  1
  Si  Si9  1  0.000000  0.687501  0.726985  1
  Si  Si10  1  0.500000  0.804199  0.222839  1
  Si  Si11  1  0.500000  0.188194  0.774218  1
  Tc  Tc12  1  0.000000  0.144787  0.052172  1
  Tc  Tc13  1  0.000000  0.860095  0.949799  1
  Tc  Tc14  1  0.500000  0.641331  0.448447  1
  Tc  Tc15  1  0.500000  0.358013  0.550746  1
  Tc  Tc16  1  0.000000  0.736936  0.318705  1
  Tc  Tc17  1  0.000000  0.263286  0.679992  1
  Tc  Tc18  1  0.500000  0.237588  0.179793  1
  Tc  Tc19  1  0.500000  0.762527  0.821458  1
  Tc  Tc20  1  0.000000  0.430869  0.420067  1
  Tc  Tc21  1  0.000000  0.569144  0.578851  1
  Tc  Tc22  1  0.500000  0.935699  0.079509  1
  Tc  Tc23  1  0.500000  0.069361  0.921891  1
  Tc  Tc24  1  0.000000  0.000323  0.205108  1
  Tc  Tc25  1  0.000000  0.995062  0.795187  1
  Tc  Tc26  1  0.500000  0.503517  0.293169  1
  Tc  Tc27  1  0.500000  0.494913  0.706134  1
