# generated using pymatgen
data_Tm2B4Mo2Ru3
_symmetry_space_group_name_H-M   'P 1'
_cell_length_a   3.10053600
_cell_length_b   8.86603303
_cell_length_c   10.15460100
_cell_angle_alpha   89.99600795
_cell_angle_beta   89.99997024
_cell_angle_gamma   89.99999354
_symmetry_Int_Tables_number   1
_chemical_formula_structural   Tm2B4Mo2Ru3
_chemical_formula_sum   'Tm4 B8 Mo4 Ru6'
_cell_volume   279.14444237
_cell_formula_units_Z   2
loop_
 _symmetry_equiv_pos_site_id
 _symmetry_equiv_pos_as_xyz
  1  'x, y, z'
loop_
 _atom_site_type_symbol
 _atom_site_label
 _atom_site_symmetry_multiplicity
 _atom_site_fract_x
 _atom_site_fract_y
 _atom_site_fract_z
 _atom_site_occupancy
  Tm  Tm0  1  0.500000  0.837965  0.181404  1
  Tm  Tm1  1  0.500000  0.162035  0.818596  1
  Tm  Tm2  1  0.500001  0.661950  0.681473  1
  Tm  Tm3  1  0.499999  0.338050  0.318527  1
  B  B4  1  0.500000  0.967457  0.585730  1
  B  B5  1  0.500000  0.032543  0.414270  1
  B  B6  1  0.500000  0.853457  0.899537  1
  B  B7  1  0.500000  0.146543  0.100463  1
  B  B8  1  0.500000  0.646499  0.399513  1
  B  B9  1  0.500000  0.353501  0.600487  1
  B  B10  1  0.500000  0.467481  0.914270  1
  B  B11  1  0.500000  0.532519  0.085730  1
  Mo  Mo12  1  0.000000  0.661191  0.953442  1
  Mo  Mo13  1  0.000000  0.338809  0.046558  1
  Mo  Mo14  1  0.000001  0.838746  0.453395  1
  Mo  Mo15  1  0.999999  0.161254  0.546605  1
  Ru  Ru16  1  0.000000  0.000000  0.000000  1
  Ru  Ru17  1  0.000001  0.409701  0.760577  1
  Ru  Ru18  1  0.999999  0.590299  0.239423  1
  Ru  Ru19  1  0.000000  0.500000  0.500000  1
  Ru  Ru20  1  0.000001  0.909713  0.739433  1
  Ru  Ru21  1  0.999999  0.090287  0.260567  1
