# generated using pymatgen
data_Ho3ErMn2(NiO6)2
_symmetry_space_group_name_H-M   'P 1'
_cell_length_a   5.58868102
_cell_length_b   5.24752131
_cell_length_c   9.16219942
_cell_angle_alpha   55.55009787
_cell_angle_beta   90.00740547
_cell_angle_gamma   89.99909168
_symmetry_Int_Tables_number   1
_chemical_formula_structural   Ho3ErMn2(NiO6)2
_chemical_formula_sum   'Ho3 Er1 Mn2 Ni2 O12'
_cell_volume   221.57345168
_cell_formula_units_Z   1
loop_
 _symmetry_equiv_pos_site_id
 _symmetry_equiv_pos_as_xyz
  1  'x, y, z'
loop_
 _atom_site_type_symbol
 _atom_site_label
 _atom_site_symmetry_multiplicity
 _atom_site_fract_x
 _atom_site_fract_y
 _atom_site_fract_z
 _atom_site_occupancy
  Ho  Ho0  1  0.572606  0.728092  0.751643  1
  Ho  Ho1  1  0.927764  0.728157  0.251337  1
  Ho  Ho2  1  0.427332  0.272000  0.248521  1
  Er  Er3  1  0.073132  0.272565  0.748237  1
  Mn  Mn4  1  0.500156  0.000081  0.999615  1
  Mn  Mn5  1  0.999969  0.000032  0.500275  1
  Ni  Ni6  1  0.500181  0.499972  0.500209  1
  Ni  Ni7  1  0.000155  0.500713  0.999207  1
  O  O8  1  0.960338  0.872832  0.742131  1
  O  O9  1  0.539796  0.870427  0.242062  1
  O  O10  1  0.039260  0.129573  0.258025  1
  O  O11  1  0.458976  0.129518  0.757867  1
  O  O12  1  0.814016  0.645307  0.555080  1
  O  O13  1  0.686398  0.646184  0.053663  1
  O  O14  1  0.186671  0.353583  0.446241  1
  O  O15  1  0.312927  0.353330  0.945578  1
  O  O16  1  0.706153  0.241261  0.440366  1
  O  O17  1  0.794544  0.241221  0.939450  1
  O  O18  1  0.293138  0.757214  0.560586  1
  O  O19  1  0.206488  0.757939  0.059905  1
