# generated using pymatgen
data_Y4Ho4Re(B8Ir)3
_symmetry_space_group_name_H-M   'P 1'
_cell_length_a   3.66110600
_cell_length_b   9.18388746
_cell_length_c   11.52390501
_cell_angle_alpha   90.12922826
_cell_angle_beta   90.00000000
_cell_angle_gamma   90.00000000
_symmetry_Int_Tables_number   1
_chemical_formula_structural   Y4Ho4Re(B8Ir)3
_chemical_formula_sum   'Y4 Ho4 Re1 B24 Ir3'
_cell_volume   387.46941031
_cell_formula_units_Z   1
loop_
 _symmetry_equiv_pos_site_id
 _symmetry_equiv_pos_as_xyz
  1  'x, y, z'
loop_
 _atom_site_type_symbol
 _atom_site_label
 _atom_site_symmetry_multiplicity
 _atom_site_fract_x
 _atom_site_fract_y
 _atom_site_fract_z
 _atom_site_occupancy
  Y  Y0  1  0.000000  0.320764  0.413534  1
  Y  Y1  1  0.000000  0.682748  0.590471  1
  Y  Y2  1  0.000000  0.820900  0.083030  1
  Y  Y3  1  0.000000  0.175855  0.912008  1
  Ho  Ho4  1  0.000000  0.943881  0.373073  1
  Ho  Ho5  1  0.000000  0.053867  0.626223  1
  Ho  Ho6  1  0.000000  0.443558  0.126190  1
  Ho  Ho7  1  0.000000  0.557202  0.874942  1
  Re  Re8  1  0.000000  0.862444  0.821285  1
  B  B9  1  0.500000  0.553515  0.433873  1
  B  B10  1  0.500000  0.447536  0.566945  1
  B  B11  1  0.500000  0.053481  0.066628  1
  B  B12  1  0.500000  0.946667  0.933005  1
  B  B13  1  0.500000  0.750325  0.420197  1
  B  B14  1  0.500000  0.250593  0.579386  1
  B  B15  1  0.500000  0.248954  0.079359  1
  B  B16  1  0.500000  0.752119  0.919712  1
  B  B17  1  0.500000  0.791923  0.265629  1
  B  B18  1  0.500000  0.207987  0.732894  1
  B  B19  1  0.500000  0.292659  0.234529  1
  B  B20  1  0.500000  0.708268  0.766541  1
  B  B21  1  0.500000  0.631101  0.184862  1
  B  B22  1  0.500000  0.368251  0.815389  1
  B  B23  1  0.500000  0.132162  0.315232  1
  B  B24  1  0.500000  0.868797  0.685735  1
  B  B25  1  0.500000  0.982235  0.212960  1
  B  B26  1  0.500000  0.016837  0.786396  1
  B  B27  1  0.500000  0.481650  0.287299  1
  B  B28  1  0.500000  0.517696  0.714398  1
  B  B29  1  0.500000  0.608942  0.031435  1
  B  B30  1  0.500000  0.388554  0.970019  1
  B  B31  1  0.500000  0.109941  0.469058  1
  B  B32  1  0.500000  0.890988  0.528831  1
  Ir  Ir33  1  0.000000  0.637404  0.322536  1
  Ir  Ir34  1  0.000000  0.362603  0.678014  1
  Ir  Ir35  1  0.000000  0.137595  0.178386  1
