# generated using pymatgen
data_Y2Si7Pd12
_symmetry_space_group_name_H-M   'P 1'
_cell_length_a   9.98094600
_cell_length_b   9.98094668
_cell_length_c   3.85715600
_cell_angle_alpha   90.00000000
_cell_angle_beta   90.00000000
_cell_angle_gamma   120.00000437
_symmetry_Int_Tables_number   1
_chemical_formula_structural   Y2Si7Pd12
_chemical_formula_sum   'Y2 Si7 Pd12'
_cell_volume   332.76777132
_cell_formula_units_Z   1
loop_
 _symmetry_equiv_pos_site_id
 _symmetry_equiv_pos_as_xyz
  1  'x, y, z'
loop_
 _atom_site_type_symbol
 _atom_site_label
 _atom_site_symmetry_multiplicity
 _atom_site_fract_x
 _atom_site_fract_y
 _atom_site_fract_z
 _atom_site_occupancy
  Y  Y0  1  0.666667  0.333333  0.247272  1
  Y  Y1  1  0.000000  0.000000  0.750780  1
  Si  Si2  1  0.333333  0.666667  0.467015  1
  Si  Si3  1  0.741176  0.785080  0.250107  1
  Si  Si4  1  0.043905  0.258824  0.250107  1
  Si  Si5  1  0.214920  0.956095  0.250107  1
  Si  Si6  1  0.925320  0.548718  0.748477  1
  Si  Si7  1  0.623397  0.074680  0.748477  1
  Si  Si8  1  0.451282  0.376603  0.748477  1
  Pd  Pd9  1  0.776421  0.046223  0.248532  1
  Pd  Pd10  1  0.269801  0.223579  0.248532  1
  Pd  Pd11  1  0.953777  0.730199  0.248532  1
  Pd  Pd12  1  0.890582  0.286004  0.749940  1
  Pd  Pd13  1  0.395421  0.109418  0.749940  1
  Pd  Pd14  1  0.713996  0.604579  0.749940  1
  Pd  Pd15  1  0.481998  0.554388  0.248554  1
  Pd  Pd16  1  0.072390  0.518002  0.248554  1
  Pd  Pd17  1  0.445612  0.927610  0.248554  1
  Pd  Pd18  1  0.187970  0.775567  0.749872  1
  Pd  Pd19  1  0.587598  0.812030  0.749872  1
  Pd  Pd20  1  0.224433  0.412402  0.749872  1
