# generated using pymatgen
data_Tb3ThAl12(GaIr)6
_symmetry_space_group_name_H-M   'P 1'
_cell_length_a   7.57008504
_cell_length_b   7.58065268
_cell_length_c   9.59913500
_cell_angle_alpha   90.00000000
_cell_angle_beta   90.00000000
_cell_angle_gamma   119.66975796
_symmetry_Int_Tables_number   1
_chemical_formula_structural   Tb3ThAl12(GaIr)6
_chemical_formula_sum   'Tb3 Th1 Al12 Ga6 Ir6'
_cell_volume   478.63638432
_cell_formula_units_Z   1
loop_
 _symmetry_equiv_pos_site_id
 _symmetry_equiv_pos_as_xyz
  1  'x, y, z'
loop_
 _atom_site_type_symbol
 _atom_site_label
 _atom_site_symmetry_multiplicity
 _atom_site_fract_x
 _atom_site_fract_y
 _atom_site_fract_z
 _atom_site_occupancy
  Tb  Tb0  1  0.002685  0.329908  0.750000  1
  Tb  Tb1  1  0.671545  0.996305  0.250000  1
  Tb  Tb2  1  0.329333  0.003093  0.750000  1
  Th  Th3  1  0.996620  0.670035  0.250000  1
  Al  Al4  1  0.001858  0.330648  0.070599  1
  Al  Al5  1  0.998249  0.664977  0.921221  1
  Al  Al6  1  0.998249  0.664977  0.578779  1
  Al  Al7  1  0.339141  0.005335  0.429495  1
  Al  Al8  1  0.001858  0.330648  0.429401  1
  Al  Al9  1  0.665178  0.999478  0.573822  1
  Al  Al10  1  0.665178  0.999478  0.926178  1
  Al  Al11  1  0.339141  0.005335  0.070505  1
  Al  Al12  1  0.332899  0.332859  0.557869  1
  Al  Al13  1  0.662640  0.665830  0.450822  1
  Al  Al14  1  0.662640  0.665830  0.049178  1
  Al  Al15  1  0.332899  0.332859  0.942131  1
  Ga  Ga16  1  0.131169  0.134036  0.250000  1
  Ga  Ga17  1  0.872321  0.874874  0.750000  1
  Ga  Ga18  1  0.346267  0.548873  0.250000  1
  Ga  Ga19  1  0.657258  0.449270  0.750000  1
  Ga  Ga20  1  0.542797  0.336462  0.250000  1
  Ga  Ga21  1  0.450540  0.660607  0.750000  1
  Ir  Ir22  1  0.672884  0.330073  0.000773  1
  Ir  Ir23  1  0.326706  0.670885  0.000735  1
  Ir  Ir24  1  0.326706  0.670885  0.499265  1
  Ir  Ir25  1  0.672884  0.330073  0.499227  1
  Ir  Ir26  1  0.000178  0.998184  0.001189  1
  Ir  Ir27  1  0.000178  0.998184  0.498811  1
