# generated using pymatgen
data_Ho17Th3Sn16
_symmetry_space_group_name_H-M   'P 1'
_cell_length_a   8.06908151
_cell_length_b   8.17562059
_cell_length_c   15.44104694
_cell_angle_alpha   90.08767105
_cell_angle_beta   90.19163886
_cell_angle_gamma   89.89857108
_symmetry_Int_Tables_number   1
_chemical_formula_structural   Ho17Th3Sn16
_chemical_formula_sum   'Ho17 Th3 Sn16'
_cell_volume   1018.63351300
_cell_formula_units_Z   1
loop_
 _symmetry_equiv_pos_site_id
 _symmetry_equiv_pos_as_xyz
  1  'x, y, z'
loop_
 _atom_site_type_symbol
 _atom_site_label
 _atom_site_symmetry_multiplicity
 _atom_site_fract_x
 _atom_site_fract_y
 _atom_site_fract_z
 _atom_site_occupancy
  Ho  Ho0  1  0.366817  0.834970  0.878190  1
  Ho  Ho1  1  0.866058  0.664930  0.622900  1
  Ho  Ho2  1  0.633899  0.163619  0.376491  1
  Ho  Ho3  1  0.132899  0.336550  0.122670  1
  Ho  Ho4  1  0.632911  0.162320  0.122855  1
  Ho  Ho5  1  0.134253  0.337831  0.376969  1
  Ho  Ho6  1  0.366313  0.837686  0.623063  1
  Ho  Ho7  1  0.867961  0.662269  0.877552  1
  Ho  Ho8  1  0.527318  0.322842  0.900381  1
  Ho  Ho9  1  0.026255  0.177023  0.599923  1
  Ho  Ho10  1  0.475563  0.677528  0.400925  1
  Ho  Ho11  1  0.974967  0.821647  0.100307  1
  Ho  Ho12  1  0.477949  0.677375  0.097331  1
  Ho  Ho13  1  0.196526  0.501094  0.750470  1
  Ho  Ho14  1  0.695929  0.998705  0.749978  1
  Ho  Ho15  1  0.802882  0.499801  0.249289  1
  Ho  Ho16  1  0.303247  0.002289  0.248761  1
  Th  Th17  1  0.981424  0.819252  0.402490  1
  Th  Th18  1  0.518188  0.320704  0.596057  1
  Th  Th19  1  0.018853  0.179408  0.904732  1
  Sn  Sn20  1  0.291861  0.032296  0.043068  1
  Sn  Sn21  1  0.792233  0.466072  0.457105  1
  Sn  Sn22  1  0.709340  0.967252  0.542488  1
  Sn  Sn23  1  0.212017  0.533362  0.957660  1
  Sn  Sn24  1  0.704707  0.960099  0.958988  1
  Sn  Sn25  1  0.203331  0.541155  0.540532  1
  Sn  Sn26  1  0.296036  0.039936  0.459250  1
  Sn  Sn27  1  0.791920  0.463063  0.041295  1
  Sn  Sn28  1  0.562692  0.622228  0.749244  1
  Sn  Sn29  1  0.063451  0.878739  0.751266  1
  Sn  Sn30  1  0.436772  0.379467  0.249760  1
  Sn  Sn31  1  0.936227  0.121747  0.250959  1
  Sn  Sn32  1  0.328865  0.145603  0.752245  1
  Sn  Sn33  1  0.829692  0.354556  0.747756  1
  Sn  Sn34  1  0.667143  0.851522  0.249495  1
  Sn  Sn35  1  0.173497  0.645058  0.247555  1
