# generated using pymatgen
data_Ca12Cu12Si11Hg
_symmetry_space_group_name_H-M   'P 1'
_cell_length_a   4.30862200
_cell_length_b   7.41374027
_cell_length_c   21.22995679
_cell_angle_alpha   89.74659596
_cell_angle_beta   90.00000000
_cell_angle_gamma   90.00000000
_symmetry_Int_Tables_number   1
_chemical_formula_structural   Ca12Cu12Si11Hg
_chemical_formula_sum   'Ca12 Cu12 Si11 Hg1'
_cell_volume   678.14197133
_cell_formula_units_Z   1
loop_
 _symmetry_equiv_pos_site_id
 _symmetry_equiv_pos_as_xyz
  1  'x, y, z'
loop_
 _atom_site_type_symbol
 _atom_site_label
 _atom_site_symmetry_multiplicity
 _atom_site_fract_x
 _atom_site_fract_y
 _atom_site_fract_z
 _atom_site_occupancy
  Ca  Ca0  1  0.250000  0.704321  0.006893  1
  Ca  Ca1  1  0.750000  0.292397  0.001796  1
  Ca  Ca2  1  0.750000  0.207832  0.496752  1
  Ca  Ca3  1  0.250000  0.791394  0.500779  1
  Ca  Ca4  1  0.250000  0.796872  0.168322  1
  Ca  Ca5  1  0.750000  0.199449  0.829414  1
  Ca  Ca6  1  0.750000  0.298305  0.333838  1
  Ca  Ca7  1  0.250000  0.699767  0.663490  1
  Ca  Ca8  1  0.250000  0.701144  0.333349  1
  Ca  Ca9  1  0.750000  0.301883  0.663573  1
  Ca  Ca10  1  0.750000  0.200292  0.168661  1
  Ca  Ca11  1  0.250000  0.800392  0.829563  1
  Cu  Cu12  1  0.250000  0.412512  0.100471  1
  Cu  Cu13  1  0.750000  0.621181  0.902335  1
  Cu  Cu14  1  0.750000  0.913701  0.401758  1
  Cu  Cu15  1  0.250000  0.085439  0.596698  1
  Cu  Cu16  1  0.250000  0.413426  0.235326  1
  Cu  Cu17  1  0.750000  0.582427  0.764694  1
  Cu  Cu18  1  0.750000  0.913389  0.266425  1
  Cu  Cu19  1  0.250000  0.087226  0.731746  1
  Cu  Cu20  1  0.250000  0.420743  0.437721  1
  Cu  Cu21  1  0.750000  0.578701  0.559408  1
  Cu  Cu22  1  0.750000  0.920346  0.063998  1
  Cu  Cu23  1  0.250000  0.059968  0.947554  1
  Si  Si24  1  0.250000  0.090604  0.069826  1
  Si  Si25  1  0.750000  0.919423  0.936031  1
  Si  Si26  1  0.750000  0.590960  0.432109  1
  Si  Si27  1  0.250000  0.410470  0.562816  1
  Si  Si28  1  0.250000  0.079160  0.273987  1
  Si  Si29  1  0.750000  0.917392  0.724104  1
  Si  Si30  1  0.750000  0.578963  0.227434  1
  Si  Si31  1  0.250000  0.414654  0.764076  1
  Si  Si32  1  0.250000  0.083491  0.394454  1
  Si  Si33  1  0.750000  0.918356  0.604679  1
  Si  Si34  1  0.750000  0.581853  0.107511  1
  Hg  Hg35  1  0.250000  0.411567  0.898408  1
