# generated using pymatgen
data_Ho6Al21Si3Ru8
_symmetry_space_group_name_H-M   'P 1'
_cell_length_a   8.70059400
_cell_length_b   8.70059586
_cell_length_c   9.62515900
_cell_angle_alpha   90.00000000
_cell_angle_beta   90.00000000
_cell_angle_gamma   120.00000054
_symmetry_Int_Tables_number   1
_chemical_formula_structural   Ho6Al21Si3Ru8
_chemical_formula_sum   'Ho6 Al21 Si3 Ru8'
_cell_volume   631.01028995
_cell_formula_units_Z   1
loop_
 _symmetry_equiv_pos_site_id
 _symmetry_equiv_pos_as_xyz
  1  'x, y, z'
loop_
 _atom_site_type_symbol
 _atom_site_label
 _atom_site_symmetry_multiplicity
 _atom_site_fract_x
 _atom_site_fract_y
 _atom_site_fract_z
 _atom_site_occupancy
  Ho  Ho0  1  0.195087  0.390172  0.247690  1
  Ho  Ho1  1  0.804174  0.608346  0.752485  1
  Ho  Ho2  1  0.609828  0.804913  0.247690  1
  Ho  Ho3  1  0.391654  0.195826  0.752485  1
  Ho  Ho4  1  0.195087  0.804913  0.247690  1
  Ho  Ho5  1  0.804174  0.195826  0.752485  1
  Al  Al6  1  0.333333  0.666667  0.478917  1
  Al  Al7  1  0.163366  0.326734  0.575565  1
  Al  Al8  1  0.835414  0.670828  0.422061  1
  Al  Al9  1  0.673266  0.836634  0.575565  1
  Al  Al10  1  0.835123  0.670247  0.077428  1
  Al  Al11  1  0.329172  0.164586  0.422061  1
  Al  Al12  1  0.165273  0.330545  0.922126  1
  Al  Al13  1  0.163366  0.836634  0.575565  1
  Al  Al14  1  0.329753  0.164877  0.077428  1
  Al  Al15  1  0.835414  0.164586  0.422061  1
  Al  Al16  1  0.669455  0.834727  0.922126  1
  Al  Al17  1  0.835123  0.164877  0.077428  1
  Al  Al18  1  0.165273  0.834727  0.922126  1
  Al  Al19  1  0.563109  0.126218  0.248542  1
  Al  Al20  1  0.437250  0.874500  0.748465  1
  Al  Al21  1  0.873782  0.436891  0.248542  1
  Al  Al22  1  0.125500  0.562750  0.748465  1
  Al  Al23  1  0.563109  0.436891  0.248542  1
  Al  Al24  1  0.437250  0.562750  0.748465  1
  Al  Al25  1  0.000000  0.000000  0.249270  1
  Al  Al26  1  0.000000  0.000000  0.749633  1
  Si  Si27  1  0.333333  0.666667  0.039648  1
  Si  Si28  1  0.666667  0.333333  0.962025  1
  Si  Si29  1  0.666667  0.333333  0.539457  1
  Ru  Ru30  1  0.499991  0.999982  0.998412  1
  Ru  Ru31  1  0.000018  0.500009  0.998412  1
  Ru  Ru32  1  0.504373  0.008747  0.501393  1
  Ru  Ru33  1  0.499991  0.500009  0.998412  1
  Ru  Ru34  1  0.991253  0.495627  0.501393  1
  Ru  Ru35  1  0.504373  0.495627  0.501393  1
  Ru  Ru36  1  0.000000  0.000000  0.999096  1
  Ru  Ru37  1  0.000000  0.000000  0.499456  1
