# generated using pymatgen
data_Sc8Zn5In4Au3
_symmetry_space_group_name_H-M   'P 1'
_cell_length_a   7.51285376
_cell_length_b   7.50321355
_cell_length_c   7.10664002
_cell_angle_alpha   89.91706459
_cell_angle_beta   90.02692468
_cell_angle_gamma   89.95604624
_symmetry_Int_Tables_number   1
_chemical_formula_structural   Sc8Zn5In4Au3
_chemical_formula_sum   'Sc8 Zn5 In4 Au3'
_cell_volume   400.60459753
_cell_formula_units_Z   1
loop_
 _symmetry_equiv_pos_site_id
 _symmetry_equiv_pos_as_xyz
  1  'x, y, z'
loop_
 _atom_site_type_symbol
 _atom_site_label
 _atom_site_symmetry_multiplicity
 _atom_site_fract_x
 _atom_site_fract_y
 _atom_site_fract_z
 _atom_site_occupancy
  Sc  Sc0  1  0.156671  0.149668  0.998963  1
  Sc  Sc1  1  0.850466  0.843609  0.002268  1
  Sc  Sc2  1  0.650308  0.345261  0.501476  1
  Sc  Sc3  1  0.343129  0.651150  0.501769  1
  Sc  Sc4  1  0.687037  0.314080  0.996079  1
  Sc  Sc5  1  0.308496  0.689442  0.998055  1
  Sc  Sc6  1  0.815251  0.813312  0.498849  1
  Sc  Sc7  1  0.189897  0.186977  0.502238  1
  Zn  Zn8  1  0.377585  0.375498  0.212195  1
  Zn  Zn9  1  0.628295  0.629832  0.784786  1
  Zn  Zn10  1  0.622899  0.622371  0.218105  1
  Zn  Zn11  1  0.871589  0.127830  0.716533  1
  Zn  Zn12  1  0.872654  0.129404  0.282226  1
  In  In13  1  0.505126  0.000502  0.248969  1
  In  In14  1  0.506559  0.997462  0.751024  1
  In  In15  1  0.997017  0.494934  0.250260  1
  In  In16  1  0.993820  0.497211  0.749643  1
  Au  Au17  1  0.375982  0.377540  0.787130  1
  Au  Au18  1  0.124312  0.877005  0.284005  1
  Au  Au19  1  0.122909  0.876912  0.715427  1
