# generated using pymatgen
data_TbDy3Ru4F28
_symmetry_space_group_name_H-M   'P 1'
_cell_length_a   5.58368101
_cell_length_b   8.87114104
_cell_length_c   11.97817821
_cell_angle_alpha   63.77927112
_cell_angle_beta   89.96506087
_cell_angle_gamma   90.10377173
_symmetry_Int_Tables_number   1
_chemical_formula_structural   TbDy3Ru4F28
_chemical_formula_sum   'Tb1 Dy3 Ru4 F28'
_cell_volume   532.26728502
_cell_formula_units_Z   1
loop_
 _symmetry_equiv_pos_site_id
 _symmetry_equiv_pos_as_xyz
  1  'x, y, z'
loop_
 _atom_site_type_symbol
 _atom_site_label
 _atom_site_symmetry_multiplicity
 _atom_site_fract_x
 _atom_site_fract_y
 _atom_site_fract_z
 _atom_site_occupancy
  Tb  Tb0  1  0.241212  0.810145  0.769074  1
  Dy  Dy1  1  0.258451  0.810154  0.269192  1
  Dy  Dy2  1  0.741556  0.190696  0.730661  1
  Dy  Dy3  1  0.758739  0.190029  0.230830  1
  Ru  Ru4  1  0.754579  0.727383  0.044749  1
  Ru  Ru5  1  0.245401  0.272102  0.955864  1
  Ru  Ru6  1  0.254791  0.272722  0.455487  1
  Ru  Ru7  1  0.745358  0.727459  0.543888  1
  F  F8  1  0.949697  0.704721  0.418701  1
  F  F9  1  0.050582  0.295214  0.580882  1
  F  F10  1  0.449746  0.294979  0.081134  1
  F  F11  1  0.551105  0.704673  0.919315  1
  F  F12  1  0.469206  0.730738  0.140341  1
  F  F13  1  0.530570  0.269186  0.859966  1
  F  F14  1  0.969622  0.269143  0.359787  1
  F  F15  1  0.030390  0.730578  0.639558  1
  F  F16  1  0.956107  0.749963  0.172292  1
  F  F17  1  0.043937  0.249860  0.828029  1
  F  F18  1  0.456239  0.250049  0.327917  1
  F  F19  1  0.545014  0.749725  0.671746  1
  F  F20  1  0.766471  0.487783  0.140737  1
  F  F21  1  0.233400  0.511483  0.859744  1
  F  F22  1  0.266581  0.512215  0.359480  1
  F  F23  1  0.733465  0.487878  0.640172  1
  F  F24  1  0.953910  0.282017  0.046601  1
  F  F25  1  0.045692  0.717446  0.954243  1
  F  F26  1  0.453487  0.717776  0.453333  1
  F  F27  1  0.546047  0.282314  0.546372  1
  F  F28  1  0.745250  0.965454  0.451573  1
  F  F29  1  0.254799  0.034736  0.548173  1
  F  F30  1  0.245262  0.034210  0.048518  1
  F  F31  1  0.754761  0.965311  0.951751  1
  F  F32  1  0.576252  0.972573  0.233115  1
  F  F33  1  0.424140  0.028701  0.766988  1
  F  F34  1  0.076083  0.027422  0.266858  1
  F  F35  1  0.922098  0.973161  0.732933  1
