# generated using pymatgen
data_Tb19DyIr5Rh7
_symmetry_space_group_name_H-M   'P 1'
_cell_length_a   10.93393715
_cell_length_b   10.93388141
_cell_length_c   6.39990500
_cell_angle_alpha   89.99246897
_cell_angle_beta   89.99234848
_cell_angle_gamma   90.04366045
_symmetry_Int_Tables_number   1
_chemical_formula_structural   Tb19DyIr5Rh7
_chemical_formula_sum   'Tb19 Dy1 Ir5 Rh7'
_cell_volume   765.11078933
_cell_formula_units_Z   1
loop_
 _symmetry_equiv_pos_site_id
 _symmetry_equiv_pos_as_xyz
  1  'x, y, z'
loop_
 _atom_site_type_symbol
 _atom_site_label
 _atom_site_symmetry_multiplicity
 _atom_site_fract_x
 _atom_site_fract_y
 _atom_site_fract_z
 _atom_site_occupancy
  Tb  Tb0  1  0.290877  0.088697  0.378470  1
  Tb  Tb1  1  0.290813  0.909575  0.879770  1
  Tb  Tb2  1  0.708568  0.090035  0.879162  1
  Tb  Tb3  1  0.708427  0.909891  0.378613  1
  Tb  Tb4  1  0.588015  0.790066  0.879734  1
  Tb  Tb5  1  0.587804  0.209907  0.379660  1
  Tb  Tb6  1  0.410649  0.790359  0.379674  1
  Tb  Tb7  1  0.411945  0.209786  0.879493  1
  Tb  Tb8  1  0.210000  0.411986  0.620212  1
  Tb  Tb9  1  0.209574  0.589354  0.120384  1
  Tb  Tb10  1  0.790158  0.412195  0.120395  1
  Tb  Tb11  1  0.790141  0.588057  0.620453  1
  Tb  Tb12  1  0.911329  0.709125  0.121512  1
  Tb  Tb13  1  0.909936  0.291430  0.620858  1
  Tb  Tb14  1  0.090454  0.709193  0.620247  1
  Tb  Tb15  1  0.090079  0.291577  0.121366  1
  Tb  Tb16  1  0.000041  0.999802  0.500127  1
  Tb  Tb17  1  0.000199  0.999960  0.999871  1
  Tb  Tb18  1  0.499936  0.499810  0.000103  1
  Dy  Dy19  1  0.500182  0.500070  0.499901  1
  Ir  Ir20  1  0.153336  0.846654  0.249987  1
  Ir  Ir21  1  0.654527  0.345473  0.749771  1
  Ir  Ir22  1  0.654671  0.654369  0.250048  1
  Ir  Ir23  1  0.345633  0.345327  0.250404  1
  Ir  Ir24  1  0.346098  0.653906  0.749772  1
  Rh  Rh25  1  0.846687  0.153320  0.249992  1
  Rh  Rh26  1  0.846031  0.846650  0.749887  1
  Rh  Rh27  1  0.153358  0.153959  0.750138  1
  Rh  Rh28  1  0.500607  0.000262  0.124016  1
  Rh  Rh29  1  0.500431  0.000245  0.624574  1
  Rh  Rh30  1  0.999755  0.499569  0.875430  1
  Rh  Rh31  1  0.999738  0.499392  0.375976  1
