# generated using pymatgen
data_Sr4Zn3Ir
_symmetry_space_group_name_H-M   'P 1'
_cell_length_a   4.44897900
_cell_length_b   6.34071203
_cell_length_c   8.59738270
_cell_angle_alpha   91.09916727
_cell_angle_beta   90.00000000
_cell_angle_gamma   90.00000000
_symmetry_Int_Tables_number   1
_chemical_formula_structural   Sr4Zn3Ir
_chemical_formula_sum   'Sr4 Zn3 Ir1'
_cell_volume   242.48491329
_cell_formula_units_Z   1
loop_
 _symmetry_equiv_pos_site_id
 _symmetry_equiv_pos_as_xyz
  1  'x, y, z'
loop_
 _atom_site_type_symbol
 _atom_site_label
 _atom_site_symmetry_multiplicity
 _atom_site_fract_x
 _atom_site_fract_y
 _atom_site_fract_z
 _atom_site_occupancy
  Sr  Sr0  1  0.750000  0.893325  0.810094  1
  Sr  Sr1  1  0.250000  0.121207  0.198143  1
  Sr  Sr2  1  0.250000  0.367834  0.662530  1
  Sr  Sr3  1  0.750000  0.618998  0.331539  1
  Zn  Zn4  1  0.250000  0.904022  0.527223  1
  Zn  Zn5  1  0.250000  0.596628  0.023786  1
  Zn  Zn6  1  0.750000  0.404718  0.971610  1
  Ir  Ir7  1  0.750000  0.093267  0.475075  1
