# generated using pymatgen
data_Nd5Te2Br2ClO10
_symmetry_space_group_name_H-M   'P 1'
_cell_length_a   5.73107700
_cell_length_b   6.99804006
_cell_length_c   10.54916651
_cell_angle_alpha   90.77672924
_cell_angle_beta   90.00000000
_cell_angle_gamma   114.17199891
_symmetry_Int_Tables_number   1
_chemical_formula_structural   Nd5Te2Br2ClO10
_chemical_formula_sum   'Nd5 Te2 Br2 Cl1 O10'
_cell_volume   385.94927050
_cell_formula_units_Z   1
loop_
 _symmetry_equiv_pos_site_id
 _symmetry_equiv_pos_as_xyz
  1  'x, y, z'
loop_
 _atom_site_type_symbol
 _atom_site_label
 _atom_site_symmetry_multiplicity
 _atom_site_fract_x
 _atom_site_fract_y
 _atom_site_fract_z
 _atom_site_occupancy
  Nd  Nd0  1  0.999859  0.999719  0.998658  1
  Nd  Nd1  1  0.291633  0.583265  0.099805  1
  Nd  Nd2  1  0.602158  0.204318  0.222888  1
  Nd  Nd3  1  0.396736  0.793472  0.774378  1
  Nd  Nd4  1  0.708709  0.417418  0.897298  1
  Te  Te5  1  0.916477  0.832956  0.319464  1
  Te  Te6  1  0.081762  0.163524  0.679264  1
  Br  Br7  1  0.167860  0.335720  0.356472  1
  Br  Br8  1  0.497578  0.995157  0.499703  1
  Cl  Cl9  1  0.839026  0.678051  0.660963  1
  O  O10  1  0.399594  0.292363  0.056114  1
  O  O11  1  0.892769  0.292363  0.056114  1
  O  O12  1  0.188911  0.896214  0.197506  1
  O  O13  1  0.707303  0.896214  0.197506  1
  O  O14  1  0.774513  0.549026  0.278475  1
  O  O15  1  0.224341  0.448683  0.718044  1
  O  O16  1  0.293661  0.103595  0.801337  1
  O  O17  1  0.809934  0.103595  0.801337  1
  O  O18  1  0.107624  0.707176  0.942336  1
  O  O19  1  0.599552  0.707176  0.942336  1
