# generated using pymatgen
data_Tb4Y11Tm(CdPt)4
_symmetry_space_group_name_H-M   'P 1'
_cell_length_a   9.71038467
_cell_length_b   9.72546723
_cell_length_c   9.72546732
_cell_angle_alpha   60.00216139
_cell_angle_beta   60.05128763
_cell_angle_gamma   60.05128924
_symmetry_Int_Tables_number   1
_chemical_formula_structural   Tb4Y11Tm(CdPt)4
_chemical_formula_sum   'Tb4 Y11 Tm1 Cd4 Pt4'
_cell_volume   649.95866260
_cell_formula_units_Z   1
loop_
 _symmetry_equiv_pos_site_id
 _symmetry_equiv_pos_as_xyz
  1  'x, y, z'
loop_
 _atom_site_type_symbol
 _atom_site_label
 _atom_site_symmetry_multiplicity
 _atom_site_fract_x
 _atom_site_fract_y
 _atom_site_fract_z
 _atom_site_occupancy
  Tb  Tb0  1  0.352145  0.352356  0.352356  1
  Tb  Tb1  1  0.352509  0.353515  0.941466  1
  Tb  Tb2  1  0.352509  0.941466  0.353515  1
  Tb  Tb3  1  0.943141  0.352356  0.352356  1
  Y  Y4  1  0.189264  0.810736  0.810736  1
  Y  Y5  1  0.189093  0.811117  0.189543  1
  Y  Y6  1  0.810247  0.189543  0.811117  1
  Y  Y7  1  0.189093  0.189543  0.811117  1
  Y  Y8  1  0.810247  0.811117  0.189543  1
  Y  Y9  1  0.935411  0.564589  0.564589  1
  Y  Y10  1  0.564018  0.935982  0.935982  1
  Y  Y11  1  0.565013  0.936351  0.563327  1
  Y  Y12  1  0.935308  0.563327  0.936351  1
  Y  Y13  1  0.565013  0.563327  0.936351  1
  Y  Y14  1  0.935308  0.936351  0.563327  1
  Tm  Tm15  1  0.810071  0.189929  0.189929  1
  Cd  Cd16  1  0.582169  0.581757  0.581757  1
  Cd  Cd17  1  0.582343  0.581587  0.253728  1
  Cd  Cd18  1  0.582343  0.253728  0.581587  1
  Cd  Cd19  1  0.254316  0.581757  0.581757  1
  Pt  Pt20  1  0.141789  0.144208  0.144208  1
  Pt  Pt21  1  0.144427  0.142375  0.568771  1
  Pt  Pt22  1  0.144427  0.568771  0.142375  1
  Pt  Pt23  1  0.569795  0.144208  0.144208  1
