# generated using pymatgen
data_TbDyNp3O10
_symmetry_space_group_name_H-M   'P 1'
_cell_length_a   6.54827532
_cell_length_b   6.54827587
_cell_length_c   6.58323768
_cell_angle_alpha   99.95253090
_cell_angle_beta   99.25009116
_cell_angle_gamma   131.65489695
_symmetry_Int_Tables_number   1
_chemical_formula_structural   TbDyNp3O10
_chemical_formula_sum   'Tb1 Dy1 Np3 O10'
_cell_volume   192.62161867
_cell_formula_units_Z   1
loop_
 _symmetry_equiv_pos_site_id
 _symmetry_equiv_pos_as_xyz
  1  'x, y, z'
loop_
 _atom_site_type_symbol
 _atom_site_label
 _atom_site_symmetry_multiplicity
 _atom_site_fract_x
 _atom_site_fract_y
 _atom_site_fract_z
 _atom_site_occupancy
  Tb  Tb0  1  0.501621  0.499115  0.000737  1
  Dy  Dy1  1  0.898514  0.700664  0.599177  1
  Np  Np2  1  0.101761  0.299704  0.401466  1
  Np  Np3  1  0.699809  0.099979  0.799788  1
  Np  Np4  1  0.298499  0.900363  0.198862  1
  O  O5  1  0.041773  0.154861  0.697012  1
  O  O6  1  0.542150  0.655237  0.697012  1
  O  O7  1  0.254167  0.750545  0.493760  1
  O  O8  1  0.438614  0.338363  0.300561  1
  O  O9  1  0.743215  0.239593  0.493760  1
  O  O10  1  0.356857  0.043290  0.902109  1
  O  O11  1  0.858819  0.545253  0.902109  1
  O  O12  1  0.962200  0.861947  0.300561  1
  O  O13  1  0.145244  0.449785  0.106544  1
  O  O14  1  0.656757  0.961300  0.106544  1
