# generated using pymatgen
data_Y4TaPd14Pt
_symmetry_space_group_name_H-M   'P 1'
_cell_length_a   4.09494000
_cell_length_b   4.11047000
_cell_length_c   20.50842800
_cell_angle_alpha   90.00000000
_cell_angle_beta   90.00000000
_cell_angle_gamma   90.00000000
_symmetry_Int_Tables_number   1
_chemical_formula_structural   Y4TaPd14Pt
_chemical_formula_sum   'Y4 Ta1 Pd14 Pt1'
_cell_volume   345.20048562
_cell_formula_units_Z   1
loop_
 _symmetry_equiv_pos_site_id
 _symmetry_equiv_pos_as_xyz
  1  'x, y, z'
loop_
 _atom_site_type_symbol
 _atom_site_label
 _atom_site_symmetry_multiplicity
 _atom_site_fract_x
 _atom_site_fract_y
 _atom_site_fract_z
 _atom_site_occupancy
  Y  Y0  1  0.000000  0.000000  0.198738  1
  Y  Y1  1  0.000000  0.000000  0.398637  1
  Y  Y2  1  0.000000  0.000000  0.601427  1
  Y  Y3  1  0.000000  0.000000  0.801385  1
  Ta  Ta4  1  0.000000  0.000000  0.000669  1
  Pd  Pd5  1  0.500000  0.500000  0.999870  1
  Pd  Pd6  1  0.500000  0.500000  0.193388  1
  Pd  Pd7  1  0.500000  0.500000  0.398012  1
  Pd  Pd8  1  0.500000  0.500000  0.601932  1
  Pd  Pd9  1  0.500000  0.500000  0.806544  1
  Pd  Pd10  1  0.500000  0.000000  0.296629  1
  Pd  Pd11  1  0.500000  0.000000  0.499985  1
  Pd  Pd12  1  0.500000  0.000000  0.703364  1
  Pd  Pd13  1  0.500000  0.000000  0.909284  1
  Pd  Pd14  1  0.000000  0.500000  0.090835  1
  Pd  Pd15  1  0.000000  0.500000  0.296697  1
  Pd  Pd16  1  0.000000  0.500000  0.499983  1
  Pd  Pd17  1  0.000000  0.500000  0.703371  1
  Pd  Pd18  1  0.000000  0.500000  0.909385  1
  Pt  Pt19  1  0.500000  0.000000  0.089865  1
