# generated using pymatgen
data_Y4Al18MoPd5
_symmetry_space_group_name_H-M   'P 1'
_cell_length_a   7.63204178
_cell_length_b   7.63204105
_cell_length_c   9.56471465
_cell_angle_alpha   89.62770772
_cell_angle_beta   89.62770713
_cell_angle_gamma   118.94391694
_symmetry_Int_Tables_number   1
_chemical_formula_structural   Y4Al18MoPd5
_chemical_formula_sum   'Y4 Al18 Mo1 Pd5'
_cell_volume   487.49767113
_cell_formula_units_Z   1
loop_
 _symmetry_equiv_pos_site_id
 _symmetry_equiv_pos_as_xyz
  1  'x, y, z'
loop_
 _atom_site_type_symbol
 _atom_site_label
 _atom_site_symmetry_multiplicity
 _atom_site_fract_x
 _atom_site_fract_y
 _atom_site_fract_z
 _atom_site_occupancy
  Y  Y0  1  0.995125  0.676527  0.248018  1
  Y  Y1  1  0.004875  0.323473  0.751982  1
  Y  Y2  1  0.676527  0.995125  0.248018  1
  Y  Y3  1  0.323473  0.004875  0.751982  1
  Al  Al4  1  0.133352  0.133352  0.248497  1
  Al  Al5  1  0.866648  0.866648  0.751503  1
  Al  Al6  1  0.002314  0.334107  0.075519  1
  Al  Al7  1  0.997686  0.665893  0.924481  1
  Al  Al8  1  0.998144  0.661556  0.578165  1
  Al  Al9  1  0.338444  0.001856  0.421835  1
  Al  Al10  1  0.001856  0.338444  0.421835  1
  Al  Al11  1  0.661556  0.998144  0.578165  1
  Al  Al12  1  0.665893  0.997686  0.924481  1
  Al  Al13  1  0.334107  0.002314  0.075519  1
  Al  Al14  1  0.333611  0.333611  0.554758  1
  Al  Al15  1  0.666389  0.666389  0.445242  1
  Al  Al16  1  0.667898  0.667898  0.052529  1
  Al  Al17  1  0.332102  0.332102  0.947471  1
  Al  Al18  1  0.342034  0.549749  0.250063  1
  Al  Al19  1  0.657966  0.450251  0.749937  1
  Al  Al20  1  0.549749  0.342034  0.250063  1
  Al  Al21  1  0.450251  0.657966  0.749937  1
  Mo  Mo22  1  0.000000  0.000000  0.000000  1
  Pd  Pd23  1  0.672225  0.327775  0.000000  1
  Pd  Pd24  1  0.327775  0.672225  0.000000  1
  Pd  Pd25  1  0.327907  0.672093  0.500000  1
  Pd  Pd26  1  0.672093  0.327907  0.500000  1
  Pd  Pd27  1  0.000000  0.000000  0.500000  1
