# generated using pymatgen
data_Ta4Mn5AlV2
_symmetry_space_group_name_H-M   'P 1'
_cell_length_a   4.87250640
_cell_length_b   4.84167068
_cell_length_c   8.14642720
_cell_angle_alpha   89.99999683
_cell_angle_beta   90.41879757
_cell_angle_gamma   119.79087270
_symmetry_Int_Tables_number   1
_chemical_formula_structural   Ta4Mn5AlV2
_chemical_formula_sum   'Ta4 Mn5 Al1 V2'
_cell_volume   166.77901775
_cell_formula_units_Z   1
loop_
 _symmetry_equiv_pos_site_id
 _symmetry_equiv_pos_as_xyz
  1  'x, y, z'
loop_
 _atom_site_type_symbol
 _atom_site_label
 _atom_site_symmetry_multiplicity
 _atom_site_fract_x
 _atom_site_fract_y
 _atom_site_fract_z
 _atom_site_occupancy
  Ta  Ta0  1  0.334371  0.668565  0.068424  1
  Ta  Ta1  1  0.665372  0.330327  0.561540  1
  Ta  Ta2  1  0.665629  0.334193  0.931576  1
  Ta  Ta3  1  0.334628  0.664956  0.438460  1
  Mn  Mn4  1  0.000000  0.005618  0.500000  1
  Mn  Mn5  1  0.656834  0.825915  0.745809  1
  Mn  Mn6  1  0.343166  0.169079  0.254191  1
  Mn  Mn7  1  0.829127  0.169384  0.254452  1
  Mn  Mn8  1  0.170873  0.340258  0.745548  1
  Al  Al9  1  0.000000  0.008489  0.000000  1
  V  V10  1  0.829805  0.656510  0.256255  1
  V  V11  1  0.170195  0.826706  0.743745  1
