# generated using pymatgen
data_Mg3In3Pd10
_symmetry_space_group_name_H-M   'P 1'
_cell_length_a   5.63879523
_cell_length_b   11.11372245
_cell_length_c   4.23172500
_cell_angle_alpha   90.00000000
_cell_angle_beta   90.00000000
_cell_angle_gamma   90.03253307
_symmetry_Int_Tables_number   1
_chemical_formula_structural   Mg3In3Pd10
_chemical_formula_sum   'Mg3 In3 Pd10'
_cell_volume   265.19372112
_cell_formula_units_Z   1
loop_
 _symmetry_equiv_pos_site_id
 _symmetry_equiv_pos_as_xyz
  1  'x, y, z'
loop_
 _atom_site_type_symbol
 _atom_site_label
 _atom_site_symmetry_multiplicity
 _atom_site_fract_x
 _atom_site_fract_y
 _atom_site_fract_z
 _atom_site_occupancy
  Mg  Mg0  1  0.318733  0.141064  0.499998  1
  Mg  Mg1  1  0.681081  0.861562  0.499998  1
  Mg  Mg2  1  0.817811  0.357810  0.499998  1
  In  In3  1  0.180712  0.640306  0.499998  1
  In  In4  1  0.999963  0.000643  0.000000  1
  In  In5  1  0.506210  0.496565  0.000000  1
  Pd  Pd6  1  0.298363  0.385440  0.499998  1
  Pd  Pd7  1  0.697729  0.614526  0.499998  1
  Pd  Pd8  1  0.798418  0.114302  0.499998  1
  Pd  Pd9  1  0.202208  0.887992  0.499998  1
  Pd  Pd10  1  0.999200  0.498312  0.000000  1
  Pd  Pd11  1  0.499606  0.999981  0.000000  1
  Pd  Pd12  1  0.068363  0.246718  0.000000  1
  Pd  Pd13  1  0.928727  0.755190  0.000000  1
  Pd  Pd14  1  0.567452  0.252781  0.000000  1
  Pd  Pd15  1  0.435418  0.746805  0.000000  1
