# generated using pymatgen
data_CaYb3Al2(CdPt2)2
_symmetry_space_group_name_H-M   'P 1'
_cell_length_a   4.25346600
_cell_length_b   7.24389283
_cell_length_c   8.23252438
_cell_angle_alpha   91.41318961
_cell_angle_beta   90.00000000
_cell_angle_gamma   90.00000000
_symmetry_Int_Tables_number   1
_chemical_formula_structural   CaYb3Al2(CdPt2)2
_chemical_formula_sum   'Ca1 Yb3 Al2 Cd2 Pt4'
_cell_volume   253.58052222
_cell_formula_units_Z   1
loop_
 _symmetry_equiv_pos_site_id
 _symmetry_equiv_pos_as_xyz
  1  'x, y, z'
loop_
 _atom_site_type_symbol
 _atom_site_label
 _atom_site_symmetry_multiplicity
 _atom_site_fract_x
 _atom_site_fract_y
 _atom_site_fract_z
 _atom_site_occupancy
  Ca  Ca0  1  0.250000  0.965302  0.322990  1
  Yb  Yb1  1  0.250000  0.466997  0.178176  1
  Yb  Yb2  1  0.750000  0.532795  0.821530  1
  Yb  Yb3  1  0.750000  0.035932  0.678222  1
  Al  Al4  1  0.750000  0.640058  0.440423  1
  Al  Al5  1  0.250000  0.360359  0.559733  1
  Cd  Cd6  1  0.250000  0.854903  0.932811  1
  Cd  Cd7  1  0.750000  0.146198  0.065799  1
  Pt  Pt8  1  0.250000  0.713782  0.603003  1
  Pt  Pt9  1  0.750000  0.286078  0.400090  1
  Pt  Pt10  1  0.750000  0.747064  0.147090  1
  Pt  Pt11  1  0.250000  0.250531  0.850133  1
