# generated using pymatgen
data_Gd3Lu3Si2Tc
_symmetry_space_group_name_H-M   'P 1'
_cell_length_a   7.98676300
_cell_length_b   7.98676355
_cell_length_c   4.28563300
_cell_angle_alpha   90.00000000
_cell_angle_beta   90.00000000
_cell_angle_gamma   120.00000186
_symmetry_Int_Tables_number   1
_chemical_formula_structural   Gd3Lu3Si2Tc
_chemical_formula_sum   'Gd3 Lu3 Si2 Tc1'
_cell_volume   236.74849435
_cell_formula_units_Z   1
loop_
 _symmetry_equiv_pos_site_id
 _symmetry_equiv_pos_as_xyz
  1  'x, y, z'
loop_
 _atom_site_type_symbol
 _atom_site_label
 _atom_site_symmetry_multiplicity
 _atom_site_fract_x
 _atom_site_fract_y
 _atom_site_fract_z
 _atom_site_occupancy
  Gd  Gd0  1  0.591495  0.000000  0.000000  1
  Gd  Gd1  1  0.408505  0.408505  0.000000  1
  Gd  Gd2  1  0.000000  0.591495  0.000000  1
  Lu  Lu3  1  0.244827  0.000000  0.499999  1
  Lu  Lu4  1  0.000000  0.244827  0.499999  1
  Lu  Lu5  1  0.755173  0.755174  0.499999  1
  Si  Si6  1  0.666666  0.333333  0.499999  1
  Si  Si7  1  0.333333  0.666667  0.499999  1
  Tc  Tc8  1  0.000000  0.000000  0.000000  1
