# generated using pymatgen
data_Tb4YEr3(Ni4As3)4
_symmetry_space_group_name_H-M   'P 1'
_cell_length_a   12.87868300
_cell_length_b   12.87868269
_cell_length_c   3.95986900
_cell_angle_alpha   90.00000000
_cell_angle_beta   90.00000000
_cell_angle_gamma   120.00000336
_symmetry_Int_Tables_number   1
_chemical_formula_structural   Tb4YEr3(Ni4As3)4
_chemical_formula_sum   'Tb4 Y1 Er3 Ni16 As12'
_cell_volume   568.79311707
_cell_formula_units_Z   1
loop_
 _symmetry_equiv_pos_site_id
 _symmetry_equiv_pos_as_xyz
  1  'x, y, z'
loop_
 _atom_site_type_symbol
 _atom_site_label
 _atom_site_symmetry_multiplicity
 _atom_site_fract_x
 _atom_site_fract_y
 _atom_site_fract_z
 _atom_site_occupancy
  Tb  Tb0  1  0.181916  0.181915  0.500000  1
  Tb  Tb1  1  0.818085  0.000000  0.500000  1
  Tb  Tb2  1  0.000000  0.818084  0.500000  1
  Tb  Tb3  1  0.333333  0.666667  0.000000  1
  Y  Y4  1  0.666667  0.333333  0.000000  1
  Er  Er5  1  0.565138  0.565112  0.000000  1
  Er  Er6  1  0.434888  0.000026  0.000000  1
  Er  Er7  1  0.999974  0.434862  0.000000  1
  Ni  Ni8  1  0.725038  0.725036  0.500000  1
  Ni  Ni9  1  0.274964  0.000002  0.500000  1
  Ni  Ni10  1  0.999998  0.274962  0.500000  1
  Ni  Ni11  1  0.186312  0.377224  0.000000  1
  Ni  Ni12  1  0.622776  0.809089  0.000000  1
  Ni  Ni13  1  0.190911  0.813688  0.000000  1
  Ni  Ni14  1  0.809100  0.622780  0.000000  1
  Ni  Ni15  1  0.813680  0.190900  0.000000  1
  Ni  Ni16  1  0.377220  0.186320  0.000000  1
  Ni  Ni17  1  0.361643  0.480981  0.500000  1
  Ni  Ni18  1  0.519019  0.880663  0.500000  1
  Ni  Ni19  1  0.119337  0.638357  0.500000  1
  Ni  Ni20  1  0.880651  0.519014  0.500000  1
  Ni  Ni21  1  0.638365  0.119349  0.500000  1
  Ni  Ni22  1  0.480986  0.361635  0.500000  1
  Ni  Ni23  1  0.000000  0.000000  0.000000  1
  As  As24  1  0.822035  0.822035  0.000000  1
  As  As25  1  0.177965  0.000000  0.000000  1
  As  As26  1  0.000000  0.177965  0.000000  1
  As  As27  1  0.175361  0.478015  0.500000  1
  As  As28  1  0.521985  0.697346  0.500000  1
  As  As29  1  0.302654  0.824639  0.500000  1
  As  As30  1  0.697340  0.521961  0.500000  1
  As  As31  1  0.824621  0.302660  0.500000  1
  As  As32  1  0.478039  0.175379  0.500000  1
  As  As33  1  0.351623  0.351620  0.000000  1
  As  As34  1  0.648380  0.000002  0.000000  1
  As  As35  1  0.999998  0.648377  0.000000  1
