# generated using pymatgen
data_Mn5SiPd10
_symmetry_space_group_name_H-M   'P 1'
_cell_length_a   4.10649800
_cell_length_b   5.45143310
_cell_length_c   10.75882406
_cell_angle_alpha   89.46039485
_cell_angle_beta   90.00000000
_cell_angle_gamma   90.00000000
_symmetry_Int_Tables_number   1
_chemical_formula_structural   Mn5SiPd10
_chemical_formula_sum   'Mn5 Si1 Pd10'
_cell_volume   240.83957259
_cell_formula_units_Z   1
loop_
 _symmetry_equiv_pos_site_id
 _symmetry_equiv_pos_as_xyz
  1  'x, y, z'
loop_
 _atom_site_type_symbol
 _atom_site_label
 _atom_site_symmetry_multiplicity
 _atom_site_fract_x
 _atom_site_fract_y
 _atom_site_fract_z
 _atom_site_occupancy
  Mn  Mn0  1  0.000000  0.000000  0.000000  1
  Mn  Mn1  1  0.500000  0.171049  0.360517  1
  Mn  Mn2  1  0.500000  0.828951  0.639483  1
  Mn  Mn3  1  0.500000  0.682117  0.137634  1
  Mn  Mn4  1  0.500000  0.317883  0.862366  1
  Si  Si5  1  0.000000  0.500000  0.500000  1
  Pd  Pd6  1  0.500000  0.192952  0.112887  1
  Pd  Pd7  1  0.500000  0.807048  0.887113  1
  Pd  Pd8  1  0.500000  0.679417  0.397537  1
  Pd  Pd9  1  0.500000  0.320583  0.602463  1
  Pd  Pd10  1  0.000000  0.000000  0.500000  1
  Pd  Pd11  1  0.000000  0.500000  0.000000  1
  Pd  Pd12  1  0.000000  0.919289  0.243086  1
  Pd  Pd13  1  0.000000  0.080711  0.756914  1
  Pd  Pd14  1  0.000000  0.422563  0.266401  1
  Pd  Pd15  1  0.000000  0.577437  0.733599  1
