# generated using pymatgen
data_Lu8Tc2B24RhW
_symmetry_space_group_name_H-M   'P 1'
_cell_length_a   3.59744900
_cell_length_b   9.08643026
_cell_length_c   11.44652615
_cell_angle_alpha   90.07012198
_cell_angle_beta   90.00000000
_cell_angle_gamma   90.00000000
_symmetry_Int_Tables_number   1
_chemical_formula_structural   Lu8Tc2B24RhW
_chemical_formula_sum   'Lu8 Tc2 B24 Rh1 W1'
_cell_volume   374.16341660
_cell_formula_units_Z   1
loop_
 _symmetry_equiv_pos_site_id
 _symmetry_equiv_pos_as_xyz
  1  'x, y, z'
loop_
 _atom_site_type_symbol
 _atom_site_label
 _atom_site_symmetry_multiplicity
 _atom_site_fract_x
 _atom_site_fract_y
 _atom_site_fract_z
 _atom_site_occupancy
  Lu  Lu0  1  0.500000  0.317120  0.413749  1
  Lu  Lu1  1  0.500000  0.681235  0.590748  1
  Lu  Lu2  1  0.500000  0.175991  0.914389  1
  Lu  Lu3  1  0.500000  0.826810  0.081221  1
  Lu  Lu4  1  0.500000  0.441001  0.128823  1
  Lu  Lu5  1  0.500000  0.558540  0.873607  1
  Lu  Lu6  1  0.500000  0.052232  0.628417  1
  Lu  Lu7  1  0.500000  0.943898  0.369906  1
  Tc  Tc8  1  0.500000  0.138899  0.180499  1
  Tc  Tc9  1  0.500000  0.860905  0.821393  1
  B  B10  1  0.000000  0.099868  0.470733  1
  B  B11  1  0.000000  0.895023  0.527686  1
  B  B12  1  0.000000  0.397815  0.973206  1
  B  B13  1  0.000000  0.603556  0.029799  1
  B  B14  1  0.000000  0.130710  0.315579  1
  B  B15  1  0.000000  0.868437  0.685095  1
  B  B16  1  0.000000  0.368762  0.818295  1
  B  B17  1  0.000000  0.632317  0.182811  1
  B  B18  1  0.000000  0.053333  0.066297  1
  B  B19  1  0.000000  0.947360  0.933506  1
  B  B20  1  0.000000  0.449574  0.562491  1
  B  B21  1  0.000000  0.554749  0.433100  1
  B  B22  1  0.000000  0.482551  0.287349  1
  B  B23  1  0.000000  0.524023  0.713126  1
  B  B24  1  0.000000  0.017362  0.787428  1
  B  B25  1  0.000000  0.981633  0.211955  1
  B  B26  1  0.000000  0.250045  0.080868  1
  B  B27  1  0.000000  0.751204  0.919992  1
  B  B28  1  0.000000  0.246163  0.576900  1
  B  B29  1  0.000000  0.750163  0.420428  1
  B  B30  1  0.000000  0.293193  0.235902  1
  B  B31  1  0.000000  0.707965  0.766155  1
  B  B32  1  0.000000  0.203386  0.736394  1
  B  B33  1  0.000000  0.792652  0.264031  1
  Rh  Rh34  1  0.500000  0.639351  0.320064  1
  W  W35  1  0.500000  0.362174  0.678056  1
