# generated using pymatgen
data_Zn12CoAu
_symmetry_space_group_name_H-M   'P 1'
_cell_length_a   6.67401209
_cell_length_b   6.67401236
_cell_length_c   5.03008930
_cell_angle_alpha   81.18785143
_cell_angle_beta   81.18784915
_cell_angle_gamma   70.87122781
_symmetry_Int_Tables_number   1
_chemical_formula_structural   Zn12CoAu
_chemical_formula_sum   'Zn12 Co1 Au1'
_cell_volume   207.90584115
_cell_formula_units_Z   1
loop_
 _symmetry_equiv_pos_site_id
 _symmetry_equiv_pos_as_xyz
  1  'x, y, z'
loop_
 _atom_site_type_symbol
 _atom_site_label
 _atom_site_symmetry_multiplicity
 _atom_site_fract_x
 _atom_site_fract_y
 _atom_site_fract_z
 _atom_site_occupancy
  Zn  Zn0  1  0.999906  0.999906  0.999511  1
  Zn  Zn1  1  0.616557  0.616557  0.070338  1
  Zn  Zn2  1  0.778375  0.778375  0.373375  1
  Zn  Zn3  1  0.218106  0.218106  0.625951  1
  Zn  Zn4  1  0.212709  0.635237  0.320243  1
  Zn  Zn5  1  0.368802  0.786306  0.681758  1
  Zn  Zn6  1  0.786306  0.368802  0.681758  1
  Zn  Zn7  1  0.635237  0.212709  0.320243  1
  Zn  Zn8  1  0.998859  0.647406  0.799494  1
  Zn  Zn9  1  0.354372  0.995665  0.199214  1
  Zn  Zn10  1  0.995665  0.354372  0.199214  1
  Zn  Zn11  1  0.647406  0.998859  0.799494  1
  Co  Co12  1  0.000086  0.000086  0.498148  1
  Au  Au13  1  0.387613  0.387613  0.931259  1
