# generated using pymatgen
data_Nd2Be3BRh6
_symmetry_space_group_name_H-M   'P 1'
_cell_length_a   6.42639944
_cell_length_b   6.42888760
_cell_length_c   6.42639844
_cell_angle_alpha   128.88110169
_cell_angle_beta   118.92366688
_cell_angle_gamma   83.59531010
_symmetry_Int_Tables_number   1
_chemical_formula_structural   Nd2Be3BRh6
_chemical_formula_sum   'Nd2 Be3 B1 Rh6'
_cell_volume   173.56741055
_cell_formula_units_Z   1
loop_
 _symmetry_equiv_pos_site_id
 _symmetry_equiv_pos_as_xyz
  1  'x, y, z'
loop_
 _atom_site_type_symbol
 _atom_site_label
 _atom_site_symmetry_multiplicity
 _atom_site_fract_x
 _atom_site_fract_y
 _atom_site_fract_z
 _atom_site_occupancy
  Nd  Nd0  1  0.742269  0.995162  0.252893  1
  Nd  Nd1  1  0.254414  0.000369  0.745954  1
  Be  Be2  1  0.571781  0.326929  0.755148  1
  Be  Be3  1  0.415207  0.659863  0.244657  1
  Be  Be4  1  0.097254  0.343662  0.246407  1
  B  B5  1  0.919363  0.672193  0.752830  1
  Rh  Rh6  1  0.231591  0.501295  0.734979  1
  Rh  Rh7  1  0.762628  0.996962  0.761323  1
  Rh  Rh8  1  0.766317  0.501295  0.269704  1
  Rh  Rh9  1  0.235639  0.996962  0.234334  1
  Rh  Rh10  1  0.521457  0.502654  0.520574  1
  Rh  Rh11  1  0.982081  0.502654  0.981197  1
