# generated using pymatgen
data_NaNpSnI6
_symmetry_space_group_name_H-M   'P 1'
_cell_length_a   8.77818790
_cell_length_b   8.70071940
_cell_length_c   8.71524741
_cell_angle_alpha   54.05337175
_cell_angle_beta   53.92342640
_cell_angle_gamma   54.47914421
_symmetry_Int_Tables_number   1
_chemical_formula_structural   NaNpSnI6
_chemical_formula_sum   'Na1 Np1 Sn1 I6'
_cell_volume   406.39728478
_cell_formula_units_Z   1
loop_
 _symmetry_equiv_pos_site_id
 _symmetry_equiv_pos_as_xyz
  1  'x, y, z'
loop_
 _atom_site_type_symbol
 _atom_site_label
 _atom_site_symmetry_multiplicity
 _atom_site_fract_x
 _atom_site_fract_y
 _atom_site_fract_z
 _atom_site_occupancy
  Na  Na0  1  0.670039  0.669853  0.669848  1
  Np  Np1  1  0.000039  0.000050  0.999742  1
  Sn  Sn2  1  0.330552  0.330679  0.331482  1
  I  I3  1  0.242790  0.596742  0.918704  1
  I  I4  1  0.597972  0.919915  0.239624  1
  I  I5  1  0.918259  0.242110  0.598215  1
  I  I6  1  0.750781  0.397925  0.092359  1
  I  I7  1  0.397121  0.090741  0.753586  1
  I  I8  1  0.092448  0.751985  0.396438  1
