# generated using pymatgen
data_Ho3P4Pd7
_symmetry_space_group_name_H-M   'P 1'
_cell_length_a   7.94022255
_cell_length_b   7.94022256
_cell_length_c   9.40970400
_cell_angle_alpha   55.83296265
_cell_angle_beta   55.83296330
_cell_angle_gamma   29.20827754
_symmetry_Int_Tables_number   1
_chemical_formula_structural   Ho3P4Pd7
_chemical_formula_sum   'Ho3 P4 Pd7'
_cell_volume   235.75753192
_cell_formula_units_Z   1
loop_
 _symmetry_equiv_pos_site_id
 _symmetry_equiv_pos_as_xyz
  1  'x, y, z'
loop_
 _atom_site_type_symbol
 _atom_site_label
 _atom_site_symmetry_multiplicity
 _atom_site_fract_x
 _atom_site_fract_y
 _atom_site_fract_z
 _atom_site_occupancy
  Ho  Ho0  1  0.500000  0.500000  0.500000  1
  Ho  Ho1  1  0.820228  0.820228  0.176390  1
  Ho  Ho2  1  0.179772  0.179772  0.823610  1
  P  P3  1  0.393718  0.393718  0.320168  1
  P  P4  1  0.606282  0.606282  0.679832  1
  P  P5  1  0.840735  0.840735  0.752586  1
  P  P6  1  0.159265  0.159265  0.247414  1
  Pd  Pd7  1  0.668462  0.668462  0.078348  1
  Pd  Pd8  1  0.009755  0.009755  0.215927  1
  Pd  Pd9  1  0.990245  0.990245  0.784073  1
  Pd  Pd10  1  0.500000  0.500000  0.000000  1
  Pd  Pd11  1  0.195070  0.195070  0.469765  1
  Pd  Pd12  1  0.804930  0.804930  0.530235  1
  Pd  Pd13  1  0.331538  0.331538  0.921652  1
