# generated using pymatgen
data_Tb7Er3(Sn3Cl)2
_symmetry_space_group_name_H-M   'P 1'
_cell_length_a   9.12682100
_cell_length_b   9.12682175
_cell_length_c   6.54363300
_cell_angle_alpha   90.00000000
_cell_angle_beta   90.00000000
_cell_angle_gamma   119.99999365
_symmetry_Int_Tables_number   1
_chemical_formula_structural   Tb7Er3(Sn3Cl)2
_chemical_formula_sum   'Tb7 Er3 Sn6 Cl2'
_cell_volume   472.05075356
_cell_formula_units_Z   1
loop_
 _symmetry_equiv_pos_site_id
 _symmetry_equiv_pos_as_xyz
  1  'x, y, z'
loop_
 _atom_site_type_symbol
 _atom_site_label
 _atom_site_symmetry_multiplicity
 _atom_site_fract_x
 _atom_site_fract_y
 _atom_site_fract_z
 _atom_site_occupancy
  Tb  Tb0  1  0.666667  0.333333  0.000000  1
  Tb  Tb1  1  0.738354  0.999915  0.749882  1
  Tb  Tb2  1  0.738354  0.738440  0.250118  1
  Tb  Tb3  1  0.000085  0.261646  0.250118  1
  Tb  Tb4  1  0.000085  0.738440  0.749882  1
  Tb  Tb5  1  0.261560  0.261646  0.749882  1
  Tb  Tb6  1  0.261560  0.999915  0.250118  1
  Er  Er7  1  0.333333  0.666667  0.500000  1
  Er  Er8  1  0.666667  0.333333  0.500000  1
  Er  Er9  1  0.333333  0.666667  0.000000  1
  Sn  Sn10  1  0.609541  0.609988  0.749683  1
  Sn  Sn11  1  0.000447  0.609988  0.250317  1
  Sn  Sn12  1  0.609541  0.999553  0.250317  1
  Sn  Sn13  1  0.390012  0.999553  0.749683  1
  Sn  Sn14  1  0.000447  0.390459  0.749683  1
  Sn  Sn15  1  0.390012  0.390459  0.250317  1
  Cl  Cl16  1  0.000000  0.000000  0.500000  1
  Cl  Cl17  1  0.000000  0.000000  0.000000  1
