# generated using pymatgen
data_Ho4LuOsPd2
_symmetry_space_group_name_H-M   'P 1'
_cell_length_a   10.79067700
_cell_length_b   10.79067700
_cell_length_c   6.37416400
_cell_angle_alpha   90.00000000
_cell_angle_beta   90.00000000
_cell_angle_gamma   90.00000000
_symmetry_Int_Tables_number   1
_chemical_formula_structural   Ho4LuOsPd2
_chemical_formula_sum   'Ho16 Lu4 Os4 Pd8'
_cell_volume   742.19943424
_cell_formula_units_Z   4
loop_
 _symmetry_equiv_pos_site_id
 _symmetry_equiv_pos_as_xyz
  1  'x, y, z'
loop_
 _atom_site_type_symbol
 _atom_site_label
 _atom_site_symmetry_multiplicity
 _atom_site_fract_x
 _atom_site_fract_y
 _atom_site_fract_z
 _atom_site_occupancy
  Ho  Ho0  1  0.295595  0.085297  0.371743  1
  Ho  Ho1  1  0.295595  0.914703  0.871743  1
  Ho  Ho2  1  0.704405  0.085297  0.871743  1
  Ho  Ho3  1  0.704405  0.914703  0.371743  1
  Ho  Ho4  1  0.585297  0.795595  0.871743  1
  Ho  Ho5  1  0.585297  0.204405  0.371743  1
  Ho  Ho6  1  0.414703  0.795595  0.371743  1
  Ho  Ho7  1  0.414703  0.204405  0.871743  1
  Ho  Ho8  1  0.204405  0.414703  0.628257  1
  Ho  Ho9  1  0.204405  0.585297  0.128257  1
  Ho  Ho10  1  0.795595  0.414703  0.128257  1
  Ho  Ho11  1  0.795595  0.585297  0.628257  1
  Ho  Ho12  1  0.914703  0.704405  0.128257  1
  Ho  Ho13  1  0.914703  0.295595  0.628257  1
  Ho  Ho14  1  0.085297  0.704405  0.628257  1
  Ho  Ho15  1  0.085297  0.295595  0.128257  1
  Lu  Lu16  1  0.000000  0.000000  0.500000  1
  Lu  Lu17  1  0.000000  0.000000  0.000000  1
  Lu  Lu18  1  0.500000  0.500000  0.000000  1
  Lu  Lu19  1  0.500000  0.500000  0.500000  1
  Os  Os20  1  0.500000  0.000000  0.125081  1
  Os  Os21  1  0.500000  0.000000  0.625081  1
  Os  Os22  1  0.000000  0.500000  0.874919  1
  Os  Os23  1  0.000000  0.500000  0.374919  1
  Pd  Pd24  1  0.849140  0.150860  0.250000  1
  Pd  Pd25  1  0.849140  0.849140  0.750000  1
  Pd  Pd26  1  0.150860  0.150860  0.750000  1
  Pd  Pd27  1  0.150860  0.849140  0.250000  1
  Pd  Pd28  1  0.650860  0.349140  0.750000  1
  Pd  Pd29  1  0.650860  0.650860  0.250000  1
  Pd  Pd30  1  0.349140  0.349140  0.250000  1
  Pd  Pd31  1  0.349140  0.650860  0.750000  1
