# generated using pymatgen
data_Er20Os7Au5
_symmetry_space_group_name_H-M   'P 1'
_cell_length_a   10.98751310
_cell_length_b   10.98751348
_cell_length_c   6.36456229
_cell_angle_alpha   89.92012908
_cell_angle_beta   89.92012541
_cell_angle_gamma   89.07119288
_symmetry_Int_Tables_number   1
_chemical_formula_structural   Er20Os7Au5
_chemical_formula_sum   'Er20 Os7 Au5'
_cell_volume   768.26221058
_cell_formula_units_Z   1
loop_
 _symmetry_equiv_pos_site_id
 _symmetry_equiv_pos_as_xyz
  1  'x, y, z'
loop_
 _atom_site_type_symbol
 _atom_site_label
 _atom_site_symmetry_multiplicity
 _atom_site_fract_x
 _atom_site_fract_y
 _atom_site_fract_z
 _atom_site_occupancy
  Er  Er0  1  0.300048  0.088288  0.360215  1
  Er  Er1  1  0.300672  0.907454  0.858377  1
  Er  Er2  1  0.694081  0.077207  0.856889  1
  Er  Er3  1  0.696797  0.906525  0.356569  1
  Er  Er4  1  0.577626  0.784507  0.867420  1
  Er  Er5  1  0.571592  0.203528  0.357984  1
  Er  Er6  1  0.420394  0.789604  0.367596  1
  Er  Er7  1  0.411310  0.203912  0.873981  1
  Er  Er8  1  0.215493  0.422374  0.632580  1
  Er  Er9  1  0.210396  0.579606  0.132404  1
  Er  Er10  1  0.796472  0.428408  0.142016  1
  Er  Er11  1  0.796088  0.588690  0.626019  1
  Er  Er12  1  0.911712  0.699952  0.139785  1
  Er  Er13  1  0.922793  0.305919  0.643111  1
  Er  Er14  1  0.092546  0.699328  0.641623  1
  Er  Er15  1  0.093475  0.303203  0.143431  1
  Er  Er16  1  0.996578  0.001997  0.498477  1
  Er  Er17  1  0.998003  0.003422  0.001523  1
  Er  Er18  1  0.496118  0.501397  0.002974  1
  Er  Er19  1  0.498603  0.503882  0.497026  1
  Os  Os20  1  0.654899  0.651792  0.248636  1
  Os  Os21  1  0.348208  0.345101  0.251364  1
  Os  Os22  1  0.345477  0.654523  0.750000  1
  Os  Os23  1  0.498281  0.997573  0.111493  1
  Os  Os24  1  0.498332  0.997751  0.614401  1
  Os  Os25  1  0.002249  0.501668  0.885599  1
  Os  Os26  1  0.002427  0.501719  0.388507  1
  Au  Au27  1  0.840477  0.159523  0.250000  1
  Au  Au28  1  0.844745  0.847891  0.752453  1
  Au  Au29  1  0.152109  0.155255  0.747547  1
  Au  Au30  1  0.154294  0.845706  0.250000  1
  Au  Au31  1  0.657706  0.342294  0.750000  1
