# generated using pymatgen
data_Y3Ho7In8(PdRu)2
_symmetry_space_group_name_H-M   'P 1'
_cell_length_a   3.61724100
_cell_length_b   8.08728026
_cell_length_c   18.31304122
_cell_angle_alpha   90.02345020
_cell_angle_beta   90.00000000
_cell_angle_gamma   90.00000000
_symmetry_Int_Tables_number   1
_chemical_formula_structural   Y3Ho7In8(PdRu)2
_chemical_formula_sum   'Y3 Ho7 In8 Pd2 Ru2'
_cell_volume   535.72310207
_cell_formula_units_Z   1
loop_
 _symmetry_equiv_pos_site_id
 _symmetry_equiv_pos_as_xyz
  1  'x, y, z'
loop_
 _atom_site_type_symbol
 _atom_site_label
 _atom_site_symmetry_multiplicity
 _atom_site_fract_x
 _atom_site_fract_y
 _atom_site_fract_z
 _atom_site_occupancy
  Y  Y0  1  0.500000  0.620268  0.915474  1
  Y  Y1  1  0.500000  0.000498  0.000118  1
  Y  Y2  1  0.500000  0.499982  0.500001  1
  Ho  Ho3  1  0.500000  0.228594  0.777701  1
  Ho  Ho4  1  0.500000  0.771362  0.222202  1
  Ho  Ho5  1  0.500000  0.244816  0.280089  1
  Ho  Ho6  1  0.500000  0.755166  0.719805  1
  Ho  Ho7  1  0.500000  0.116656  0.587476  1
  Ho  Ho8  1  0.500000  0.883215  0.412533  1
  Ho  Ho9  1  0.500000  0.380184  0.085486  1
  In  In10  1  0.000000  0.072085  0.150483  1
  In  In11  1  0.000000  0.928208  0.849486  1
  In  In12  1  0.000000  0.424982  0.650156  1
  In  In13  1  0.000000  0.574855  0.349719  1
  In  In14  1  0.000000  0.206225  0.430823  1
  In  In15  1  0.000000  0.793809  0.569153  1
  In  In16  1  0.000000  0.293377  0.932718  1
  In  In17  1  0.000000  0.706581  0.067427  1
  Pd  Pd18  1  0.000000  0.479216  0.196363  1
  Pd  Pd19  1  0.000000  0.519976  0.802796  1
  Ru  Ru20  1  0.000000  0.019719  0.695624  1
  Ru  Ru21  1  0.000000  0.980227  0.304365  1
