# generated using pymatgen
data_Rb8Tm2Lu4BeBr20
_symmetry_space_group_name_H-M   'P 1'
_cell_length_a   12.26107661
_cell_length_b   12.28005911
_cell_length_c   12.28005865
_cell_angle_alpha   59.89775860
_cell_angle_beta   60.05112266
_cell_angle_gamma   60.05111703
_symmetry_Int_Tables_number   1
_chemical_formula_structural   Rb8Tm2Lu4BeBr20
_chemical_formula_sum   'Rb8 Tm2 Lu4 Be1 Br20'
_cell_volume   1307.41188481
_cell_formula_units_Z   1
loop_
 _symmetry_equiv_pos_site_id
 _symmetry_equiv_pos_as_xyz
  1  'x, y, z'
loop_
 _atom_site_type_symbol
 _atom_site_label
 _atom_site_symmetry_multiplicity
 _atom_site_fract_x
 _atom_site_fract_y
 _atom_site_fract_z
 _atom_site_occupancy
  Rb  Rb0  1  0.358721  0.358924  0.358924  1
  Rb  Rb1  1  0.641279  0.641076  0.641076  1
  Rb  Rb2  1  0.358924  0.358721  0.923430  1
  Rb  Rb3  1  0.358924  0.923430  0.358721  1
  Rb  Rb4  1  0.641076  0.641279  0.076570  1
  Rb  Rb5  1  0.641076  0.076570  0.641279  1
  Rb  Rb6  1  0.923430  0.358924  0.358924  1
  Rb  Rb7  1  0.076570  0.641076  0.641076  1
  Tm  Tm8  1  0.847710  0.152290  0.152290  1
  Tm  Tm9  1  0.152290  0.847710  0.847710  1
  Lu  Lu10  1  0.151920  0.848080  0.151920  1
  Lu  Lu11  1  0.848080  0.151920  0.848080  1
  Lu  Lu12  1  0.151920  0.151920  0.848080  1
  Lu  Lu13  1  0.848080  0.848080  0.151920  1
  Be  Be14  1  0.000000  0.000000  0.000000  1
  Br  Br15  1  0.326997  0.000000  0.000000  1
  Br  Br16  1  0.673003  0.000000  0.000000  1
  Br  Br17  1  0.000000  0.326997  0.673003  1
  Br  Br18  1  0.000000  0.673003  0.326997  1
  Br  Br19  1  0.001072  0.327596  0.998928  1
  Br  Br20  1  0.672404  0.998928  0.327596  1
  Br  Br21  1  0.998928  0.672404  0.001072  1
  Br  Br22  1  0.327596  0.001072  0.672404  1
  Br  Br23  1  0.001072  0.998928  0.327596  1
  Br  Br24  1  0.998928  0.001072  0.672404  1
  Br  Br25  1  0.672404  0.327596  0.998928  1
  Br  Br26  1  0.327596  0.672404  0.001072  1
  Br  Br27  1  0.683262  0.316738  0.316738  1
  Br  Br28  1  0.316738  0.683262  0.683262  1
  Br  Br29  1  0.315643  0.684357  0.315643  1
  Br  Br30  1  0.684357  0.315643  0.684357  1
  Br  Br31  1  0.315643  0.315643  0.684357  1
  Br  Br32  1  0.684357  0.684357  0.315643  1
  Br  Br33  1  0.250000  0.250000  0.250000  1
  Br  Br34  1  0.750000  0.750000  0.750000  1
