# generated using pymatgen
data_La4Ho3Tm3Ru4
_symmetry_space_group_name_H-M   'P 1'
_cell_length_a   6.47505447
_cell_length_b   7.24376153
_cell_length_c   8.73012873
_cell_angle_alpha   96.41906305
_cell_angle_beta   111.72474543
_cell_angle_gamma   90.01180065
_symmetry_Int_Tables_number   1
_chemical_formula_structural   La4Ho3Tm3Ru4
_chemical_formula_sum   'La4 Ho3 Tm3 Ru4'
_cell_volume   377.62331066
_cell_formula_units_Z   1
loop_
 _symmetry_equiv_pos_site_id
 _symmetry_equiv_pos_as_xyz
  1  'x, y, z'
loop_
 _atom_site_type_symbol
 _atom_site_label
 _atom_site_symmetry_multiplicity
 _atom_site_fract_x
 _atom_site_fract_y
 _atom_site_fract_z
 _atom_site_occupancy
  La  La0  1  0.782216  0.088360  0.803780  1
  La  La1  1  0.979363  0.412425  0.195033  1
  La  La2  1  0.217039  0.911354  0.196400  1
  La  La3  1  0.020897  0.588099  0.804692  1
  Ho  Ho4  1  0.204637  0.185018  0.569926  1
  Ho  Ho5  1  0.633651  0.314727  0.430156  1
  Ho  Ho6  1  0.795918  0.814904  0.430190  1
  Tm  Tm7  1  0.366832  0.685191  0.570433  1
  Tm  Tm8  1  0.425681  0.249792  0.999468  1
  Tm  Tm9  1  0.573953  0.750138  0.000104  1
  Ru  Ru10  1  0.598130  0.419315  0.776088  1
  Ru  Ru11  1  0.823315  0.081602  0.224759  1
  Ru  Ru12  1  0.401355  0.581077  0.224276  1
  Ru  Ru13  1  0.177015  0.917998  0.774696  1
