# generated using pymatgen
data_Er11Tm(LuRh3)2
_symmetry_space_group_name_H-M   'P 1'
_cell_length_a   9.69755300
_cell_length_b   9.69801427
_cell_length_c   6.13130300
_cell_angle_alpha   89.96435709
_cell_angle_beta   90.00000000
_cell_angle_gamma   119.99842322
_symmetry_Int_Tables_number   1
_chemical_formula_structural   Er11Tm(LuRh3)2
_chemical_formula_sum   'Er11 Tm1 Lu2 Rh6'
_cell_volume   499.38463897
_cell_formula_units_Z   1
loop_
 _symmetry_equiv_pos_site_id
 _symmetry_equiv_pos_as_xyz
  1  'x, y, z'
loop_
 _atom_site_type_symbol
 _atom_site_label
 _atom_site_symmetry_multiplicity
 _atom_site_fract_x
 _atom_site_fract_y
 _atom_site_fract_z
 _atom_site_occupancy
  Er  Er0  1  0.123428  0.876075  0.255888  1
  Er  Er1  1  0.752647  0.876075  0.255888  1
  Er  Er2  1  0.123871  0.247744  0.255123  1
  Er  Er3  1  0.876611  0.124038  0.756076  1
  Er  Er4  1  0.247428  0.124038  0.756076  1
  Er  Er5  1  0.876384  0.752766  0.754746  1
  Er  Er6  1  0.540685  0.458505  0.445676  1
  Er  Er7  1  0.917821  0.458505  0.445676  1
  Er  Er8  1  0.540496  0.080991  0.448487  1
  Er  Er9  1  0.459491  0.541673  0.946317  1
  Er  Er10  1  0.082181  0.541673  0.946317  1
  Tm  Tm11  1  0.459240  0.918483  0.948506  1
  Lu  Lu12  1  0.333298  0.666599  0.456823  1
  Lu  Lu13  1  0.666703  0.333405  0.955440  1
  Rh  Rh14  1  0.807923  0.189382  0.178904  1
  Rh  Rh15  1  0.381458  0.189382  0.178904  1
  Rh  Rh16  1  0.809386  0.618774  0.178164  1
  Rh  Rh17  1  0.191956  0.810488  0.680216  1
  Rh  Rh18  1  0.618532  0.810488  0.680216  1
  Rh  Rh19  1  0.190459  0.380918  0.680101  1
