# generated using pymatgen
data_Ac6Mg5Cd18P
_symmetry_space_group_name_H-M   'P 1'
_cell_length_a   10.36666345
_cell_length_b   10.31712520
_cell_length_c   10.31394301
_cell_angle_alpha   60.01009763
_cell_angle_beta   60.16791172
_cell_angle_gamma   60.45770850
_symmetry_Int_Tables_number   1
_chemical_formula_structural   Ac6Mg5Cd18P
_chemical_formula_sum   'Ac6 Mg5 Cd18 P1'
_cell_volume   783.74108681
_cell_formula_units_Z   1
loop_
 _symmetry_equiv_pos_site_id
 _symmetry_equiv_pos_as_xyz
  1  'x, y, z'
loop_
 _atom_site_type_symbol
 _atom_site_label
 _atom_site_symmetry_multiplicity
 _atom_site_fract_x
 _atom_site_fract_y
 _atom_site_fract_z
 _atom_site_occupancy
  Ac  Ac0  1  0.791899  0.788004  0.210049  1
  Ac  Ac1  1  0.207998  0.789903  0.210362  1
  Ac  Ac2  1  0.792004  0.210107  0.208245  1
  Ac  Ac3  1  0.208101  0.211996  0.789951  1
  Ac  Ac4  1  0.792002  0.210097  0.789638  1
  Ac  Ac5  1  0.207996  0.789893  0.791755  1
  Mg  Mg6  1  0.000000  0.000000  0.500000  1
  Mg  Mg7  1  0.500000  0.000000  0.500000  1
  Mg  Mg8  1  0.500000  0.500000  0.000000  1
  Mg  Mg9  1  0.500000  0.000000  0.000000  1
  Mg  Mg10  1  0.500000  0.500000  0.500000  1
  Cd  Cd11  1  0.826472  0.830185  0.515279  1
  Cd  Cd12  1  0.825592  0.516331  0.829037  1
  Cd  Cd13  1  0.514382  0.828488  0.828566  1
  Cd  Cd14  1  0.826470  0.830183  0.828071  1
  Cd  Cd15  1  0.173528  0.169815  0.484721  1
  Cd  Cd16  1  0.174408  0.483669  0.170963  1
  Cd  Cd17  1  0.485618  0.171512  0.171434  1
  Cd  Cd18  1  0.173530  0.169817  0.171929  1
  Cd  Cd19  1  0.618299  0.624575  0.134923  1
  Cd  Cd20  1  0.620999  0.135899  0.621546  1
  Cd  Cd21  1  0.136014  0.625136  0.619426  1
  Cd  Cd22  1  0.618297  0.624570  0.622212  1
  Cd  Cd23  1  0.381701  0.375425  0.865077  1
  Cd  Cd24  1  0.379001  0.864101  0.378454  1
  Cd  Cd25  1  0.863986  0.374864  0.380574  1
  Cd  Cd26  1  0.381703  0.375430  0.377788  1
  Cd  Cd27  1  0.000000  0.500000  0.500000  1
  Cd  Cd28  1  0.000000  0.500000  0.000000  1
  P  P29  1  0.000000  0.000000  0.000000  1
