# generated using pymatgen
data_Tb2Ho2Ga12Au
_symmetry_space_group_name_H-M   'P 1'
_cell_length_a   7.52861737
_cell_length_b   7.53713613
_cell_length_c   7.52861771
_cell_angle_alpha   109.47325846
_cell_angle_beta   109.42130829
_cell_angle_gamma   109.47325662
_symmetry_Int_Tables_number   1
_chemical_formula_structural   Tb2Ho2Ga12Au
_chemical_formula_sum   'Tb2 Ho2 Ga12 Au1'
_cell_volume   329.04878465
_cell_formula_units_Z   1
loop_
 _symmetry_equiv_pos_site_id
 _symmetry_equiv_pos_as_xyz
  1  'x, y, z'
loop_
 _atom_site_type_symbol
 _atom_site_label
 _atom_site_symmetry_multiplicity
 _atom_site_fract_x
 _atom_site_fract_y
 _atom_site_fract_z
 _atom_site_occupancy
  Tb  Tb0  1  0.000000  0.000000  0.500000  1
  Tb  Tb1  1  0.500000  0.000000  0.000000  1
  Ho  Ho2  1  0.500000  0.500000  0.500000  1
  Ho  Ho3  1  0.000000  0.500000  0.000000  1
  Ga  Ga4  1  0.499849  0.749837  0.249988  1
  Ga  Ga5  1  0.500151  0.250163  0.750012  1
  Ga  Ga6  1  0.250000  0.500000  0.750000  1
  Ga  Ga7  1  0.750000  0.500000  0.250000  1
  Ga  Ga8  1  0.750012  0.250163  0.500151  1
  Ga  Ga9  1  0.249988  0.749837  0.499849  1
  Ga  Ga10  1  0.000107  0.304482  0.304374  1
  Ga  Ga11  1  0.999893  0.695518  0.695626  1
  Ga  Ga12  1  0.304369  0.000000  0.304369  1
  Ga  Ga13  1  0.695631  0.000000  0.695631  1
  Ga  Ga14  1  0.304374  0.304482  0.000107  1
  Ga  Ga15  1  0.695626  0.695518  0.999893  1
  Au  Au16  1  0.000000  0.000000  0.000000  1
