# generated using pymatgen
data_La6Nd(YRh3)2
_symmetry_space_group_name_H-M   'P 1'
_cell_length_a   7.68552347
_cell_length_b   7.68552266
_cell_length_c   7.68552430
_cell_angle_alpha   70.94100222
_cell_angle_beta   70.94099508
_cell_angle_gamma   70.94098837
_symmetry_Int_Tables_number   1
_chemical_formula_structural   La6Nd(YRh3)2
_chemical_formula_sum   'La6 Nd1 Y2 Rh6'
_cell_volume   393.07774108
_cell_formula_units_Z   1
loop_
 _symmetry_equiv_pos_site_id
 _symmetry_equiv_pos_as_xyz
  1  'x, y, z'
loop_
 _atom_site_type_symbol
 _atom_site_label
 _atom_site_symmetry_multiplicity
 _atom_site_fract_x
 _atom_site_fract_y
 _atom_site_fract_z
 _atom_site_occupancy
  La  La0  1  0.159750  0.385816  0.672336  1
  La  La1  1  0.672336  0.159750  0.385816  1
  La  La2  1  0.385816  0.672336  0.159750  1
  La  La3  1  0.842227  0.611115  0.327511  1
  La  La4  1  0.327511  0.842227  0.611115  1
  La  La5  1  0.611115  0.327511  0.842227  1
  Nd  Nd6  1  0.800980  0.800980  0.800980  1
  Y  Y7  1  0.000843  0.000843  0.000843  1
  Y  Y8  1  0.197878  0.197878  0.197878  1
  Rh  Rh9  1  0.958246  0.164096  0.591269  1
  Rh  Rh10  1  0.591269  0.958246  0.164096  1
  Rh  Rh11  1  0.164096  0.591269  0.958246  1
  Rh  Rh12  1  0.045968  0.839052  0.402914  1
  Rh  Rh13  1  0.402914  0.045968  0.839052  1
  Rh  Rh14  1  0.839052  0.402914  0.045968  1
