# generated using pymatgen
data_Er2Al9Pd2Ru
_symmetry_space_group_name_H-M   'P 1'
_cell_length_a   7.58942457
_cell_length_b   7.58942476
_cell_length_c   9.45578700
_cell_angle_alpha   90.00000000
_cell_angle_beta   90.00000000
_cell_angle_gamma   119.35789194
_symmetry_Int_Tables_number   1
_chemical_formula_structural   Er2Al9Pd2Ru
_chemical_formula_sum   'Er4 Al18 Pd4 Ru2'
_cell_volume   474.70065563
_cell_formula_units_Z   2
loop_
 _symmetry_equiv_pos_site_id
 _symmetry_equiv_pos_as_xyz
  1  'x, y, z'
loop_
 _atom_site_type_symbol
 _atom_site_label
 _atom_site_symmetry_multiplicity
 _atom_site_fract_x
 _atom_site_fract_y
 _atom_site_fract_z
 _atom_site_occupancy
  Er  Er0  1  0.995599  0.671355  0.250000  1
  Er  Er1  1  0.004401  0.328645  0.750000  1
  Er  Er2  1  0.671355  0.995599  0.250000  1
  Er  Er3  1  0.328645  0.004401  0.750000  1
  Al  Al4  1  0.124335  0.124335  0.250000  1
  Al  Al5  1  0.875665  0.875665  0.750000  1
  Al  Al6  1  0.000086  0.330361  0.076765  1
  Al  Al7  1  0.999914  0.669639  0.923235  1
  Al  Al8  1  0.999914  0.669639  0.576765  1
  Al  Al9  1  0.330361  0.000086  0.423235  1
  Al  Al10  1  0.000086  0.330361  0.423235  1
  Al  Al11  1  0.669639  0.999914  0.576765  1
  Al  Al12  1  0.669639  0.999914  0.923235  1
  Al  Al13  1  0.330361  0.000086  0.076765  1
  Al  Al14  1  0.328141  0.328141  0.555407  1
  Al  Al15  1  0.671859  0.671859  0.444593  1
  Al  Al16  1  0.671859  0.671859  0.055407  1
  Al  Al17  1  0.328141  0.328141  0.944593  1
  Al  Al18  1  0.341720  0.548049  0.250000  1
  Al  Al19  1  0.658280  0.451951  0.750000  1
  Al  Al20  1  0.548049  0.341720  0.250000  1
  Al  Al21  1  0.451951  0.658280  0.750000  1
  Pd  Pd22  1  0.672194  0.327806  0.000000  1
  Pd  Pd23  1  0.327806  0.672194  0.000000  1
  Pd  Pd24  1  0.327806  0.672194  0.500000  1
  Pd  Pd25  1  0.672194  0.327806  0.500000  1
  Ru  Ru26  1  0.000000  0.000000  0.000000  1
  Ru  Ru27  1  0.000000  0.000000  0.500000  1
