# generated using pymatgen
data_Y2Ho14In6CoRh
_symmetry_space_group_name_H-M   'P 1'
_cell_length_a   10.37206600
_cell_length_b   10.37206681
_cell_length_c   7.02601600
_cell_angle_alpha   90.00000000
_cell_angle_beta   90.00000000
_cell_angle_gamma   120.00000381
_symmetry_Int_Tables_number   1
_chemical_formula_structural   Y2Ho14In6CoRh
_chemical_formula_sum   'Y2 Ho14 In6 Co1 Rh1'
_cell_volume   654.59144714
_cell_formula_units_Z   1
loop_
 _symmetry_equiv_pos_site_id
 _symmetry_equiv_pos_as_xyz
  1  'x, y, z'
loop_
 _atom_site_type_symbol
 _atom_site_label
 _atom_site_symmetry_multiplicity
 _atom_site_fract_x
 _atom_site_fract_y
 _atom_site_fract_z
 _atom_site_occupancy
  Y  Y0  1  0.000000  0.000000  0.494911  1
  Y  Y1  1  0.000000  0.000000  0.997978  1
  Ho  Ho2  1  0.466815  0.533185  0.480463  1
  Ho  Ho3  1  0.066369  0.533185  0.480463  1
  Ho  Ho4  1  0.466815  0.933631  0.480463  1
  Ho  Ho5  1  0.535914  0.464086  0.981960  1
  Ho  Ho6  1  0.928171  0.464086  0.981960  1
  Ho  Ho7  1  0.535914  0.071829  0.981960  1
  Ho  Ho8  1  0.821922  0.178078  0.274942  1
  Ho  Ho9  1  0.356156  0.178078  0.274942  1
  Ho  Ho10  1  0.821922  0.643844  0.274942  1
  Ho  Ho11  1  0.176133  0.823867  0.776393  1
  Ho  Ho12  1  0.647733  0.823867  0.776393  1
  Ho  Ho13  1  0.176133  0.352267  0.776393  1
  Ho  Ho14  1  0.333333  0.666667  0.100687  1
  Ho  Ho15  1  0.666667  0.333333  0.591195  1
  In  In16  1  0.162691  0.837309  0.234384  1
  In  In17  1  0.674619  0.837309  0.234384  1
  In  In18  1  0.162691  0.325381  0.234384  1
  In  In19  1  0.836390  0.163610  0.733434  1
  In  In20  1  0.327222  0.163610  0.733434  1
  In  In21  1  0.836390  0.672778  0.733434  1
  Co  Co22  1  0.666667  0.333333  0.207393  1
  Rh  Rh23  1  0.333333  0.666667  0.707659  1
