# generated using pymatgen
data_Ho2Mn5P7Ir3Rh4
_symmetry_space_group_name_H-M   'P 1'
_cell_length_a   9.42131578
_cell_length_b   9.42753894
_cell_length_c   3.82124700
_cell_angle_alpha   90.00000000
_cell_angle_beta   90.00000000
_cell_angle_gamma   120.02295813
_symmetry_Int_Tables_number   1
_chemical_formula_structural   Ho2Mn5P7Ir3Rh4
_chemical_formula_sum   'Ho2 Mn5 P7 Ir3 Rh4'
_cell_volume   293.86314447
_cell_formula_units_Z   1
loop_
 _symmetry_equiv_pos_site_id
 _symmetry_equiv_pos_as_xyz
  1  'x, y, z'
loop_
 _atom_site_type_symbol
 _atom_site_label
 _atom_site_symmetry_multiplicity
 _atom_site_fract_x
 _atom_site_fract_y
 _atom_site_fract_z
 _atom_site_occupancy
  Ho  Ho0  1  0.667374  0.333583  0.000000  1
  Ho  Ho1  1  0.333716  0.667050  0.500000  1
  Mn  Mn2  1  0.269471  0.157272  0.000000  1
  Mn  Mn3  1  0.842043  0.112049  0.000000  1
  Mn  Mn4  1  0.890793  0.730823  0.000000  1
  Mn  Mn5  1  0.776528  0.877923  0.500000  1
  Mn  Mn6  1  0.121863  0.897096  0.500000  1
  P  P7  1  0.300622  0.408921  0.000000  1
  P  P8  1  0.593088  0.890681  0.000000  1
  P  P9  1  0.111310  0.701382  0.000000  1
  P  P10  1  0.398020  0.120121  0.500000  1
  P  P11  1  0.877631  0.276423  0.500000  1
  P  P12  1  0.723429  0.605852  0.500000  1
  P  P13  1  0.996952  0.998947  0.000000  1
  Ir  Ir14  1  0.444415  0.388513  0.500000  1
  Ir  Ir15  1  0.611999  0.054683  0.500000  1
  Ir  Ir16  1  0.944556  0.555653  0.500000  1
  Rh  Rh17  1  0.065968  0.428865  0.000000  1
  Rh  Rh18  1  0.572213  0.637941  0.000000  1
  Rh  Rh19  1  0.363059  0.934144  0.000000  1
  Rh  Rh20  1  0.094950  0.222080  0.500000  1
