# generated using pymatgen
data_YbPr6PtCl12
_symmetry_space_group_name_H-M   'P 1'
_cell_length_a   9.33670709
_cell_length_b   9.33688497
_cell_length_c   9.33672820
_cell_angle_alpha   107.34106873
_cell_angle_beta   107.33820109
_cell_angle_gamma   107.33814593
_symmetry_Int_Tables_number   1
_chemical_formula_structural   YbPr6PtCl12
_chemical_formula_sum   'Yb1 Pr6 Pt1 Cl12'
_cell_volume   671.48426715
_cell_formula_units_Z   1
loop_
 _symmetry_equiv_pos_site_id
 _symmetry_equiv_pos_as_xyz
  1  'x, y, z'
loop_
 _atom_site_type_symbol
 _atom_site_label
 _atom_site_symmetry_multiplicity
 _atom_site_fract_x
 _atom_site_fract_y
 _atom_site_fract_z
 _atom_site_occupancy
  Yb  Yb0  1  0.500000  0.500000  0.500000  1
  Pr  Pr1  1  0.117030  0.327614  0.026056  1
  Pr  Pr2  1  0.327616  0.026053  0.117037  1
  Pr  Pr3  1  0.026055  0.117043  0.327623  1
  Pr  Pr4  1  0.973946  0.882957  0.672378  1
  Pr  Pr5  1  0.672384  0.973948  0.882963  1
  Pr  Pr6  1  0.882970  0.672386  0.973944  1
  Pt  Pt7  1  0.000000  0.000000  0.000000  1
  Cl  Cl8  1  0.211184  0.686223  0.072085  1
  Cl  Cl9  1  0.457630  0.377066  0.178671  1
  Cl  Cl10  1  0.686220  0.072094  0.211185  1
  Cl  Cl11  1  0.927894  0.788826  0.313768  1
  Cl  Cl12  1  0.178682  0.457645  0.377088  1
  Cl  Cl13  1  0.377077  0.178686  0.457650  1
  Cl  Cl14  1  0.622923  0.821314  0.542351  1
  Cl  Cl15  1  0.821319  0.542355  0.622912  1
  Cl  Cl16  1  0.072107  0.211174  0.686233  1
  Cl  Cl17  1  0.313781  0.927907  0.788815  1
  Cl  Cl18  1  0.542370  0.622934  0.821330  1
  Cl  Cl19  1  0.788816  0.313777  0.927915  1
