# generated using pymatgen
data_Rb2NaAsO4
_symmetry_space_group_name_H-M   'P 1'
_cell_length_a   6.11185200
_cell_length_b   6.03311792
_cell_length_c   8.05559193
_cell_angle_alpha   87.13113888
_cell_angle_beta   90.00000000
_cell_angle_gamma   90.00000000
_symmetry_Int_Tables_number   1
_chemical_formula_structural   Rb2NaAsO4
_chemical_formula_sum   'Rb4 Na2 As2 O8'
_cell_volume   296.66578481
_cell_formula_units_Z   2
loop_
 _symmetry_equiv_pos_site_id
 _symmetry_equiv_pos_as_xyz
  1  'x, y, z'
loop_
 _atom_site_type_symbol
 _atom_site_label
 _atom_site_symmetry_multiplicity
 _atom_site_fract_x
 _atom_site_fract_y
 _atom_site_fract_z
 _atom_site_occupancy
  Rb  Rb0  1  0.750000  0.200923  0.514130  1
  Rb  Rb1  1  0.250000  0.799077  0.485870  1
  Rb  Rb2  1  0.250000  0.353071  0.182279  1
  Rb  Rb3  1  0.750000  0.646929  0.817721  1
  Na  Na4  1  0.250000  0.868201  0.972722  1
  Na  Na5  1  0.750000  0.131799  0.027278  1
  As  As6  1  0.750000  0.704492  0.252035  1
  As  As7  1  0.250000  0.295508  0.747965  1
  O  O8  1  0.977956  0.844056  0.172621  1
  O  O9  1  0.477956  0.155944  0.827379  1
  O  O10  1  0.022044  0.155944  0.827379  1
  O  O11  1  0.522044  0.844056  0.172621  1
  O  O12  1  0.250000  0.564560  0.813297  1
  O  O13  1  0.250000  0.294545  0.533494  1
  O  O14  1  0.750000  0.435440  0.186703  1
  O  O15  1  0.750000  0.705455  0.466506  1
