# generated using pymatgen
data_Nd5NiRuO12
_symmetry_space_group_name_H-M   'P 1'
_cell_length_a   7.02767994
_cell_length_b   7.02768144
_cell_length_c   7.58546082
_cell_angle_alpha   74.38263396
_cell_angle_beta   74.38262984
_cell_angle_gamma   51.09967839
_symmetry_Int_Tables_number   1
_chemical_formula_structural   Nd5NiRuO12
_chemical_formula_sum   'Nd5 Ni1 Ru1 O12'
_cell_volume   278.27207548
_cell_formula_units_Z   1
loop_
 _symmetry_equiv_pos_site_id
 _symmetry_equiv_pos_as_xyz
  1  'x, y, z'
loop_
 _atom_site_type_symbol
 _atom_site_label
 _atom_site_symmetry_multiplicity
 _atom_site_fract_x
 _atom_site_fract_y
 _atom_site_fract_z
 _atom_site_occupancy
  Nd  Nd0  1  0.688703  0.694410  0.666275  1
  Nd  Nd1  1  0.679895  0.706152  0.143837  1
  Nd  Nd2  1  0.989922  0.010078  0.000000  1
  Nd  Nd3  1  0.293848  0.320105  0.856163  1
  Nd  Nd4  1  0.305590  0.311297  0.333725  1
  Ni  Ni5  1  0.257456  0.742544  0.500000  1
  Ru  Ru6  1  0.769647  0.230353  0.500000  1
  O  O7  1  0.396543  0.913332  0.920661  1
  O  O8  1  0.583431  0.102050  0.579082  1
  O  O9  1  0.897950  0.416569  0.420918  1
  O  O10  1  0.086668  0.603457  0.079339  1
  O  O11  1  0.994255  0.007056  0.326012  1
  O  O12  1  0.526592  0.474797  0.676862  1
  O  O13  1  0.895790  0.409243  0.925527  1
  O  O14  1  0.101058  0.576252  0.578369  1
  O  O15  1  0.423748  0.898942  0.421631  1
  O  O16  1  0.590757  0.104210  0.074473  1
  O  O17  1  0.525203  0.473408  0.323138  1
  O  O18  1  0.992944  0.005745  0.673988  1
