# generated using pymatgen
data_NdDy3(SiAu2)8
_symmetry_space_group_name_H-M   'P 1'
_cell_length_a   4.41879300
_cell_length_b   4.41986100
_cell_length_c   27.07133400
_cell_angle_alpha   90.00000000
_cell_angle_beta   90.00000000
_cell_angle_gamma   90.00000000
_symmetry_Int_Tables_number   1
_chemical_formula_structural   NdDy3(SiAu2)8
_chemical_formula_sum   'Nd1 Dy3 Si8 Au16'
_cell_volume   528.71535807
_cell_formula_units_Z   1
loop_
 _symmetry_equiv_pos_site_id
 _symmetry_equiv_pos_as_xyz
  1  'x, y, z'
loop_
 _atom_site_type_symbol
 _atom_site_label
 _atom_site_symmetry_multiplicity
 _atom_site_fract_x
 _atom_site_fract_y
 _atom_site_fract_z
 _atom_site_occupancy
  Nd  Nd0  1  0.000000  0.500000  0.749622  1
  Dy  Dy1  1  0.500000  0.000000  0.250444  1
  Dy  Dy2  1  0.500000  0.500000  0.000109  1
  Dy  Dy3  1  0.500000  0.500000  0.499875  1
  Si  Si4  1  0.000000  0.000000  0.957109  1
  Si  Si5  1  0.000000  0.000000  0.456813  1
  Si  Si6  1  0.500000  0.000000  0.793527  1
  Si  Si7  1  0.500000  0.000000  0.705607  1
  Si  Si8  1  0.000000  0.500000  0.207243  1
  Si  Si9  1  0.000000  0.500000  0.293602  1
  Si  Si10  1  0.000000  0.000000  0.043285  1
  Si  Si11  1  0.000000  0.000000  0.542781  1
  Au  Au12  1  0.500000  0.000000  0.085867  1
  Au  Au13  1  0.500000  0.500000  0.661304  1
  Au  Au14  1  0.500000  0.500000  0.837918  1
  Au  Au15  1  0.000000  0.500000  0.085184  1
  Au  Au16  1  0.500000  0.000000  0.915455  1
  Au  Au17  1  0.000000  0.000000  0.662359  1
  Au  Au18  1  0.000000  0.500000  0.415234  1
  Au  Au19  1  0.500000  0.500000  0.336546  1
  Au  Au20  1  0.500000  0.000000  0.414506  1
  Au  Au21  1  0.000000  0.000000  0.335340  1
  Au  Au22  1  0.000000  0.000000  0.165483  1
  Au  Au23  1  0.500000  0.000000  0.584117  1
  Au  Au24  1  0.000000  0.000000  0.836812  1
  Au  Au25  1  0.500000  0.500000  0.164275  1
  Au  Au26  1  0.000000  0.500000  0.584965  1
  Au  Au27  1  0.000000  0.500000  0.914616  1
