# generated using pymatgen
data_Er4Ga20Ni11
_symmetry_space_group_name_H-M   'P 1'
_cell_length_a   4.06143372
_cell_length_b   10.54787898
_cell_length_c   13.00094106
_cell_angle_alpha   80.47912536
_cell_angle_beta   80.77482535
_cell_angle_gamma   78.76225949
_symmetry_Int_Tables_number   1
_chemical_formula_structural   Er4Ga20Ni11
_chemical_formula_sum   'Er4 Ga20 Ni11'
_cell_volume   534.00723093
_cell_formula_units_Z   1
loop_
 _symmetry_equiv_pos_site_id
 _symmetry_equiv_pos_as_xyz
  1  'x, y, z'
loop_
 _atom_site_type_symbol
 _atom_site_label
 _atom_site_symmetry_multiplicity
 _atom_site_fract_x
 _atom_site_fract_y
 _atom_site_fract_z
 _atom_site_occupancy
  Er  Er0  1  0.122145  0.095873  0.665212  1
  Er  Er1  1  0.231841  0.366241  0.177635  1
  Er  Er2  1  0.773145  0.633835  0.821531  1
  Er  Er3  1  0.882972  0.904060  0.334151  1
  Ga  Ga4  1  0.067705  0.666424  0.202564  1
  Ga  Ga5  1  0.299332  0.901901  0.502208  1
  Ga  Ga6  1  0.608125  0.792451  0.003080  1
  Ga  Ga7  1  0.249228  0.796755  0.704605  1
  Ga  Ga8  1  0.889889  0.670954  0.548142  1
  Ga  Ga9  1  0.755560  0.203234  0.294810  1
  Ga  Ga10  1  0.633850  0.940804  0.801318  1
  Ga  Ga11  1  0.705421  0.097959  0.497161  1
  Ga  Ga12  1  0.397795  0.207820  0.996207  1
  Ga  Ga13  1  0.937067  0.334001  0.796454  1
  Ga  Ga14  1  0.461887  0.704457  0.376795  1
  Ga  Ga15  1  0.994901  0.922181  0.090734  1
  Ga  Ga16  1  0.802969  0.399499  0.003204  1
  Ga  Ga17  1  0.542999  0.295442  0.622418  1
  Ga  Ga18  1  0.010730  0.078222  0.908573  1
  Ga  Ga19  1  0.202060  0.600748  0.995960  1
  Ga  Ga20  1  0.114223  0.329068  0.450841  1
  Ga  Ga21  1  0.371694  0.059379  0.198208  1
  Ga  Ga22  1  0.615442  0.470195  0.306857  1
  Ga  Ga23  1  0.389706  0.529831  0.691901  1
  Ni  Ni24  1  0.139917  0.838531  0.894415  1
  Ni  Ni25  1  0.505969  0.182842  0.811593  1
  Ni  Ni26  1  0.865907  0.161818  0.104824  1
  Ni  Ni27  1  0.975114  0.436997  0.612602  1
  Ni  Ni28  1  0.502972  0.499403  0.499198  1
  Ni  Ni29  1  0.654314  0.579183  0.114811  1
  Ni  Ni30  1  0.029158  0.563210  0.386245  1
  Ni  Ni31  1  0.350519  0.421111  0.884289  1
  Ni  Ni32  1  0.251537  0.118822  0.386300  1
  Ni  Ni33  1  0.499595  0.817500  0.187689  1
  Ni  Ni34  1  0.753118  0.881172  0.613106  1
