# generated using pymatgen
data_Hf4Ti3Re3Ir2
_symmetry_space_group_name_H-M   'P 1'
_cell_length_a   5.41699800
_cell_length_b   5.26606464
_cell_length_c   8.57938200
_cell_angle_alpha   90.00000000
_cell_angle_beta   90.00000000
_cell_angle_gamma   120.95271951
_symmetry_Int_Tables_number   1
_chemical_formula_structural   Hf4Ti3Re3Ir2
_chemical_formula_sum   'Hf4 Ti3 Re3 Ir2'
_cell_volume   209.88509409
_cell_formula_units_Z   1
loop_
 _symmetry_equiv_pos_site_id
 _symmetry_equiv_pos_as_xyz
  1  'x, y, z'
loop_
 _atom_site_type_symbol
 _atom_site_label
 _atom_site_symmetry_multiplicity
 _atom_site_fract_x
 _atom_site_fract_y
 _atom_site_fract_z
 _atom_site_occupancy
  Hf  Hf0  1  0.336233  0.672466  0.059997  1
  Hf  Hf1  1  0.666686  0.333369  0.567249  1
  Hf  Hf2  1  0.666686  0.333369  0.932751  1
  Hf  Hf3  1  0.336233  0.672466  0.440003  1
  Ti  Ti4  1  0.004217  0.008433  0.006921  1
  Ti  Ti5  1  0.004217  0.008433  0.493079  1
  Ti  Ti6  1  0.819606  0.639213  0.250000  1
  Re  Re7  1  0.168634  0.832366  0.750000  1
  Re  Re8  1  0.663733  0.832366  0.750000  1
  Re  Re9  1  0.171387  0.342773  0.750000  1
  Ir  Ir10  1  0.334853  0.162373  0.250000  1
  Ir  Ir11  1  0.827519  0.162373  0.250000  1
