# generated using pymatgen
data_Cr9GaO24
_symmetry_space_group_name_H-M   'P 1'
_cell_length_a   9.25625905
_cell_length_b   9.25642924
_cell_length_c   9.25622500
_cell_angle_alpha   58.57409849
_cell_angle_beta   58.57468797
_cell_angle_gamma   58.57403153
_symmetry_Int_Tables_number   1
_chemical_formula_structural   Cr9GaO24
_chemical_formula_sum   'Cr9 Ga1 O24'
_cell_volume   542.50466643
_cell_formula_units_Z   1
loop_
 _symmetry_equiv_pos_site_id
 _symmetry_equiv_pos_as_xyz
  1  'x, y, z'
loop_
 _atom_site_type_symbol
 _atom_site_label
 _atom_site_symmetry_multiplicity
 _atom_site_fract_x
 _atom_site_fract_y
 _atom_site_fract_z
 _atom_site_occupancy
  Cr  Cr0  1  0.142314  0.142331  0.142311  1
  Cr  Cr1  1  0.357920  0.357914  0.357918  1
  Cr  Cr2  1  0.642550  0.642544  0.642542  1
  Cr  Cr3  1  0.035065  0.750815  0.464647  1
  Cr  Cr4  1  0.464652  0.035054  0.750815  1
  Cr  Cr5  1  0.750818  0.464660  0.035054  1
  Cr  Cr6  1  0.250854  0.535061  0.963681  1
  Cr  Cr7  1  0.535068  0.963675  0.250866  1
  Cr  Cr8  1  0.963668  0.250869  0.535067  1
  Ga  Ga9  1  0.858814  0.858814  0.858813  1
  O  O10  1  0.140345  0.284672  0.500673  1
  O  O11  1  0.284658  0.500651  0.140365  1
  O  O12  1  0.060503  0.931773  0.281171  1
  O  O13  1  0.500668  0.140348  0.284679  1
  O  O14  1  0.220440  0.572690  0.433533  1
  O  O15  1  0.002194  0.779807  0.643847  1
  O  O16  1  0.281170  0.060499  0.931768  1
  O  O17  1  0.433540  0.220432  0.572690  1
  O  O18  1  0.572694  0.433539  0.220428  1
  O  O19  1  0.221294  0.356263  0.996845  1
  O  O20  1  0.069288  0.718809  0.938072  1
  O  O21  1  0.356265  0.996854  0.221296  1
  O  O22  1  0.643855  0.002168  0.779811  1
  O  O23  1  0.931766  0.281174  0.060502  1
  O  O24  1  0.779821  0.643852  0.002180  1
  O  O25  1  0.430480  0.562181  0.779333  1
  O  O26  1  0.562186  0.779309  0.430486  1
  O  O27  1  0.718811  0.938070  0.069301  1
  O  O28  1  0.996850  0.221305  0.356260  1
  O  O29  1  0.779307  0.430492  0.562182  1
  O  O30  1  0.496910  0.857326  0.719825  1
  O  O31  1  0.938065  0.069301  0.718810  1
  O  O32  1  0.719835  0.496919  0.857319  1
  O  O33  1  0.857330  0.719831  0.496905  1
