# generated using pymatgen
data_U5Nb3(P3Ru4)4
_symmetry_space_group_name_H-M   'P 1'
_cell_length_a   12.75162509
_cell_length_b   12.75256155
_cell_length_c   3.89549400
_cell_angle_alpha   89.99997754
_cell_angle_beta   89.99994608
_cell_angle_gamma   120.00797323
_symmetry_Int_Tables_number   1
_chemical_formula_structural   U5Nb3(P3Ru4)4
_chemical_formula_sum   'U5 Nb3 P12 Ru16'
_cell_volume   548.55633763
_cell_formula_units_Z   1
loop_
 _symmetry_equiv_pos_site_id
 _symmetry_equiv_pos_as_xyz
  1  'x, y, z'
loop_
 _atom_site_type_symbol
 _atom_site_label
 _atom_site_symmetry_multiplicity
 _atom_site_fract_x
 _atom_site_fract_y
 _atom_site_fract_z
 _atom_site_occupancy
  U  U0  1  0.186581  0.186544  0.500000  1
  U  U1  1  0.813527  0.000070  0.500000  1
  U  U2  1  0.999969  0.813431  0.500000  1
  U  U3  1  0.333314  0.666649  0.000002  1
  U  U4  1  0.666734  0.333339  0.999999  1
  Nb  Nb5  1  0.561488  0.561529  0.000000  1
  Nb  Nb6  1  0.438403  0.000041  0.000000  1
  Nb  Nb7  1  0.999959  0.438424  0.000000  1
  P  P8  1  0.820749  0.820542  0.000000  1
  P  P9  1  0.179375  0.000120  0.000000  1
  P  P10  1  0.000027  0.179395  0.000000  1
  P  P11  1  0.166963  0.477249  0.500000  1
  P  P12  1  0.522713  0.689699  0.500000  1
  P  P13  1  0.310306  0.833045  0.500000  1
  P  P14  1  0.689802  0.522749  0.500000  1
  P  P15  1  0.832922  0.310066  0.500000  1
  P  P16  1  0.477232  0.167123  0.500000  1
  P  P17  1  0.365358  0.365374  0.000000  1
  P  P18  1  0.634600  0.999992  0.000000  1
  P  P19  1  0.000043  0.634684  0.000000  1
  Ru  Ru20  1  0.723953  0.723770  0.500000  1
  Ru  Ru21  1  0.276166  0.000129  0.500000  1
  Ru  Ru22  1  0.999912  0.276099  0.500000  1
  Ru  Ru23  1  0.181907  0.369796  0.000001  1
  Ru  Ru24  1  0.630264  0.812140  0.999999  1
  Ru  Ru25  1  0.187938  0.818172  0.000000  1
  Ru  Ru26  1  0.811827  0.629799  0.000000  1
  Ru  Ru27  1  0.817996  0.188071  0.999999  1
  Ru  Ru28  1  0.370100  0.182062  0.999999  1
  Ru  Ru29  1  0.359534  0.490775  0.500000  1
  Ru  Ru30  1  0.509282  0.868825  0.500000  1
  Ru  Ru31  1  0.131160  0.640454  0.500000  1
  Ru  Ru32  1  0.867957  0.508248  0.500001  1
  Ru  Ru33  1  0.640324  0.131987  0.500000  1
  Ru  Ru34  1  0.491639  0.359674  0.499999  1
  Ru  Ru35  1  0.999979  0.999937  0.000000  1
