# generated using pymatgen
data_Y8MgHg3Pd8
_symmetry_space_group_name_H-M   'P 1'
_cell_length_a   7.76161000
_cell_length_b   7.76161000
_cell_length_c   7.40983600
_cell_angle_alpha   90.00000000
_cell_angle_beta   90.00000000
_cell_angle_gamma   90.00000000
_symmetry_Int_Tables_number   1
_chemical_formula_structural   Y8MgHg3Pd8
_chemical_formula_sum   'Y8 Mg1 Hg3 Pd8'
_cell_volume   446.38771057
_cell_formula_units_Z   1
loop_
 _symmetry_equiv_pos_site_id
 _symmetry_equiv_pos_as_xyz
  1  'x, y, z'
loop_
 _atom_site_type_symbol
 _atom_site_label
 _atom_site_symmetry_multiplicity
 _atom_site_fract_x
 _atom_site_fract_y
 _atom_site_fract_z
 _atom_site_occupancy
  Y  Y0  1  0.816018  0.156677  0.500318  1
  Y  Y1  1  0.183982  0.843323  0.500318  1
  Y  Y2  1  0.343323  0.316018  0.999682  1
  Y  Y3  1  0.656677  0.683982  0.999682  1
  Y  Y4  1  0.658629  0.686957  0.500503  1
  Y  Y5  1  0.341371  0.313043  0.500503  1
  Y  Y6  1  0.186957  0.841371  0.999497  1
  Y  Y7  1  0.813043  0.158629  0.999497  1
  Mg  Mg8  1  0.000000  0.500000  0.250000  1
  Hg  Hg9  1  0.500000  0.000000  0.250000  1
  Hg  Hg10  1  0.000000  0.500000  0.750000  1
  Hg  Hg11  1  0.500000  0.000000  0.750000  1
  Pd  Pd12  1  0.645102  0.386138  0.253143  1
  Pd  Pd13  1  0.354898  0.613862  0.253143  1
  Pd  Pd14  1  0.117430  0.138827  0.752982  1
  Pd  Pd15  1  0.882570  0.861173  0.752982  1
  Pd  Pd16  1  0.361173  0.617430  0.747018  1
  Pd  Pd17  1  0.638827  0.382570  0.747018  1
  Pd  Pd18  1  0.886138  0.854898  0.246857  1
  Pd  Pd19  1  0.113862  0.145102  0.246857  1
