# generated using pymatgen
data_Tb3HoTlRu
_symmetry_space_group_name_H-M   'P 1'
_cell_length_a   9.64056681
_cell_length_b   9.64056676
_cell_length_c   9.64056700
_cell_angle_alpha   60.00000261
_cell_angle_beta   60.00000278
_cell_angle_gamma   60.00000169
_symmetry_Int_Tables_number   1
_chemical_formula_structural   Tb3HoTlRu
_chemical_formula_sum   'Tb12 Ho4 Tl4 Ru4'
_cell_volume   633.56727635
_cell_formula_units_Z   4
loop_
 _symmetry_equiv_pos_site_id
 _symmetry_equiv_pos_as_xyz
  1  'x, y, z'
loop_
 _atom_site_type_symbol
 _atom_site_label
 _atom_site_symmetry_multiplicity
 _atom_site_fract_x
 _atom_site_fract_y
 _atom_site_fract_z
 _atom_site_occupancy
  Tb  Tb0  1  0.556887  0.556816  0.942636  1
  Tb  Tb1  1  0.943448  0.555708  0.943445  1
  Tb  Tb2  1  0.555500  0.943577  0.943593  1
  Tb  Tb3  1  0.943671  0.943655  0.555473  1
  Tb  Tb4  1  0.557031  0.942510  0.557020  1
  Tb  Tb5  1  0.942617  0.556852  0.556929  1
  Tb  Tb6  1  0.191743  0.191752  0.808332  1
  Tb  Tb7  1  0.807707  0.191309  0.807849  1
  Tb  Tb8  1  0.191253  0.807815  0.807924  1
  Tb  Tb9  1  0.807859  0.807877  0.191252  1
  Tb  Tb10  1  0.191874  0.808116  0.191838  1
  Tb  Tb11  1  0.808253  0.191769  0.191744  1
  Ho  Ho12  1  0.347015  0.347143  0.959848  1
  Ho  Ho13  1  0.347257  0.959729  0.347072  1
  Ho  Ho14  1  0.959719  0.347236  0.346910  1
  Ho  Ho15  1  0.348077  0.347969  0.347973  1
  Tl  Tl16  1  0.584991  0.584904  0.244913  1
  Tl  Tl17  1  0.584963  0.244887  0.584944  1
  Tl  Tl18  1  0.244894  0.584930  0.585028  1
  Tl  Tl19  1  0.584041  0.584201  0.583974  1
  Ru  Ru20  1  0.139252  0.139483  0.583209  1
  Ru  Ru21  1  0.139490  0.583202  0.139496  1
  Ru  Ru22  1  0.583177  0.139564  0.139330  1
  Ru  Ru23  1  0.139282  0.138999  0.139271  1
