# generated using pymatgen
data_HfZr9Sn2(Bi2B)2
_symmetry_space_group_name_H-M   'P 1'
_cell_length_a   8.64924200
_cell_length_b   8.64924301
_cell_length_c   5.86028900
_cell_angle_alpha   90.00000000
_cell_angle_beta   90.00000000
_cell_angle_gamma   119.73664577
_symmetry_Int_Tables_number   1
_chemical_formula_structural   HfZr9Sn2(Bi2B)2
_chemical_formula_sum   'Hf1 Zr9 Sn2 Bi4 B2'
_cell_volume   380.67311735
_cell_formula_units_Z   1
loop_
 _symmetry_equiv_pos_site_id
 _symmetry_equiv_pos_as_xyz
  1  'x, y, z'
loop_
 _atom_site_type_symbol
 _atom_site_label
 _atom_site_symmetry_multiplicity
 _atom_site_fract_x
 _atom_site_fract_y
 _atom_site_fract_z
 _atom_site_occupancy
  Hf  Hf0  1  0.223060  0.223060  0.250000  1
  Zr  Zr1  1  0.667129  0.331411  0.003391  1
  Zr  Zr2  1  0.331411  0.667129  0.003391  1
  Zr  Zr3  1  0.331411  0.667129  0.496609  1
  Zr  Zr4  1  0.667129  0.331411  0.496609  1
  Zr  Zr5  1  0.773841  0.773841  0.750000  1
  Zr  Zr6  1  0.227713  0.999339  0.750000  1
  Zr  Zr7  1  0.999339  0.227713  0.750000  1
  Zr  Zr8  1  0.772570  0.005333  0.250000  1
  Zr  Zr9  1  0.005333  0.772570  0.250000  1
  Sn  Sn10  1  0.398793  0.001405  0.250000  1
  Sn  Sn11  1  0.001405  0.398793  0.250000  1
  Bi  Bi12  1  0.398355  0.398355  0.750000  1
  Bi  Bi13  1  0.597523  0.999454  0.750000  1
  Bi  Bi14  1  0.999454  0.597523  0.750000  1
  Bi  Bi15  1  0.603886  0.603886  0.250000  1
  B  B16  1  0.000823  0.000823  0.001255  1
  B  B17  1  0.000823  0.000823  0.498745  1
