# generated using pymatgen
data_La9Yb7(CdRh)4
_symmetry_space_group_name_H-M   'P 1'
_cell_length_a   10.07096254
_cell_length_b   10.07096284
_cell_length_c   10.04719400
_cell_angle_alpha   60.07804200
_cell_angle_beta   60.07804102
_cell_angle_gamma   60.57565999
_symmetry_Int_Tables_number   1
_chemical_formula_structural   La9Yb7(CdRh)4
_chemical_formula_sum   'La9 Yb7 Cd4 Rh4'
_cell_volume   724.50503499
_cell_formula_units_Z   1
loop_
 _symmetry_equiv_pos_site_id
 _symmetry_equiv_pos_as_xyz
  1  'x, y, z'
loop_
 _atom_site_type_symbol
 _atom_site_label
 _atom_site_symmetry_multiplicity
 _atom_site_fract_x
 _atom_site_fract_y
 _atom_site_fract_z
 _atom_site_occupancy
  La  La0  1  0.347298  0.347298  0.347944  1
  La  La1  1  0.347298  0.347298  0.957461  1
  La  La2  1  0.349158  0.959267  0.345788  1
  La  La3  1  0.959267  0.349158  0.345788  1
  La  La4  1  0.805906  0.190064  0.192686  1
  La  La5  1  0.190064  0.805906  0.811344  1
  La  La6  1  0.190064  0.805906  0.192686  1
  La  La7  1  0.805906  0.190064  0.811344  1
  La  La8  1  0.191585  0.191585  0.808415  1
  Yb  Yb9  1  0.806121  0.806121  0.193879  1
  Yb  Yb10  1  0.938760  0.559569  0.561565  1
  Yb  Yb11  1  0.559569  0.938760  0.940107  1
  Yb  Yb12  1  0.559569  0.938760  0.561565  1
  Yb  Yb13  1  0.938760  0.559569  0.940107  1
  Yb  Yb14  1  0.558783  0.558783  0.941217  1
  Yb  Yb15  1  0.941860  0.941860  0.558140  1
  Cd  Cd16  1  0.580647  0.580647  0.578289  1
  Cd  Cd17  1  0.580647  0.580647  0.260417  1
  Cd  Cd18  1  0.581713  0.259318  0.579483  1
  Cd  Cd19  1  0.259318  0.581713  0.579483  1
  Rh  Rh20  1  0.139119  0.139119  0.141004  1
  Rh  Rh21  1  0.139119  0.139119  0.580760  1
  Rh  Rh22  1  0.149323  0.580150  0.135263  1
  Rh  Rh23  1  0.580150  0.149323  0.135263  1
