# generated using pymatgen
data_La6Mg3ZnPt13
_symmetry_space_group_name_H-M   'P 1'
_cell_length_a   8.52492862
_cell_length_b   8.52492944
_cell_length_c   8.54983900
_cell_angle_alpha   109.53042683
_cell_angle_beta   109.53042879
_cell_angle_gamma   109.41194904
_symmetry_Int_Tables_number   1
_chemical_formula_structural   La6Mg3ZnPt13
_chemical_formula_sum   'La6 Mg3 Zn1 Pt13'
_cell_volume   477.96899872
_cell_formula_units_Z   1
loop_
 _symmetry_equiv_pos_site_id
 _symmetry_equiv_pos_as_xyz
  1  'x, y, z'
loop_
 _atom_site_type_symbol
 _atom_site_label
 _atom_site_symmetry_multiplicity
 _atom_site_fract_x
 _atom_site_fract_y
 _atom_site_fract_z
 _atom_site_occupancy
  La  La0  1  0.697213  0.697213  0.003085  1
  La  La1  1  0.302787  0.000000  0.305871  1
  La  La2  1  0.000000  0.302787  0.305871  1
  La  La3  1  0.302787  0.302787  0.996915  1
  La  La4  1  0.697213  0.000000  0.694129  1
  La  La5  1  0.000000  0.697213  0.694129  1
  Mg  Mg6  1  0.000000  0.500000  0.000000  1
  Mg  Mg7  1  0.500000  0.000000  0.000000  1
  Mg  Mg8  1  0.500000  0.500000  0.500000  1
  Zn  Zn9  1  0.000000  0.000000  0.500000  1
  Pt  Pt10  1  0.328869  0.328869  0.659232  1
  Pt  Pt11  1  0.671131  0.000000  0.330362  1
  Pt  Pt12  1  0.000000  0.671131  0.330362  1
  Pt  Pt13  1  0.669930  0.330070  0.000000  1
  Pt  Pt14  1  0.330070  0.660141  0.330070  1
  Pt  Pt15  1  0.000000  0.328869  0.669638  1
  Pt  Pt16  1  0.330070  0.669930  0.000000  1
  Pt  Pt17  1  0.328869  0.000000  0.669638  1
  Pt  Pt18  1  0.660141  0.330070  0.330070  1
  Pt  Pt19  1  0.671131  0.671131  0.340768  1
  Pt  Pt20  1  0.669930  0.339859  0.669930  1
  Pt  Pt21  1  0.339859  0.669930  0.669930  1
  Pt  Pt22  1  0.000000  0.000000  0.000000  1
