# generated using pymatgen
data_Dy3YN4
_symmetry_space_group_name_H-M   'P 1'
_cell_length_a   6.01924293
_cell_length_b   6.01924332
_cell_length_c   6.01924380
_cell_angle_alpha   131.79822530
_cell_angle_beta   131.79822962
_cell_angle_gamma   70.54789639
_symmetry_Int_Tables_number   1
_chemical_formula_structural   Dy3YN4
_chemical_formula_sum   'Dy3 Y1 N4'
_cell_volume   118.75240618
_cell_formula_units_Z   1
loop_
 _symmetry_equiv_pos_site_id
 _symmetry_equiv_pos_as_xyz
  1  'x, y, z'
loop_
 _atom_site_type_symbol
 _atom_site_label
 _atom_site_symmetry_multiplicity
 _atom_site_fract_x
 _atom_site_fract_y
 _atom_site_fract_z
 _atom_site_occupancy
  Dy  Dy0  1  0.250000  0.750000  0.500000  1
  Dy  Dy1  1  0.500000  0.500000  0.000000  1
  Dy  Dy2  1  0.750000  0.250000  0.500000  1
  Y  Y3  1  0.000000  0.000000  0.000000  1
  N  N4  1  0.000000  0.500000  0.500000  1
  N  N5  1  0.250546  0.250546  0.000000  1
  N  N6  1  0.500000  0.000000  0.500000  1
  N  N7  1  0.749454  0.749454  0.000000  1
