# generated using pymatgen
data_DyLu15(Ga3Ir)2
_symmetry_space_group_name_H-M   'P 1'
_cell_length_a   9.85117300
_cell_length_b   9.85117355
_cell_length_c   6.88560900
_cell_angle_alpha   90.00000000
_cell_angle_beta   90.00000000
_cell_angle_gamma   119.99999479
_symmetry_Int_Tables_number   1
_chemical_formula_structural   DyLu15(Ga3Ir)2
_chemical_formula_sum   'Dy1 Lu15 Ga6 Ir2'
_cell_volume   578.69393168
_cell_formula_units_Z   1
loop_
 _symmetry_equiv_pos_site_id
 _symmetry_equiv_pos_as_xyz
  1  'x, y, z'
loop_
 _atom_site_type_symbol
 _atom_site_label
 _atom_site_symmetry_multiplicity
 _atom_site_fract_x
 _atom_site_fract_y
 _atom_site_fract_z
 _atom_site_occupancy
  Dy  Dy0  1  0.000000  0.000000  0.733293  1
  Lu  Lu1  1  0.171428  0.828572  0.509585  1
  Lu  Lu2  1  0.657145  0.828572  0.509585  1
  Lu  Lu3  1  0.171428  0.342855  0.509585  1
  Lu  Lu4  1  0.828557  0.171443  0.011037  1
  Lu  Lu5  1  0.342884  0.171443  0.011037  1
  Lu  Lu6  1  0.828557  0.657116  0.011037  1
  Lu  Lu7  1  0.333333  0.666667  0.837917  1
  Lu  Lu8  1  0.666667  0.333333  0.336979  1
  Lu  Lu9  1  0.465681  0.534319  0.205525  1
  Lu  Lu10  1  0.068637  0.534319  0.205525  1
  Lu  Lu11  1  0.465681  0.931363  0.205525  1
  Lu  Lu12  1  0.534328  0.465672  0.705619  1
  Lu  Lu13  1  0.931346  0.465672  0.705619  1
  Lu  Lu14  1  0.534328  0.068654  0.705619  1
  Lu  Lu15  1  0.000000  0.000000  0.234612  1
  Ga  Ga16  1  0.163907  0.836093  0.958808  1
  Ga  Ga17  1  0.672186  0.836093  0.958808  1
  Ga  Ga18  1  0.163907  0.327814  0.958808  1
  Ga  Ga19  1  0.836215  0.163785  0.456995  1
  Ga  Ga20  1  0.327570  0.163785  0.456995  1
  Ga  Ga21  1  0.836215  0.672430  0.456995  1
  Ir  Ir22  1  0.333333  0.666667  0.445263  1
  Ir  Ir23  1  0.666667  0.333333  0.944062  1
