# generated using pymatgen
data_Pr16Nd4(Ir3Pt)3
_symmetry_space_group_name_H-M   'P 1'
_cell_length_a   11.42334501
_cell_length_b   11.42333840
_cell_length_c   6.58067233
_cell_angle_alpha   89.91942759
_cell_angle_beta   89.91945022
_cell_angle_gamma   90.13356783
_symmetry_Int_Tables_number   1
_chemical_formula_structural   Pr16Nd4(Ir3Pt)3
_chemical_formula_sum   'Pr16 Nd4 Ir9 Pt3'
_cell_volume   858.72590052
_cell_formula_units_Z   1
loop_
 _symmetry_equiv_pos_site_id
 _symmetry_equiv_pos_as_xyz
  1  'x, y, z'
loop_
 _atom_site_type_symbol
 _atom_site_label
 _atom_site_symmetry_multiplicity
 _atom_site_fract_x
 _atom_site_fract_y
 _atom_site_fract_z
 _atom_site_occupancy
  Pr  Pr0  1  0.086447  0.289858  0.117214  1
  Pr  Pr1  1  0.792436  0.406012  0.117103  1
  Pr  Pr2  1  0.207864  0.589124  0.116676  1
  Pr  Pr3  1  0.910059  0.707332  0.116782  1
  Pr  Pr4  1  0.410876  0.792137  0.383326  1
  Pr  Pr5  1  0.593988  0.207563  0.382898  1
  Pr  Pr6  1  0.292669  0.089941  0.383218  1
  Pr  Pr7  1  0.710141  0.913554  0.382786  1
  Pr  Pr8  1  0.410857  0.205998  0.877209  1
  Pr  Pr9  1  0.708205  0.091673  0.883105  1
  Pr  Pr10  1  0.293542  0.911100  0.878546  1
  Pr  Pr11  1  0.590190  0.794969  0.876507  1
  Pr  Pr12  1  0.088900  0.706460  0.621454  1
  Pr  Pr13  1  0.908327  0.291793  0.616895  1
  Pr  Pr14  1  0.205032  0.409810  0.623493  1
  Pr  Pr15  1  0.794001  0.589143  0.622791  1
  Nd  Nd16  1  0.998136  0.001092  0.998408  1
  Nd  Nd17  1  0.500443  0.500226  0.998441  1
  Nd  Nd18  1  0.499773  0.499556  0.501559  1
  Nd  Nd19  1  0.998908  0.001864  0.501592  1
  Ir  Ir20  1  0.847363  0.152638  0.250000  1
  Ir  Ir21  1  0.348425  0.651575  0.749999  1
  Ir  Ir22  1  0.153732  0.152190  0.750171  1
  Ir  Ir23  1  0.847810  0.846267  0.749829  1
  Ir  Ir24  1  0.650847  0.349153  0.750000  1
  Ir  Ir25  1  0.000373  0.501067  0.377386  1
  Ir  Ir26  1  0.498933  0.999627  0.122613  1
  Ir  Ir27  1  0.499570  0.999332  0.618107  1
  Ir  Ir28  1  0.000668  0.500431  0.881892  1
  Pt  Pt29  1  0.153039  0.846961  0.250000  1
  Pt  Pt30  1  0.345541  0.347097  0.249670  1
  Pt  Pt31  1  0.652903  0.654459  0.250330  1
