# generated using pymatgen
data_Ce8Cu3Si12Tc
_symmetry_space_group_name_H-M   'P 1'
_cell_length_a   8.15869900
_cell_length_b   8.15869997
_cell_length_c   8.29934800
_cell_angle_alpha   90.00000000
_cell_angle_beta   90.00000000
_cell_angle_gamma   119.99999203
_symmetry_Int_Tables_number   1
_chemical_formula_structural   Ce8Cu3Si12Tc
_chemical_formula_sum   'Ce8 Cu3 Si12 Tc1'
_cell_volume   478.42791897
_cell_formula_units_Z   1
loop_
 _symmetry_equiv_pos_site_id
 _symmetry_equiv_pos_as_xyz
  1  'x, y, z'
loop_
 _atom_site_type_symbol
 _atom_site_label
 _atom_site_symmetry_multiplicity
 _atom_site_fract_x
 _atom_site_fract_y
 _atom_site_fract_z
 _atom_site_occupancy
  Ce  Ce0  1  0.000000  0.000000  0.251006  1
  Ce  Ce1  1  0.000000  0.000000  0.748976  1
  Ce  Ce2  1  0.496089  0.503911  0.243216  1
  Ce  Ce3  1  0.496089  0.992178  0.243216  1
  Ce  Ce4  1  0.007822  0.503911  0.243216  1
  Ce  Ce5  1  0.495534  0.504466  0.756831  1
  Ce  Ce6  1  0.495534  0.991068  0.756831  1
  Ce  Ce7  1  0.008932  0.504466  0.756831  1
  Cu  Cu8  1  0.333333  0.666667  0.499094  1
  Cu  Cu9  1  0.666667  0.333333  0.502698  1
  Cu  Cu10  1  0.666667  0.333333  0.998081  1
  Si  Si11  1  0.168145  0.831855  0.499693  1
  Si  Si12  1  0.168145  0.336292  0.499693  1
  Si  Si13  1  0.663708  0.831855  0.499693  1
  Si  Si14  1  0.831219  0.168781  0.500239  1
  Si  Si15  1  0.831219  0.662436  0.500239  1
  Si  Si16  1  0.337564  0.168781  0.500239  1
  Si  Si17  1  0.832304  0.167696  0.999595  1
  Si  Si18  1  0.832304  0.664607  0.999595  1
  Si  Si19  1  0.335393  0.167696  0.999595  1
  Si  Si20  1  0.163792  0.836208  0.000451  1
  Si  Si21  1  0.163792  0.327585  0.000451  1
  Si  Si22  1  0.672415  0.836208  0.000451  1
  Tc  Tc23  1  0.333333  0.666667  0.000077  1
