# generated using pymatgen
data_ErInFe3P7Ru9
_symmetry_space_group_name_H-M   'P 1'
_cell_length_a   9.31567300
_cell_length_b   9.31567271
_cell_length_c   3.80286500
_cell_angle_alpha   90.00000000
_cell_angle_beta   90.00000000
_cell_angle_gamma   119.99999654
_symmetry_Int_Tables_number   1
_chemical_formula_structural   ErInFe3P7Ru9
_chemical_formula_sum   'Er1 In1 Fe3 P7 Ru9'
_cell_volume   285.80512526
_cell_formula_units_Z   1
loop_
 _symmetry_equiv_pos_site_id
 _symmetry_equiv_pos_as_xyz
  1  'x, y, z'
loop_
 _atom_site_type_symbol
 _atom_site_label
 _atom_site_symmetry_multiplicity
 _atom_site_fract_x
 _atom_site_fract_y
 _atom_site_fract_z
 _atom_site_occupancy
  Er  Er0  1  0.000000  0.000000  0.000000  1
  In  In1  1  0.333333  0.666667  0.500000  1
  Fe  Fe2  1  0.808512  0.202248  0.000000  1
  Fe  Fe3  1  0.797752  0.606264  0.000000  1
  Fe  Fe4  1  0.393736  0.191488  0.000000  1
  P  P5  1  0.052958  0.421624  0.000000  1
  P  P6  1  0.578376  0.631333  0.000000  1
  P  P7  1  0.368667  0.947042  0.000000  1
  P  P8  1  0.778490  0.046031  0.500000  1
  P  P9  1  0.953969  0.732458  0.500000  1
  P  P10  1  0.267542  0.221510  0.500000  1
  P  P11  1  0.666667  0.333333  0.000000  1
  Ru  Ru12  1  0.114372  0.692841  0.000000  1
  Ru  Ru13  1  0.307159  0.421531  0.000000  1
  Ru  Ru14  1  0.578469  0.885628  0.000000  1
  Ru  Ru15  1  0.048812  0.274960  0.500000  1
  Ru  Ru16  1  0.725040  0.773852  0.500000  1
  Ru  Ru17  1  0.226148  0.951188  0.500000  1
  Ru  Ru18  1  0.875361  0.449096  0.500000  1
  Ru  Ru19  1  0.550904  0.426266  0.500000  1
  Ru  Ru20  1  0.573734  0.124639  0.500000  1
