# generated using pymatgen
data_DyEr2Cr(Co4P3)2
_symmetry_space_group_name_H-M   'P 1'
_cell_length_a   3.67976200
_cell_length_b   10.52838000
_cell_length_c   12.18358700
_cell_angle_alpha   90.00000000
_cell_angle_beta   90.00000000
_cell_angle_gamma   90.00000000
_symmetry_Int_Tables_number   1
_chemical_formula_structural   DyEr2Cr(Co4P3)2
_chemical_formula_sum   'Dy2 Er4 Cr2 Co16 P12'
_cell_volume   472.01570694
_cell_formula_units_Z   2
loop_
 _symmetry_equiv_pos_site_id
 _symmetry_equiv_pos_as_xyz
  1  'x, y, z'
loop_
 _atom_site_type_symbol
 _atom_site_label
 _atom_site_symmetry_multiplicity
 _atom_site_fract_x
 _atom_site_fract_y
 _atom_site_fract_z
 _atom_site_occupancy
  Dy  Dy0  1  0.000000  0.500000  0.523268  1
  Dy  Dy1  1  0.500000  0.000000  0.476732  1
  Er  Er2  1  0.500000  0.817972  0.204601  1
  Er  Er3  1  0.500000  0.182028  0.204601  1
  Er  Er4  1  0.000000  0.682028  0.795399  1
  Er  Er5  1  0.000000  0.317972  0.795399  1
  Cr  Cr6  1  0.500000  0.500000  0.156164  1
  Cr  Cr7  1  0.000000  0.000000  0.843836  1
  Co  Co8  1  0.500000  0.500000  0.702765  1
  Co  Co9  1  0.000000  0.000000  0.297235  1
  Co  Co10  1  0.000000  0.500000  0.986752  1
  Co  Co11  1  0.500000  0.000000  0.013248  1
  Co  Co12  1  0.500000  0.332533  0.992528  1
  Co  Co13  1  0.500000  0.667467  0.992528  1
  Co  Co14  1  0.000000  0.167467  0.007472  1
  Co  Co15  1  0.000000  0.832533  0.007472  1
  Co  Co16  1  0.500000  0.296176  0.430647  1
  Co  Co17  1  0.500000  0.703824  0.430647  1
  Co  Co18  1  0.000000  0.203824  0.569353  1
  Co  Co19  1  0.000000  0.796176  0.569353  1
  Co  Co20  1  0.500000  0.879048  0.708820  1
  Co  Co21  1  0.500000  0.120952  0.708820  1
  Co  Co22  1  0.000000  0.620952  0.291180  1
  Co  Co23  1  0.000000  0.379048  0.291180  1
  P  P24  1  0.500000  0.500000  0.881830  1
  P  P25  1  0.000000  0.000000  0.118170  1
  P  P26  1  0.500000  0.500000  0.344942  1
  P  P27  1  0.000000  0.000000  0.655058  1
  P  P28  1  0.500000  0.311318  0.616585  1
  P  P29  1  0.500000  0.688682  0.616585  1
  P  P30  1  0.000000  0.188682  0.383415  1
  P  P31  1  0.000000  0.811318  0.383415  1
  P  P32  1  0.500000  0.847208  0.891805  1
  P  P33  1  0.500000  0.152792  0.891805  1
  P  P34  1  0.000000  0.652792  0.108195  1
  P  P35  1  0.000000  0.347208  0.108195  1
