# generated using pymatgen
data_Tb4Ni2Hg3
_symmetry_space_group_name_H-M   'P 1'
_cell_length_a   3.64776500
_cell_length_b   7.36306473
_cell_length_c   8.00153921
_cell_angle_alpha   72.83723481
_cell_angle_beta   90.00000000
_cell_angle_gamma   90.00000000
_symmetry_Int_Tables_number   1
_chemical_formula_structural   Tb4Ni2Hg3
_chemical_formula_sum   'Tb4 Ni2 Hg3'
_cell_volume   205.34125653
_cell_formula_units_Z   1
loop_
 _symmetry_equiv_pos_site_id
 _symmetry_equiv_pos_as_xyz
  1  'x, y, z'
loop_
 _atom_site_type_symbol
 _atom_site_label
 _atom_site_symmetry_multiplicity
 _atom_site_fract_x
 _atom_site_fract_y
 _atom_site_fract_z
 _atom_site_occupancy
  Tb  Tb0  1  0.500000  0.606059  0.189746  1
  Tb  Tb1  1  0.500000  0.393941  0.810254  1
  Tb  Tb2  1  0.500000  0.083760  0.279959  1
  Tb  Tb3  1  0.500000  0.916240  0.720041  1
  Ni  Ni4  1  0.000000  0.655492  0.892461  1
  Ni  Ni5  1  0.000000  0.344508  0.107539  1
  Hg  Hg6  1  0.000000  0.706477  0.507046  1
  Hg  Hg7  1  0.000000  0.000000  0.000000  1
  Hg  Hg8  1  0.000000  0.293523  0.492954  1
