# generated using pymatgen
data_Dy5Mo3P12(IrRh3)4
_symmetry_space_group_name_H-M   'P 1'
_cell_length_a   12.71535000
_cell_length_b   12.71534903
_cell_length_c   3.94015300
_cell_angle_alpha   90.00000000
_cell_angle_beta   90.00000000
_cell_angle_gamma   120.00000252
_symmetry_Int_Tables_number   1
_chemical_formula_structural   Dy5Mo3P12(IrRh3)4
_chemical_formula_sum   'Dy5 Mo3 P12 Ir4 Rh12'
_cell_volume   551.69660545
_cell_formula_units_Z   1
loop_
 _symmetry_equiv_pos_site_id
 _symmetry_equiv_pos_as_xyz
  1  'x, y, z'
loop_
 _atom_site_type_symbol
 _atom_site_label
 _atom_site_symmetry_multiplicity
 _atom_site_fract_x
 _atom_site_fract_y
 _atom_site_fract_z
 _atom_site_occupancy
  Dy  Dy0  1  0.333333  0.666667  0.500000  1
  Dy  Dy1  1  0.666667  0.333333  0.500000  1
  Dy  Dy2  1  0.000000  0.812502  0.000000  1
  Dy  Dy3  1  0.187498  0.187498  0.000000  1
  Dy  Dy4  1  0.812502  0.000000  0.000000  1
  Mo  Mo5  1  0.000000  0.451547  0.500000  1
  Mo  Mo6  1  0.548453  0.548453  0.500000  1
  Mo  Mo7  1  0.451547  0.000000  0.500000  1
  P  P8  1  0.000000  0.637313  0.500000  1
  P  P9  1  0.362687  0.362687  0.500000  1
  P  P10  1  0.637313  0.000000  0.500000  1
  P  P11  1  0.516508  0.682349  0.000000  1
  P  P12  1  0.317651  0.834159  0.000000  1
  P  P13  1  0.165841  0.483492  0.000000  1
  P  P14  1  0.483492  0.165841  0.000000  1
  P  P15  1  0.682349  0.516508  0.000000  1
  P  P16  1  0.834159  0.317651  0.000000  1
  P  P17  1  0.000000  0.177165  0.500000  1
  P  P18  1  0.822835  0.822835  0.500000  1
  P  P19  1  0.177165  0.000000  0.500000  1
  Ir  Ir20  1  0.000000  0.283650  0.000000  1
  Ir  Ir21  1  0.716350  0.716350  0.000000  1
  Ir  Ir22  1  0.283650  0.000000  0.000000  1
  Ir  Ir23  1  0.000000  0.000000  0.500000  1
  Rh  Rh24  1  0.512497  0.868783  0.000000  1
  Rh  Rh25  1  0.131217  0.643715  0.000000  1
  Rh  Rh26  1  0.356285  0.487503  0.000000  1
  Rh  Rh27  1  0.487503  0.356285  0.000000  1
  Rh  Rh28  1  0.868783  0.512497  0.000000  1
  Rh  Rh29  1  0.643715  0.131217  0.000000  1
  Rh  Rh30  1  0.624148  0.802766  0.500000  1
  Rh  Rh31  1  0.197234  0.821382  0.500000  1
  Rh  Rh32  1  0.178618  0.375852  0.500000  1
  Rh  Rh33  1  0.375852  0.178618  0.500000  1
  Rh  Rh34  1  0.802766  0.624148  0.500000  1
  Rh  Rh35  1  0.821382  0.197234  0.500000  1
