# generated using pymatgen
data_Sc2TiCo5B2
_symmetry_space_group_name_H-M   'P 1'
_cell_length_a   8.81353600
_cell_length_b   8.81353600
_cell_length_c   2.97727800
_cell_angle_alpha   90.00000000
_cell_angle_beta   90.00000000
_cell_angle_gamma   90.00000000
_symmetry_Int_Tables_number   1
_chemical_formula_structural   Sc2TiCo5B2
_chemical_formula_sum   'Sc4 Ti2 Co10 B4'
_cell_volume   231.27024148
_cell_formula_units_Z   2
loop_
 _symmetry_equiv_pos_site_id
 _symmetry_equiv_pos_as_xyz
  1  'x, y, z'
loop_
 _atom_site_type_symbol
 _atom_site_label
 _atom_site_symmetry_multiplicity
 _atom_site_fract_x
 _atom_site_fract_y
 _atom_site_fract_z
 _atom_site_occupancy
  Sc  Sc0  1  0.674620  0.174620  0.000000  1
  Sc  Sc1  1  0.325380  0.825380  0.000000  1
  Sc  Sc2  1  0.174620  0.325380  0.000000  1
  Sc  Sc3  1  0.825380  0.674620  0.000000  1
  Ti  Ti4  1  0.000000  0.000000  0.000000  1
  Ti  Ti5  1  0.500000  0.500000  0.000000  1
  Co  Co6  1  0.222809  0.069913  0.500000  1
  Co  Co7  1  0.777191  0.930087  0.500000  1
  Co  Co8  1  0.069913  0.777191  0.500000  1
  Co  Co9  1  0.722809  0.430087  0.500000  1
  Co  Co10  1  0.930087  0.222809  0.500000  1
  Co  Co11  1  0.277191  0.569913  0.500000  1
  Co  Co12  1  0.569913  0.722809  0.500000  1
  Co  Co13  1  0.430087  0.277191  0.500000  1
  Co  Co14  1  0.500000  0.000000  0.500000  1
  Co  Co15  1  0.000000  0.500000  0.500000  1
  B  B16  1  0.119993  0.619993  0.000000  1
  B  B17  1  0.880007  0.380007  0.000000  1
  B  B18  1  0.619993  0.880007  0.000000  1
  B  B19  1  0.380007  0.119993  0.000000  1
