# generated using pymatgen
data_Sr14CaBi11
_symmetry_space_group_name_H-M   'P 1'
_cell_length_a   17.42021604
_cell_length_b   17.42021590
_cell_length_c   17.42021600
_cell_angle_alpha   117.53088632
_cell_angle_beta   117.53088608
_cell_angle_gamma   94.33262965
_symmetry_Int_Tables_number   1
_chemical_formula_structural   Sr14CaBi11
_chemical_formula_sum   'Sr56 Ca4 Bi44'
_cell_volume   3865.60386945
_cell_formula_units_Z   4
loop_
 _symmetry_equiv_pos_site_id
 _symmetry_equiv_pos_as_xyz
  1  'x, y, z'
loop_
 _atom_site_type_symbol
 _atom_site_label
 _atom_site_symmetry_multiplicity
 _atom_site_fract_x
 _atom_site_fract_y
 _atom_site_fract_z
 _atom_site_occupancy
  Sr  Sr0  1  0.499186  0.603444  0.846198  1
  Sr  Sr1  1  0.625000  0.230525  0.105525  1
  Sr  Sr2  1  0.160306  0.026826  0.782576  1
  Sr  Sr3  1  0.895926  0.377174  0.838421  1
  Sr  Sr4  1  0.125000  0.019475  0.394475  1
  Sr  Sr5  1  0.769475  0.875000  0.394475  1
  Sr  Sr6  1  0.127731  0.410306  0.633481  1
  Sr  Sr7  1  0.757246  0.652988  0.153802  1
  Sr  Sr8  1  0.711247  0.372826  0.018751  1
  Sr  Sr9  1  0.442495  0.961247  0.838421  1
  Sr  Sr10  1  0.307505  0.288753  0.661579  1
  Sr  Sr11  1  0.038753  0.877174  0.481249  1
  Sr  Sr12  1  0.492754  0.146556  0.395742  1
  Sr  Sr13  1  0.353444  0.007246  0.604258  1
  Sr  Sr14  1  0.125000  0.519475  0.894475  1
  Sr  Sr15  1  0.992754  0.597012  0.346198  1
  Sr  Sr16  1  0.942495  0.104074  0.481249  1
  Sr  Sr17  1  0.627174  0.645926  0.338421  1
  Sr  Sr18  1  0.896556  0.000814  0.153802  1
  Sr  Sr19  1  0.354074  0.692495  0.981249  1
  Sr  Sr20  1  0.122826  0.604074  0.161579  1
  Sr  Sr21  1  0.999186  0.152988  0.895742  1
  Sr  Sr22  1  0.660306  0.877731  0.133481  1
  Sr  Sr23  1  0.505751  0.872269  0.282576  1
  Sr  Sr24  1  0.854074  0.872826  0.661579  1
  Sr  Sr25  1  0.211247  0.192495  0.338421  1
  Sr  Sr26  1  0.005751  0.723174  0.633481  1
  Sr  Sr27  1  0.744249  0.526826  0.866519  1
  Sr  Sr28  1  0.257246  0.103444  0.104258  1
  Sr  Sr29  1  0.244249  0.377731  0.217424  1
  Sr  Sr30  1  0.347012  0.500814  0.104258  1
  Sr  Sr31  1  0.250814  0.646556  0.653802  1
  Sr  Sr32  1  0.750814  0.097012  0.604258  1
  Sr  Sr33  1  0.625000  0.730525  0.605525  1
  Sr  Sr34  1  0.902988  0.507246  0.653802  1
  Sr  Sr35  1  0.847012  0.742754  0.846198  1
  Sr  Sr36  1  0.622269  0.839694  0.866519  1
  Sr  Sr37  1  0.276826  0.910306  0.282576  1
  Sr  Sr38  1  0.853444  0.249186  0.346198  1
  Sr  Sr39  1  0.127174  0.788753  0.981249  1
  Sr  Sr40  1  0.776826  0.494249  0.366519  1
  Sr  Sr41  1  0.973174  0.755751  0.133481  1
  Sr  Sr42  1  0.122269  0.255751  0.782576  1
  Sr  Sr43  1  0.589694  0.223174  0.717424  1
  Sr  Sr44  1  0.622826  0.461247  0.518751  1
  Sr  Sr45  1  0.980525  0.375000  0.105525  1
  Sr  Sr46  1  0.538753  0.057505  0.161579  1
  Sr  Sr47  1  0.396556  0.242754  0.895742  1
  Sr  Sr48  1  0.402988  0.749186  0.395742  1
  Sr  Sr49  1  0.480525  0.375000  0.605525  1
  Sr  Sr50  1  0.089694  0.372269  0.366519  1
  Sr  Sr51  1  0.807505  0.145926  0.018751  1
  Sr  Sr52  1  0.269475  0.875000  0.894475  1
  Sr  Sr53  1  0.473174  0.339694  0.217424  1
  Sr  Sr54  1  0.395926  0.557505  0.518751  1
  Sr  Sr55  1  0.627731  0.994249  0.717424  1
  Ca  Ca56  1  0.250000  0.750000  0.500000  1
  Ca  Ca57  1  0.750000  0.250000  0.500000  1
  Ca  Ca58  1  0.000000  0.000000  0.000000  1
  Ca  Ca59  1  0.500000  0.500000  0.000000  1
  Bi  Bi60  1  0.865024  0.365024  0.230047  1
  Bi  Bi61  1  0.290235  0.699345  0.144950  1
  Bi  Bi62  1  0.884976  0.884976  0.269953  1
  Bi  Bi63  1  0.554395  0.145286  0.855050  1
  Bi  Bi64  1  0.949345  0.040235  0.644950  1
  Bi  Bi65  1  0.365024  0.134976  0.500000  1
  Bi  Bi66  1  0.459765  0.550655  0.355050  1
  Bi  Bi67  1  0.354714  0.945605  0.144950  1
  Bi  Bi68  1  0.060742  0.211064  0.140132  1
  Bi  Bi69  1  0.054395  0.199345  0.409109  1
  Bi  Bi70  1  0.500000  0.000000  0.500000  1
  Bi  Bi71  1  0.195605  0.104714  0.644950  1
  Bi  Bi72  1  0.788936  0.929068  0.849678  1
  Bi  Bi73  1  0.679068  0.329391  0.640132  1
  Bi  Bi74  1  0.461064  0.810742  0.640132  1
  Bi  Bi75  1  0.170609  0.820932  0.359868  1
  Bi  Bi76  1  0.570932  0.711064  0.150322  1
  Bi  Bi77  1  0.670609  0.310742  0.349678  1
  Bi  Bi78  1  0.079391  0.939258  0.150322  1
  Bi  Bi79  1  0.750000  0.750000  0.000000  1
  Bi  Bi80  1  0.560742  0.420609  0.849678  1
  Bi  Bi81  1  0.384976  0.115024  0.000000  1
  Bi  Bi82  1  0.070932  0.920609  0.859868  1
  Bi  Bi83  1  0.000000  0.500000  0.500000  1
  Bi  Bi84  1  0.288936  0.439258  0.859868  1
  Bi  Bi85  1  0.800655  0.209765  0.855050  1
  Bi  Bi86  1  0.250000  0.250000  0.000000  1
  Bi  Bi87  1  0.395286  0.304395  0.355050  1
  Bi  Bi88  1  0.300655  0.445605  0.590891  1
  Bi  Bi89  1  0.695605  0.050655  0.090891  1
  Bi  Bi90  1  0.790235  0.645286  0.590891  1
  Bi  Bi91  1  0.189258  0.829391  0.650322  1
  Bi  Bi92  1  0.959765  0.604714  0.909109  1
  Bi  Bi93  1  0.115024  0.384976  0.000000  1
  Bi  Bi94  1  0.961064  0.320932  0.650322  1
  Bi  Bi95  1  0.634976  0.865024  0.500000  1
  Bi  Bi96  1  0.689258  0.038936  0.359868  1
  Bi  Bi97  1  0.579391  0.429068  0.140132  1
  Bi  Bi98  1  0.854714  0.709765  0.409109  1
  Bi  Bi99  1  0.895286  0.540235  0.090891  1
  Bi  Bi100  1  0.449345  0.804395  0.909109  1
  Bi  Bi101  1  0.134976  0.634976  0.769953  1
  Bi  Bi102  1  0.615024  0.615024  0.730047  1
  Bi  Bi103  1  0.179068  0.538936  0.349678  1
