# generated using pymatgen
data_Lu4Zn3In2Co
_symmetry_space_group_name_H-M   'P 1'
_cell_length_a   7.60601859
_cell_length_b   7.60601859
_cell_length_c   3.62326900
_cell_angle_alpha   90.00000000
_cell_angle_beta   90.00000000
_cell_angle_gamma   90.17226363
_symmetry_Int_Tables_number   1
_chemical_formula_structural   Lu4Zn3In2Co
_chemical_formula_sum   'Lu4 Zn3 In2 Co1'
_cell_volume   209.61066749
_cell_formula_units_Z   1
loop_
 _symmetry_equiv_pos_site_id
 _symmetry_equiv_pos_as_xyz
  1  'x, y, z'
loop_
 _atom_site_type_symbol
 _atom_site_label
 _atom_site_symmetry_multiplicity
 _atom_site_fract_x
 _atom_site_fract_y
 _atom_site_fract_z
 _atom_site_occupancy
  Lu  Lu0  1  0.355459  0.178621  0.500000  1
  Lu  Lu1  1  0.806258  0.306258  0.500000  1
  Lu  Lu2  1  0.169770  0.669770  0.500000  1
  Lu  Lu3  1  0.678621  0.855459  0.500000  1
  Zn  Zn4  1  0.115247  0.370421  0.000000  1
  Zn  Zn5  1  0.870421  0.615248  0.000000  1
  Zn  Zn6  1  0.381749  0.881749  0.000000  1
  In  In7  1  0.002819  0.001439  0.000000  1
  In  In8  1  0.501439  0.502819  0.000000  1
  Co  Co9  1  0.618214  0.118213  0.000000  1
