# generated using pymatgen
data_YHo3ReI4
_symmetry_space_group_name_H-M   'P 1'
_cell_length_a   11.27484874
_cell_length_b   11.29778986
_cell_length_c   6.16053200
_cell_angle_alpha   89.65386369
_cell_angle_beta   89.69691890
_cell_angle_gamma   88.69023144
_symmetry_Int_Tables_number   1
_chemical_formula_structural   YHo3ReI4
_chemical_formula_sum   'Y2 Ho6 Re2 I8'
_cell_volume   784.50417467
_cell_formula_units_Z   2
loop_
 _symmetry_equiv_pos_site_id
 _symmetry_equiv_pos_as_xyz
  1  'x, y, z'
loop_
 _atom_site_type_symbol
 _atom_site_label
 _atom_site_symmetry_multiplicity
 _atom_site_fract_x
 _atom_site_fract_y
 _atom_site_fract_z
 _atom_site_occupancy
  Y  Y0  1  0.201900  0.915160  0.998775  1
  Y  Y1  1  0.798100  0.084840  0.001225  1
  Ho  Ho2  1  0.083377  0.801710  0.501578  1
  Ho  Ho3  1  0.916623  0.198290  0.498422  1
  Ho  Ho4  1  0.803370  0.920929  0.503450  1
  Ho  Ho5  1  0.196630  0.079071  0.496550  1
  Ho  Ho6  1  0.078958  0.196323  0.996366  1
  Ho  Ho7  1  0.921042  0.803677  0.003634  1
  Re  Re8  1  0.999989  0.000014  0.249753  1
  Re  Re9  1  0.000011  0.999986  0.750247  1
  I  I10  1  0.358269  0.846907  0.499352  1
  I  I11  1  0.641731  0.153093  0.500648  1
  I  I12  1  0.152646  0.641741  0.000039  1
  I  I13  1  0.847354  0.358259  0.999961  1
  I  I14  1  0.354646  0.146075  0.001002  1
  I  I15  1  0.645354  0.853925  0.998998  1
  I  I16  1  0.854586  0.646112  0.499155  1
  I  I17  1  0.145414  0.353888  0.500845  1
