# generated using pymatgen
data_YErTm2(WO6)2
_symmetry_space_group_name_H-M   'P 1'
_cell_length_a   5.36568100
_cell_length_b   7.65933773
_cell_length_c   11.39296682
_cell_angle_alpha   75.40275243
_cell_angle_beta   90.00000000
_cell_angle_gamma   90.00000000
_symmetry_Int_Tables_number   1
_chemical_formula_structural   YErTm2(WO6)2
_chemical_formula_sum   'Y2 Er2 Tm4 W4 O24'
_cell_volume   453.10952526
_cell_formula_units_Z   2
loop_
 _symmetry_equiv_pos_site_id
 _symmetry_equiv_pos_as_xyz
  1  'x, y, z'
loop_
 _atom_site_type_symbol
 _atom_site_label
 _atom_site_symmetry_multiplicity
 _atom_site_fract_x
 _atom_site_fract_y
 _atom_site_fract_z
 _atom_site_occupancy
  Y  Y0  1  0.684507  0.500000  0.750000  1
  Y  Y1  1  0.315493  0.500000  0.250000  1
  Er  Er2  1  0.740164  0.000000  0.750000  1
  Er  Er3  1  0.259836  0.000000  0.250000  1
  Tm  Tm4  1  0.185479  0.796161  0.578206  1
  Tm  Tm5  1  0.814521  0.796161  0.078206  1
  Tm  Tm6  1  0.185479  0.203839  0.921794  1
  Tm  Tm7  1  0.814521  0.203839  0.421794  1
  W  W8  1  0.254755  0.724029  0.885680  1
  W  W9  1  0.745245  0.724029  0.385680  1
  W  W10  1  0.254755  0.275971  0.614320  1
  W  W11  1  0.745245  0.275971  0.114320  1
  O  O12  1  0.041261  0.941161  0.896068  1
  O  O13  1  0.534554  0.848024  0.931352  1
  O  O14  1  0.958739  0.941161  0.396068  1
  O  O15  1  0.458798  0.791978  0.726264  1
  O  O16  1  0.465446  0.848024  0.431352  1
  O  O17  1  0.982165  0.713085  0.769812  1
  O  O18  1  0.541202  0.791978  0.226264  1
  O  O19  1  0.853981  0.635831  0.549001  1
  O  O20  1  0.358636  0.488262  0.887079  1
  O  O21  1  0.017835  0.713085  0.269812  1
  O  O22  1  0.358636  0.511738  0.612921  1
  O  O23  1  0.853981  0.364169  0.950999  1
  O  O24  1  0.146019  0.635831  0.049001  1
  O  O25  1  0.641364  0.488262  0.387079  1
  O  O26  1  0.982165  0.286915  0.730188  1
  O  O27  1  0.641364  0.511738  0.112921  1
  O  O28  1  0.146019  0.364169  0.450999  1
  O  O29  1  0.458798  0.208022  0.773736  1
  O  O30  1  0.017835  0.286915  0.230188  1
  O  O31  1  0.534554  0.151976  0.568648  1
  O  O32  1  0.541202  0.208022  0.273736  1
  O  O33  1  0.041261  0.058839  0.603932  1
  O  O34  1  0.465446  0.151976  0.068648  1
  O  O35  1  0.958739  0.058839  0.103932  1
