# generated using pymatgen
data_Pr3TmZr4F28
_symmetry_space_group_name_H-M   'P 1'
_cell_length_a   5.85514492
_cell_length_b   9.30196835
_cell_length_c   12.49846164
_cell_angle_alpha   62.17280874
_cell_angle_beta   90.07078674
_cell_angle_gamma   89.95303758
_symmetry_Int_Tables_number   1
_chemical_formula_structural   Pr3TmZr4F28
_chemical_formula_sum   'Pr3 Tm1 Zr4 F28'
_cell_volume   602.00078714
_cell_formula_units_Z   1
loop_
 _symmetry_equiv_pos_site_id
 _symmetry_equiv_pos_as_xyz
  1  'x, y, z'
loop_
 _atom_site_type_symbol
 _atom_site_label
 _atom_site_symmetry_multiplicity
 _atom_site_fract_x
 _atom_site_fract_y
 _atom_site_fract_z
 _atom_site_occupancy
  Pr  Pr0  1  0.743595  0.809766  0.266912  1
  Pr  Pr1  1  0.243233  0.186883  0.233068  1
  Pr  Pr2  1  0.256983  0.181469  0.733603  1
  Tm  Tm3  1  0.757743  0.811555  0.766286  1
  Zr  Zr4  1  0.746140  0.268437  0.458442  1
  Zr  Zr5  1  0.244714  0.726395  0.038501  1
  Zr  Zr6  1  0.255873  0.726263  0.550938  1
  Zr  Zr7  1  0.755224  0.280314  0.952393  1
  F  F8  1  0.470306  0.714592  0.918319  1
  F  F9  1  0.962750  0.288953  0.577885  1
  F  F10  1  0.539478  0.291855  0.075550  1
  F  F11  1  0.041104  0.711813  0.427800  1
  F  F12  1  0.459223  0.283012  0.546650  1
  F  F13  1  0.956609  0.720922  0.944481  1
  F  F14  1  0.536609  0.716042  0.456742  1
  F  F15  1  0.041430  0.287351  0.043785  1
  F  F16  1  0.764263  0.529536  0.856902  1
  F  F17  1  0.265625  0.479788  0.642887  1
  F  F18  1  0.231830  0.481095  0.137835  1
  F  F19  1  0.734016  0.515851  0.362115  1
  F  F20  1  0.760881  0.033739  0.053891  1
  F  F21  1  0.261163  0.972023  0.446494  1
  F  F22  1  0.239763  0.973413  0.943377  1
  F  F23  1  0.740117  0.022339  0.562291  1
  F  F24  1  0.986052  0.736314  0.652571  1
  F  F25  1  0.487489  0.268384  0.852532  1
  F  F26  1  0.014788  0.267536  0.355853  1
  F  F27  1  0.510302  0.731662  0.142431  1
  F  F28  1  0.040241  0.743844  0.165722  1
  F  F29  1  0.541797  0.254507  0.330741  1
  F  F30  1  0.960596  0.258175  0.828256  1
  F  F31  1  0.473514  0.749083  0.673245  1
  F  F32  1  0.419073  0.967263  0.232916  1
  F  F33  1  0.917216  0.031037  0.267183  1
  F  F34  1  0.582088  0.015157  0.765466  1
  F  F35  1  0.058168  0.963632  0.735935  1
