# generated using pymatgen
data_Pr2Nd(OsO5)2
_symmetry_space_group_name_H-M   'P 1'
_cell_length_a   5.57375800
_cell_length_b   5.57375860
_cell_length_c   7.00749797
_cell_angle_alpha   72.46832413
_cell_angle_beta   72.46832927
_cell_angle_gamma   90.32726688
_symmetry_Int_Tables_number   1
_chemical_formula_structural   Pr2Nd(OsO5)2
_chemical_formula_sum   'Pr2 Nd1 Os2 O10'
_cell_volume   196.82912254
_cell_formula_units_Z   1
loop_
 _symmetry_equiv_pos_site_id
 _symmetry_equiv_pos_as_xyz
  1  'x, y, z'
loop_
 _atom_site_type_symbol
 _atom_site_label
 _atom_site_symmetry_multiplicity
 _atom_site_fract_x
 _atom_site_fract_y
 _atom_site_fract_z
 _atom_site_occupancy
  Pr  Pr0  1  0.754600  0.245400  0.500000  1
  Pr  Pr1  1  0.245400  0.754600  0.500000  1
  Nd  Nd2  1  0.500000  0.500000  0.000000  1
  Os  Os3  1  0.130571  0.130571  0.824225  1
  Os  Os4  1  0.869429  0.869429  0.175775  1
  O  O5  1  0.828688  0.828688  0.472971  1
  O  O6  1  0.171312  0.171312  0.527029  1
  O  O7  1  0.594790  0.594790  0.281972  1
  O  O8  1  0.405210  0.405210  0.718028  1
  O  O9  1  0.380763  0.896732  0.787566  1
  O  O10  1  0.852454  0.852454  0.899113  1
  O  O11  1  0.147546  0.147546  0.100887  1
  O  O12  1  0.896732  0.380763  0.787566  1
  O  O13  1  0.619237  0.103268  0.212434  1
  O  O14  1  0.103268  0.619237  0.212434  1
