# generated using pymatgen
data_Y(S8Cl)3
_symmetry_space_group_name_H-M   'P 1'
_cell_length_a   15.34862470
_cell_length_b   15.34862589
_cell_length_c   15.34862519
_cell_angle_alpha   119.25792334
_cell_angle_beta   119.25792832
_cell_angle_gamma   119.25793486
_symmetry_Int_Tables_number   1
_chemical_formula_structural   Y(S8Cl)3
_chemical_formula_sum   'Y1 S24 Cl3'
_cell_volume   807.74439580
_cell_formula_units_Z   1
loop_
 _symmetry_equiv_pos_site_id
 _symmetry_equiv_pos_as_xyz
  1  'x, y, z'
loop_
 _atom_site_type_symbol
 _atom_site_label
 _atom_site_symmetry_multiplicity
 _atom_site_fract_x
 _atom_site_fract_y
 _atom_site_fract_z
 _atom_site_occupancy
  Y  Y0  1  0.560040  0.560040  0.560040  1
  S  S1  1  0.813922  0.535213  0.535213  1
  S  S2  1  0.535213  0.535213  0.813922  1
  S  S3  1  0.535213  0.813922  0.535213  1
  S  S4  1  0.214682  0.343402  0.602127  1
  S  S5  1  0.389580  0.984654  0.389580  1
  S  S6  1  0.389580  0.389580  0.984654  1
  S  S7  1  0.984654  0.389580  0.389580  1
  S  S8  1  0.111773  0.720475  0.238817  1
  S  S9  1  0.238817  0.111773  0.720475  1
  S  S10  1  0.720475  0.238817  0.111773  1
  S  S11  1  0.720475  0.111773  0.238817  1
  S  S12  1  0.238817  0.720475  0.111773  1
  S  S13  1  0.111773  0.238817  0.720475  1
  S  S14  1  0.377417  0.903580  0.556855  1
  S  S15  1  0.556855  0.377417  0.903580  1
  S  S16  1  0.903580  0.556855  0.377417  1
  S  S17  1  0.903580  0.377417  0.556855  1
  S  S18  1  0.556855  0.903580  0.377417  1
  S  S19  1  0.377417  0.556855  0.903580  1
  S  S20  1  0.214682  0.602127  0.343402  1
  S  S21  1  0.343402  0.214682  0.602127  1
  S  S22  1  0.602127  0.343402  0.214682  1
  S  S23  1  0.602127  0.214682  0.343402  1
  S  S24  1  0.343402  0.602127  0.214682  1
  Cl  Cl25  1  0.976093  0.101376  0.101376  1
  Cl  Cl26  1  0.101376  0.101376  0.976093  1
  Cl  Cl27  1  0.101376  0.976093  0.101376  1
