# generated using pymatgen
data_CeDyTc3Ge4
_symmetry_space_group_name_H-M   'P 1'
_cell_length_a   8.28895000
_cell_length_b   5.77536979
_cell_length_c   7.02211365
_cell_angle_alpha   76.17305191
_cell_angle_beta   90.00000000
_cell_angle_gamma   90.00000000
_symmetry_Int_Tables_number   1
_chemical_formula_structural   CeDyTc3Ge4
_chemical_formula_sum   'Ce2 Dy2 Tc6 Ge8'
_cell_volume   326.41960318
_cell_formula_units_Z   2
loop_
 _symmetry_equiv_pos_site_id
 _symmetry_equiv_pos_as_xyz
  1  'x, y, z'
loop_
 _atom_site_type_symbol
 _atom_site_label
 _atom_site_symmetry_multiplicity
 _atom_site_fract_x
 _atom_site_fract_y
 _atom_site_fract_z
 _atom_site_occupancy
  Ce  Ce0  1  0.553944  0.081239  0.243799  1
  Ce  Ce1  1  0.053944  0.418761  0.756201  1
  Dy  Dy2  1  0.437446  0.927923  0.751249  1
  Dy  Dy3  1  0.937446  0.572077  0.248751  1
  Tc  Tc4  1  0.214228  0.120858  0.108108  1
  Tc  Tc5  1  0.714228  0.379142  0.891892  1
  Tc  Tc6  1  0.797207  0.895054  0.887202  1
  Tc  Tc7  1  0.297207  0.604946  0.112798  1
  Tc  Tc8  1  0.000882  0.994875  0.499826  1
  Tc  Tc9  1  0.500882  0.505125  0.500174  1
  Ge  Ge10  1  0.906084  0.110845  0.136420  1
  Ge  Ge11  1  0.406084  0.389155  0.863580  1
  Ge  Ge12  1  0.098123  0.869994  0.881627  1
  Ge  Ge13  1  0.598123  0.630006  0.118373  1
  Ge  Ge14  1  0.743997  0.218886  0.580232  1
  Ge  Ge15  1  0.243997  0.281114  0.419768  1
  Ge  Ge16  1  0.248090  0.772971  0.414494  1
  Ge  Ge17  1  0.748090  0.727029  0.585506  1
