# generated using pymatgen
data_TbDy7(LuPb3)2
_symmetry_space_group_name_H-M   'P 1'
_cell_length_a   9.03035518
_cell_length_b   9.03035575
_cell_length_c   6.61456400
_cell_angle_alpha   89.99956256
_cell_angle_beta   89.99956780
_cell_angle_gamma   120.02277563
_symmetry_Int_Tables_number   1
_chemical_formula_structural   TbDy7(LuPb3)2
_chemical_formula_sum   'Tb1 Dy7 Lu2 Pb6'
_cell_volume   467.02682779
_cell_formula_units_Z   1
loop_
 _symmetry_equiv_pos_site_id
 _symmetry_equiv_pos_as_xyz
  1  'x, y, z'
loop_
 _atom_site_type_symbol
 _atom_site_label
 _atom_site_symmetry_multiplicity
 _atom_site_fract_x
 _atom_site_fract_y
 _atom_site_fract_z
 _atom_site_occupancy
  Tb  Tb0  1  0.238035  0.238035  0.750676  1
  Dy  Dy1  1  0.238043  0.999961  0.249325  1
  Dy  Dy2  1  0.999946  0.761886  0.750674  1
  Dy  Dy3  1  0.762010  0.762010  0.249316  1
  Dy  Dy4  1  0.999961  0.238043  0.249325  1
  Dy  Dy5  1  0.761886  0.999946  0.750674  1
  Dy  Dy6  1  0.333342  0.666705  0.499990  1
  Dy  Dy7  1  0.666705  0.333342  0.499990  1
  Lu  Lu8  1  0.333343  0.666690  0.000012  1
  Lu  Lu9  1  0.666690  0.333343  0.000012  1
  Pb  Pb10  1  0.999872  0.395637  0.752570  1
  Pb  Pb11  1  0.395541  0.395541  0.247441  1
  Pb  Pb12  1  0.604437  0.000001  0.247432  1
  Pb  Pb13  1  0.604550  0.604550  0.752563  1
  Pb  Pb14  1  0.395637  0.999872  0.752570  1
  Pb  Pb15  1  0.000001  0.604437  0.247432  1
