# generated using pymatgen
data_Dy7Ho3OsRu3
_symmetry_space_group_name_H-M   'P 1'
_cell_length_a   6.35836689
_cell_length_b   7.28676600
_cell_length_c   8.47002477
_cell_angle_alpha   96.72340438
_cell_angle_beta   112.15052433
_cell_angle_gamma   89.86570532
_symmetry_Int_Tables_number   1
_chemical_formula_structural   Dy7Ho3OsRu3
_chemical_formula_sum   'Dy7 Ho3 Os1 Ru3'
_cell_volume   360.59720911
_cell_formula_units_Z   1
loop_
 _symmetry_equiv_pos_site_id
 _symmetry_equiv_pos_as_xyz
  1  'x, y, z'
loop_
 _atom_site_type_symbol
 _atom_site_label
 _atom_site_symmetry_multiplicity
 _atom_site_fract_x
 _atom_site_fract_y
 _atom_site_fract_z
 _atom_site_occupancy
  Dy  Dy0  1  0.978154  0.916640  0.186240  1
  Dy  Dy1  1  0.792859  0.584381  0.815501  1
  Dy  Dy2  1  0.021896  0.084868  0.814068  1
  Dy  Dy3  1  0.208861  0.415724  0.186642  1
  Dy  Dy4  1  0.641237  0.814537  0.433890  1
  Dy  Dy5  1  0.204065  0.684243  0.564646  1
  Dy  Dy6  1  0.359915  0.185014  0.565685  1
  Ho  Ho7  1  0.793762  0.315261  0.434197  1
  Ho  Ho8  1  0.421630  0.749242  0.000285  1
  Ho  Ho9  1  0.579768  0.250922  0.000905  1
  Os  Os10  1  0.821521  0.576220  0.218812  1
  Ru  Ru11  1  0.603182  0.924785  0.779074  1
  Ru  Ru12  1  0.175909  0.422715  0.779541  1
  Ru  Ru13  1  0.397240  0.075447  0.220515  1
