# generated using pymatgen
data_YbYTc3Ge4
_symmetry_space_group_name_H-M   'P 1'
_cell_length_a   8.29098300
_cell_length_b   5.68390994
_cell_length_c   7.04079638
_cell_angle_alpha   76.43715178
_cell_angle_beta   90.00000000
_cell_angle_gamma   90.00000000
_symmetry_Int_Tables_number   1
_chemical_formula_structural   YbYTc3Ge4
_chemical_formula_sum   'Yb2 Y2 Tc6 Ge8'
_cell_volume   322.54615389
_cell_formula_units_Z   2
loop_
 _symmetry_equiv_pos_site_id
 _symmetry_equiv_pos_as_xyz
  1  'x, y, z'
loop_
 _atom_site_type_symbol
 _atom_site_label
 _atom_site_symmetry_multiplicity
 _atom_site_fract_x
 _atom_site_fract_y
 _atom_site_fract_z
 _atom_site_occupancy
  Yb  Yb0  1  0.445865  0.929018  0.754496  1
  Yb  Yb1  1  0.945865  0.570982  0.245504  1
  Y  Y2  1  0.559198  0.078661  0.244938  1
  Y  Y3  1  0.059198  0.421339  0.755062  1
  Tc  Tc4  1  0.209113  0.089833  0.116215  1
  Tc  Tc5  1  0.709113  0.410167  0.883785  1
  Tc  Tc6  1  0.790866  0.864487  0.887146  1
  Tc  Tc7  1  0.290866  0.635513  0.112854  1
  Tc  Tc8  1  0.997051  0.999871  0.494803  1
  Tc  Tc9  1  0.497051  0.500129  0.505197  1
  Ge  Ge10  1  0.903776  0.119850  0.117984  1
  Ge  Ge11  1  0.403776  0.380150  0.882016  1
  Ge  Ge12  1  0.092938  0.880083  0.863859  1
  Ge  Ge13  1  0.592938  0.619917  0.136141  1
  Ge  Ge14  1  0.746979  0.217487  0.591029  1
  Ge  Ge15  1  0.246979  0.282513  0.408971  1
  Ge  Ge16  1  0.254214  0.776254  0.436053  1
  Ge  Ge17  1  0.754214  0.723746  0.563947  1
