# generated using pymatgen
data_TmLu(ZnPd)2
_symmetry_space_group_name_H-M   'P 1'
_cell_length_a   3.91747600
_cell_length_b   7.10219200
_cell_length_c   8.25559700
_cell_angle_alpha   90.00000000
_cell_angle_beta   90.00000000
_cell_angle_gamma   90.00000000
_symmetry_Int_Tables_number   1
_chemical_formula_structural   TmLu(ZnPd)2
_chemical_formula_sum   'Tm2 Lu2 Zn4 Pd4'
_cell_volume   229.69272380
_cell_formula_units_Z   2
loop_
 _symmetry_equiv_pos_site_id
 _symmetry_equiv_pos_as_xyz
  1  'x, y, z'
loop_
 _atom_site_type_symbol
 _atom_site_label
 _atom_site_symmetry_multiplicity
 _atom_site_fract_x
 _atom_site_fract_y
 _atom_site_fract_z
 _atom_site_occupancy
  Tm  Tm0  1  0.250000  0.555598  0.812651  1
  Tm  Tm1  1  0.250000  0.055598  0.687349  1
  Lu  Lu2  1  0.750000  0.444056  0.187988  1
  Lu  Lu3  1  0.750000  0.944056  0.312012  1
  Zn  Zn4  1  0.750000  0.871860  0.935423  1
  Zn  Zn5  1  0.750000  0.371860  0.564577  1
  Zn  Zn6  1  0.250000  0.127997  0.066017  1
  Zn  Zn7  1  0.250000  0.627997  0.433983  1
  Pd  Pd8  1  0.750000  0.258996  0.877666  1
  Pd  Pd9  1  0.750000  0.758996  0.622334  1
  Pd  Pd10  1  0.250000  0.741492  0.124979  1
  Pd  Pd11  1  0.250000  0.241492  0.375021  1
