# generated using pymatgen
data_Y3TlIn2NiPt2
_symmetry_space_group_name_H-M   'P 1'
_cell_length_a   7.71423449
_cell_length_b   7.72864893
_cell_length_c   3.77271500
_cell_angle_alpha   90.00000000
_cell_angle_beta   90.00000000
_cell_angle_gamma   120.06183670
_symmetry_Int_Tables_number   1
_chemical_formula_structural   Y3TlIn2NiPt2
_chemical_formula_sum   'Y3 Tl1 In2 Ni1 Pt2'
_cell_volume   194.67496132
_cell_formula_units_Z   1
loop_
 _symmetry_equiv_pos_site_id
 _symmetry_equiv_pos_as_xyz
  1  'x, y, z'
loop_
 _atom_site_type_symbol
 _atom_site_label
 _atom_site_symmetry_multiplicity
 _atom_site_fract_x
 _atom_site_fract_y
 _atom_site_fract_z
 _atom_site_occupancy
  Y  Y0  1  0.000000  0.589002  0.500000  1
  Y  Y1  1  0.588544  0.999788  0.500000  1
  Y  Y2  1  0.411456  0.411244  0.500000  1
  Tl  Tl3  1  0.000000  0.248982  0.000000  1
  In  In4  1  0.247378  0.998519  0.000000  1
  In  In5  1  0.752622  0.751141  0.000000  1
  Ni  Ni6  1  0.000000  0.992319  0.500000  1
  Pt  Pt7  1  0.659892  0.334448  0.000000  1
  Pt  Pt8  1  0.340108  0.674557  0.000000  1
