# generated using pymatgen
data_Hf3Ta(GaRh5)2
_symmetry_space_group_name_H-M   'P 1'
_cell_length_a   4.08290300
_cell_length_b   5.51705709
_cell_length_c   10.91156017
_cell_angle_alpha   89.97966137
_cell_angle_beta   90.00000000
_cell_angle_gamma   90.00000000
_symmetry_Int_Tables_number   1
_chemical_formula_structural   Hf3Ta(GaRh5)2
_chemical_formula_sum   'Hf3 Ta1 Ga2 Rh10'
_cell_volume   245.78952178
_cell_formula_units_Z   1
loop_
 _symmetry_equiv_pos_site_id
 _symmetry_equiv_pos_as_xyz
  1  'x, y, z'
loop_
 _atom_site_type_symbol
 _atom_site_label
 _atom_site_symmetry_multiplicity
 _atom_site_fract_x
 _atom_site_fract_y
 _atom_site_fract_z
 _atom_site_occupancy
  Hf  Hf0  1  0.500000  0.813802  0.360668  1
  Hf  Hf1  1  0.500000  0.684676  0.862839  1
  Hf  Hf2  1  0.500000  0.314507  0.139474  1
  Ta  Ta3  1  0.500000  0.181887  0.639888  1
  Ga  Ga4  1  0.000000  0.501389  0.500690  1
  Ga  Ga5  1  0.000000  0.001039  0.999288  1
  Rh  Rh6  1  0.500000  0.191774  0.885263  1
  Rh  Rh7  1  0.500000  0.808336  0.109763  1
  Rh  Rh8  1  0.500000  0.695988  0.610027  1
  Rh  Rh9  1  0.500000  0.306818  0.394953  1
  Rh  Rh10  1  0.000000  0.430820  0.741882  1
  Rh  Rh11  1  0.000000  0.562073  0.254509  1
  Rh  Rh12  1  0.000000  0.006549  0.503428  1
  Rh  Rh13  1  0.000000  0.498727  0.998913  1
  Rh  Rh14  1  0.000000  0.062992  0.247714  1
  Rh  Rh15  1  0.000000  0.938623  0.750701  1
