# generated using pymatgen
data_LiMg3U2(TaN2)6
_symmetry_space_group_name_H-M   'P 1'
_cell_length_a   5.32483100
_cell_length_b   5.32483082
_cell_length_c   10.78874700
_cell_angle_alpha   90.00000000
_cell_angle_beta   90.00000000
_cell_angle_gamma   119.99999489
_symmetry_Int_Tables_number   1
_chemical_formula_structural   LiMg3U2(TaN2)6
_chemical_formula_sum   'Li1 Mg3 U2 Ta6 N12'
_cell_volume   264.91912118
_cell_formula_units_Z   1
loop_
 _symmetry_equiv_pos_site_id
 _symmetry_equiv_pos_as_xyz
  1  'x, y, z'
loop_
 _atom_site_type_symbol
 _atom_site_label
 _atom_site_symmetry_multiplicity
 _atom_site_fract_x
 _atom_site_fract_y
 _atom_site_fract_z
 _atom_site_occupancy
  Li  Li0  1  0.333333  0.666667  0.000000  1
  Mg  Mg1  1  0.333333  0.666667  0.500000  1
  Mg  Mg2  1  0.666667  0.333333  0.500000  1
  Mg  Mg3  1  0.666667  0.333333  0.000000  1
  U  U4  1  0.000000  0.000000  0.500000  1
  U  U5  1  0.000000  0.000000  0.000000  1
  Ta  Ta6  1  0.001836  0.338374  0.248956  1
  Ta  Ta7  1  0.661626  0.998164  0.751044  1
  Ta  Ta8  1  0.336538  0.338374  0.751044  1
  Ta  Ta9  1  0.661626  0.663462  0.248956  1
  Ta  Ta10  1  0.336538  0.998164  0.248956  1
  Ta  Ta11  1  0.001836  0.663462  0.751044  1
  N  N12  1  0.663596  0.662921  0.625813  1
  N  N13  1  0.669308  0.664954  0.873197  1
  N  N14  1  0.335046  0.330692  0.126803  1
  N  N15  1  0.337079  0.336404  0.374187  1
  N  N16  1  0.335046  0.004354  0.873197  1
  N  N17  1  0.337079  0.000674  0.625813  1
  N  N18  1  0.999326  0.662921  0.374187  1
  N  N19  1  0.995646  0.664954  0.126803  1
  N  N20  1  0.669308  0.004354  0.126803  1
  N  N21  1  0.663596  0.000674  0.374187  1
  N  N22  1  0.995646  0.330692  0.873197  1
  N  N23  1  0.999326  0.336404  0.625813  1
