# generated using pymatgen
data_Tb2Ce2LuRu2
_symmetry_space_group_name_H-M   'P 1'
_cell_length_a   6.38401753
_cell_length_b   7.00938596
_cell_length_c   8.83849225
_cell_angle_alpha   95.54563916
_cell_angle_beta   111.17074612
_cell_angle_gamma   90.00000076
_symmetry_Int_Tables_number   1
_chemical_formula_structural   Tb2Ce2LuRu2
_chemical_formula_sum   'Tb4 Ce4 Lu2 Ru4'
_cell_volume   366.82608809
_cell_formula_units_Z   2
loop_
 _symmetry_equiv_pos_site_id
 _symmetry_equiv_pos_as_xyz
  1  'x, y, z'
loop_
 _atom_site_type_symbol
 _atom_site_label
 _atom_site_symmetry_multiplicity
 _atom_site_fract_x
 _atom_site_fract_y
 _atom_site_fract_z
 _atom_site_occupancy
  Tb  Tb0  1  0.292661  0.313828  0.432006  1
  Tb  Tb1  1  0.707339  0.686172  0.567994  1
  Tb  Tb2  1  0.860656  0.186172  0.567994  1
  Tb  Tb3  1  0.139344  0.813828  0.432006  1
  Ce  Ce4  1  0.521167  0.096294  0.813523  1
  Ce  Ce5  1  0.478833  0.903706  0.186477  1
  Ce  Ce6  1  0.707644  0.403706  0.186477  1
  Ce  Ce7  1  0.292356  0.596294  0.813523  1
  Lu  Lu8  1  0.078625  0.250000  0.000000  1
  Lu  Lu9  1  0.921375  0.750000  0.000000  1
  Ru  Ru10  1  0.343836  0.591660  0.215483  1
  Ru  Ru11  1  0.656164  0.408340  0.784517  1
  Ru  Ru12  1  0.128355  0.908340  0.784517  1
  Ru  Ru13  1  0.871645  0.091660  0.215483  1
