# generated using pymatgen
data_Ho17Tm3(Ir3Rh)3
_symmetry_space_group_name_H-M   'P 1'
_cell_length_a   10.81852401
_cell_length_b   10.81826801
_cell_length_c   6.35400800
_cell_angle_alpha   90.00000000
_cell_angle_beta   90.00000000
_cell_angle_gamma   89.99524406
_symmetry_Int_Tables_number   1
_chemical_formula_structural   Ho17Tm3(Ir3Rh)3
_chemical_formula_sum   'Ho17 Tm3 Ir9 Rh3'
_cell_volume   743.65842997
_cell_formula_units_Z   1
loop_
 _symmetry_equiv_pos_site_id
 _symmetry_equiv_pos_as_xyz
  1  'x, y, z'
loop_
 _atom_site_type_symbol
 _atom_site_label
 _atom_site_symmetry_multiplicity
 _atom_site_fract_x
 _atom_site_fract_y
 _atom_site_fract_z
 _atom_site_occupancy
  Ho  Ho0  1  0.290339  0.088112  0.377880  1
  Ho  Ho1  1  0.290145  0.911677  0.877857  1
  Ho  Ho2  1  0.709855  0.088323  0.877857  1
  Ho  Ho3  1  0.709661  0.911888  0.377880  1
  Ho  Ho4  1  0.588307  0.790070  0.877810  1
  Ho  Ho5  1  0.588030  0.209874  0.377959  1
  Ho  Ho6  1  0.411970  0.790126  0.377959  1
  Ho  Ho7  1  0.411693  0.209930  0.877810  1
  Ho  Ho8  1  0.209210  0.412004  0.621089  1
  Ho  Ho9  1  0.209483  0.588243  0.123242  1
  Ho  Ho10  1  0.790517  0.411757  0.123242  1
  Ho  Ho11  1  0.790790  0.587996  0.621089  1
  Ho  Ho12  1  0.911746  0.709423  0.123181  1
  Ho  Ho13  1  0.911914  0.291001  0.621177  1
  Ho  Ho14  1  0.088086  0.708999  0.621177  1
  Ho  Ho15  1  0.088254  0.290577  0.123181  1
  Ho  Ho16  1  0.000000  0.000000  0.500297  1
  Tm  Tm17  1  0.000000  0.000000  0.000145  1
  Tm  Tm18  1  0.500000  0.500000  0.000162  1
  Tm  Tm19  1  0.500000  0.500000  0.500320  1
  Ir  Ir20  1  0.845823  0.153165  0.249308  1
  Ir  Ir21  1  0.845976  0.846586  0.750388  1
  Ir  Ir22  1  0.154024  0.153414  0.750388  1
  Ir  Ir23  1  0.154177  0.846835  0.249308  1
  Ir  Ir24  1  0.653119  0.346282  0.749938  1
  Ir  Ir25  1  0.652861  0.653880  0.249742  1
  Ir  Ir26  1  0.347139  0.346120  0.249742  1
  Ir  Ir27  1  0.346881  0.653718  0.749938  1
  Ir  Ir28  1  0.000000  0.500000  0.376895  1
  Rh  Rh29  1  0.500000  0.000000  0.122716  1
  Rh  Rh30  1  0.500000  0.000000  0.622776  1
  Rh  Rh31  1  0.000000  0.500000  0.877543  1
