# generated using pymatgen
data_CaSi4(PdRh2)2
_symmetry_space_group_name_H-M   'P 1'
_cell_length_a   7.09810180
_cell_length_b   7.14934441
_cell_length_c   3.78004000
_cell_angle_alpha   90.00000000
_cell_angle_beta   90.00000000
_cell_angle_gamma   120.23909102
_symmetry_Int_Tables_number   1
_chemical_formula_structural   CaSi4(PdRh2)2
_chemical_formula_sum   'Ca1 Si4 Pd2 Rh4'
_cell_volume   165.72350157
_cell_formula_units_Z   1
loop_
 _symmetry_equiv_pos_site_id
 _symmetry_equiv_pos_as_xyz
  1  'x, y, z'
loop_
 _atom_site_type_symbol
 _atom_site_label
 _atom_site_symmetry_multiplicity
 _atom_site_fract_x
 _atom_site_fract_y
 _atom_site_fract_z
 _atom_site_occupancy
  Ca  Ca0  1  0.997246  0.998623  0.000000  1
  Si  Si1  1  0.793617  0.196317  0.500000  1
  Si  Si2  1  0.793617  0.597300  0.500000  1
  Si  Si3  1  0.408348  0.204174  0.500000  1
  Si  Si4  1  0.343473  0.671737  0.000000  1
  Pd  Pd5  1  0.196581  0.802781  0.500000  1
  Pd  Pd6  1  0.196581  0.393800  0.500000  1
  Rh  Rh7  1  0.532419  0.465398  0.000000  1
  Rh  Rh8  1  0.532419  0.067022  0.000000  1
  Rh  Rh9  1  0.935509  0.467755  0.000000  1
  Rh  Rh10  1  0.603522  0.801761  0.500000  1
