# generated using pymatgen
data_Tb9Tm(InBi2)2
_symmetry_space_group_name_H-M   'P 1'
_cell_length_a   9.12735764
_cell_length_b   9.15000757
_cell_length_c   6.55141369
_cell_angle_alpha   90.01100076
_cell_angle_beta   90.03900144
_cell_angle_gamma   120.06062824
_symmetry_Int_Tables_number   1
_chemical_formula_structural   Tb9Tm(InBi2)2
_chemical_formula_sum   'Tb9 Tm1 In2 Bi4'
_cell_volume   473.55055001
_cell_formula_units_Z   1
loop_
 _symmetry_equiv_pos_site_id
 _symmetry_equiv_pos_as_xyz
  1  'x, y, z'
loop_
 _atom_site_type_symbol
 _atom_site_label
 _atom_site_symmetry_multiplicity
 _atom_site_fract_x
 _atom_site_fract_y
 _atom_site_fract_z
 _atom_site_occupancy
  Tb  Tb0  1  0.339116  0.668365  0.997755  1
  Tb  Tb1  1  0.339507  0.668702  0.502580  1
  Tb  Tb2  1  0.660496  0.328614  0.502772  1
  Tb  Tb3  1  0.755846  0.763944  0.750228  1
  Tb  Tb4  1  0.243851  0.008433  0.750154  1
  Tb  Tb5  1  0.000247  0.235718  0.750238  1
  Tb  Tb6  1  0.239389  0.237975  0.249631  1
  Tb  Tb7  1  0.761176  0.998135  0.249619  1
  Tb  Tb8  1  0.999739  0.760601  0.249821  1
  Tm  Tm9  1  0.659954  0.328248  0.996469  1
  In  In10  1  0.394204  0.394785  0.751177  1
  In  In11  1  0.606804  0.002926  0.751170  1
  Bi  Bi12  1  0.999459  0.609205  0.750809  1
  Bi  Bi13  1  0.608310  0.604415  0.248959  1
  Bi  Bi14  1  0.393113  0.997803  0.249333  1
  Bi  Bi15  1  0.998788  0.392128  0.249285  1
