# generated using pymatgen
data_Pr6EuSiBr12
_symmetry_space_group_name_H-M   'P 1'
_cell_length_a   9.58148185
_cell_length_b   9.58148250
_cell_length_c   9.58148196
_cell_angle_alpha   106.61794393
_cell_angle_beta   106.61793438
_cell_angle_gamma   106.61793859
_symmetry_Int_Tables_number   1
_chemical_formula_structural   Pr6EuSiBr12
_chemical_formula_sum   'Pr6 Eu1 Si1 Br12'
_cell_volume   740.06315968
_cell_formula_units_Z   1
loop_
 _symmetry_equiv_pos_site_id
 _symmetry_equiv_pos_as_xyz
  1  'x, y, z'
loop_
 _atom_site_type_symbol
 _atom_site_label
 _atom_site_symmetry_multiplicity
 _atom_site_fract_x
 _atom_site_fract_y
 _atom_site_fract_z
 _atom_site_occupancy
  Pr  Pr0  1  0.969091  0.891840  0.679199  1
  Pr  Pr1  1  0.030909  0.108160  0.320801  1
  Pr  Pr2  1  0.108160  0.320801  0.030909  1
  Pr  Pr3  1  0.320801  0.030909  0.108160  1
  Pr  Pr4  1  0.891840  0.679199  0.969091  1
  Pr  Pr5  1  0.679199  0.969091  0.891840  1
  Eu  Eu6  1  0.500000  0.500000  0.500000  1
  Si  Si7  1  0.000000  0.000000  0.000000  1
  Br  Br8  1  0.542373  0.622373  0.845603  1
  Br  Br9  1  0.457627  0.377627  0.154397  1
  Br  Br10  1  0.313552  0.926778  0.777822  1
  Br  Br11  1  0.377627  0.154397  0.457627  1
  Br  Br12  1  0.926778  0.777822  0.313552  1
  Br  Br13  1  0.686448  0.073222  0.222178  1
  Br  Br14  1  0.073222  0.222178  0.686448  1
  Br  Br15  1  0.777822  0.313552  0.926778  1
  Br  Br16  1  0.222178  0.686448  0.073222  1
  Br  Br17  1  0.845603  0.542373  0.622373  1
  Br  Br18  1  0.154397  0.457627  0.377627  1
  Br  Br19  1  0.622373  0.845603  0.542373  1
