# generated using pymatgen
data_Er6Tm14GaBi11
_symmetry_space_group_name_H-M   'P 1'
_cell_length_a   8.13196303
_cell_length_b   9.40097000
_cell_length_c   11.89720402
_cell_angle_alpha   90.00000000
_cell_angle_beta   89.68309009
_cell_angle_gamma   90.00000000
_symmetry_Int_Tables_number   1
_chemical_formula_structural   Er6Tm14GaBi11
_chemical_formula_sum   'Er6 Tm14 Ga1 Bi11'
_cell_volume   909.50759107
_cell_formula_units_Z   1
loop_
 _symmetry_equiv_pos_site_id
 _symmetry_equiv_pos_as_xyz
  1  'x, y, z'
loop_
 _atom_site_type_symbol
 _atom_site_label
 _atom_site_symmetry_multiplicity
 _atom_site_fract_x
 _atom_site_fract_y
 _atom_site_fract_z
 _atom_site_occupancy
  Er  Er0  1  0.978462  0.750000  0.489803  1
  Er  Er1  1  0.475204  0.750000  0.011014  1
  Er  Er2  1  0.646888  0.750000  0.716431  1
  Er  Er3  1  0.147830  0.750000  0.782838  1
  Er  Er4  1  0.810672  0.750000  0.218176  1
  Er  Er5  1  0.312796  0.750000  0.281128  1
  Tm  Tm6  1  0.037759  0.250000  0.510009  1
  Tm  Tm7  1  0.525671  0.250000  0.988838  1
  Tm  Tm8  1  0.356311  0.250000  0.293856  1
  Tm  Tm9  1  0.853757  0.250000  0.216204  1
  Tm  Tm10  1  0.192685  0.250000  0.777314  1
  Tm  Tm11  1  0.674301  0.250000  0.710407  1
  Tm  Tm12  1  0.193601  0.065865  0.060570  1
  Tm  Tm13  1  0.806613  0.934851  0.940661  1
  Tm  Tm14  1  0.308815  0.949565  0.559135  1
  Tm  Tm15  1  0.806613  0.565149  0.940661  1
  Tm  Tm16  1  0.684416  0.072307  0.444874  1
  Tm  Tm17  1  0.193601  0.434135  0.060570  1
  Tm  Tm18  1  0.684416  0.427693  0.444874  1
  Tm  Tm19  1  0.308815  0.550435  0.559135  1
  Ga  Ga20  1  0.408394  0.250000  0.539815  1
  Bi  Bi21  1  0.593383  0.750000  0.457435  1
  Bi  Bi22  1  0.093667  0.750000  0.042596  1
  Bi  Bi23  1  0.907821  0.250000  0.954839  1
  Bi  Bi24  1  0.063999  0.003214  0.324557  1
  Bi  Bi25  1  0.934598  0.998042  0.674992  1
  Bi  Bi26  1  0.435029  0.996570  0.825286  1
  Bi  Bi27  1  0.934598  0.501958  0.674992  1
  Bi  Bi28  1  0.565127  0.004822  0.174572  1
  Bi  Bi29  1  0.063999  0.496786  0.324557  1
  Bi  Bi30  1  0.565127  0.495178  0.174572  1
  Bi  Bi31  1  0.435029  0.503430  0.825286  1
