# generated using pymatgen
data_YHoEr8(In2Pt)4
_symmetry_space_group_name_H-M   'P 1'
_cell_length_a   3.59376900
_cell_length_b   8.14519400
_cell_length_c   18.20736401
_cell_angle_alpha   90.00275704
_cell_angle_beta   90.00000000
_cell_angle_gamma   90.00000000
_symmetry_Int_Tables_number   1
_chemical_formula_structural   YHoEr8(In2Pt)4
_chemical_formula_sum   'Y1 Ho1 Er8 In8 Pt4'
_cell_volume   532.96496997
_cell_formula_units_Z   1
loop_
 _symmetry_equiv_pos_site_id
 _symmetry_equiv_pos_as_xyz
  1  'x, y, z'
loop_
 _atom_site_type_symbol
 _atom_site_label
 _atom_site_symmetry_multiplicity
 _atom_site_fract_x
 _atom_site_fract_y
 _atom_site_fract_z
 _atom_site_occupancy
  Y  Y0  1  0.000000  0.500000  0.500000  1
  Ho  Ho1  1  0.000000  0.000000  0.000000  1
  Er  Er2  1  0.000000  0.116748  0.414265  1
  Er  Er3  1  0.000000  0.883252  0.585735  1
  Er  Er4  1  0.000000  0.383191  0.914308  1
  Er  Er5  1  0.000000  0.616809  0.085692  1
  Er  Er6  1  0.000000  0.243127  0.220229  1
  Er  Er7  1  0.000000  0.756873  0.779771  1
  Er  Er8  1  0.000000  0.256851  0.720264  1
  Er  Er9  1  0.000000  0.743149  0.279736  1
  In  In10  1  0.500000  0.423101  0.350714  1
  In  In11  1  0.500000  0.576899  0.649286  1
  In  In12  1  0.500000  0.076782  0.850834  1
  In  In13  1  0.500000  0.923218  0.149166  1
  In  In14  1  0.500000  0.292798  0.066607  1
  In  In15  1  0.500000  0.707202  0.933393  1
  In  In16  1  0.500000  0.206838  0.566685  1
  In  In17  1  0.500000  0.793162  0.433315  1
  Pt  Pt18  1  0.500000  0.024741  0.303295  1
  Pt  Pt19  1  0.500000  0.975259  0.696705  1
  Pt  Pt20  1  0.500000  0.475241  0.803302  1
  Pt  Pt21  1  0.500000  0.524759  0.196698  1
