# generated using pymatgen
data_La10Pr6AlCd3Ir4
_symmetry_space_group_name_H-M   'P 1'
_cell_length_a   10.07574755
_cell_length_b   10.06221800
_cell_length_c   10.06710965
_cell_angle_alpha   59.92979820
_cell_angle_beta   59.96093117
_cell_angle_gamma   59.94600682
_symmetry_Int_Tables_number   1
_chemical_formula_structural   La10Pr6AlCd3Ir4
_chemical_formula_sum   'La10 Pr6 Al1 Cd3 Ir4'
_cell_volume   720.81590493
_cell_formula_units_Z   1
loop_
 _symmetry_equiv_pos_site_id
 _symmetry_equiv_pos_as_xyz
  1  'x, y, z'
loop_
 _atom_site_type_symbol
 _atom_site_label
 _atom_site_symmetry_multiplicity
 _atom_site_fract_x
 _atom_site_fract_y
 _atom_site_fract_z
 _atom_site_occupancy
  La  La0  1  0.346703  0.346682  0.346648  1
  La  La1  1  0.349104  0.349315  0.955981  1
  La  La2  1  0.349216  0.955926  0.349293  1
  La  La3  1  0.956103  0.349097  0.349125  1
  La  La4  1  0.809846  0.189971  0.189945  1
  La  La5  1  0.192605  0.805893  0.805944  1
  La  La6  1  0.189840  0.809839  0.189981  1
  La  La7  1  0.805709  0.192985  0.805696  1
  La  La8  1  0.189965  0.189935  0.809817  1
  La  La9  1  0.805705  0.805910  0.192858  1
  Pr  Pr10  1  0.936460  0.563317  0.563340  1
  Pr  Pr11  1  0.562112  0.936960  0.936996  1
  Pr  Pr12  1  0.563735  0.936545  0.563463  1
  Pr  Pr13  1  0.936960  0.562084  0.936886  1
  Pr  Pr14  1  0.563706  0.563256  0.936529  1
  Pr  Pr15  1  0.937038  0.936834  0.562063  1
  Al  Al16  1  0.580238  0.580276  0.580288  1
  Cd  Cd17  1  0.579813  0.579669  0.263293  1
  Cd  Cd18  1  0.579738  0.263337  0.579681  1
  Cd  Cd19  1  0.263212  0.579768  0.579789  1
  Ir  Ir20  1  0.140872  0.141056  0.141002  1
  Ir  Ir21  1  0.141544  0.141750  0.578093  1
  Ir  Ir22  1  0.141641  0.578065  0.141737  1
  Ir  Ir23  1  0.578134  0.141527  0.141551  1
