# generated using pymatgen
data_Li3Er4Si8Pt
_symmetry_space_group_name_H-M   'P 1'
_cell_length_a   3.79328300
_cell_length_b   7.44960064
_cell_length_c   10.02329900
_cell_angle_alpha   90.23308775
_cell_angle_beta   90.00000000
_cell_angle_gamma   90.00000000
_symmetry_Int_Tables_number   1
_chemical_formula_structural   Li3Er4Si8Pt
_chemical_formula_sum   'Li3 Er4 Si8 Pt1'
_cell_volume   283.24048449
_cell_formula_units_Z   1
loop_
 _symmetry_equiv_pos_site_id
 _symmetry_equiv_pos_as_xyz
  1  'x, y, z'
loop_
 _atom_site_type_symbol
 _atom_site_label
 _atom_site_symmetry_multiplicity
 _atom_site_fract_x
 _atom_site_fract_y
 _atom_site_fract_z
 _atom_site_occupancy
  Li  Li0  1  0.250000  0.489183  0.107234  1
  Li  Li1  1  0.750000  0.009854  0.604072  1
  Li  Li2  1  0.750000  0.507399  0.892445  1
  Er  Er3  1  0.250000  0.138437  0.865174  1
  Er  Er4  1  0.250000  0.643663  0.631462  1
  Er  Er5  1  0.750000  0.860814  0.135711  1
  Er  Er6  1  0.750000  0.367884  0.365866  1
  Si  Si7  1  0.250000  0.227065  0.565156  1
  Si  Si8  1  0.250000  0.731706  0.930178  1
  Si  Si9  1  0.750000  0.770995  0.435442  1
  Si  Si10  1  0.750000  0.264065  0.071888  1
  Si  Si11  1  0.250000  0.658510  0.317931  1
  Si  Si12  1  0.250000  0.153928  0.186552  1
  Si  Si13  1  0.750000  0.340943  0.677740  1
  Si  Si14  1  0.750000  0.845424  0.817857  1
  Pt  Pt15  1  0.250000  0.990128  0.395294  1
