# generated using pymatgen
data_TbSmDyTaO7
_symmetry_space_group_name_H-M   'P 1'
_cell_length_a   6.50035724
_cell_length_b   6.50035653
_cell_length_c   7.59078200
_cell_angle_alpha   90.00000000
_cell_angle_beta   90.00000000
_cell_angle_gamma   109.41407682
_symmetry_Int_Tables_number   1
_chemical_formula_structural   TbSmDyTaO7
_chemical_formula_sum   'Tb2 Sm2 Dy2 Ta2 O14'
_cell_volume   302.50848197
_cell_formula_units_Z   2
loop_
 _symmetry_equiv_pos_site_id
 _symmetry_equiv_pos_as_xyz
  1  'x, y, z'
loop_
 _atom_site_type_symbol
 _atom_site_label
 _atom_site_symmetry_multiplicity
 _atom_site_fract_x
 _atom_site_fract_y
 _atom_site_fract_z
 _atom_site_occupancy
  Tb  Tb0  1  0.534362  0.000478  0.750000  1
  Tb  Tb1  1  0.000478  0.534362  0.250000  1
  Sm  Sm2  1  0.499796  0.499796  0.500000  1
  Sm  Sm3  1  0.499796  0.499796  0.000000  1
  Dy  Dy4  1  0.466141  0.999263  0.250000  1
  Dy  Dy5  1  0.999263  0.466141  0.750000  1
  Ta  Ta6  1  0.999993  0.999993  0.500000  1
  Ta  Ta7  1  0.999993  0.999993  0.000000  1
  O  O8  1  0.679804  0.929824  0.467587  1
  O  O9  1  0.929824  0.679804  0.532413  1
  O  O10  1  0.679804  0.929824  0.032413  1
  O  O11  1  0.929824  0.679804  0.967587  1
  O  O12  1  0.320224  0.070365  0.531158  1
  O  O13  1  0.070365  0.320224  0.468842  1
  O  O14  1  0.320224  0.070365  0.968842  1
  O  O15  1  0.070365  0.320224  0.031158  1
  O  O16  1  0.935871  0.064428  0.750000  1
  O  O17  1  0.064428  0.935871  0.250000  1
  O  O18  1  0.365717  0.632039  0.750000  1
  O  O19  1  0.632039  0.365717  0.250000  1
  O  O20  1  0.640533  0.361156  0.750000  1
  O  O21  1  0.361156  0.640533  0.250000  1
