# generated using pymatgen
data_Lu3ThHgIr
_symmetry_space_group_name_H-M   'P 1'
_cell_length_a   9.57064278
_cell_length_b   9.57064233
_cell_length_c   9.57064300
_cell_angle_alpha   60.00000113
_cell_angle_beta   60.00000269
_cell_angle_gamma   60.00000422
_symmetry_Int_Tables_number   1
_chemical_formula_structural   Lu3ThHgIr
_chemical_formula_sum   'Lu12 Th4 Hg4 Ir4'
_cell_volume   619.88101841
_cell_formula_units_Z   4
loop_
 _symmetry_equiv_pos_site_id
 _symmetry_equiv_pos_as_xyz
  1  'x, y, z'
loop_
 _atom_site_type_symbol
 _atom_site_label
 _atom_site_symmetry_multiplicity
 _atom_site_fract_x
 _atom_site_fract_y
 _atom_site_fract_z
 _atom_site_occupancy
  Lu  Lu0  1  0.813284  0.186716  0.186716  1
  Lu  Lu1  1  0.186716  0.813284  0.813284  1
  Lu  Lu2  1  0.186716  0.813284  0.186716  1
  Lu  Lu3  1  0.813284  0.186716  0.813284  1
  Lu  Lu4  1  0.186716  0.186716  0.813284  1
  Lu  Lu5  1  0.813284  0.813284  0.186716  1
  Lu  Lu6  1  0.933990  0.566010  0.566010  1
  Lu  Lu7  1  0.566010  0.933990  0.933990  1
  Lu  Lu8  1  0.566010  0.933990  0.566010  1
  Lu  Lu9  1  0.933990  0.566010  0.933990  1
  Lu  Lu10  1  0.566010  0.566010  0.933990  1
  Lu  Lu11  1  0.933990  0.933990  0.566010  1
  Th  Th12  1  0.352834  0.352834  0.352834  1
  Th  Th13  1  0.352834  0.352834  0.941496  1
  Th  Th14  1  0.352834  0.941496  0.352834  1
  Th  Th15  1  0.941496  0.352834  0.352834  1
  Hg  Hg16  1  0.588356  0.588356  0.588356  1
  Hg  Hg17  1  0.588356  0.588356  0.234932  1
  Hg  Hg18  1  0.588356  0.234932  0.588356  1
  Hg  Hg19  1  0.234932  0.588356  0.588356  1
  Ir  Ir20  1  0.142327  0.142327  0.142327  1
  Ir  Ir21  1  0.142327  0.142327  0.573016  1
  Ir  Ir22  1  0.142327  0.573016  0.142327  1
  Ir  Ir23  1  0.573016  0.142327  0.142327  1
