# generated using pymatgen
data_LaNd5Ir18
_symmetry_space_group_name_H-M   'P 1'
_cell_length_a   5.38972200
_cell_length_b   5.38968233
_cell_length_c   17.64946500
_cell_angle_alpha   90.00000000
_cell_angle_beta   90.00000000
_cell_angle_gamma   119.99623273
_symmetry_Int_Tables_number   1
_chemical_formula_structural   LaNd5Ir18
_chemical_formula_sum   'La1 Nd5 Ir18'
_cell_volume   444.02579002
_cell_formula_units_Z   1
loop_
 _symmetry_equiv_pos_site_id
 _symmetry_equiv_pos_as_xyz
  1  'x, y, z'
loop_
 _atom_site_type_symbol
 _atom_site_label
 _atom_site_symmetry_multiplicity
 _atom_site_fract_x
 _atom_site_fract_y
 _atom_site_fract_z
 _atom_site_occupancy
  La  La0  1  0.666667  0.333332  0.250000  1
  Nd  Nd1  1  0.333324  0.666661  0.959123  1
  Nd  Nd2  1  0.666672  0.333338  0.040443  1
  Nd  Nd3  1  0.666672  0.333338  0.459557  1
  Nd  Nd4  1  0.333324  0.666661  0.540877  1
  Nd  Nd5  1  0.333352  0.666688  0.750000  1
  Ir  Ir6  1  0.166490  0.833514  0.372478  1
  Ir  Ir7  1  0.166485  0.332962  0.372472  1
  Ir  Ir8  1  0.667038  0.833516  0.372479  1
  Ir  Ir9  1  0.833598  0.166390  0.628267  1
  Ir  Ir10  1  0.833605  0.667226  0.628265  1
  Ir  Ir11  1  0.332821  0.166409  0.628278  1
  Ir  Ir12  1  0.833598  0.166390  0.871733  1
  Ir  Ir13  1  0.833605  0.667226  0.871735  1
  Ir  Ir14  1  0.332821  0.166409  0.871722  1
  Ir  Ir15  1  0.166490  0.833514  0.127522  1
  Ir  Ir16  1  0.166485  0.332962  0.127528  1
  Ir  Ir17  1  0.667038  0.833516  0.127521  1
  Ir  Ir18  1  0.333309  0.666654  0.250000  1
  Ir  Ir19  1  0.666866  0.333490  0.750000  1
  Ir  Ir20  1  0.999996  0.999998  0.250000  1
  Ir  Ir21  1  0.999749  0.999805  0.750000  1
  Ir  Ir22  1  0.999998  0.000000  0.500139  1
  Ir  Ir23  1  0.999998  0.000000  0.999861  1
