# generated using pymatgen
data_PrNd5Th2(As2Au)8
_symmetry_space_group_name_H-M   'P 1'
_cell_length_a   5.85240700
_cell_length_b   5.87679004
_cell_length_c   20.52058545
_cell_angle_alpha   89.74449821
_cell_angle_beta   90.00000000
_cell_angle_gamma   90.00000000
_symmetry_Int_Tables_number   1
_chemical_formula_structural   PrNd5Th2(As2Au)8
_chemical_formula_sum   'Pr1 Nd5 Th2 As16 Au8'
_cell_volume   705.76501284
_cell_formula_units_Z   1
loop_
 _symmetry_equiv_pos_site_id
 _symmetry_equiv_pos_as_xyz
  1  'x, y, z'
loop_
 _atom_site_type_symbol
 _atom_site_label
 _atom_site_symmetry_multiplicity
 _atom_site_fract_x
 _atom_site_fract_y
 _atom_site_fract_z
 _atom_site_occupancy
  Pr  Pr0  1  0.750000  0.512981  0.114590  1
  Nd  Nd1  1  0.750000  0.986112  0.881180  1
  Nd  Nd2  1  0.250000  0.013898  0.118765  1
  Nd  Nd3  1  0.750000  0.489944  0.613626  1
  Nd  Nd4  1  0.250000  0.510059  0.386401  1
  Nd  Nd5  1  0.250000  0.487007  0.885367  1
  Th  Th6  1  0.250000  0.989848  0.617334  1
  Th  Th7  1  0.750000  0.010158  0.382703  1
  As  As8  1  0.750000  0.988984  0.655675  1
  As  As9  1  0.250000  0.011025  0.344313  1
  As  As10  1  0.250000  0.986829  0.840126  1
  As  As11  1  0.750000  0.013165  0.160084  1
  As  As12  1  0.250000  0.489173  0.654483  1
  As  As13  1  0.750000  0.510831  0.345523  1
  As  As14  1  0.750000  0.486571  0.840330  1
  As  As15  1  0.250000  0.513427  0.159902  1
  As  As16  1  0.003584  0.229649  0.500162  1
  As  As17  1  0.503590  0.770347  0.499829  1
  As  As18  1  0.983942  0.223676  0.999191  1
  As  As19  1  0.482797  0.776362  0.000447  1
  As  As20  1  0.996410  0.770347  0.499829  1
  As  As21  1  0.496416  0.229649  0.500162  1
  As  As22  1  0.017203  0.776362  0.000447  1
  As  As23  1  0.516058  0.223676  0.999191  1
  Au  Au24  1  0.499526  0.732230  0.749650  1
  Au  Au25  1  0.999623  0.267651  0.250439  1
  Au  Au26  1  0.500377  0.267651  0.250439  1
  Au  Au27  1  0.000474  0.732230  0.749650  1
  Au  Au28  1  0.499955  0.234302  0.749631  1
  Au  Au29  1  0.000053  0.765776  0.250449  1
  Au  Au30  1  0.499947  0.765776  0.250449  1
  Au  Au31  1  0.000045  0.234302  0.749631  1
