# generated using pymatgen
data_Pr4YUSe10
_symmetry_space_group_name_H-M   'P 1'
_cell_length_a   7.93284700
_cell_length_b   8.43811900
_cell_length_c   12.54822500
_cell_angle_alpha   90.00000000
_cell_angle_beta   90.00000000
_cell_angle_gamma   90.00000000
_symmetry_Int_Tables_number   1
_chemical_formula_structural   Pr4YUSe10
_chemical_formula_sum   'Pr8 Y2 U2 Se20'
_cell_volume   839.95693729
_cell_formula_units_Z   2
loop_
 _symmetry_equiv_pos_site_id
 _symmetry_equiv_pos_as_xyz
  1  'x, y, z'
loop_
 _atom_site_type_symbol
 _atom_site_label
 _atom_site_symmetry_multiplicity
 _atom_site_fract_x
 _atom_site_fract_y
 _atom_site_fract_z
 _atom_site_occupancy
  Pr  Pr0  1  0.528926  0.501251  0.322255  1
  Pr  Pr1  1  0.971074  0.998749  0.822255  1
  Pr  Pr2  1  0.475034  0.996460  0.677802  1
  Pr  Pr3  1  0.024966  0.503540  0.177802  1
  Pr  Pr4  1  0.475034  0.503540  0.677802  1
  Pr  Pr5  1  0.024966  0.996460  0.177802  1
  Pr  Pr6  1  0.528926  0.998749  0.322255  1
  Pr  Pr7  1  0.971074  0.501251  0.822255  1
  Y  Y8  1  0.073736  0.750000  0.493804  1
  Y  Y9  1  0.426264  0.750000  0.993804  1
  U  U10  1  0.940631  0.250000  0.506449  1
  U  U11  1  0.559369  0.250000  0.006449  1
  Se  Se12  1  0.833481  0.965809  0.594421  1
  Se  Se13  1  0.666519  0.534191  0.094421  1
  Se  Se14  1  0.164405  0.453479  0.406469  1
  Se  Se15  1  0.335595  0.046521  0.906469  1
  Se  Se16  1  0.164405  0.046521  0.406469  1
  Se  Se17  1  0.335595  0.453479  0.906469  1
  Se  Se18  1  0.833481  0.534191  0.594421  1
  Se  Se19  1  0.666519  0.965809  0.094421  1
  Se  Se20  1  0.831467  0.750000  0.313654  1
  Se  Se21  1  0.668533  0.750000  0.813654  1
  Se  Se22  1  0.166360  0.250000  0.683560  1
  Se  Se23  1  0.333640  0.250000  0.183560  1
  Se  Se24  1  0.455096  0.750000  0.497750  1
  Se  Se25  1  0.044904  0.750000  0.997750  1
  Se  Se26  1  0.549733  0.250000  0.499590  1
  Se  Se27  1  0.950267  0.250000  0.999590  1
  Se  Se28  1  0.191257  0.750000  0.713675  1
  Se  Se29  1  0.308743  0.750000  0.213675  1
  Se  Se30  1  0.810200  0.250000  0.289623  1
  Se  Se31  1  0.689800  0.250000  0.789623  1
