# generated using pymatgen
data_Th10ZnSn5Bi2
_symmetry_space_group_name_H-M   'P 1'
_cell_length_a   9.67083168
_cell_length_b   9.67083133
_cell_length_c   6.61779942
_cell_angle_alpha   89.97958944
_cell_angle_beta   89.97959079
_cell_angle_gamma   120.09778734
_symmetry_Int_Tables_number   1
_chemical_formula_structural   Th10ZnSn5Bi2
_chemical_formula_sum   'Th10 Zn1 Sn5 Bi2'
_cell_volume   535.47964816
_cell_formula_units_Z   1
loop_
 _symmetry_equiv_pos_site_id
 _symmetry_equiv_pos_as_xyz
  1  'x, y, z'
loop_
 _atom_site_type_symbol
 _atom_site_label
 _atom_site_symmetry_multiplicity
 _atom_site_fract_x
 _atom_site_fract_y
 _atom_site_fract_z
 _atom_site_occupancy
  Th  Th0  1  0.004021  0.722246  0.761107  1
  Th  Th1  1  0.277026  0.277026  0.761341  1
  Th  Th2  1  0.330526  0.666942  0.498693  1
  Th  Th3  1  0.666942  0.330526  0.498693  1
  Th  Th4  1  0.721677  0.721677  0.238839  1
  Th  Th5  1  0.722246  0.004021  0.761107  1
  Th  Th6  1  0.999833  0.279254  0.239189  1
  Th  Th7  1  0.279254  0.999833  0.239189  1
  Th  Th8  1  0.331143  0.667304  0.001143  1
  Th  Th9  1  0.667304  0.331143  0.001143  1
  Zn  Zn10  1  0.000005  0.000005  0.000636  1
  Sn  Sn11  1  0.000602  0.379567  0.748290  1
  Sn  Sn12  1  0.379567  0.000602  0.748290  1
  Sn  Sn13  1  0.620872  0.999685  0.251652  1
  Sn  Sn14  1  0.379096  0.379096  0.251648  1
  Sn  Sn15  1  0.999685  0.620872  0.251652  1
  Bi  Bi16  1  0.620658  0.620658  0.747325  1
  Bi  Bi17  1  0.999542  0.999542  0.500066  1
