# generated using pymatgen
data_Yb3Th5(BiPt2)4
_symmetry_space_group_name_H-M   'P 1'
_cell_length_a   8.03705954
_cell_length_b   8.03705898
_cell_length_c   7.52596900
_cell_angle_alpha   90.00000000
_cell_angle_beta   90.00000000
_cell_angle_gamma   90.55279955
_symmetry_Int_Tables_number   1
_chemical_formula_structural   Yb3Th5(BiPt2)4
_chemical_formula_sum   'Yb3 Th5 Bi4 Pt8'
_cell_volume   486.11223504
_cell_formula_units_Z   1
loop_
 _symmetry_equiv_pos_site_id
 _symmetry_equiv_pos_as_xyz
  1  'x, y, z'
loop_
 _atom_site_type_symbol
 _atom_site_label
 _atom_site_symmetry_multiplicity
 _atom_site_fract_x
 _atom_site_fract_y
 _atom_site_fract_z
 _atom_site_occupancy
  Yb  Yb0  1  0.663506  0.663506  0.500000  1
  Yb  Yb1  1  0.839561  0.158429  0.000000  1
  Yb  Yb2  1  0.158429  0.839561  0.000000  1
  Th  Th3  1  0.678029  0.678029  0.000000  1
  Th  Th4  1  0.340785  0.340785  0.500000  1
  Th  Th5  1  0.823244  0.174333  0.500000  1
  Th  Th6  1  0.324167  0.324167  0.000000  1
  Th  Th7  1  0.174333  0.823244  0.500000  1
  Bi  Bi8  1  0.502057  0.994684  0.752620  1
  Bi  Bi9  1  0.502057  0.994684  0.247380  1
  Bi  Bi10  1  0.994684  0.502057  0.752620  1
  Bi  Bi11  1  0.994684  0.502057  0.247380  1
  Pt  Pt12  1  0.875402  0.875402  0.733291  1
  Pt  Pt13  1  0.130515  0.130515  0.731619  1
  Pt  Pt14  1  0.625373  0.370943  0.764849  1
  Pt  Pt15  1  0.625373  0.370943  0.235151  1
  Pt  Pt16  1  0.370943  0.625373  0.235151  1
  Pt  Pt17  1  0.130515  0.130515  0.268381  1
  Pt  Pt18  1  0.875402  0.875402  0.266709  1
  Pt  Pt19  1  0.370943  0.625373  0.764849  1
