# generated using pymatgen
data_TbTa5TiSn6
_symmetry_space_group_name_H-M   'P 1'
_cell_length_a   5.77288617
_cell_length_b   5.77288623
_cell_length_c   9.61834400
_cell_angle_alpha   90.00000000
_cell_angle_beta   90.00000000
_cell_angle_gamma   120.04016827
_symmetry_Int_Tables_number   1
_chemical_formula_structural   TbTa5TiSn6
_chemical_formula_sum   'Tb1 Ta5 Ti1 Sn6'
_cell_volume   277.48595185
_cell_formula_units_Z   1
loop_
 _symmetry_equiv_pos_site_id
 _symmetry_equiv_pos_as_xyz
  1  'x, y, z'
loop_
 _atom_site_type_symbol
 _atom_site_label
 _atom_site_symmetry_multiplicity
 _atom_site_fract_x
 _atom_site_fract_y
 _atom_site_fract_z
 _atom_site_occupancy
  Tb  Tb0  1  0.000000  0.000000  0.998780  1
  Ta  Ta1  1  0.000000  0.500000  0.752145  1
  Ta  Ta2  1  0.500000  0.500000  0.749119  1
  Ta  Ta3  1  0.500000  0.000000  0.752145  1
  Ta  Ta4  1  0.000000  0.500000  0.249539  1
  Ta  Ta5  1  0.500000  0.000000  0.249539  1
  Ti  Ti6  1  0.500000  0.500000  0.249078  1
  Sn  Sn7  1  0.665641  0.334359  0.499260  1
  Sn  Sn8  1  0.334359  0.665641  0.499260  1
  Sn  Sn9  1  0.665535  0.334465  0.001467  1
  Sn  Sn10  1  0.334465  0.665535  0.001467  1
  Sn  Sn11  1  0.000000  0.000000  0.668693  1
  Sn  Sn12  1  0.000000  0.000000  0.329508  1
