# generated using pymatgen
data_TmScB24
_symmetry_space_group_name_H-M   'P 1'
_cell_length_a   5.26123642
_cell_length_b   5.26123693
_cell_length_c   9.11091656
_cell_angle_alpha   73.21790674
_cell_angle_beta   106.78209485
_cell_angle_gamma   120.00000821
_symmetry_Int_Tables_number   1
_chemical_formula_structural   TmScB24
_chemical_formula_sum   'Tm1 Sc1 B24'
_cell_volume   205.91181899
_cell_formula_units_Z   1
loop_
 _symmetry_equiv_pos_site_id
 _symmetry_equiv_pos_as_xyz
  1  'x, y, z'
loop_
 _atom_site_type_symbol
 _atom_site_label
 _atom_site_symmetry_multiplicity
 _atom_site_fract_x
 _atom_site_fract_y
 _atom_site_fract_z
 _atom_site_occupancy
  Tm  Tm0  1  0.750018  0.249982  0.250056  1
  Sc  Sc1  1  0.250544  0.749456  0.751631  1
  B  B2  1  0.000020  0.662093  0.998437  1
  B  B3  1  0.660510  0.999980  0.998437  1
  B  B4  1  0.337907  0.339490  0.998437  1
  B  B5  1  0.337907  0.999980  0.998437  1
  B  B6  1  0.660510  0.662093  0.998437  1
  B  B7  1  0.000020  0.339490  0.998437  1
  B  B8  1  0.669272  0.330728  0.669727  1
  B  B9  1  0.331183  0.330728  0.669727  1
  B  B10  1  0.669272  0.668817  0.669727  1
  B  B11  1  0.330929  0.669071  0.331532  1
  B  B12  1  0.669673  0.669071  0.331532  1
  B  B13  1  0.330929  0.330327  0.331532  1
  B  B14  1  0.169006  0.830994  0.168331  1
  B  B15  1  0.830318  0.830994  0.168331  1
  B  B16  1  0.169006  0.169682  0.168331  1
  B  B17  1  0.830676  0.169324  0.830100  1
  B  B18  1  0.168746  0.169324  0.830100  1
  B  B19  1  0.830676  0.831254  0.830100  1
  B  B20  1  0.499835  0.160761  0.501437  1
  B  B21  1  0.162363  0.500165  0.501437  1
  B  B22  1  0.839239  0.837637  0.501437  1
  B  B23  1  0.839239  0.500165  0.501437  1
  B  B24  1  0.162363  0.160761  0.501437  1
  B  B25  1  0.499835  0.837637  0.501437  1
