# generated using pymatgen
data_Tm4Al17GaPtRh5
_symmetry_space_group_name_H-M   'P 1'
_cell_length_a   7.52831386
_cell_length_b   7.52929667
_cell_length_c   9.42483626
_cell_angle_alpha   89.97780174
_cell_angle_beta   89.96923865
_cell_angle_gamma   119.35690760
_symmetry_Int_Tables_number   1
_chemical_formula_structural   Tm4Al17GaPtRh5
_chemical_formula_sum   'Tm4 Al17 Ga1 Pt1 Rh5'
_cell_volume   465.62296918
_cell_formula_units_Z   1
loop_
 _symmetry_equiv_pos_site_id
 _symmetry_equiv_pos_as_xyz
  1  'x, y, z'
loop_
 _atom_site_type_symbol
 _atom_site_label
 _atom_site_symmetry_multiplicity
 _atom_site_fract_x
 _atom_site_fract_y
 _atom_site_fract_z
 _atom_site_occupancy
  Tm  Tm0  1  0.993486  0.672528  0.250362  1
  Tm  Tm1  1  0.003773  0.327525  0.749882  1
  Tm  Tm2  1  0.674448  0.995544  0.250059  1
  Tm  Tm3  1  0.329233  0.005816  0.749639  1
  Al  Al4  1  0.872937  0.872203  0.749727  1
  Al  Al5  1  0.004646  0.335955  0.077078  1
  Al  Al6  1  0.002964  0.667915  0.922976  1
  Al  Al7  1  0.000862  0.664588  0.575382  1
  Al  Al8  1  0.335642  0.999089  0.424610  1
  Al  Al9  1  0.000893  0.335663  0.424230  1
  Al  Al10  1  0.664550  0.999203  0.575639  1
  Al  Al11  1  0.664013  0.995432  0.923008  1
  Al  Al12  1  0.332095  0.997010  0.077007  1
  Al  Al13  1  0.332022  0.331936  0.553066  1
  Al  Al14  1  0.667237  0.667231  0.449154  1
  Al  Al15  1  0.666299  0.669534  0.053855  1
  Al  Al16  1  0.329714  0.333033  0.943850  1
  Al  Al17  1  0.339689  0.552964  0.250469  1
  Al  Al18  1  0.660536  0.452817  0.746681  1
  Al  Al19  1  0.547948  0.339123  0.253299  1
  Al  Al20  1  0.448250  0.660015  0.749492  1
  Ga  Ga21  1  0.130357  0.129315  0.250271  1
  Pt  Pt22  1  0.671767  0.326920  0.000227  1
  Rh  Rh23  1  0.327329  0.671408  0.999994  1
  Rh  Rh24  1  0.327567  0.671214  0.500015  1
  Rh  Rh25  1  0.672073  0.326859  0.499976  1
  Rh  Rh26  1  0.999799  0.999781  0.998030  1
  Rh  Rh27  1  0.999872  0.999377  0.502023  1
