# generated using pymatgen
data_La8TbDyIr4
_symmetry_space_group_name_H-M   'P 1'
_cell_length_a   6.71946878
_cell_length_b   7.30518017
_cell_length_c   9.14204947
_cell_angle_alpha   95.80385467
_cell_angle_beta   111.56172681
_cell_angle_gamma   90.00000617
_symmetry_Int_Tables_number   1
_chemical_formula_structural   La8TbDyIr4
_chemical_formula_sum   'La8 Tb1 Dy1 Ir4'
_cell_volume   414.87779326
_cell_formula_units_Z   1
loop_
 _symmetry_equiv_pos_site_id
 _symmetry_equiv_pos_as_xyz
  1  'x, y, z'
loop_
 _atom_site_type_symbol
 _atom_site_label
 _atom_site_symmetry_multiplicity
 _atom_site_fract_x
 _atom_site_fract_y
 _atom_site_fract_z
 _atom_site_occupancy
  La  La0  1  0.799291  0.083562  0.818626  1
  La  La1  1  0.980665  0.416438  0.181374  1
  La  La2  1  0.200630  0.916220  0.181348  1
  La  La3  1  0.019283  0.583780  0.818652  1
  La  La4  1  0.216497  0.184876  0.573678  1
  La  La5  1  0.642820  0.315124  0.426322  1
  La  La6  1  0.783470  0.815110  0.426120  1
  La  La7  1  0.357349  0.684890  0.573880  1
  Tb  Tb8  1  0.433904  0.250000  0.000000  1
  Dy  Dy9  1  0.565884  0.750000  0.000000  1
  Ir  Ir10  1  0.596761  0.426216  0.787193  1
  Ir  Ir11  1  0.809568  0.073784  0.212807  1
  Ir  Ir12  1  0.403351  0.574402  0.212824  1
  Ir  Ir13  1  0.190526  0.925598  0.787176  1
