# generated using pymatgen
data_Li3Sc3ZnP2
_symmetry_space_group_name_H-M   'P 1'
_cell_length_a   6.58933500
_cell_length_b   6.58933568
_cell_length_c   3.90515800
_cell_angle_alpha   90.00000000
_cell_angle_beta   90.00000000
_cell_angle_gamma   120.00000161
_symmetry_Int_Tables_number   1
_chemical_formula_structural   Li3Sc3ZnP2
_chemical_formula_sum   'Li3 Sc3 Zn1 P2'
_cell_volume   146.84273145
_cell_formula_units_Z   1
loop_
 _symmetry_equiv_pos_site_id
 _symmetry_equiv_pos_as_xyz
  1  'x, y, z'
loop_
 _atom_site_type_symbol
 _atom_site_label
 _atom_site_symmetry_multiplicity
 _atom_site_fract_x
 _atom_site_fract_y
 _atom_site_fract_z
 _atom_site_occupancy
  Li  Li0  1  0.000000  0.747136  0.000000  1
  Li  Li1  1  0.252864  0.252864  0.000000  1
  Li  Li2  1  0.747136  0.000000  0.000000  1
  Sc  Sc3  1  0.000000  0.426072  0.500000  1
  Sc  Sc4  1  0.573928  0.573928  0.500000  1
  Sc  Sc5  1  0.426072  0.000000  0.500000  1
  Zn  Zn6  1  0.000000  0.000000  0.500000  1
  P  P7  1  0.666667  0.333333  0.000000  1
  P  P8  1  0.333333  0.666667  0.000000  1
