# generated using pymatgen
data_PaZn9Cu2
_symmetry_space_group_name_H-M   'P 1'
_cell_length_a   8.10323523
_cell_length_b   8.10324709
_cell_length_c   8.10345770
_cell_angle_alpha   99.95776442
_cell_angle_beta   99.95760877
_cell_angle_gamma   130.85465023
_symmetry_Int_Tables_number   1
_chemical_formula_structural   PaZn9Cu2
_chemical_formula_sum   'Pa2 Zn18 Cu4'
_cell_volume   366.01481633
_cell_formula_units_Z   2
loop_
 _symmetry_equiv_pos_site_id
 _symmetry_equiv_pos_as_xyz
  1  'x, y, z'
loop_
 _atom_site_type_symbol
 _atom_site_label
 _atom_site_symmetry_multiplicity
 _atom_site_fract_x
 _atom_site_fract_y
 _atom_site_fract_z
 _atom_site_occupancy
  Pa  Pa0  1  0.250001  0.750001  0.500000  1
  Pa  Pa1  1  0.999999  0.999998  0.000000  1
  Zn  Zn2  1  0.426013  0.101289  0.917245  1
  Zn  Zn3  1  0.184043  0.508765  0.082754  1
  Zn  Zn4  1  0.500000  0.499999  0.999999  1
  Zn  Zn5  1  0.749999  0.250000  0.500001  1
  Zn  Zn6  1  0.184046  0.101298  0.675283  1
  Zn  Zn7  1  0.758755  0.933995  0.582756  1
  Zn  Zn8  1  0.351238  0.175998  0.417243  1
  Zn  Zn9  1  0.426014  0.508762  0.324717  1
  Zn  Zn10  1  0.898703  0.815956  0.324718  1
  Zn  Zn11  1  0.491239  0.573986  0.675282  1
  Zn  Zn12  1  0.066004  0.241245  0.417244  1
  Zn  Zn13  1  0.824002  0.648762  0.582757  1
  Zn  Zn14  1  0.066002  0.648753  0.824754  1
  Zn  Zn15  1  0.491234  0.815957  0.917246  1
  Zn  Zn16  1  0.898711  0.573988  0.082754  1
  Zn  Zn17  1  0.824000  0.241249  0.175246  1
  Zn  Zn18  1  0.351246  0.933997  0.175245  1
  Zn  Zn19  1  0.758751  0.176000  0.824755  1
  Cu  Cu20  1  0.624958  0.374935  0.749977  1
  Cu  Cu21  1  0.125020  0.375042  0.749978  1
  Cu  Cu22  1  0.625065  0.375043  0.250022  1
  Cu  Cu23  1  0.624958  0.874980  0.250023  1
