# generated using pymatgen
data_La5Ce(OsI3)2
_symmetry_space_group_name_H-M   'P 1'
_cell_length_a   4.41376100
_cell_length_b   9.48863092
_cell_length_c   12.41485500
_cell_angle_alpha   86.29981396
_cell_angle_beta   90.00000000
_cell_angle_gamma   90.00000000
_symmetry_Int_Tables_number   1
_chemical_formula_structural   La5Ce(OsI3)2
_chemical_formula_sum   'La5 Ce1 Os2 I6'
_cell_volume   518.85707987
_cell_formula_units_Z   1
loop_
 _symmetry_equiv_pos_site_id
 _symmetry_equiv_pos_as_xyz
  1  'x, y, z'
loop_
 _atom_site_type_symbol
 _atom_site_label
 _atom_site_symmetry_multiplicity
 _atom_site_fract_x
 _atom_site_fract_y
 _atom_site_fract_z
 _atom_site_occupancy
  La  La0  1  0.750000  0.686195  0.120766  1
  La  La1  1  0.250000  0.887757  0.335253  1
  La  La2  1  0.250000  0.311024  0.884034  1
  La  La3  1  0.250000  0.900337  0.892154  1
  La  La4  1  0.750000  0.119031  0.665697  1
  Ce  Ce5  1  0.750000  0.088134  0.102935  1
  Os  Os6  1  0.250000  0.892253  0.122917  1
  Os  Os7  1  0.750000  0.110343  0.878047  1
  I  I8  1  0.250000  0.390884  0.140316  1
  I  I9  1  0.750000  0.140496  0.375933  1
  I  I10  1  0.750000  0.602371  0.862191  1
  I  I11  1  0.250000  0.369558  0.619784  1
  I  I12  1  0.750000  0.633994  0.383055  1
  I  I13  1  0.250000  0.867623  0.616919  1
