# generated using pymatgen
data_La3Yb(Al3Os)2
_symmetry_space_group_name_H-M   'P 1'
_cell_length_a   5.70378800
_cell_length_b   5.70378910
_cell_length_c   8.85413700
_cell_angle_alpha   90.00000000
_cell_angle_beta   90.00000000
_cell_angle_gamma   120.00000521
_symmetry_Int_Tables_number   1
_chemical_formula_structural   La3Yb(Al3Os)2
_chemical_formula_sum   'La3 Yb1 Al6 Os2'
_cell_volume   249.46158684
_cell_formula_units_Z   1
loop_
 _symmetry_equiv_pos_site_id
 _symmetry_equiv_pos_as_xyz
  1  'x, y, z'
loop_
 _atom_site_type_symbol
 _atom_site_label
 _atom_site_symmetry_multiplicity
 _atom_site_fract_x
 _atom_site_fract_y
 _atom_site_fract_z
 _atom_site_occupancy
  La  La0  1  0.666668  0.333334  0.449419  1
  La  La1  1  0.333333  0.666666  0.546096  1
  La  La2  1  0.333333  0.666666  0.952798  1
  Yb  Yb3  1  0.666668  0.333334  0.050649  1
  Al  Al4  1  0.156922  0.313847  0.248848  1
  Al  Al5  1  0.156922  0.843077  0.248848  1
  Al  Al6  1  0.686153  0.843077  0.248848  1
  Al  Al7  1  0.314294  0.157147  0.751590  1
  Al  Al8  1  0.842855  0.157147  0.751590  1
  Al  Al9  1  0.842855  0.685708  0.751590  1
  Os  Os10  1  0.000000  0.000000  0.001378  1
  Os  Os11  1  0.000000  0.000000  0.498348  1
