# generated using pymatgen
data_Nd3(Be3Ir4)2
_symmetry_space_group_name_H-M   'P 1'
_cell_length_a   10.57013291
_cell_length_b   9.86466736
_cell_length_c   5.49137600
_cell_angle_alpha   81.64685779
_cell_angle_beta   67.42206081
_cell_angle_gamma   30.93108048
_symmetry_Int_Tables_number   1
_chemical_formula_structural   Nd3(Be3Ir4)2
_chemical_formula_sum   'Nd3 Be6 Ir8'
_cell_volume   250.48920128
_cell_formula_units_Z   1
loop_
 _symmetry_equiv_pos_site_id
 _symmetry_equiv_pos_as_xyz
  1  'x, y, z'
loop_
 _atom_site_type_symbol
 _atom_site_label
 _atom_site_symmetry_multiplicity
 _atom_site_fract_x
 _atom_site_fract_y
 _atom_site_fract_z
 _atom_site_occupancy
  Nd  Nd0  1  0.000000  0.000000  0.000000  1
  Nd  Nd1  1  0.175187  0.175187  0.824813  1
  Nd  Nd2  1  0.824813  0.824813  0.175187  1
  Be  Be3  1  0.817654  0.529955  0.470045  1
  Be  Be4  1  0.182346  0.470045  0.529955  1
  Be  Be5  1  0.470045  0.182346  0.817654  1
  Be  Be6  1  0.684376  0.315624  0.684376  1
  Be  Be7  1  0.529955  0.817654  0.182346  1
  Be  Be8  1  0.315624  0.684376  0.315624  1
  Ir  Ir9  1  0.420277  0.420277  0.579723  1
  Ir  Ir10  1  0.590952  0.590952  0.909048  1
  Ir  Ir11  1  0.090952  0.090952  0.409048  1
  Ir  Ir12  1  0.909048  0.909048  0.590952  1
  Ir  Ir13  1  0.579723  0.579723  0.420277  1
  Ir  Ir14  1  0.250000  0.250000  0.250000  1
  Ir  Ir15  1  0.409048  0.409048  0.090952  1
  Ir  Ir16  1  0.750000  0.750000  0.750000  1
