# generated using pymatgen
data_Nb10GeB4As
_symmetry_space_group_name_H-M   'P 1'
_cell_length_a   7.36616099
_cell_length_b   7.36616218
_cell_length_c   7.36616201
_cell_angle_alpha   129.34366192
_cell_angle_beta   129.34367671
_cell_angle_gamma   74.45821948
_symmetry_Int_Tables_number   1
_chemical_formula_structural   Nb10GeB4As
_chemical_formula_sum   'Nb10 Ge1 B4 As1'
_cell_volume   232.97234441
_cell_formula_units_Z   1
loop_
 _symmetry_equiv_pos_site_id
 _symmetry_equiv_pos_as_xyz
  1  'x, y, z'
loop_
 _atom_site_type_symbol
 _atom_site_label
 _atom_site_symmetry_multiplicity
 _atom_site_fract_x
 _atom_site_fract_y
 _atom_site_fract_z
 _atom_site_occupancy
  Nb  Nb0  1  0.999302  0.999302  0.000000  1
  Nb  Nb1  1  0.500698  0.500698  0.000000  1
  Nb  Nb2  1  0.803984  0.302843  0.833836  1
  Nb  Nb3  1  0.197157  0.696016  0.166164  1
  Nb  Nb4  1  0.469008  0.970149  0.166164  1
  Nb  Nb5  1  0.302843  0.469008  0.498860  1
  Nb  Nb6  1  0.030992  0.197157  0.501140  1
  Nb  Nb7  1  0.529851  0.030992  0.833836  1
  Nb  Nb8  1  0.696016  0.529851  0.498860  1
  Nb  Nb9  1  0.970149  0.803984  0.501140  1
  Ge  Ge10  1  0.750000  0.750000  0.000000  1
  B  B11  1  0.113950  0.613950  0.727899  1
  B  B12  1  0.886050  0.386050  0.272101  1
  B  B13  1  0.613950  0.886050  0.500000  1
  B  B14  1  0.386050  0.113950  0.500000  1
  As  As15  1  0.250000  0.250000  0.000000  1
