# generated using pymatgen
data_Sm4Sn2Bi3SbRh7
_symmetry_space_group_name_H-M   'P 1'
_cell_length_a   7.78340526
_cell_length_b   7.80796081
_cell_length_c   7.77963736
_cell_angle_alpha   109.72181529
_cell_angle_beta   109.59424712
_cell_angle_gamma   109.18225496
_symmetry_Int_Tables_number   1
_chemical_formula_structural   Sm4Sn2Bi3SbRh7
_chemical_formula_sum   'Sm4 Sn2 Bi3 Sb1 Rh7'
_cell_volume   363.56518311
_cell_formula_units_Z   1
loop_
 _symmetry_equiv_pos_site_id
 _symmetry_equiv_pos_as_xyz
  1  'x, y, z'
loop_
 _atom_site_type_symbol
 _atom_site_label
 _atom_site_symmetry_multiplicity
 _atom_site_fract_x
 _atom_site_fract_y
 _atom_site_fract_z
 _atom_site_occupancy
  Sm  Sm0  1  0.502612  0.003080  0.000000  1
  Sm  Sm1  1  0.998639  0.470876  0.000000  1
  Sm  Sm2  1  0.998285  0.003355  0.514162  1
  Sm  Sm3  1  0.484122  0.489193  0.485838  1
  Sn  Sn4  1  0.995238  0.317949  0.326321  1
  Sn  Sn5  1  0.668917  0.991628  0.673679  1
  Bi  Bi6  1  0.699280  0.694831  0.000000  1
  Bi  Bi7  1  0.995795  0.681494  0.690014  1
  Bi  Bi8  1  0.305781  0.991479  0.309986  1
  Sb  Sb9  1  0.334929  0.330589  0.000000  1
  Rh  Rh10  1  0.014638  0.053357  0.000000  1
  Rh  Rh11  1  0.502420  0.746338  0.249575  1
  Rh  Rh12  1  0.750224  0.496507  0.247938  1
  Rh  Rh13  1  0.246963  0.741969  0.499941  1
  Rh  Rh14  1  0.252847  0.496764  0.750425  1
  Rh  Rh15  1  0.502286  0.248568  0.752062  1
  Rh  Rh16  1  0.747022  0.242028  0.500059  1
