# generated using pymatgen
data_Nd2Dy3Er3(WO6)4
_symmetry_space_group_name_H-M   'P 1'
_cell_length_a   5.44092521
_cell_length_b   7.76064033
_cell_length_c   11.51312489
_cell_angle_alpha   75.60094452
_cell_angle_beta   89.99532034
_cell_angle_gamma   89.96841865
_symmetry_Int_Tables_number   1
_chemical_formula_structural   Nd2Dy3Er3(WO6)4
_chemical_formula_sum   'Nd2 Dy3 Er3 W4 O24'
_cell_volume   470.87129320
_cell_formula_units_Z   1
loop_
 _symmetry_equiv_pos_site_id
 _symmetry_equiv_pos_as_xyz
  1  'x, y, z'
loop_
 _atom_site_type_symbol
 _atom_site_label
 _atom_site_symmetry_multiplicity
 _atom_site_fract_x
 _atom_site_fract_y
 _atom_site_fract_z
 _atom_site_occupancy
  Nd  Nd0  1  0.685272  0.500461  0.249608  1
  Nd  Nd1  1  0.314933  0.500120  0.750050  1
  Dy  Dy2  1  0.185207  0.203246  0.423192  1
  Dy  Dy3  1  0.742847  0.999751  0.249574  1
  Dy  Dy4  1  0.257240  0.999776  0.750373  1
  Er  Er5  1  0.184815  0.796334  0.077267  1
  Er  Er6  1  0.814921  0.795958  0.577392  1
  Er  Er7  1  0.815143  0.203626  0.922826  1
  W  W8  1  0.254846  0.272524  0.115248  1
  W  W9  1  0.254626  0.727757  0.384397  1
  W  W10  1  0.745379  0.727569  0.884411  1
  W  W11  1  0.745518  0.272592  0.616042  1
  O  O12  1  0.455874  0.205467  0.272663  1
  O  O13  1  0.454218  0.795178  0.226159  1
  O  O14  1  0.545618  0.794864  0.726305  1
  O  O15  1  0.545726  0.205349  0.774079  1
  O  O16  1  0.045346  0.058198  0.103207  1
  O  O17  1  0.043235  0.940147  0.396653  1
  O  O18  1  0.954870  0.941669  0.896786  1
  O  O19  1  0.954412  0.057925  0.603812  1
  O  O20  1  0.985358  0.280849  0.229791  1
  O  O21  1  0.986150  0.719067  0.269027  1
  O  O22  1  0.014062  0.719414  0.769321  1
  O  O23  1  0.014531  0.280568  0.730801  1
  O  O24  1  0.852190  0.359856  0.454134  1
  O  O25  1  0.854713  0.641204  0.045983  1
  O  O26  1  0.145510  0.640985  0.546098  1
  O  O27  1  0.145337  0.358952  0.953792  1
  O  O28  1  0.651203  0.507709  0.613164  1
  O  O29  1  0.651625  0.492691  0.887176  1
  O  O30  1  0.349816  0.493491  0.387077  1
  O  O31  1  0.348317  0.507471  0.112802  1
  O  O32  1  0.465284  0.154919  0.570183  1
  O  O33  1  0.463571  0.843997  0.931078  1
  O  O34  1  0.535916  0.844567  0.431078  1
  O  O35  1  0.536371  0.155747  0.068448  1
