# generated using pymatgen
data_YScMnB6
_symmetry_space_group_name_H-M   'P 1'
_cell_length_a   3.45119200
_cell_length_b   8.94566100
_cell_length_c   11.32800000
_cell_angle_alpha   90.00000000
_cell_angle_beta   90.00000000
_cell_angle_gamma   90.00000000
_symmetry_Int_Tables_number   1
_chemical_formula_structural   YScMnB6
_chemical_formula_sum   'Y4 Sc4 Mn4 B24'
_cell_volume   349.73153798
_cell_formula_units_Z   4
loop_
 _symmetry_equiv_pos_site_id
 _symmetry_equiv_pos_as_xyz
  1  'x, y, z'
loop_
 _atom_site_type_symbol
 _atom_site_label
 _atom_site_symmetry_multiplicity
 _atom_site_fract_x
 _atom_site_fract_y
 _atom_site_fract_z
 _atom_site_occupancy
  Y  Y0  1  0.000000  0.322594  0.414550  1
  Y  Y1  1  0.000000  0.677406  0.585450  1
  Y  Y2  1  0.000000  0.822594  0.085450  1
  Y  Y3  1  0.000000  0.177406  0.914550  1
  Sc  Sc4  1  0.000000  0.943382  0.368887  1
  Sc  Sc5  1  0.000000  0.056618  0.631113  1
  Sc  Sc6  1  0.000000  0.443382  0.131113  1
  Sc  Sc7  1  0.000000  0.556618  0.868887  1
  Mn  Mn8  1  0.000000  0.641230  0.317882  1
  Mn  Mn9  1  0.000000  0.358770  0.682118  1
  Mn  Mn10  1  0.000000  0.141230  0.182118  1
  Mn  Mn11  1  0.000000  0.858770  0.817882  1
  B  B12  1  0.500000  0.555564  0.431201  1
  B  B13  1  0.500000  0.444436  0.568799  1
  B  B14  1  0.500000  0.055564  0.068799  1
  B  B15  1  0.500000  0.944436  0.931201  1
  B  B16  1  0.500000  0.752155  0.416815  1
  B  B17  1  0.500000  0.247845  0.583185  1
  B  B18  1  0.500000  0.252155  0.083185  1
  B  B19  1  0.500000  0.747845  0.916815  1
  B  B20  1  0.500000  0.793402  0.265343  1
  B  B21  1  0.500000  0.206598  0.734657  1
  B  B22  1  0.500000  0.293402  0.234657  1
  B  B23  1  0.500000  0.706598  0.765343  1
  B  B24  1  0.500000  0.629429  0.184480  1
  B  B25  1  0.500000  0.370571  0.815520  1
  B  B26  1  0.500000  0.129429  0.315520  1
  B  B27  1  0.500000  0.870571  0.684480  1
  B  B28  1  0.500000  0.983728  0.213312  1
  B  B29  1  0.500000  0.016272  0.786688  1
  B  B30  1  0.500000  0.483728  0.286688  1
  B  B31  1  0.500000  0.516272  0.713312  1
  B  B32  1  0.500000  0.596436  0.026229  1
  B  B33  1  0.500000  0.403564  0.973771  1
  B  B34  1  0.500000  0.096436  0.473771  1
  B  B35  1  0.500000  0.903564  0.526229  1
