# generated using pymatgen
data_Zr5ZnIn2Bi
_symmetry_space_group_name_H-M   'P 1'
_cell_length_a   8.79434516
_cell_length_b   8.78523327
_cell_length_c   5.94341800
_cell_angle_alpha   90.00000000
_cell_angle_beta   90.00000000
_cell_angle_gamma   119.96573351
_symmetry_Int_Tables_number   1
_chemical_formula_structural   Zr5ZnIn2Bi
_chemical_formula_sum   'Zr10 Zn2 In4 Bi2'
_cell_volume   397.80804904
_cell_formula_units_Z   2
loop_
 _symmetry_equiv_pos_site_id
 _symmetry_equiv_pos_as_xyz
  1  'x, y, z'
loop_
 _atom_site_type_symbol
 _atom_site_label
 _atom_site_symmetry_multiplicity
 _atom_site_fract_x
 _atom_site_fract_y
 _atom_site_fract_z
 _atom_site_occupancy
  Zr  Zr0  1  0.666995  0.334594  0.004654  1
  Zr  Zr1  1  0.333005  0.667601  0.004654  1
  Zr  Zr2  1  0.333005  0.667601  0.495346  1
  Zr  Zr3  1  0.666995  0.334594  0.495346  1
  Zr  Zr4  1  0.740325  0.738615  0.750000  1
  Zr  Zr5  1  0.259675  0.998290  0.750000  1
  Zr  Zr6  1  0.000000  0.260973  0.750000  1
  Zr  Zr7  1  0.268680  0.268767  0.250000  1
  Zr  Zr8  1  0.731320  0.000087  0.250000  1
  Zr  Zr9  1  0.000000  0.728186  0.250000  1
  Zn  Zn10  1  0.000000  0.997990  0.012174  1
  Zn  Zn11  1  0.000000  0.997990  0.487826  1
  In  In12  1  0.000000  0.612718  0.750000  1
  In  In13  1  0.619924  0.620314  0.250000  1
  In  In14  1  0.380076  0.000390  0.250000  1
  In  In15  1  0.000000  0.382820  0.250000  1
  Bi  Bi16  1  0.386879  0.387675  0.750000  1
  Bi  Bi17  1  0.613121  0.000797  0.750000  1
