# generated using pymatgen
data_TbY5(Al3Os)8
_symmetry_space_group_name_H-M   'P 1'
_cell_length_a   8.84686100
_cell_length_b   8.84033227
_cell_length_c   9.57877700
_cell_angle_alpha   90.00000000
_cell_angle_beta   90.00000000
_cell_angle_gamma   120.02442920
_symmetry_Int_Tables_number   1
_chemical_formula_structural   TbY5(Al3Os)8
_chemical_formula_sum   'Tb1 Y5 Al24 Os8'
_cell_volume   648.62177747
_cell_formula_units_Z   1
loop_
 _symmetry_equiv_pos_site_id
 _symmetry_equiv_pos_as_xyz
  1  'x, y, z'
loop_
 _atom_site_type_symbol
 _atom_site_label
 _atom_site_symmetry_multiplicity
 _atom_site_fract_x
 _atom_site_fract_y
 _atom_site_fract_z
 _atom_site_occupancy
  Tb  Tb0  1  0.193116  0.386233  0.250000  1
  Y  Y1  1  0.807203  0.614404  0.750000  1
  Y  Y2  1  0.613519  0.806627  0.250000  1
  Y  Y3  1  0.385617  0.192873  0.750000  1
  Y  Y4  1  0.193107  0.806627  0.250000  1
  Y  Y5  1  0.807257  0.192873  0.750000  1
  Al  Al6  1  0.333307  0.666615  0.015131  1
  Al  Al7  1  0.666736  0.333472  0.985190  1
  Al  Al8  1  0.666736  0.333472  0.514810  1
  Al  Al9  1  0.333307  0.666615  0.484869  1
  Al  Al10  1  0.162787  0.325575  0.575871  1
  Al  Al11  1  0.837198  0.674393  0.424328  1
  Al  Al12  1  0.674561  0.837355  0.575792  1
  Al  Al13  1  0.837198  0.674393  0.075672  1
  Al  Al14  1  0.325532  0.162653  0.424211  1
  Al  Al15  1  0.162787  0.325575  0.924129  1
  Al  Al16  1  0.162794  0.837355  0.575792  1
  Al  Al17  1  0.325532  0.162653  0.075789  1
  Al  Al18  1  0.837122  0.162653  0.424211  1
  Al  Al19  1  0.674561  0.837355  0.924208  1
  Al  Al20  1  0.837122  0.162653  0.075789  1
  Al  Al21  1  0.162794  0.837355  0.924208  1
  Al  Al22  1  0.560179  0.120357  0.250000  1
  Al  Al23  1  0.439859  0.879718  0.750000  1
  Al  Al24  1  0.879351  0.439716  0.250000  1
  Al  Al25  1  0.120223  0.560172  0.750000  1
  Al  Al26  1  0.560365  0.439716  0.250000  1
  Al  Al27  1  0.439950  0.560172  0.750000  1
  Al  Al28  1  0.999962  0.999924  0.250000  1
  Al  Al29  1  0.000033  0.000066  0.750000  1
  Os  Os30  1  0.500112  0.000224  0.999812  1
  Os  Os31  1  0.999840  0.499971  0.999847  1
  Os  Os32  1  0.500112  0.000224  0.500188  1
  Os  Os33  1  0.500131  0.499971  0.999847  1
  Os  Os34  1  0.999840  0.499971  0.500153  1
  Os  Os35  1  0.500131  0.499971  0.500153  1
  Os  Os36  1  0.000012  0.000025  0.999840  1
  Os  Os37  1  0.000012  0.000025  0.500160  1
