# generated using pymatgen
data_Er10Sn6Ge
_symmetry_space_group_name_H-M   'P 1'
_cell_length_a   6.51486201
_cell_length_b   9.03559343
_cell_length_c   9.03615702
_cell_angle_alpha   119.99795138
_cell_angle_beta   90.00098921
_cell_angle_gamma   89.99802857
_symmetry_Int_Tables_number   1
_chemical_formula_structural   Er10Sn6Ge
_chemical_formula_sum   'Er10 Sn6 Ge1'
_cell_volume   460.66505404
_cell_formula_units_Z   1
loop_
 _symmetry_equiv_pos_site_id
 _symmetry_equiv_pos_as_xyz
  1  'x, y, z'
loop_
 _atom_site_type_symbol
 _atom_site_label
 _atom_site_symmetry_multiplicity
 _atom_site_fract_x
 _atom_site_fract_y
 _atom_site_fract_z
 _atom_site_occupancy
  Er  Er0  1  0.499966  0.333589  0.666861  1
  Er  Er1  1  0.499966  0.666729  0.333139  1
  Er  Er2  1  0.999935  0.666896  0.333288  1
  Er  Er3  1  0.999935  0.333608  0.666712  1
  Er  Er4  1  0.747464  0.252265  0.000000  1
  Er  Er5  1  0.747755  0.747308  0.747094  1
  Er  Er6  1  0.747755  0.000213  0.252906  1
  Er  Er7  1  0.252076  0.747205  0.000000  1
  Er  Er8  1  0.252408  0.252109  0.252428  1
  Er  Er9  1  0.252408  0.999682  0.747572  1
  Sn  Sn10  1  0.750041  0.607848  0.000000  1
  Sn  Sn11  1  0.749829  0.392464  0.391878  1
  Sn  Sn12  1  0.749829  0.000586  0.608122  1
  Sn  Sn13  1  0.250073  0.391844  0.000000  1
  Sn  Sn14  1  0.250262  0.608204  0.608001  1
  Sn  Sn15  1  0.250262  0.000203  0.391999  1
  Ge  Ge16  1  0.500034  0.999245  0.000000  1
