# generated using pymatgen
data_La7Nd3Sn20(IrPd)4
_symmetry_space_group_name_H-M   'P 1'
_cell_length_a   14.31234000
_cell_length_b   14.29437000
_cell_length_c   4.72126300
_cell_angle_alpha   90.00000000
_cell_angle_beta   90.00000000
_cell_angle_gamma   89.99845779
_symmetry_Int_Tables_number   1
_chemical_formula_structural   La7Nd3Sn20(IrPd)4
_chemical_formula_sum   'La7 Nd3 Sn20 Ir4 Pd4'
_cell_volume   965.90376204
_cell_formula_units_Z   1
loop_
 _symmetry_equiv_pos_site_id
 _symmetry_equiv_pos_as_xyz
  1  'x, y, z'
loop_
 _atom_site_type_symbol
 _atom_site_label
 _atom_site_symmetry_multiplicity
 _atom_site_fract_x
 _atom_site_fract_y
 _atom_site_fract_z
 _atom_site_occupancy
  La  La0  1  0.500057  0.499924  0.000000  1
  La  La1  1  0.000018  0.999976  0.000000  1
  La  La2  1  0.824025  0.681063  0.500000  1
  La  La3  1  0.892541  0.389639  0.500000  1
  La  La4  1  0.107600  0.610177  0.500000  1
  La  La5  1  0.392544  0.110260  0.500000  1
  La  La6  1  0.607300  0.889879  0.500000  1
  Nd  Nd7  1  0.675629  0.180726  0.500000  1
  Nd  Nd8  1  0.324401  0.819268  0.500000  1
  Nd  Nd9  1  0.175663  0.319173  0.500000  1
  Sn  Sn10  1  0.568522  0.070599  0.000000  1
  Sn  Sn11  1  0.431488  0.929397  0.000000  1
  Sn  Sn12  1  0.068728  0.429197  0.000000  1
  Sn  Sn13  1  0.932298  0.569834  0.000000  1
  Sn  Sn14  1  0.651605  0.703743  0.000000  1
  Sn  Sn15  1  0.347617  0.296478  0.000000  1
  Sn  Sn16  1  0.152514  0.796483  0.000000  1
  Sn  Sn17  1  0.847569  0.203569  0.000000  1
  Sn  Sn18  1  0.301478  0.653021  0.000000  1
  Sn  Sn19  1  0.698484  0.346909  0.000000  1
  Sn  Sn20  1  0.198533  0.152979  0.000000  1
  Sn  Sn21  1  0.801266  0.847937  0.000000  1
  Sn  Sn22  1  0.663556  0.502322  0.500000  1
  Sn  Sn23  1  0.336066  0.496923  0.500000  1
  Sn  Sn24  1  0.163906  0.996915  0.500000  1
  Sn  Sn25  1  0.835918  0.002823  0.500000  1
  Sn  Sn26  1  0.496765  0.663307  0.500000  1
  Sn  Sn27  1  0.503524  0.336903  0.500000  1
  Sn  Sn28  1  0.003447  0.163206  0.500000  1
  Sn  Sn29  1  0.997289  0.837343  0.500000  1
  Ir  Ir30  1  0.467734  0.744257  0.000000  1
  Ir  Ir31  1  0.531966  0.255795  0.000000  1
  Ir  Ir32  1  0.032038  0.244206  0.000000  1
  Ir  Ir33  1  0.968102  0.755920  0.000000  1
  Pd  Pd34  1  0.744590  0.531635  0.000000  1
  Pd  Pd35  1  0.255270  0.468046  0.000000  1
  Pd  Pd36  1  0.244736  0.968034  0.000000  1
  Pd  Pd37  1  0.755214  0.032134  0.000000  1
