# generated using pymatgen
data_K2Ta5BiO15
_symmetry_space_group_name_H-M   'P 1'
_cell_length_a   9.30177200
_cell_length_b   9.30177235
_cell_length_c   3.96051800
_cell_angle_alpha   90.00000000
_cell_angle_beta   90.00000000
_cell_angle_gamma   111.68292903
_symmetry_Int_Tables_number   1
_chemical_formula_structural   K2Ta5BiO15
_chemical_formula_sum   'K2 Ta5 Bi1 O15'
_cell_volume   318.42894895
_cell_formula_units_Z   1
loop_
 _symmetry_equiv_pos_site_id
 _symmetry_equiv_pos_as_xyz
  1  'x, y, z'
loop_
 _atom_site_type_symbol
 _atom_site_label
 _atom_site_symmetry_multiplicity
 _atom_site_fract_x
 _atom_site_fract_y
 _atom_site_fract_z
 _atom_site_occupancy
  K  K0  1  0.300290  0.699710  0.000000  1
  K  K1  1  0.699710  0.300290  0.000000  1
  Ta  Ta2  1  0.320839  0.060442  0.500000  1
  Ta  Ta3  1  0.060442  0.320839  0.500000  1
  Ta  Ta4  1  0.679161  0.939558  0.500000  1
  Ta  Ta5  1  0.939558  0.679161  0.500000  1
  Ta  Ta6  1  0.500000  0.500000  0.500000  1
  Bi  Bi7  1  0.000000  0.000000  0.000000  1
  O  O8  1  0.135187  0.135187  0.500000  1
  O  O9  1  0.157925  0.842075  0.500000  1
  O  O10  1  0.273559  0.459288  0.500000  1
  O  O11  1  0.842075  0.157925  0.500000  1
  O  O12  1  0.864813  0.864813  0.500000  1
  O  O13  1  0.290991  0.049491  0.000000  1
  O  O14  1  0.709009  0.950509  0.000000  1
  O  O15  1  0.540712  0.726441  0.500000  1
  O  O16  1  0.049491  0.290991  0.000000  1
  O  O17  1  0.500000  0.000000  0.500000  1
  O  O18  1  0.459288  0.273559  0.500000  1
  O  O19  1  0.950509  0.709009  0.000000  1
  O  O20  1  0.500000  0.500000  0.000000  1
  O  O21  1  0.726441  0.540712  0.500000  1
  O  O22  1  0.000000  0.500000  0.500000  1
