# generated using pymatgen
data_Li12Pr12ReTe6RhO48
_symmetry_space_group_name_H-M   'P 1'
_cell_length_a   11.02466046
_cell_length_b   10.98339096
_cell_length_c   11.02466100
_cell_angle_alpha   109.39541202
_cell_angle_beta   109.54692336
_cell_angle_gamma   109.39540741
_symmetry_Int_Tables_number   1
_chemical_formula_structural   Li12Pr12ReTe6RhO48
_chemical_formula_sum   'Li12 Pr12 Re1 Te6 Rh1 O48'
_cell_volume   1028.60943246
_cell_formula_units_Z   1
loop_
 _symmetry_equiv_pos_site_id
 _symmetry_equiv_pos_as_xyz
  1  'x, y, z'
loop_
 _atom_site_type_symbol
 _atom_site_label
 _atom_site_symmetry_multiplicity
 _atom_site_fract_x
 _atom_site_fract_y
 _atom_site_fract_z
 _atom_site_occupancy
  Li  Li0  1  0.873768  0.750341  0.125415  1
  Li  Li1  1  0.247804  0.872878  0.125528  1
  Li  Li2  1  0.877725  0.125073  0.252197  1
  Li  Li3  1  0.374586  0.624926  0.248354  1
  Li  Li4  1  0.748354  0.623428  0.373766  1
  Li  Li5  1  0.625528  0.252652  0.377725  1
  Li  Li6  1  0.374472  0.747349  0.622275  1
  Li  Li7  1  0.251646  0.376573  0.626233  1
  Li  Li8  1  0.122277  0.874927  0.747803  1
  Li  Li9  1  0.625413  0.375074  0.751646  1
  Li  Li10  1  0.126234  0.249661  0.874586  1
  Li  Li11  1  0.752197  0.127124  0.874474  1
  Pr  Pr12  1  0.746891  0.379096  0.122326  1
  Pr  Pr13  1  0.377673  0.256769  0.124565  1
  Pr  Pr14  1  0.624565  0.867795  0.246889  1
  Pr  Pr15  1  0.124196  0.374882  0.249735  1
  Pr  Pr16  1  0.250265  0.125149  0.374461  1
  Pr  Pr17  1  0.125539  0.750686  0.375805  1
  Pr  Pr18  1  0.749733  0.874851  0.625537  1
  Pr  Pr19  1  0.874462  0.249315  0.624196  1
  Pr  Pr20  1  0.375436  0.132203  0.753108  1
  Pr  Pr21  1  0.875804  0.625118  0.750266  1
  Pr  Pr22  1  0.253109  0.620904  0.877673  1
  Pr  Pr23  1  0.622327  0.743231  0.875436  1
  Re  Re24  1  0.500002  0.000000  0.000000  1
  Te  Te25  1  0.000000  0.000000  0.000000  1
  Te  Te26  1  0.000000  0.500002  0.000000  1
  Te  Te27  1  0.000000  0.000000  0.499999  1
  Te  Te28  1  0.499999  0.499999  0.499999  1
  Te  Te29  1  0.500000  0.000000  0.500000  1
  Te  Te30  1  0.000000  0.500001  0.500000  1
  Rh  Rh31  1  0.500000  0.500001  0.000000  1
  O  O32  1  0.906248  0.328873  0.021677  1
  O  O33  1  0.116106  0.193861  0.023109  1
  O  O34  1  0.407321  0.889623  0.075923  1
  O  O35  1  0.672365  0.700073  0.079992  1
  O  O36  1  0.668603  0.982304  0.092680  1
  O  O37  1  0.420010  0.620081  0.092372  1
  O  O38  1  0.922755  0.593620  0.115974  1
  O  O39  1  0.192751  0.021050  0.114550  1
  O  O40  1  0.575921  0.186300  0.168603  1
  O  O41  1  0.592373  0.472292  0.172364  1
  O  O42  1  0.170364  0.577008  0.192593  1
  O  O43  1  0.021991  0.115241  0.192841  1
  O  O44  1  0.384026  0.477647  0.306780  1
  O  O45  1  0.921799  0.328299  0.307249  1
  O  O46  1  0.307158  0.922400  0.329153  1
  O  O47  1  0.022230  0.906643  0.329636  1
  O  O48  1  0.907005  0.577757  0.383894  1
  O  O49  1  0.478323  0.307197  0.384570  1
  O  O50  1  0.523110  0.829248  0.407004  1
  O  O51  1  0.884569  0.077372  0.406247  1
  O  O52  1  0.806781  0.829135  0.422754  1
  O  O53  1  0.614551  0.093500  0.421800  1
  O  O54  1  0.307406  0.384414  0.477769  1
  O  O55  1  0.170846  0.593250  0.478008  1
  O  O56  1  0.692593  0.615586  0.522229  1
  O  O57  1  0.829153  0.406751  0.521992  1
  O  O58  1  0.193221  0.170867  0.577247  1
  O  O59  1  0.385450  0.906500  0.578201  1
  O  O60  1  0.115431  0.922627  0.593753  1
  O  O61  1  0.476891  0.170753  0.592996  1
  O  O62  1  0.521678  0.692803  0.615431  1
  O  O63  1  0.092996  0.422243  0.616107  1
  O  O64  1  0.977770  0.093357  0.670363  1
  O  O65  1  0.692840  0.077598  0.670846  1
  O  O66  1  0.615974  0.522353  0.693219  1
  O  O67  1  0.078202  0.671703  0.692751  1
  O  O68  1  0.978007  0.884758  0.807158  1
  O  O69  1  0.829635  0.422992  0.807407  1
  O  O70  1  0.407626  0.527709  0.827637  1
  O  O71  1  0.424079  0.813699  0.831397  1
  O  O72  1  0.807249  0.978949  0.885449  1
  O  O73  1  0.077247  0.406381  0.884026  1
  O  O74  1  0.579991  0.379918  0.907627  1
  O  O75  1  0.331397  0.017697  0.907319  1
  O  O76  1  0.327636  0.299927  0.920010  1
  O  O77  1  0.592681  0.110379  0.924078  1
  O  O78  1  0.093753  0.671128  0.978321  1
  O  O79  1  0.883894  0.806138  0.976891  1
