# generated using pymatgen
data_Er6Al17Co2Si7Os6
_symmetry_space_group_name_H-M   'P 1'
_cell_length_a   8.64649730
_cell_length_b   8.63607133
_cell_length_c   9.35059000
_cell_angle_alpha   90.00000000
_cell_angle_beta   90.00000000
_cell_angle_gamma   120.10292700
_symmetry_Int_Tables_number   1
_chemical_formula_structural   Er6Al17Co2Si7Os6
_chemical_formula_sum   'Er6 Al17 Co2 Si7 Os6'
_cell_volume   604.05253254
_cell_formula_units_Z   1
loop_
 _symmetry_equiv_pos_site_id
 _symmetry_equiv_pos_as_xyz
  1  'x, y, z'
loop_
 _atom_site_type_symbol
 _atom_site_label
 _atom_site_symmetry_multiplicity
 _atom_site_fract_x
 _atom_site_fract_y
 _atom_site_fract_z
 _atom_site_occupancy
  Er  Er0  1  0.196016  0.393026  0.250000  1
  Er  Er1  1  0.804632  0.609388  0.750000  1
  Er  Er2  1  0.606138  0.804123  0.250000  1
  Er  Er3  1  0.392104  0.193938  0.750000  1
  Er  Er4  1  0.197862  0.803173  0.250000  1
  Er  Er5  1  0.801150  0.194522  0.750000  1
  Al  Al6  1  0.160554  0.321635  0.578867  1
  Al  Al7  1  0.838275  0.678872  0.419130  1
  Al  Al8  1  0.678737  0.838769  0.578217  1
  Al  Al9  1  0.838275  0.678872  0.080870  1
  Al  Al10  1  0.321697  0.161816  0.420521  1
  Al  Al11  1  0.160554  0.321635  0.921133  1
  Al  Al12  1  0.159893  0.838362  0.577012  1
  Al  Al13  1  0.321697  0.161816  0.079479  1
  Al  Al14  1  0.839308  0.160353  0.420494  1
  Al  Al15  1  0.678737  0.838769  0.921783  1
  Al  Al16  1  0.839308  0.160353  0.079506  1
  Al  Al17  1  0.159893  0.838362  0.922988  1
  Al  Al18  1  0.127057  0.566862  0.750000  1
  Al  Al19  1  0.565351  0.434135  0.250000  1
  Al  Al20  1  0.438913  0.567605  0.750000  1
  Al  Al21  1  0.999986  0.999350  0.250000  1
  Al  Al22  1  0.999995  0.000866  0.750000  1
  Co  Co23  1  0.999969  0.000048  0.999376  1
  Co  Co24  1  0.999969  0.000048  0.500624  1
  Si  Si25  1  0.333078  0.664756  0.036453  1
  Si  Si26  1  0.666126  0.335354  0.962705  1
  Si  Si27  1  0.666126  0.335354  0.537295  1
  Si  Si28  1  0.333078  0.664756  0.463547  1
  Si  Si29  1  0.566044  0.125964  0.250000  1
  Si  Si30  1  0.436593  0.872742  0.750000  1
  Si  Si31  1  0.873705  0.433586  0.250000  1
  Os  Os32  1  0.500924  0.001270  0.001054  1
  Os  Os33  1  0.998095  0.499077  0.006194  1
  Os  Os34  1  0.500924  0.001270  0.498946  1
  Os  Os35  1  0.500570  0.500048  0.000376  1
  Os  Os36  1  0.998095  0.499077  0.493806  1
  Os  Os37  1  0.500570  0.500048  0.499624  1
