# generated using pymatgen
data_LaPr3Zn2As5
_symmetry_space_group_name_H-M   'P 1'
_cell_length_a   4.31826900
_cell_length_b   4.31826955
_cell_length_c   17.53148900
_cell_angle_alpha   90.00000000
_cell_angle_beta   90.00000000
_cell_angle_gamma   120.00000345
_symmetry_Int_Tables_number   1
_chemical_formula_structural   LaPr3Zn2As5
_chemical_formula_sum   'La1 Pr3 Zn2 As5'
_cell_volume   283.11889884
_cell_formula_units_Z   1
loop_
 _symmetry_equiv_pos_site_id
 _symmetry_equiv_pos_as_xyz
  1  'x, y, z'
loop_
 _atom_site_type_symbol
 _atom_site_label
 _atom_site_symmetry_multiplicity
 _atom_site_fract_x
 _atom_site_fract_y
 _atom_site_fract_z
 _atom_site_occupancy
  La  La0  1  0.000000  0.000000  0.298873  1
  Pr  Pr1  1  0.666667  0.333333  0.899502  1
  Pr  Pr2  1  0.333333  0.666667  0.098671  1
  Pr  Pr3  1  0.000000  0.000000  0.701483  1
  Zn  Zn4  1  0.666667  0.333333  0.445052  1
  Zn  Zn5  1  0.333333  0.666667  0.556964  1
  As  As6  1  0.666667  0.333333  0.592392  1
  As  As7  1  0.333333  0.666667  0.408995  1
  As  As8  1  0.666667  0.333333  0.201256  1
  As  As9  1  0.333333  0.666667  0.797396  1
  As  As10  1  0.000000  0.000000  0.999415  1
