# generated using pymatgen
data_Ba3GaSe4Br
_symmetry_space_group_name_H-M   'P 1'
_cell_length_a   8.90706400
_cell_length_b   10.04407100
_cell_length_c   13.06842200
_cell_angle_alpha   90.00000000
_cell_angle_beta   90.00000000
_cell_angle_gamma   90.00000000
_symmetry_Int_Tables_number   1
_chemical_formula_structural   Ba3GaSe4Br
_chemical_formula_sum   'Ba12 Ga4 Se16 Br4'
_cell_volume   1169.14263175
_cell_formula_units_Z   4
loop_
 _symmetry_equiv_pos_site_id
 _symmetry_equiv_pos_as_xyz
  1  'x, y, z'
loop_
 _atom_site_type_symbol
 _atom_site_label
 _atom_site_symmetry_multiplicity
 _atom_site_fract_x
 _atom_site_fract_y
 _atom_site_fract_z
 _atom_site_occupancy
  Ba  Ba0  1  0.578950  0.750000  0.015261  1
  Ba  Ba1  1  0.921050  0.750000  0.515261  1
  Ba  Ba2  1  0.421050  0.250000  0.984739  1
  Ba  Ba3  1  0.078950  0.250000  0.484739  1
  Ba  Ba4  1  0.921382  0.481503  0.832357  1
  Ba  Ba5  1  0.578618  0.018497  0.332357  1
  Ba  Ba6  1  0.078618  0.981503  0.167643  1
  Ba  Ba7  1  0.421382  0.518497  0.667643  1
  Ba  Ba8  1  0.078618  0.518497  0.167643  1
  Ba  Ba9  1  0.421382  0.981503  0.667643  1
  Ba  Ba10  1  0.921382  0.018497  0.832357  1
  Ba  Ba11  1  0.578618  0.481503  0.332357  1
  Ga  Ga12  1  0.187419  0.750000  0.890084  1
  Ga  Ga13  1  0.312581  0.750000  0.390084  1
  Ga  Ga14  1  0.812581  0.250000  0.109916  1
  Ga  Ga15  1  0.687419  0.250000  0.609916  1
  Se  Se16  1  0.686503  0.455371  0.076863  1
  Se  Se17  1  0.813497  0.044629  0.576863  1
  Se  Se18  1  0.313497  0.955371  0.923137  1
  Se  Se19  1  0.186503  0.544629  0.423137  1
  Se  Se20  1  0.313497  0.544629  0.923137  1
  Se  Se21  1  0.186503  0.955371  0.423137  1
  Se  Se22  1  0.686503  0.044629  0.076863  1
  Se  Se23  1  0.813497  0.455371  0.576863  1
  Se  Se24  1  0.357743  0.750000  0.207626  1
  Se  Se25  1  0.142257  0.750000  0.707626  1
  Se  Se26  1  0.642257  0.250000  0.792374  1
  Se  Se27  1  0.857743  0.250000  0.292374  1
  Se  Se28  1  0.960629  0.750000  0.992794  1
  Se  Se29  1  0.539371  0.750000  0.492794  1
  Se  Se30  1  0.039371  0.250000  0.007206  1
  Se  Se31  1  0.460629  0.250000  0.507206  1
  Br  Br32  1  0.666578  0.750000  0.768567  1
  Br  Br33  1  0.833422  0.750000  0.268567  1
  Br  Br34  1  0.333422  0.250000  0.231433  1
  Br  Br35  1  0.166578  0.250000  0.731433  1
