# generated using pymatgen
data_DyTm3(GaRu)4
_symmetry_space_group_name_H-M   'P 1'
_cell_length_a   4.49107800
_cell_length_b   7.07390811
_cell_length_c   7.14995665
_cell_angle_alpha   89.96275397
_cell_angle_beta   90.00000000
_cell_angle_gamma   90.00000000
_symmetry_Int_Tables_number   1
_chemical_formula_structural   DyTm3(GaRu)4
_chemical_formula_sum   'Dy1 Tm3 Ga4 Ru4'
_cell_volume   227.15030735
_cell_formula_units_Z   1
loop_
 _symmetry_equiv_pos_site_id
 _symmetry_equiv_pos_as_xyz
  1  'x, y, z'
loop_
 _atom_site_type_symbol
 _atom_site_label
 _atom_site_symmetry_multiplicity
 _atom_site_fract_x
 _atom_site_fract_y
 _atom_site_fract_z
 _atom_site_occupancy
  Dy  Dy0  1  0.750000  0.804882  0.481429  1
  Tm  Tm1  1  0.250000  0.198070  0.519581  1
  Tm  Tm2  1  0.250000  0.303093  0.019048  1
  Tm  Tm3  1  0.750000  0.696796  0.980949  1
  Ga  Ga4  1  0.250000  0.894773  0.197425  1
  Ga  Ga5  1  0.750000  0.394276  0.301154  1
  Ga  Ga6  1  0.250000  0.604084  0.699834  1
  Ga  Ga7  1  0.750000  0.105763  0.802018  1
  Ru  Ru8  1  0.250000  0.936635  0.840000  1
  Ru  Ru9  1  0.250000  0.561874  0.339924  1
  Ru  Ru10  1  0.750000  0.064032  0.158670  1
  Ru  Ru11  1  0.750000  0.435723  0.659970  1
