# generated using pymatgen
data_Zr10MnTl5PPb
_symmetry_space_group_name_H-M   'P 1'
_cell_length_a   8.77354514
_cell_length_b   8.79484101
_cell_length_c   5.93066787
_cell_angle_alpha   89.96844075
_cell_angle_beta   89.98527398
_cell_angle_gamma   120.16456364
_symmetry_Int_Tables_number   1
_chemical_formula_structural   Zr10MnTl5PPb
_chemical_formula_sum   'Zr10 Mn1 Tl5 P1 Pb1'
_cell_volume   395.65315493
_cell_formula_units_Z   1
loop_
 _symmetry_equiv_pos_site_id
 _symmetry_equiv_pos_as_xyz
  1  'x, y, z'
loop_
 _atom_site_type_symbol
 _atom_site_label
 _atom_site_symmetry_multiplicity
 _atom_site_fract_x
 _atom_site_fract_y
 _atom_site_fract_z
 _atom_site_occupancy
  Zr  Zr0  1  0.664513  0.333523  0.498880  1
  Zr  Zr1  1  0.335113  0.667589  0.499009  1
  Zr  Zr2  1  0.334152  0.667396  0.001470  1
  Zr  Zr3  1  0.666207  0.333880  0.001119  1
  Zr  Zr4  1  0.755777  0.756649  0.244349  1
  Zr  Zr5  1  0.244165  0.000138  0.243959  1
  Zr  Zr6  1  0.999781  0.243570  0.245390  1
  Zr  Zr7  1  0.241155  0.240821  0.755698  1
  Zr  Zr8  1  0.758639  0.000151  0.756457  1
  Zr  Zr9  1  0.000417  0.756359  0.754678  1
  Mn  Mn10  1  0.000113  0.998208  0.001350  1
  Tl  Tl11  1  0.393375  0.394514  0.251353  1
  Tl  Tl12  1  0.605864  0.001455  0.252365  1
  Tl  Tl13  1  0.000275  0.606563  0.252891  1
  Tl  Tl14  1  0.605463  0.605351  0.748677  1
  Tl  Tl15  1  0.395272  0.999767  0.747229  1
  P  P16  1  0.999925  0.998883  0.497747  1
  Pb  Pb17  1  0.999793  0.395183  0.747380  1
