# generated using pymatgen
data_Th2PPt8
_symmetry_space_group_name_H-M   'P 1'
_cell_length_a   9.18959482
_cell_length_b   9.18959364
_cell_length_c   4.33064500
_cell_angle_alpha   90.00000000
_cell_angle_beta   90.00000000
_cell_angle_gamma   145.61740487
_symmetry_Int_Tables_number   1
_chemical_formula_structural   Th2PPt8
_chemical_formula_sum   'Th2 P1 Pt8'
_cell_volume   206.52641309
_cell_formula_units_Z   1
loop_
 _symmetry_equiv_pos_site_id
 _symmetry_equiv_pos_as_xyz
  1  'x, y, z'
loop_
 _atom_site_type_symbol
 _atom_site_label
 _atom_site_symmetry_multiplicity
 _atom_site_fract_x
 _atom_site_fract_y
 _atom_site_fract_z
 _atom_site_occupancy
  Th  Th0  1  0.622829  0.372889  0.500000  1
  Th  Th1  1  0.372889  0.622829  0.500000  1
  P  P2  1  0.221865  0.221865  0.000000  1
  Pt  Pt3  1  0.110284  0.890263  0.000000  1
  Pt  Pt4  1  0.890263  0.110284  0.000000  1
  Pt  Pt5  1  0.489175  0.980324  0.000000  1
  Pt  Pt6  1  0.980324  0.489175  0.000000  1
  Pt  Pt7  1  0.197255  0.795109  0.500000  1
  Pt  Pt8  1  0.795109  0.197255  0.500000  1
  Pt  Pt9  1  0.000337  0.000337  0.500000  1
  Pt  Pt10  1  0.633269  0.633269  0.000000  1
