# generated using pymatgen
data_PrU5(Cu2Se7)2
_symmetry_space_group_name_H-M   'P 1'
_cell_length_a   10.15517060
_cell_length_b   10.24076535
_cell_length_c   6.02339036
_cell_angle_alpha   89.93446504
_cell_angle_beta   89.85652180
_cell_angle_gamma   120.03369927
_symmetry_Int_Tables_number   1
_chemical_formula_structural   PrU5(Cu2Se7)2
_chemical_formula_sum   'Pr1 U5 Cu4 Se14'
_cell_volume   542.30133947
_cell_formula_units_Z   1
loop_
 _symmetry_equiv_pos_site_id
 _symmetry_equiv_pos_as_xyz
  1  'x, y, z'
loop_
 _atom_site_type_symbol
 _atom_site_label
 _atom_site_symmetry_multiplicity
 _atom_site_fract_x
 _atom_site_fract_y
 _atom_site_fract_z
 _atom_site_occupancy
  Pr  Pr0  1  0.845676  0.622922  0.530962  1
  U  U1  1  0.227571  0.849320  0.028462  1
  U  U2  1  0.152455  0.378545  0.030031  1
  U  U3  1  0.378329  0.227993  0.525249  1
  U  U4  1  0.621599  0.773598  0.026478  1
  U  U5  1  0.774558  0.154240  0.524240  1
  Cu  Cu6  1  0.665188  0.331380  0.156682  1
  Cu  Cu7  1  0.000561  0.000488  0.999596  1
  Cu  Cu8  1  0.335416  0.667269  0.657199  1
  Cu  Cu9  1  0.000460  0.001305  0.500128  1
  Se  Se10  1  0.081482  0.564737  0.786690  1
  Se  Se11  1  0.264574  0.153724  0.010043  1
  Se  Se12  1  0.437418  0.514228  0.778985  1
  Se  Se13  1  0.658914  0.320901  0.755374  1
  Se  Se14  1  0.162666  0.899480  0.514454  1
  Se  Se15  1  0.891981  0.739236  0.019424  1
  Se  Se16  1  0.333221  0.667137  0.253520  1
  Se  Se17  1  0.110645  0.264444  0.513739  1
  Se  Se18  1  0.512721  0.077090  0.282448  1
  Se  Se19  1  0.922536  0.427335  0.276047  1
  Se  Se20  1  0.554693  0.481609  0.272046  1
  Se  Se21  1  0.733647  0.853361  0.508605  1
  Se  Se22  1  0.487777  0.920795  0.783502  1
  Se  Se23  1  0.845912  0.108861  0.008294  1
