# generated using pymatgen
data_PaCdPt6
_symmetry_space_group_name_H-M   'P 1'
_cell_length_a   5.81005009
_cell_length_b   5.81005033
_cell_length_c   5.81005100
_cell_angle_alpha   60.00000189
_cell_angle_beta   60.00000051
_cell_angle_gamma   59.99999186
_symmetry_Int_Tables_number   1
_chemical_formula_structural   PaCdPt6
_chemical_formula_sum   'Pa1 Cd1 Pt6'
_cell_volume   138.68346980
_cell_formula_units_Z   1
loop_
 _symmetry_equiv_pos_site_id
 _symmetry_equiv_pos_as_xyz
  1  'x, y, z'
loop_
 _atom_site_type_symbol
 _atom_site_label
 _atom_site_symmetry_multiplicity
 _atom_site_fract_x
 _atom_site_fract_y
 _atom_site_fract_z
 _atom_site_occupancy
  Pa  Pa0  1  0.500000  0.500000  0.500000  1
  Cd  Cd1  1  0.000000  0.000000  0.000000  1
  Pt  Pt2  1  0.500000  0.000000  0.000000  1
  Pt  Pt3  1  0.000000  0.500000  0.500000  1
  Pt  Pt4  1  0.000000  0.500000  0.000000  1
  Pt  Pt5  1  0.500000  0.000000  0.500000  1
  Pt  Pt6  1  0.000000  0.000000  0.500000  1
  Pt  Pt7  1  0.500000  0.500000  0.000000  1
