# generated using pymatgen
data_Lu8Sc2(GaSb)3
_symmetry_space_group_name_H-M   'P 1'
_cell_length_a   8.51824100
_cell_length_b   8.52957203
_cell_length_c   6.21119924
_cell_angle_alpha   89.81089217
_cell_angle_beta   90.00000000
_cell_angle_gamma   119.95606137
_symmetry_Int_Tables_number   1
_chemical_formula_structural   Lu8Sc2(GaSb)3
_chemical_formula_sum   'Lu8 Sc2 Ga3 Sb3'
_cell_volume   390.99591555
_cell_formula_units_Z   1
loop_
 _symmetry_equiv_pos_site_id
 _symmetry_equiv_pos_as_xyz
  1  'x, y, z'
loop_
 _atom_site_type_symbol
 _atom_site_label
 _atom_site_symmetry_multiplicity
 _atom_site_fract_x
 _atom_site_fract_y
 _atom_site_fract_z
 _atom_site_occupancy
  Lu  Lu0  1  0.326930  0.666793  0.004197  1
  Lu  Lu1  1  0.660138  0.333207  0.495803  1
  Lu  Lu2  1  0.233929  0.000000  0.250000  1
  Lu  Lu3  1  0.241713  0.229380  0.750497  1
  Lu  Lu4  1  0.012332  0.770620  0.749503  1
  Lu  Lu5  1  0.013290  0.248156  0.250407  1
  Lu  Lu6  1  0.765135  0.751844  0.249593  1
  Lu  Lu7  1  0.755406  0.000000  0.750000  1
  Sc  Sc8  1  0.660368  0.333298  0.003279  1
  Sc  Sc9  1  0.327070  0.666702  0.496721  1
  Ga  Ga10  1  0.998409  0.601574  0.250737  1
  Ga  Ga11  1  0.396835  0.398426  0.249263  1
  Ga  Ga12  1  0.399688  0.000000  0.750000  1
  Sb  Sb13  1  0.608275  0.000000  0.250000  1
  Sb  Sb14  1  0.602994  0.605507  0.750384  1
  Sb  Sb15  1  0.997487  0.394493  0.749616  1
