# generated using pymatgen
data_Er3Tm7(IrRu)2
_symmetry_space_group_name_H-M   'P 1'
_cell_length_a   6.33622603
_cell_length_b   7.22632282
_cell_length_c   8.35415647
_cell_angle_alpha   96.89792619
_cell_angle_beta   112.29298610
_cell_angle_gamma   90.02233082
_symmetry_Int_Tables_number   1
_chemical_formula_structural   Er3Tm7(IrRu)2
_chemical_formula_sum   'Er3 Tm7 Ir2 Ru2'
_cell_volume   350.92440293
_cell_formula_units_Z   1
loop_
 _symmetry_equiv_pos_site_id
 _symmetry_equiv_pos_as_xyz
  1  'x, y, z'
loop_
 _atom_site_type_symbol
 _atom_site_label
 _atom_site_symmetry_multiplicity
 _atom_site_fract_x
 _atom_site_fract_y
 _atom_site_fract_z
 _atom_site_occupancy
  Er  Er0  1  0.792187  0.081886  0.814663  1
  Er  Er1  1  0.977383  0.418027  0.185224  1
  Er  Er2  1  0.209820  0.915664  0.183735  1
  Tm  Tm3  1  0.025783  0.584673  0.816229  1
  Tm  Tm4  1  0.207978  0.182403  0.563450  1
  Tm  Tm5  1  0.644979  0.318107  0.436802  1
  Tm  Tm6  1  0.790455  0.814977  0.438066  1
  Tm  Tm7  1  0.352172  0.684613  0.562212  1
  Tm  Tm8  1  0.423290  0.250035  0.999777  1
  Tm  Tm9  1  0.576269  0.749888  0.999879  1
  Ir  Ir10  1  0.604469  0.423685  0.778878  1
  Ir  Ir11  1  0.824985  0.076428  0.221432  1
  Ru  Ru12  1  0.394919  0.574856  0.219180  1
  Ru  Ru13  1  0.175309  0.924758  0.780473  1
