# generated using pymatgen
data_Tb2Nd6Mo(RuO8)3
_symmetry_space_group_name_H-M   'P 1'
_cell_length_a   5.53201496
_cell_length_b   10.12921429
_cell_length_c   10.18177863
_cell_angle_alpha   69.09789548
_cell_angle_beta   74.94431199
_cell_angle_gamma   75.10463409
_symmetry_Int_Tables_number   1
_chemical_formula_structural   Tb2Nd6Mo(RuO8)3
_chemical_formula_sum   'Tb2 Nd6 Mo1 Ru3 O24'
_cell_volume   506.07733841
_cell_formula_units_Z   1
loop_
 _symmetry_equiv_pos_site_id
 _symmetry_equiv_pos_as_xyz
  1  'x, y, z'
loop_
 _atom_site_type_symbol
 _atom_site_label
 _atom_site_symmetry_multiplicity
 _atom_site_fract_x
 _atom_site_fract_y
 _atom_site_fract_z
 _atom_site_occupancy
  Tb  Tb0  1  0.748739  0.398020  0.602621  1
  Tb  Tb1  1  0.251268  0.602763  0.398619  1
  Nd  Nd2  1  0.625106  0.786986  0.561982  1
  Nd  Nd3  1  0.122687  0.560087  0.787415  1
  Nd  Nd4  1  0.374525  0.213118  0.440962  1
  Nd  Nd5  1  0.879225  0.440683  0.213726  1
  Nd  Nd6  1  0.749202  0.865212  0.134570  1
  Nd  Nd7  1  0.251252  0.136985  0.863592  1
  Mo  Mo8  1  0.562822  0.298091  0.006229  1
  Ru  Ru9  1  0.059324  0.001572  0.297994  1
  Ru  Ru10  1  0.439261  0.701072  0.998275  1
  Ru  Ru11  1  0.941722  0.998370  0.701671  1
  O  O12  1  0.927818  0.572106  0.607057  1
  O  O13  1  0.572271  0.392808  0.429218  1
  O  O14  1  0.073881  0.428759  0.392316  1
  O  O15  1  0.427417  0.608278  0.571985  1
  O  O16  1  0.933373  0.805923  0.336189  1
  O  O17  1  0.566771  0.663033  0.193598  1
  O  O18  1  0.067555  0.194451  0.662549  1
  O  O19  1  0.437088  0.338187  0.805320  1
  O  O20  1  0.368149  0.890211  0.331180  1
  O  O21  1  0.130653  0.667818  0.109955  1
  O  O22  1  0.632864  0.109763  0.667770  1
  O  O23  1  0.873460  0.328445  0.889010  1
  O  O24  1  0.627277  0.290457  0.177101  1
  O  O25  1  0.868793  0.822593  0.713287  1
  O  O26  1  0.367859  0.712716  0.823475  1
  O  O27  1  0.133677  0.177278  0.286390  1
  O  O28  1  0.527768  0.114862  0.040231  1
  O  O29  1  0.976823  0.958938  0.883793  1
  O  O30  1  0.764383  0.026493  0.425099  1
  O  O31  1  0.021773  0.043460  0.115677  1
  O  O32  1  0.256069  0.423955  0.023452  1
  O  O33  1  0.235022  0.974264  0.573165  1
  O  O34  1  0.727879  0.568351  0.976054  1
  O  O35  1  0.476249  0.883889  0.958480  1
