# generated using pymatgen
data_Tm4SiBr6
_symmetry_space_group_name_H-M   'P 1'
_cell_length_a   3.99654000
_cell_length_b   13.04084500
_cell_length_c   13.81561800
_cell_angle_alpha   90.00000000
_cell_angle_beta   90.00000000
_cell_angle_gamma   90.00000000
_symmetry_Int_Tables_number   1
_chemical_formula_structural   Tm4SiBr6
_chemical_formula_sum   'Tm8 Si2 Br12'
_cell_volume   720.04595270
_cell_formula_units_Z   2
loop_
 _symmetry_equiv_pos_site_id
 _symmetry_equiv_pos_as_xyz
  1  'x, y, z'
loop_
 _atom_site_type_symbol
 _atom_site_label
 _atom_site_symmetry_multiplicity
 _atom_site_fract_x
 _atom_site_fract_y
 _atom_site_fract_z
 _atom_site_occupancy
  Tm  Tm0  1  0.500000  0.117912  0.341426  1
  Tm  Tm1  1  0.500000  0.882088  0.658574  1
  Tm  Tm2  1  0.500000  0.617912  0.158574  1
  Tm  Tm3  1  0.500000  0.382088  0.841426  1
  Tm  Tm4  1  0.000000  0.117268  0.577816  1
  Tm  Tm5  1  0.000000  0.882732  0.422184  1
  Tm  Tm6  1  0.000000  0.617268  0.922184  1
  Tm  Tm7  1  0.000000  0.382732  0.077816  1
  Si  Si8  1  0.500000  0.000000  0.500000  1
  Si  Si9  1  0.500000  0.500000  0.000000  1
  Br  Br10  1  0.500000  0.243760  0.162482  1
  Br  Br11  1  0.500000  0.756240  0.837518  1
  Br  Br12  1  0.500000  0.743760  0.337518  1
  Br  Br13  1  0.500000  0.256240  0.662482  1
  Br  Br14  1  0.000000  0.255653  0.411329  1
  Br  Br15  1  0.000000  0.744347  0.588671  1
  Br  Br16  1  0.000000  0.755653  0.088671  1
  Br  Br17  1  0.000000  0.244347  0.911329  1
  Br  Br18  1  0.000000  0.001585  0.242883  1
  Br  Br19  1  0.000000  0.998415  0.757117  1
  Br  Br20  1  0.000000  0.501585  0.257117  1
  Br  Br21  1  0.000000  0.498415  0.742883  1
