# generated using pymatgen
data_Pr16GaTc2Hg5
_symmetry_space_group_name_H-M   'P 1'
_cell_length_a   10.66046590
_cell_length_b   10.66050351
_cell_length_c   7.37447682
_cell_angle_alpha   90.34160255
_cell_angle_beta   89.65939972
_cell_angle_gamma   120.00102507
_symmetry_Int_Tables_number   1
_chemical_formula_structural   Pr16GaTc2Hg5
_chemical_formula_sum   'Pr16 Ga1 Tc2 Hg5'
_cell_volume   725.77332382
_cell_formula_units_Z   1
loop_
 _symmetry_equiv_pos_site_id
 _symmetry_equiv_pos_as_xyz
  1  'x, y, z'
loop_
 _atom_site_type_symbol
 _atom_site_label
 _atom_site_symmetry_multiplicity
 _atom_site_fract_x
 _atom_site_fract_y
 _atom_site_fract_z
 _atom_site_occupancy
  Pr  Pr0  1  0.170457  0.829541  0.982947  1
  Pr  Pr1  1  0.341870  0.170064  0.481637  1
  Pr  Pr2  1  0.829940  0.658138  0.481637  1
  Pr  Pr3  1  0.168999  0.342077  0.983549  1
  Pr  Pr4  1  0.657919  0.830995  0.983541  1
  Pr  Pr5  1  0.828823  0.171183  0.483324  1
  Pr  Pr6  1  0.333308  0.666689  0.680862  1
  Pr  Pr7  1  0.670368  0.329624  0.175528  1
  Pr  Pr8  1  0.463456  0.536544  0.292990  1
  Pr  Pr9  1  0.921352  0.458827  0.795998  1
  Pr  Pr10  1  0.541173  0.078651  0.795995  1
  Pr  Pr11  1  0.462936  0.923332  0.295207  1
  Pr  Pr12  1  0.076670  0.537067  0.295210  1
  Pr  Pr13  1  0.539122  0.460877  0.794093  1
  Pr  Pr14  1  0.992499  0.007500  0.273450  1
  Pr  Pr15  1  0.995363  0.004636  0.780048  1
  Ga  Ga16  1  0.835777  0.164214  0.040556  1
  Tc  Tc17  1  0.334788  0.665214  0.054936  1
  Tc  Tc18  1  0.668424  0.331578  0.552306  1
  Hg  Hg19  1  0.168020  0.831982  0.540738  1
  Hg  Hg20  1  0.335606  0.169011  0.040351  1
  Hg  Hg21  1  0.830989  0.664394  0.040350  1
  Hg  Hg22  1  0.168025  0.335883  0.540376  1
  Hg  Hg23  1  0.664116  0.831979  0.540371  1
