# generated using pymatgen
data_Th8Sc12Si13As3
_symmetry_space_group_name_H-M   'P 1'
_cell_length_a   7.37461223
_cell_length_b   7.44896692
_cell_length_c   14.13002769
_cell_angle_alpha   90.05476837
_cell_angle_beta   89.40717509
_cell_angle_gamma   89.98523930
_symmetry_Int_Tables_number   1
_chemical_formula_structural   Th8Sc12Si13As3
_chemical_formula_sum   'Th8 Sc12 Si13 As3'
_cell_volume   776.16630796
_cell_formula_units_Z   1
loop_
 _symmetry_equiv_pos_site_id
 _symmetry_equiv_pos_as_xyz
  1  'x, y, z'
loop_
 _atom_site_type_symbol
 _atom_site_label
 _atom_site_symmetry_multiplicity
 _atom_site_fract_x
 _atom_site_fract_y
 _atom_site_fract_z
 _atom_site_occupancy
  Th  Th0  1  0.008394  0.679859  0.597343  1
  Th  Th1  1  0.987159  0.319991  0.402935  1
  Th  Th2  1  0.489516  0.182971  0.402383  1
  Th  Th3  1  0.995079  0.322905  0.095971  1
  Th  Th4  1  0.511684  0.816317  0.598229  1
  Th  Th5  1  0.004528  0.676677  0.903952  1
  Th  Th6  1  0.504965  0.822760  0.904118  1
  Th  Th7  1  0.494908  0.176966  0.095882  1
  Sc  Sc8  1  0.181126  0.998051  0.752333  1
  Sc  Sc9  1  0.818607  0.002444  0.247522  1
  Sc  Sc10  1  0.318228  0.497869  0.247217  1
  Sc  Sc11  1  0.681542  0.501513  0.750410  1
  Sc  Sc12  1  0.359471  0.336361  0.625654  1
  Sc  Sc13  1  0.643287  0.663459  0.375016  1
  Sc  Sc14  1  0.143661  0.836594  0.375296  1
  Sc  Sc15  1  0.649045  0.669413  0.125288  1
  Sc  Sc16  1  0.854986  0.165624  0.624055  1
  Sc  Sc17  1  0.351454  0.329892  0.875158  1
  Sc  Sc18  1  0.851414  0.169330  0.875076  1
  Sc  Sc19  1  0.148713  0.830635  0.125419  1
  Si  Si20  1  0.056697  0.378033  0.748518  1
  Si  Si21  1  0.944126  0.621935  0.251667  1
  Si  Si22  1  0.443735  0.878512  0.251708  1
  Si  Si23  1  0.556408  0.121020  0.748892  1
  Si  Si24  1  0.306324  0.624097  0.750842  1
  Si  Si25  1  0.692455  0.375221  0.249222  1
  Si  Si26  1  0.192224  0.124628  0.249799  1
  Si  Si27  1  0.807298  0.876165  0.750532  1
  Si  Si28  1  0.819111  0.958242  0.042599  1
  Si  Si29  1  0.696827  0.454885  0.544643  1
  Si  Si30  1  0.180877  0.041049  0.957446  1
  Si  Si31  1  0.681117  0.458086  0.957562  1
  Si  Si32  1  0.318803  0.541432  0.042686  1
  As  As33  1  0.198256  0.046726  0.545682  1
  As  As34  1  0.802376  0.953914  0.453673  1
  As  As35  1  0.305596  0.546427  0.455270  1
