# generated using pymatgen
data_Dy2TmLu7(CoSb2)2
_symmetry_space_group_name_H-M   'P 1'
_cell_length_a   7.71335400
_cell_length_b   8.72367200
_cell_length_c   11.97899600
_cell_angle_alpha   90.00000000
_cell_angle_beta   90.00000000
_cell_angle_gamma   90.00000000
_symmetry_Int_Tables_number   1
_chemical_formula_structural   Dy2TmLu7(CoSb2)2
_chemical_formula_sum   'Dy4 Tm2 Lu14 Co4 Sb8'
_cell_volume   806.05191046
_cell_formula_units_Z   2
loop_
 _symmetry_equiv_pos_site_id
 _symmetry_equiv_pos_as_xyz
  1  'x, y, z'
loop_
 _atom_site_type_symbol
 _atom_site_label
 _atom_site_symmetry_multiplicity
 _atom_site_fract_x
 _atom_site_fract_y
 _atom_site_fract_z
 _atom_site_occupancy
  Dy  Dy0  1  0.621949  0.750000  0.307696  1
  Dy  Dy1  1  0.878051  0.750000  0.807696  1
  Dy  Dy2  1  0.378170  0.250000  0.692349  1
  Dy  Dy3  1  0.121830  0.250000  0.192349  1
  Tm  Tm4  1  0.155331  0.750000  0.204099  1
  Tm  Tm5  1  0.344669  0.750000  0.704099  1
  Lu  Lu6  1  0.844764  0.250000  0.796287  1
  Lu  Lu7  1  0.655236  0.250000  0.296287  1
  Lu  Lu8  1  0.447472  0.750000  0.997751  1
  Lu  Lu9  1  0.052528  0.750000  0.497751  1
  Lu  Lu10  1  0.553064  0.250000  0.002226  1
  Lu  Lu11  1  0.946936  0.250000  0.502226  1
  Lu  Lu12  1  0.823851  0.536997  0.065183  1
  Lu  Lu13  1  0.676149  0.963003  0.565183  1
  Lu  Lu14  1  0.175914  0.037531  0.934683  1
  Lu  Lu15  1  0.324086  0.462469  0.434683  1
  Lu  Lu16  1  0.175914  0.462469  0.934683  1
  Lu  Lu17  1  0.324086  0.037531  0.434683  1
  Lu  Lu18  1  0.823851  0.963003  0.065183  1
  Lu  Lu19  1  0.676149  0.536997  0.565183  1
  Co  Co20  1  0.431925  0.750000  0.491542  1
  Co  Co21  1  0.068075  0.750000  0.991542  1
  Co  Co22  1  0.568092  0.250000  0.508120  1
  Co  Co23  1  0.931908  0.250000  0.008120  1
  Sb  Sb24  1  0.930681  0.508325  0.329080  1
  Sb  Sb25  1  0.569319  0.991675  0.829080  1
  Sb  Sb26  1  0.068638  0.008901  0.671019  1
  Sb  Sb27  1  0.431362  0.491099  0.171019  1
  Sb  Sb28  1  0.068638  0.491099  0.671019  1
  Sb  Sb29  1  0.431362  0.008901  0.171019  1
  Sb  Sb30  1  0.930681  0.991675  0.329080  1
  Sb  Sb31  1  0.569319  0.508325  0.829080  1
