# generated using pymatgen
data_GdSc2Al8(SiOs)4
_symmetry_space_group_name_H-M   'P 1'
_cell_length_a   8.61069300
_cell_length_b   8.61069209
_cell_length_c   9.35074800
_cell_angle_alpha   90.00000000
_cell_angle_beta   90.00000000
_cell_angle_gamma   120.08953644
_symmetry_Int_Tables_number   1
_chemical_formula_structural   GdSc2Al8(SiOs)4
_chemical_formula_sum   'Gd2 Sc4 Al16 Si8 Os8'
_cell_volume   599.87478769
_cell_formula_units_Z   2
loop_
 _symmetry_equiv_pos_site_id
 _symmetry_equiv_pos_as_xyz
  1  'x, y, z'
loop_
 _atom_site_type_symbol
 _atom_site_label
 _atom_site_symmetry_multiplicity
 _atom_site_fract_x
 _atom_site_fract_y
 _atom_site_fract_z
 _atom_site_occupancy
  Gd  Gd0  1  0.191077  0.808923  0.250000  1
  Gd  Gd1  1  0.808923  0.191077  0.750000  1
  Sc  Sc2  1  0.194601  0.392681  0.250000  1
  Sc  Sc3  1  0.805399  0.607319  0.750000  1
  Sc  Sc4  1  0.607319  0.805399  0.250000  1
  Sc  Sc5  1  0.392681  0.194601  0.750000  1
  Al  Al6  1  0.167101  0.329296  0.577503  1
  Al  Al7  1  0.832899  0.670704  0.422497  1
  Al  Al8  1  0.670704  0.832899  0.577503  1
  Al  Al9  1  0.832899  0.670704  0.077503  1
  Al  Al10  1  0.329296  0.167101  0.422497  1
  Al  Al11  1  0.167101  0.329296  0.922497  1
  Al  Al12  1  0.164192  0.835808  0.580630  1
  Al  Al13  1  0.329296  0.167101  0.077503  1
  Al  Al14  1  0.835808  0.164192  0.419370  1
  Al  Al15  1  0.670704  0.832899  0.922497  1
  Al  Al16  1  0.835808  0.164192  0.080630  1
  Al  Al17  1  0.164192  0.835808  0.919370  1
  Al  Al18  1  0.562231  0.437769  0.250000  1
  Al  Al19  1  0.437769  0.562231  0.750000  1
  Al  Al20  1  0.994225  0.005775  0.250000  1
  Al  Al21  1  0.005775  0.994225  0.750000  1
  Si  Si22  1  0.336029  0.663971  0.046149  1
  Si  Si23  1  0.663971  0.336029  0.953851  1
  Si  Si24  1  0.663971  0.336029  0.546149  1
  Si  Si25  1  0.336029  0.663971  0.453851  1
  Si  Si26  1  0.565559  0.124420  0.250000  1
  Si  Si27  1  0.434441  0.875580  0.750000  1
  Si  Si28  1  0.875580  0.434441  0.250000  1
  Si  Si29  1  0.124420  0.565559  0.750000  1
  Os  Os30  1  0.500000  0.000000  0.000000  1
  Os  Os31  1  0.000000  0.500000  0.000000  1
  Os  Os32  1  0.500000  0.000000  0.500000  1
  Os  Os33  1  0.500000  0.500000  0.000000  1
  Os  Os34  1  0.000000  0.500000  0.500000  1
  Os  Os35  1  0.500000  0.500000  0.500000  1
  Os  Os36  1  0.000000  0.000000  0.000000  1
  Os  Os37  1  0.000000  0.000000  0.500000  1
