# generated using pymatgen
data_Tb15Tm(HgRh)4
_symmetry_space_group_name_H-M   'P 1'
_cell_length_a   9.63905422
_cell_length_b   9.63905356
_cell_length_c   9.62982200
_cell_angle_alpha   60.03167623
_cell_angle_beta   60.03167850
_cell_angle_gamma   59.93431149
_symmetry_Int_Tables_number   1
_chemical_formula_structural   Tb15Tm(HgRh)4
_chemical_formula_sum   'Tb15 Tm1 Hg4 Rh4'
_cell_volume   632.65010279
_cell_formula_units_Z   1
loop_
 _symmetry_equiv_pos_site_id
 _symmetry_equiv_pos_as_xyz
  1  'x, y, z'
loop_
 _atom_site_type_symbol
 _atom_site_label
 _atom_site_symmetry_multiplicity
 _atom_site_fract_x
 _atom_site_fract_y
 _atom_site_fract_z
 _atom_site_occupancy
  Tb  Tb0  1  0.810694  0.189535  0.810403  1
  Tb  Tb1  1  0.190222  0.190222  0.809778  1
  Tb  Tb2  1  0.648152  0.054310  0.648769  1
  Tb  Tb3  1  0.063034  0.063034  0.436966  1
  Tb  Tb4  1  0.436971  0.436971  0.063029  1
  Tb  Tb5  1  0.648760  0.648760  0.649052  1
  Tb  Tb6  1  0.810694  0.189535  0.189366  1
  Tb  Tb7  1  0.189535  0.810694  0.810403  1
  Tb  Tb8  1  0.054310  0.648152  0.648769  1
  Tb  Tb9  1  0.438259  0.061487  0.063721  1
  Tb  Tb10  1  0.438259  0.061487  0.436532  1
  Tb  Tb11  1  0.061487  0.438259  0.063721  1
  Tb  Tb12  1  0.648760  0.648760  0.053428  1
  Tb  Tb13  1  0.189535  0.810694  0.189366  1
  Tb  Tb14  1  0.061487  0.438259  0.436532  1
  Tm  Tm15  1  0.810152  0.810152  0.189848  1
  Hg  Hg16  1  0.415202  0.415202  0.414819  1
  Hg  Hg17  1  0.415202  0.415202  0.754776  1
  Hg  Hg18  1  0.415280  0.755571  0.414573  1
  Hg  Hg19  1  0.755571  0.415280  0.414573  1
  Rh  Rh20  1  0.857035  0.427755  0.857606  1
  Rh  Rh21  1  0.856819  0.856819  0.860569  1
  Rh  Rh22  1  0.856819  0.856819  0.425793  1
  Rh  Rh23  1  0.427755  0.857035  0.857606  1
