# generated using pymatgen
data_TbPr15(CdCo)4
_symmetry_space_group_name_H-M   'P 1'
_cell_length_a   9.87084796
_cell_length_b   9.88315290
_cell_length_c   9.87084827
_cell_angle_alpha   59.95875280
_cell_angle_beta   60.15246978
_cell_angle_gamma   59.95875417
_symmetry_Int_Tables_number   1
_chemical_formula_structural   TbPr15(CdCo)4
_chemical_formula_sum   'Tb1 Pr15 Cd4 Co4'
_cell_volume   681.26444740
_cell_formula_units_Z   1
loop_
 _symmetry_equiv_pos_site_id
 _symmetry_equiv_pos_as_xyz
  1  'x, y, z'
loop_
 _atom_site_type_symbol
 _atom_site_label
 _atom_site_symmetry_multiplicity
 _atom_site_fract_x
 _atom_site_fract_y
 _atom_site_fract_z
 _atom_site_occupancy
  Tb  Tb0  1  0.059453  0.440547  0.059453  1
  Pr  Pr1  1  0.436418  0.440792  0.059888  1
  Pr  Pr2  1  0.596456  0.596729  0.596456  1
  Pr  Pr3  1  0.188980  0.809597  0.811294  1
  Pr  Pr4  1  0.059888  0.062902  0.436418  1
  Pr  Pr5  1  0.436418  0.062902  0.059888  1
  Pr  Pr6  1  0.811244  0.188756  0.811244  1
  Pr  Pr7  1  0.439488  0.060512  0.439488  1
  Pr  Pr8  1  0.596456  0.210359  0.596456  1
  Pr  Pr9  1  0.811294  0.809597  0.188980  1
  Pr  Pr10  1  0.207871  0.595666  0.600798  1
  Pr  Pr11  1  0.811294  0.190129  0.188980  1
  Pr  Pr12  1  0.059888  0.440792  0.436418  1
  Pr  Pr13  1  0.190537  0.809463  0.190537  1
  Pr  Pr14  1  0.600798  0.595666  0.207871  1
  Pr  Pr15  1  0.188980  0.190129  0.811294  1
  Cd  Cd16  1  0.829843  0.829330  0.511496  1
  Cd  Cd17  1  0.830147  0.827876  0.830147  1
  Cd  Cd18  1  0.511496  0.829330  0.829843  1
  Cd  Cd19  1  0.830147  0.511829  0.830147  1
  Co  Co20  1  0.391420  0.389475  0.391420  1
  Co  Co21  1  0.829921  0.389968  0.390144  1
  Co  Co22  1  0.391420  0.827686  0.391420  1
  Co  Co23  1  0.390144  0.389968  0.829921  1
