# generated using pymatgen
data_YbTmTiIr3
_symmetry_space_group_name_H-M   'P 1'
_cell_length_a   5.58600591
_cell_length_b   5.14875535
_cell_length_c   5.58600500
_cell_angle_alpha   57.14861925
_cell_angle_beta   59.99999948
_cell_angle_gamma   57.14861944
_symmetry_Int_Tables_number   1
_chemical_formula_structural   YbTmTiIr3
_chemical_formula_sum   'Yb1 Tm1 Ti1 Ir3'
_cell_volume   108.45791737
_cell_formula_units_Z   1
loop_
 _symmetry_equiv_pos_site_id
 _symmetry_equiv_pos_as_xyz
  1  'x, y, z'
loop_
 _atom_site_type_symbol
 _atom_site_label
 _atom_site_symmetry_multiplicity
 _atom_site_fract_x
 _atom_site_fract_y
 _atom_site_fract_z
 _atom_site_occupancy
  Yb  Yb0  1  0.750319  0.749042  0.750319  1
  Tm  Tm1  1  0.499245  0.502266  0.499245  1
  Ti  Ti2  1  0.125893  0.622322  0.125893  1
  Ir  Ir3  1  0.626266  0.125457  0.124139  1
  Ir  Ir4  1  0.124139  0.125457  0.124139  1
  Ir  Ir5  1  0.124139  0.125457  0.626266  1
