# generated using pymatgen
data_Ca2CeZn9(Co2Ni)2
_symmetry_space_group_name_H-M   'P 1'
_cell_length_a   8.83439524
_cell_length_b   8.87818497
_cell_length_c   4.19743100
_cell_angle_alpha   90.00000000
_cell_angle_beta   90.00000000
_cell_angle_gamma   120.16410660
_symmetry_Int_Tables_number   1
_chemical_formula_structural   Ca2CeZn9(Co2Ni)2
_chemical_formula_sum   'Ca2 Ce1 Zn9 Co4 Ni2'
_cell_volume   284.63916958
_cell_formula_units_Z   1
loop_
 _symmetry_equiv_pos_site_id
 _symmetry_equiv_pos_as_xyz
  1  'x, y, z'
loop_
 _atom_site_type_symbol
 _atom_site_label
 _atom_site_symmetry_multiplicity
 _atom_site_fract_x
 _atom_site_fract_y
 _atom_site_fract_z
 _atom_site_occupancy
  Ca  Ca0  1  0.334925  0.665616  0.000000  1
  Ca  Ca1  1  0.665075  0.330690  0.000000  1
  Ce  Ce2  1  0.000000  0.015891  0.500000  1
  Zn  Zn3  1  0.501230  0.000472  0.500000  1
  Zn  Zn4  1  0.498770  0.499242  0.500000  1
  Zn  Zn5  1  0.000000  0.498224  0.500000  1
  Zn  Zn6  1  0.292586  0.999644  0.000000  1
  Zn  Zn7  1  0.296079  0.295632  0.000000  1
  Zn  Zn8  1  0.000000  0.706086  0.000000  1
  Zn  Zn9  1  0.000000  0.299659  0.000000  1
  Zn  Zn10  1  0.707414  0.707058  0.000000  1
  Zn  Zn11  1  0.703921  0.999554  0.000000  1
  Co  Co12  1  0.171592  0.342957  0.500000  1
  Co  Co13  1  0.828408  0.171365  0.500000  1
  Co  Co14  1  0.337614  0.167175  0.500000  1
  Co  Co15  1  0.662386  0.829561  0.500000  1
  Ni  Ni16  1  0.174630  0.822901  0.500000  1
  Ni  Ni17  1  0.825370  0.648272  0.500000  1
