# generated using pymatgen
data_Na2Hg4Pd3
_symmetry_space_group_name_H-M   'P 1'
_cell_length_a   5.66124237
_cell_length_b   5.66124043
_cell_length_c   13.98107900
_cell_angle_alpha   90.00000000
_cell_angle_beta   90.00000000
_cell_angle_gamma   120.09058492
_symmetry_Int_Tables_number   1
_chemical_formula_structural   Na2Hg4Pd3
_chemical_formula_sum   'Na4 Hg8 Pd6'
_cell_volume   387.70153814
_cell_formula_units_Z   2
loop_
 _symmetry_equiv_pos_site_id
 _symmetry_equiv_pos_as_xyz
  1  'x, y, z'
loop_
 _atom_site_type_symbol
 _atom_site_label
 _atom_site_symmetry_multiplicity
 _atom_site_fract_x
 _atom_site_fract_y
 _atom_site_fract_z
 _atom_site_occupancy
  Na  Na0  1  0.324321  0.324321  0.135065  1
  Na  Na1  1  0.675679  0.675679  0.635065  1
  Na  Na2  1  0.324321  0.324321  0.364935  1
  Na  Na3  1  0.675679  0.675679  0.864935  1
  Hg  Hg4  1  0.988849  0.661278  0.083517  1
  Hg  Hg5  1  0.011151  0.338722  0.583517  1
  Hg  Hg6  1  0.661278  0.988849  0.416483  1
  Hg  Hg7  1  0.338722  0.011151  0.916483  1
  Hg  Hg8  1  0.011151  0.338722  0.916483  1
  Hg  Hg9  1  0.988849  0.661278  0.416483  1
  Hg  Hg10  1  0.338722  0.011151  0.583517  1
  Hg  Hg11  1  0.661278  0.988849  0.083517  1
  Pd  Pd12  1  0.828127  0.828127  0.250000  1
  Pd  Pd13  1  0.171873  0.171873  0.750000  1
  Pd  Pd14  1  0.825593  0.327694  0.250000  1
  Pd  Pd15  1  0.174407  0.672306  0.750000  1
  Pd  Pd16  1  0.327694  0.825593  0.250000  1
  Pd  Pd17  1  0.672306  0.174407  0.750000  1
