# generated using pymatgen
data_TmPa2Zn11
_symmetry_space_group_name_H-M   'P 1'
_cell_length_a   8.07562838
_cell_length_b   8.07562842
_cell_length_c   8.07562783
_cell_angle_alpha   148.32796246
_cell_angle_beta   112.62197230
_cell_angle_gamma   76.36611413
_symmetry_Int_Tables_number   1
_chemical_formula_structural   TmPa2Zn11
_chemical_formula_sum   'Tm1 Pa2 Zn11'
_cell_volume   250.64530887
_cell_formula_units_Z   1
loop_
 _symmetry_equiv_pos_site_id
 _symmetry_equiv_pos_as_xyz
  1  'x, y, z'
loop_
 _atom_site_type_symbol
 _atom_site_label
 _atom_site_symmetry_multiplicity
 _atom_site_fract_x
 _atom_site_fract_y
 _atom_site_fract_z
 _atom_site_occupancy
  Tm  Tm0  1  0.000000  0.000000  0.000000  1
  Pa  Pa1  1  0.292294  0.292294  0.000000  1
  Pa  Pa2  1  0.707706  0.707706  0.000000  1
  Zn  Zn3  1  0.500000  0.000000  0.500000  1
  Zn  Zn4  1  0.681387  0.500000  0.181387  1
  Zn  Zn5  1  0.318613  0.500000  0.818613  1
  Zn  Zn6  1  0.706619  0.344852  0.361766  1
  Zn  Zn7  1  0.293381  0.655148  0.638234  1
  Zn  Zn8  1  0.983086  0.344852  0.638234  1
  Zn  Zn9  1  0.016914  0.655148  0.361766  1
  Zn  Zn10  1  0.424791  0.141961  0.282831  1
  Zn  Zn11  1  0.575209  0.858039  0.717169  1
  Zn  Zn12  1  0.859130  0.141961  0.717169  1
  Zn  Zn13  1  0.140870  0.858039  0.282831  1
