# generated using pymatgen
data_Ti13Al5(GaIr2)4
_symmetry_space_group_name_H-M   'P 1'
_cell_length_a   8.77185424
_cell_length_b   8.77185319
_cell_length_c   8.77185353
_cell_angle_alpha   59.65553146
_cell_angle_beta   59.65553462
_cell_angle_gamma   59.65553647
_symmetry_Int_Tables_number   1
_chemical_formula_structural   Ti13Al5(GaIr2)4
_chemical_formula_sum   'Ti13 Al5 Ga4 Ir8'
_cell_volume   473.52912334
_cell_formula_units_Z   1
loop_
 _symmetry_equiv_pos_site_id
 _symmetry_equiv_pos_as_xyz
  1  'x, y, z'
loop_
 _atom_site_type_symbol
 _atom_site_label
 _atom_site_symmetry_multiplicity
 _atom_site_fract_x
 _atom_site_fract_y
 _atom_site_fract_z
 _atom_site_occupancy
  Ti  Ti0  1  0.209688  0.209688  0.790261  1
  Ti  Ti1  1  0.790261  0.209688  0.209688  1
  Ti  Ti2  1  0.209688  0.790261  0.209688  1
  Ti  Ti3  1  0.795973  0.795973  0.192515  1
  Ti  Ti4  1  0.192515  0.795973  0.795973  1
  Ti  Ti5  1  0.795973  0.192515  0.795973  1
  Ti  Ti6  1  0.376637  0.376637  0.376637  1
  Ti  Ti7  1  0.377219  0.871046  0.377219  1
  Ti  Ti8  1  0.871046  0.377219  0.377219  1
  Ti  Ti9  1  0.377219  0.377219  0.871046  1
  Ti  Ti10  1  0.840463  0.482266  0.840463  1
  Ti  Ti11  1  0.482266  0.840463  0.840463  1
  Ti  Ti12  1  0.840463  0.840463  0.482266  1
  Al  Al13  1  0.619610  0.619610  0.619610  1
  Al  Al14  1  0.619042  0.144824  0.619042  1
  Al  Al15  1  0.144824  0.619042  0.619042  1
  Al  Al16  1  0.619042  0.619042  0.144824  1
  Al  Al17  1  0.829349  0.829349  0.829349  1
  Ga  Ga18  1  0.152637  0.152637  0.152637  1
  Ga  Ga19  1  0.155244  0.536148  0.155244  1
  Ga  Ga20  1  0.536148  0.155244  0.155244  1
  Ga  Ga21  1  0.155244  0.155244  0.536148  1
  Ir  Ir22  1  0.001577  0.001577  0.500348  1
  Ir  Ir23  1  0.500348  0.001577  0.001577  1
  Ir  Ir24  1  0.001577  0.500348  0.001577  1
  Ir  Ir25  1  0.500137  0.500137  0.001779  1
  Ir  Ir26  1  0.001779  0.500137  0.500137  1
  Ir  Ir27  1  0.500137  0.001779  0.500137  1
  Ir  Ir28  1  0.501266  0.501266  0.501266  1
  Ir  Ir29  1  0.002626  0.002626  0.002626  1
