# generated using pymatgen
data_Dy3AlZn2Ge2Au
_symmetry_space_group_name_H-M   'P 1'
_cell_length_a   7.00904265
_cell_length_b   7.00904283
_cell_length_c   4.30415400
_cell_angle_alpha   90.00000000
_cell_angle_beta   90.00000000
_cell_angle_gamma   120.72225711
_symmetry_Int_Tables_number   1
_chemical_formula_structural   Dy3AlZn2Ge2Au
_chemical_formula_sum   'Dy3 Al1 Zn2 Ge2 Au1'
_cell_volume   181.77277891
_cell_formula_units_Z   1
loop_
 _symmetry_equiv_pos_site_id
 _symmetry_equiv_pos_as_xyz
  1  'x, y, z'
loop_
 _atom_site_type_symbol
 _atom_site_label
 _atom_site_symmetry_multiplicity
 _atom_site_fract_x
 _atom_site_fract_y
 _atom_site_fract_z
 _atom_site_occupancy
  Dy  Dy0  1  0.577972  0.002350  0.000000  1
  Dy  Dy1  1  0.002350  0.577972  0.000000  1
  Dy  Dy2  1  0.416722  0.416722  0.000000  1
  Al  Al3  1  0.769659  0.769659  0.500000  1
  Zn  Zn4  1  0.242957  0.996597  0.500000  1
  Zn  Zn5  1  0.996597  0.242957  0.500000  1
  Ge  Ge6  1  0.337119  0.665779  0.500000  1
  Ge  Ge7  1  0.665779  0.337119  0.500000  1
  Au  Au8  1  0.990847  0.990847  0.000000  1
