# generated using pymatgen
data_Yb4Sn2Sb4Rh7
_symmetry_space_group_name_H-M   'P 1'
_cell_length_a   7.57372287
_cell_length_b   7.57372343
_cell_length_c   7.59341389
_cell_angle_alpha   109.45870393
_cell_angle_beta   109.45870454
_cell_angle_gamma   109.39101145
_symmetry_Int_Tables_number   1
_chemical_formula_structural   Yb4Sn2Sb4Rh7
_chemical_formula_sum   'Yb4 Sn2 Sb4 Rh7'
_cell_volume   335.73504444
_cell_formula_units_Z   1
loop_
 _symmetry_equiv_pos_site_id
 _symmetry_equiv_pos_as_xyz
  1  'x, y, z'
loop_
 _atom_site_type_symbol
 _atom_site_label
 _atom_site_symmetry_multiplicity
 _atom_site_fract_x
 _atom_site_fract_y
 _atom_site_fract_z
 _atom_site_occupancy
  Yb  Yb0  1  0.506936  0.999140  0.000000  1
  Yb  Yb1  1  0.000860  0.493064  0.000000  1
  Yb  Yb2  1  0.001227  0.998773  0.500000  1
  Yb  Yb3  1  0.501227  0.498773  0.500000  1
  Sn  Sn4  1  0.310983  0.997204  0.308187  1
  Sn  Sn5  1  0.002796  0.689017  0.691813  1
  Sb  Sb6  1  0.687405  0.681656  0.000000  1
  Sb  Sb7  1  0.675565  0.996719  0.672285  1
  Sb  Sb8  1  0.003281  0.324435  0.327715  1
  Sb  Sb9  1  0.318344  0.312595  0.000000  1
  Rh  Rh10  1  0.254038  0.501921  0.755959  1
  Rh  Rh11  1  0.498169  0.249160  0.747329  1
  Rh  Rh12  1  0.748593  0.251407  0.500000  1
  Rh  Rh13  1  0.498079  0.745962  0.244041  1
  Rh  Rh14  1  0.993065  0.006935  0.000000  1
  Rh  Rh15  1  0.248593  0.751407  0.500000  1
  Rh  Rh16  1  0.750840  0.501831  0.252671  1
