# generated using pymatgen
data_TbErV3P7Rh9
_symmetry_space_group_name_H-M   'P 1'
_cell_length_a   3.85799300
_cell_length_b   9.54023009
_cell_length_c   9.53987923
_cell_angle_alpha   120.00358831
_cell_angle_beta   90.00009607
_cell_angle_gamma   90.00004803
_symmetry_Int_Tables_number   1
_chemical_formula_structural   TbErV3P7Rh9
_chemical_formula_sum   'Tb1 Er1 V3 P7 Rh9'
_cell_volume   304.07316087
_cell_formula_units_Z   1
loop_
 _symmetry_equiv_pos_site_id
 _symmetry_equiv_pos_as_xyz
  1  'x, y, z'
loop_
 _atom_site_type_symbol
 _atom_site_label
 _atom_site_symmetry_multiplicity
 _atom_site_fract_x
 _atom_site_fract_y
 _atom_site_fract_z
 _atom_site_occupancy
  Tb  Tb0  1  0.261817  0.666585  0.333328  1
  Er  Er1  1  0.761661  0.333282  0.666572  1
  V  V2  1  0.762018  0.092486  0.875641  1
  V  V3  1  0.762005  0.124520  0.217026  1
  V  V4  1  0.762007  0.782841  0.907373  1
  P  P5  1  0.262115  0.000131  0.000095  1
  P  P6  1  0.761917  0.885064  0.597046  1
  P  P7  1  0.761909  0.403128  0.287970  1
  P  P8  1  0.761908  0.711976  0.115118  1
  P  P9  1  0.261802  0.117279  0.412933  1
  P  P10  1  0.261773  0.587156  0.704443  1
  P  P11  1  0.261795  0.295635  0.882646  1
  Rh  Rh12  1  0.261979  0.885816  0.158702  1
  Rh  Rh13  1  0.261973  0.841179  0.727036  1
  Rh  Rh14  1  0.261993  0.273118  0.114244  1
  Rh  Rh15  1  0.761879  0.611880  0.561279  1
  Rh  Rh16  1  0.761905  0.438591  0.050344  1
  Rh  Rh17  1  0.761898  0.949397  0.388125  1
  Rh  Rh18  1  0.261861  0.367518  0.437543  1
  Rh  Rh19  1  0.261893  0.562528  0.930072  1
  Rh  Rh20  1  0.261894  0.069890  0.632463  1
