# generated using pymatgen
data_Tb8Nb11Si16Os
_symmetry_space_group_name_H-M   'P 1'
_cell_length_a   7.05186159
_cell_length_b   7.06193126
_cell_length_c   13.09007853
_cell_angle_alpha   89.68055966
_cell_angle_beta   89.91732339
_cell_angle_gamma   90.06904884
_symmetry_Int_Tables_number   1
_chemical_formula_structural   Tb8Nb11Si16Os
_chemical_formula_sum   'Tb8 Nb11 Si16 Os1'
_cell_volume   651.87150274
_cell_formula_units_Z   1
loop_
 _symmetry_equiv_pos_site_id
 _symmetry_equiv_pos_as_xyz
  1  'x, y, z'
loop_
 _atom_site_type_symbol
 _atom_site_label
 _atom_site_symmetry_multiplicity
 _atom_site_fract_x
 _atom_site_fract_y
 _atom_site_fract_z
 _atom_site_occupancy
  Tb  Tb0  1  0.998551  0.340481  0.220030  1
  Tb  Tb1  1  0.001945  0.660346  0.716034  1
  Tb  Tb2  1  0.159686  0.500174  0.467312  1
  Tb  Tb3  1  0.500298  0.840684  0.033837  1
  Tb  Tb4  1  0.839690  0.501339  0.967513  1
  Tb  Tb5  1  0.498387  0.158654  0.531406  1
  Tb  Tb6  1  0.339946  0.999121  0.781671  1
  Tb  Tb7  1  0.660431  0.000917  0.282373  1
  Nb  Nb8  1  0.169996  0.170525  0.000894  1
  Nb  Nb9  1  0.826934  0.829735  0.499994  1
  Nb  Nb10  1  0.328719  0.667277  0.249434  1
  Nb  Nb11  1  0.669189  0.330386  0.749783  1
  Nb  Nb12  1  0.844993  0.007403  0.875294  1
  Nb  Nb13  1  0.504539  0.658127  0.623736  1
  Nb  Nb14  1  0.344683  0.492701  0.874404  1
  Nb  Nb15  1  0.488794  0.340557  0.127513  1
  Nb  Nb16  1  0.656767  0.506534  0.374697  1
  Nb  Nb17  1  0.995090  0.155536  0.623536  1
  Nb  Nb18  1  0.005559  0.844414  0.124137  1
  Si  Si19  1  0.290099  0.039962  0.190004  1
  Si  Si20  1  0.707113  0.956295  0.686881  1
  Si  Si21  1  0.452217  0.793111  0.434496  1
  Si  Si22  1  0.206191  0.544367  0.063103  1
  Si  Si23  1  0.544038  0.206061  0.936606  1
  Si  Si24  1  0.791661  0.455270  0.563430  1
  Si  Si25  1  0.044290  0.294059  0.813198  1
  Si  Si26  1  0.961770  0.715713  0.313694  1
  Si  Si27  1  0.369694  0.291252  0.318654  1
  Si  Si28  1  0.630653  0.706044  0.816621  1
  Si  Si29  1  0.201167  0.870664  0.563620  1
  Si  Si30  1  0.131280  0.795659  0.932847  1
  Si  Si31  1  0.795977  0.132264  0.067555  1
  Si  Si32  1  0.876091  0.197254  0.432924  1
  Si  Si33  1  0.296192  0.368927  0.682471  1
  Si  Si34  1  0.703927  0.628428  0.184089  1
  Os  Os35  1  0.163442  0.999761  0.376206  1
