# generated using pymatgen
data_Eu2Th(P2Pd3)3
_symmetry_space_group_name_H-M   'P 1'
_cell_length_a   4.01574000
_cell_length_b   8.38732425
_cell_length_c   10.04465602
_cell_angle_alpha   106.94332281
_cell_angle_beta   90.00000000
_cell_angle_gamma   103.85074063
_symmetry_Int_Tables_number   1
_chemical_formula_structural   Eu2Th(P2Pd3)3
_chemical_formula_sum   'Eu2 Th1 P6 Pd9'
_cell_volume   313.33396414
_cell_formula_units_Z   1
loop_
 _symmetry_equiv_pos_site_id
 _symmetry_equiv_pos_as_xyz
  1  'x, y, z'
loop_
 _atom_site_type_symbol
 _atom_site_label
 _atom_site_symmetry_multiplicity
 _atom_site_fract_x
 _atom_site_fract_y
 _atom_site_fract_z
 _atom_site_occupancy
  Eu  Eu0  1  0.847159  0.694317  0.297635  1
  Eu  Eu1  1  0.152841  0.305683  0.702365  1
  Th  Th2  1  0.000000  0.000000  0.000000  1
  P  P3  1  0.800327  0.600656  0.867650  1
  P  P4  1  0.199673  0.399344  0.132350  1
  P  P5  1  0.535726  0.071453  0.794370  1
  P  P6  1  0.464274  0.928547  0.205630  1
  P  P7  1  0.634547  0.269092  0.451831  1
  P  P8  1  0.365453  0.730908  0.548169  1
  Pd  Pd9  1  0.955577  0.911153  0.669524  1
  Pd  Pd10  1  0.044423  0.088847  0.330476  1
  Pd  Pd11  1  0.774125  0.548251  0.605424  1
  Pd  Pd12  1  0.225875  0.451749  0.394576  1
  Pd  Pd13  1  0.371332  0.742664  0.790057  1
  Pd  Pd14  1  0.628668  0.257336  0.209943  1
  Pd  Pd15  1  0.500000  0.000000  0.500000  1
  Pd  Pd16  1  0.678558  0.357116  0.970259  1
  Pd  Pd17  1  0.321442  0.642884  0.029741  1
