# generated using pymatgen
data_Ho6ErLu3Pt8
_symmetry_space_group_name_H-M   'P 1'
_cell_length_a   7.42851500
_cell_length_b   7.51629993
_cell_length_c   14.59670802
_cell_angle_alpha   90.06137655
_cell_angle_beta   90.00000000
_cell_angle_gamma   90.00000000
_symmetry_Int_Tables_number   1
_chemical_formula_structural   Ho6ErLu3Pt8
_chemical_formula_sum   'Ho12 Er2 Lu6 Pt16'
_cell_volume   815.00594748
_cell_formula_units_Z   2
loop_
 _symmetry_equiv_pos_site_id
 _symmetry_equiv_pos_as_xyz
  1  'x, y, z'
loop_
 _atom_site_type_symbol
 _atom_site_label
 _atom_site_symmetry_multiplicity
 _atom_site_fract_x
 _atom_site_fract_y
 _atom_site_fract_z
 _atom_site_occupancy
  Ho  Ho0  1  0.344277  0.832028  0.377638  1
  Ho  Ho1  1  0.844277  0.667972  0.122362  1
  Ho  Ho2  1  0.655916  0.168014  0.877439  1
  Ho  Ho3  1  0.155916  0.331986  0.622561  1
  Ho  Ho4  1  0.501895  0.679513  0.593728  1
  Ho  Ho5  1  0.001895  0.820487  0.906272  1
  Ho  Ho6  1  0.498569  0.320668  0.093356  1
  Ho  Ho7  1  0.998569  0.179332  0.406644  1
  Ho  Ho8  1  0.498903  0.320735  0.407503  1
  Ho  Ho9  1  0.998903  0.179265  0.092497  1
  Ho  Ho10  1  0.500615  0.677884  0.906069  1
  Ho  Ho11  1  0.000615  0.822116  0.593931  1
  Er  Er12  1  0.343630  0.831419  0.122466  1
  Er  Er13  1  0.843630  0.668581  0.377534  1
  Lu  Lu14  1  0.655854  0.168007  0.623629  1
  Lu  Lu15  1  0.155854  0.331993  0.876371  1
  Lu  Lu16  1  0.818768  0.510376  0.749961  1
  Lu  Lu17  1  0.318768  0.989624  0.750039  1
  Lu  Lu18  1  0.181433  0.488576  0.250126  1
  Lu  Lu19  1  0.681433  0.011424  0.249874  1
  Pt  Pt20  1  0.685173  0.969262  0.459195  1
  Pt  Pt21  1  0.185173  0.530738  0.040805  1
  Pt  Pt22  1  0.313475  0.034084  0.957948  1
  Pt  Pt23  1  0.813475  0.465916  0.542052  1
  Pt  Pt24  1  0.318483  0.031921  0.543220  1
  Pt  Pt25  1  0.818483  0.468079  0.956780  1
  Pt  Pt26  1  0.682688  0.968186  0.042563  1
  Pt  Pt27  1  0.182688  0.531814  0.457437  1
  Pt  Pt28  1  0.453782  0.387837  0.750085  1
  Pt  Pt29  1  0.953782  0.112163  0.749915  1
  Pt  Pt30  1  0.545947  0.610169  0.250024  1
  Pt  Pt31  1  0.045947  0.889831  0.249976  1
  Pt  Pt32  1  0.680834  0.855577  0.749398  1
  Pt  Pt33  1  0.180834  0.644423  0.750602  1
  Pt  Pt34  1  0.319759  0.145323  0.249932  1
  Pt  Pt35  1  0.819759  0.354677  0.250068  1
