# generated using pymatgen
data_Pr3Th(GePd14)2
_symmetry_space_group_name_H-M   'P 1'
_cell_length_a   9.03028100
_cell_length_b   9.03028100
_cell_length_c   7.19905700
_cell_angle_alpha   90.00000000
_cell_angle_beta   90.00000000
_cell_angle_gamma   90.00000000
_symmetry_Int_Tables_number   1
_chemical_formula_structural   Pr3Th(GePd14)2
_chemical_formula_sum   'Pr3 Th1 Ge2 Pd28'
_cell_volume   587.05412171
_cell_formula_units_Z   1
loop_
 _symmetry_equiv_pos_site_id
 _symmetry_equiv_pos_as_xyz
  1  'x, y, z'
loop_
 _atom_site_type_symbol
 _atom_site_label
 _atom_site_symmetry_multiplicity
 _atom_site_fract_x
 _atom_site_fract_y
 _atom_site_fract_z
 _atom_site_occupancy
  Pr  Pr0  1  0.500000  0.000000  0.935513  1
  Pr  Pr1  1  0.000000  0.500000  0.064487  1
  Pr  Pr2  1  0.500000  0.500000  0.500000  1
  Th  Th3  1  0.000000  0.000000  0.500000  1
  Ge  Ge4  1  0.500000  0.000000  0.450406  1
  Ge  Ge5  1  0.000000  0.500000  0.549594  1
  Pd  Pd6  1  0.330332  0.831002  0.620558  1
  Pd  Pd7  1  0.330332  0.168998  0.620558  1
  Pd  Pd8  1  0.669668  0.831002  0.620558  1
  Pd  Pd9  1  0.669668  0.168998  0.620558  1
  Pd  Pd10  1  0.168998  0.669668  0.379442  1
  Pd  Pd11  1  0.168998  0.330332  0.379442  1
  Pd  Pd12  1  0.831002  0.669668  0.379442  1
  Pd  Pd13  1  0.831002  0.330332  0.379442  1
  Pd  Pd14  1  0.500000  0.767275  0.253329  1
  Pd  Pd15  1  0.500000  0.232725  0.253329  1
  Pd  Pd16  1  0.264294  0.000000  0.257408  1
  Pd  Pd17  1  0.735706  0.000000  0.257408  1
  Pd  Pd18  1  0.000000  0.735706  0.742592  1
  Pd  Pd19  1  0.000000  0.264294  0.742592  1
  Pd  Pd20  1  0.232725  0.500000  0.746671  1
  Pd  Pd21  1  0.767275  0.500000  0.746671  1
  Pd  Pd22  1  0.500000  0.348729  0.857604  1
  Pd  Pd23  1  0.500000  0.651271  0.857604  1
  Pd  Pd24  1  0.850220  0.000000  0.852918  1
  Pd  Pd25  1  0.149780  0.000000  0.852918  1
  Pd  Pd26  1  0.000000  0.149780  0.147082  1
  Pd  Pd27  1  0.000000  0.850220  0.147082  1
  Pd  Pd28  1  0.651271  0.500000  0.142396  1
  Pd  Pd29  1  0.348729  0.500000  0.142396  1
  Pd  Pd30  1  0.249403  0.750597  0.000000  1
  Pd  Pd31  1  0.249403  0.249403  0.000000  1
  Pd  Pd32  1  0.750597  0.750597  0.000000  1
  Pd  Pd33  1  0.750597  0.249403  0.000000  1
