# generated using pymatgen
data_Er4Tm16FeBi11
_symmetry_space_group_name_H-M   'P 1'
_cell_length_a   8.06551737
_cell_length_b   9.39886700
_cell_length_c   11.91696844
_cell_angle_alpha   90.00000000
_cell_angle_beta   90.29014524
_cell_angle_gamma   90.00000000
_symmetry_Int_Tables_number   1
_chemical_formula_structural   Er4Tm16FeBi11
_chemical_formula_sum   'Er4 Tm16 Fe1 Bi11'
_cell_volume   903.37476711
_cell_formula_units_Z   1
loop_
 _symmetry_equiv_pos_site_id
 _symmetry_equiv_pos_as_xyz
  1  'x, y, z'
loop_
 _atom_site_type_symbol
 _atom_site_label
 _atom_site_symmetry_multiplicity
 _atom_site_fract_x
 _atom_site_fract_y
 _atom_site_fract_z
 _atom_site_occupancy
  Er  Er0  1  0.316413  0.250000  0.220819  1
  Er  Er1  1  0.811559  0.250000  0.281944  1
  Er  Er2  1  0.636883  0.750000  0.801220  1
  Er  Er3  1  0.199842  0.750000  0.725547  1
  Tm  Tm4  1  0.356601  0.750000  0.191852  1
  Tm  Tm5  1  0.849193  0.750000  0.284325  1
  Tm  Tm6  1  0.657075  0.250000  0.782882  1
  Tm  Tm7  1  0.145438  0.250000  0.720609  1
  Tm  Tm8  1  0.676281  0.574713  0.053984  1
  Tm  Tm9  1  0.193465  0.934224  0.434546  1
  Tm  Tm10  1  0.318527  0.022307  0.942067  1
  Tm  Tm11  1  0.807542  0.435396  0.559248  1
  Tm  Tm12  1  0.318527  0.477693  0.942067  1
  Tm  Tm13  1  0.807542  0.064604  0.559248  1
  Tm  Tm14  1  0.676281  0.925287  0.053984  1
  Tm  Tm15  1  0.193465  0.565776  0.434546  1
  Tm  Tm16  1  0.478038  0.250000  0.487893  1
  Tm  Tm17  1  0.987061  0.250000  0.006897  1
  Tm  Tm18  1  0.527536  0.750000  0.509956  1
  Tm  Tm19  1  0.050051  0.750000  0.993119  1
  Fe  Fe20  1  0.416266  0.750000  0.972440  1
  Bi  Bi21  1  0.910881  0.750000  0.545975  1
  Bi  Bi22  1  0.593495  0.250000  0.039573  1
  Bi  Bi23  1  0.096014  0.250000  0.459015  1
  Bi  Bi24  1  0.564573  0.994752  0.325141  1
  Bi  Bi25  1  0.058926  0.500258  0.176459  1
  Bi  Bi26  1  0.433586  0.491701  0.671108  1
  Bi  Bi27  1  0.930928  0.998476  0.825415  1
  Bi  Bi28  1  0.433586  0.008299  0.671108  1
  Bi  Bi29  1  0.930928  0.501524  0.825415  1
  Bi  Bi30  1  0.564573  0.505248  0.325141  1
  Bi  Bi31  1  0.058926  0.999742  0.176459  1
