# generated using pymatgen
data_NaPrDy5RuBr12
_symmetry_space_group_name_H-M   'P 1'
_cell_length_a   9.27621114
_cell_length_b   9.38171178
_cell_length_c   9.32173295
_cell_angle_alpha   106.68614111
_cell_angle_beta   106.53672318
_cell_angle_gamma   107.36636147
_symmetry_Int_Tables_number   1
_chemical_formula_structural   NaPrDy5RuBr12
_chemical_formula_sum   'Na1 Pr1 Dy5 Ru1 Br12'
_cell_volume   678.08475875
_cell_formula_units_Z   1
loop_
 _symmetry_equiv_pos_site_id
 _symmetry_equiv_pos_as_xyz
  1  'x, y, z'
loop_
 _atom_site_type_symbol
 _atom_site_label
 _atom_site_symmetry_multiplicity
 _atom_site_fract_x
 _atom_site_fract_y
 _atom_site_fract_z
 _atom_site_occupancy
  Na  Na0  1  0.499712  0.501064  0.498355  1
  Pr  Pr1  1  0.887401  0.677214  0.971775  1
  Dy  Dy2  1  0.109670  0.309774  0.028412  1
  Dy  Dy3  1  0.316081  0.029459  0.109712  1
  Dy  Dy4  1  0.029344  0.110558  0.314882  1
  Dy  Dy5  1  0.972505  0.895096  0.688141  1
  Dy  Dy6  1  0.683499  0.967326  0.891066  1
  Ru  Ru7  1  0.999875  0.997931  0.001624  1
  Br  Br8  1  0.227765  0.686187  0.077658  1
  Br  Br9  1  0.450641  0.366119  0.145965  1
  Br  Br10  1  0.682140  0.074413  0.216059  1
  Br  Br11  1  0.929578  0.794361  0.329738  1
  Br  Br12  1  0.144880  0.446534  0.363314  1
  Br  Br13  1  0.367952  0.149002  0.448141  1
  Br  Br14  1  0.633334  0.854931  0.553631  1
  Br  Br15  1  0.853675  0.554958  0.623156  1
  Br  Br16  1  0.075390  0.218015  0.685036  1
  Br  Br17  1  0.318751  0.929118  0.785633  1
  Br  Br18  1  0.536125  0.631946  0.845139  1
  Br  Br19  1  0.781684  0.305995  0.922567  1
