# generated using pymatgen
data_Nd10IrOsRu2
_symmetry_space_group_name_H-M   'P 1'
_cell_length_a   8.90046103
_cell_length_b   8.88492464
_cell_length_c   7.42715438
_cell_angle_alpha   83.61186446
_cell_angle_beta   83.64233482
_cell_angle_gamma   43.74217974
_symmetry_Int_Tables_number   1
_chemical_formula_structural   Nd10IrOsRu2
_chemical_formula_sum   'Nd10 Ir1 Os1 Ru2'
_cell_volume   403.17918319
_cell_formula_units_Z   1
loop_
 _symmetry_equiv_pos_site_id
 _symmetry_equiv_pos_as_xyz
  1  'x, y, z'
loop_
 _atom_site_type_symbol
 _atom_site_label
 _atom_site_symmetry_multiplicity
 _atom_site_fract_x
 _atom_site_fract_y
 _atom_site_fract_z
 _atom_site_occupancy
  Nd  Nd0  1  0.016861  0.797673  0.915347  1
  Nd  Nd1  1  0.200627  0.981435  0.584536  1
  Nd  Nd2  1  0.980098  0.203958  0.086577  1
  Nd  Nd3  1  0.797270  0.017504  0.414122  1
  Nd  Nd4  1  0.357197  0.211088  0.814409  1
  Nd  Nd5  1  0.794272  0.641068  0.683949  1
  Nd  Nd6  1  0.642632  0.792589  0.184709  1
  Nd  Nd7  1  0.208484  0.357271  0.314841  1
  Nd  Nd8  1  0.573194  0.426708  0.750137  1
  Nd  Nd9  1  0.425731  0.572631  0.252018  1
  Ir  Ir10  1  0.401488  0.821894  0.925292  1
  Os  Os11  1  0.177244  0.601503  0.574958  1
  Ru  Ru12  1  0.823685  0.399293  0.425511  1
  Ru  Ru13  1  0.601214  0.175386  0.073591  1
