# generated using pymatgen
data_BaFeIO6
_symmetry_space_group_name_H-M   'P 1'
_cell_length_a   5.29684300
_cell_length_b   5.29684394
_cell_length_c   11.62022500
_cell_angle_alpha   89.99961712
_cell_angle_beta   90.00040994
_cell_angle_gamma   120.00043074
_symmetry_Int_Tables_number   1
_chemical_formula_structural   BaFeIO6
_chemical_formula_sum   'Ba2 Fe2 I2 O12'
_cell_volume   282.34334909
_cell_formula_units_Z   2
loop_
 _symmetry_equiv_pos_site_id
 _symmetry_equiv_pos_as_xyz
  1  'x, y, z'
loop_
 _atom_site_type_symbol
 _atom_site_label
 _atom_site_symmetry_multiplicity
 _atom_site_fract_x
 _atom_site_fract_y
 _atom_site_fract_z
 _atom_site_occupancy
  Ba  Ba0  1  0.999984  0.999984  0.000000  1
  Ba  Ba1  1  0.999994  0.999993  0.500000  1
  Fe  Fe2  1  0.666648  0.333324  0.249876  1
  Fe  Fe3  1  0.333324  0.666648  0.750123  1
  I  I4  1  0.333322  0.666645  0.249964  1
  I  I5  1  0.666645  0.333323  0.750036  1
  O  O6  1  0.605911  0.980992  0.155443  1
  O  O7  1  0.375053  0.394082  0.155444  1
  O  O8  1  0.018996  0.624922  0.155442  1
  O  O9  1  0.375088  0.981098  0.344554  1
  O  O10  1  0.018879  0.393989  0.344549  1
  O  O11  1  0.605977  0.624891  0.344551  1
  O  O12  1  0.624892  0.605978  0.655449  1
  O  O13  1  0.393989  0.018879  0.655451  1
  O  O14  1  0.981099  0.375088  0.655447  1
  O  O15  1  0.624923  0.018996  0.844558  1
  O  O16  1  0.394082  0.375052  0.844556  1
  O  O17  1  0.980993  0.605912  0.844557  1
