# generated using pymatgen
data_Nd3Ni6Sb5
_symmetry_space_group_name_H-M   'P 1'
_cell_length_a   4.29844500
_cell_length_b   9.94228300
_cell_length_c   12.85693800
_cell_angle_alpha   90.00000000
_cell_angle_beta   90.00000000
_cell_angle_gamma   90.00000000
_symmetry_Int_Tables_number   1
_chemical_formula_structural   Nd3Ni6Sb5
_chemical_formula_sum   'Nd6 Ni12 Sb10'
_cell_volume   549.45868779
_cell_formula_units_Z   2
loop_
 _symmetry_equiv_pos_site_id
 _symmetry_equiv_pos_as_xyz
  1  'x, y, z'
loop_
 _atom_site_type_symbol
 _atom_site_label
 _atom_site_symmetry_multiplicity
 _atom_site_fract_x
 _atom_site_fract_y
 _atom_site_fract_z
 _atom_site_occupancy
  Nd  Nd0  1  0.000000  0.243867  0.000000  1
  Nd  Nd1  1  0.500000  0.756133  0.500000  1
  Nd  Nd2  1  0.000000  0.249710  0.327273  1
  Nd  Nd3  1  0.500000  0.750290  0.172727  1
  Nd  Nd4  1  0.000000  0.249710  0.672727  1
  Nd  Nd5  1  0.500000  0.750290  0.827273  1
  Ni  Ni6  1  0.000000  0.995855  0.162158  1
  Ni  Ni7  1  0.500000  0.004145  0.337842  1
  Ni  Ni8  1  0.000000  0.995855  0.837842  1
  Ni  Ni9  1  0.500000  0.004145  0.662158  1
  Ni  Ni10  1  0.500000  0.989181  0.000000  1
  Ni  Ni11  1  0.000000  0.010819  0.500000  1
  Ni  Ni12  1  0.000000  0.612930  0.325054  1
  Ni  Ni13  1  0.500000  0.387070  0.174946  1
  Ni  Ni14  1  0.000000  0.612930  0.674946  1
  Ni  Ni15  1  0.500000  0.387070  0.825054  1
  Ni  Ni16  1  0.500000  0.499333  0.000000  1
  Ni  Ni17  1  0.000000  0.500667  0.500000  1
  Sb  Sb18  1  0.000000  0.515906  0.133419  1
  Sb  Sb19  1  0.500000  0.484094  0.366581  1
  Sb  Sb20  1  0.000000  0.515906  0.866581  1
  Sb  Sb21  1  0.500000  0.484094  0.633419  1
  Sb  Sb22  1  0.000000  0.868836  0.334742  1
  Sb  Sb23  1  0.500000  0.131164  0.165258  1
  Sb  Sb24  1  0.000000  0.868836  0.665258  1
  Sb  Sb25  1  0.500000  0.131164  0.834742  1
  Sb  Sb26  1  0.000000  0.849508  0.000000  1
  Sb  Sb27  1  0.500000  0.150492  0.500000  1
