# generated using pymatgen
data_Dy5Th3(HgRu)2
_symmetry_space_group_name_H-M   'P 1'
_cell_length_a   9.66422444
_cell_length_b   9.76074095
_cell_length_c   9.76074153
_cell_angle_alpha   59.34687511
_cell_angle_beta   60.32656607
_cell_angle_gamma   60.32656746
_symmetry_Int_Tables_number   1
_chemical_formula_structural   Dy5Th3(HgRu)2
_chemical_formula_sum   'Dy10 Th6 Hg4 Ru4'
_cell_volume   650.92886590
_cell_formula_units_Z   2
loop_
 _symmetry_equiv_pos_site_id
 _symmetry_equiv_pos_as_xyz
  1  'x, y, z'
loop_
 _atom_site_type_symbol
 _atom_site_label
 _atom_site_symmetry_multiplicity
 _atom_site_fract_x
 _atom_site_fract_y
 _atom_site_fract_z
 _atom_site_occupancy
  Dy  Dy0  1  0.441450  0.058550  0.441450  1
  Dy  Dy1  1  0.058550  0.441450  0.058550  1
  Dy  Dy2  1  0.441450  0.441450  0.058550  1
  Dy  Dy3  1  0.058550  0.058550  0.441450  1
  Dy  Dy4  1  0.184093  0.815907  0.815907  1
  Dy  Dy5  1  0.815907  0.184093  0.184093  1
  Dy  Dy6  1  0.812217  0.187783  0.812217  1
  Dy  Dy7  1  0.187783  0.812217  0.187783  1
  Dy  Dy8  1  0.812217  0.812217  0.187783  1
  Dy  Dy9  1  0.187783  0.187783  0.812217  1
  Th  Th10  1  0.594495  0.601421  0.601421  1
  Th  Th11  1  0.601421  0.594495  0.202663  1
  Th  Th12  1  0.601421  0.202663  0.594495  1
  Th  Th13  1  0.202663  0.601421  0.601421  1
  Th  Th14  1  0.066062  0.433938  0.433938  1
  Th  Th15  1  0.433938  0.066062  0.066062  1
  Hg  Hg16  1  0.838924  0.835324  0.835324  1
  Hg  Hg17  1  0.835324  0.838924  0.490429  1
  Hg  Hg18  1  0.835324  0.490429  0.838924  1
  Hg  Hg19  1  0.490429  0.835324  0.835324  1
  Ru  Ru20  1  0.378299  0.398544  0.398544  1
  Ru  Ru21  1  0.398544  0.378299  0.824614  1
  Ru  Ru22  1  0.398544  0.824614  0.378299  1
  Ru  Ru23  1  0.824614  0.398544  0.398544  1
