# generated using pymatgen
data_Cs8Rb5Zr2(In3As5)2
_symmetry_space_group_name_H-M   'P 1'
_cell_length_a   10.00729774
_cell_length_b   9.91972162
_cell_length_c   14.09085172
_cell_angle_alpha   79.61972635
_cell_angle_beta   77.31939769
_cell_angle_gamma   63.19240362
_symmetry_Int_Tables_number   1
_chemical_formula_structural   Cs8Rb5Zr2(In3As5)2
_chemical_formula_sum   'Cs8 Rb5 Zr2 In6 As10'
_cell_volume   1212.70337955
_cell_formula_units_Z   1
loop_
 _symmetry_equiv_pos_site_id
 _symmetry_equiv_pos_as_xyz
  1  'x, y, z'
loop_
 _atom_site_type_symbol
 _atom_site_label
 _atom_site_symmetry_multiplicity
 _atom_site_fract_x
 _atom_site_fract_y
 _atom_site_fract_z
 _atom_site_occupancy
  Cs  Cs0  1  0.094877  0.785001  0.428488  1
  Cs  Cs1  1  0.905123  0.214999  0.571512  1
  Cs  Cs2  1  0.749491  0.689653  0.592029  1
  Cs  Cs3  1  0.250509  0.310347  0.407971  1
  Cs  Cs4  1  0.318378  0.930870  0.088459  1
  Cs  Cs5  1  0.681622  0.069130  0.911541  1
  Cs  Cs6  1  0.896700  0.854337  0.163279  1
  Cs  Cs7  1  0.103300  0.145663  0.836721  1
  Rb  Rb8  1  0.500831  0.863033  0.352033  1
  Rb  Rb9  1  0.499169  0.136967  0.647967  1
  Rb  Rb10  1  0.855192  0.592114  0.885695  1
  Rb  Rb11  1  0.144808  0.407886  0.114305  1
  Rb  Rb12  1  0.500000  0.500000  0.000000  1
  Zr  Zr13  1  0.381309  0.735391  0.773974  1
  Zr  Zr14  1  0.618691  0.264609  0.226026  1
  In  In15  1  0.039568  0.804547  0.708299  1
  In  In16  1  0.960432  0.195453  0.291701  1
  In  In17  1  0.596413  0.445427  0.408788  1
  In  In18  1  0.403587  0.554573  0.591212  1
  In  In19  1  0.723974  0.562366  0.167275  1
  In  In20  1  0.276026  0.437634  0.832725  1
  As  As21  1  0.437206  0.557898  0.252676  1
  As  As22  1  0.562794  0.442102  0.747324  1
  As  As23  1  0.133267  0.737082  0.895310  1
  As  As24  1  0.866733  0.262918  0.104690  1
  As  As25  1  0.706833  0.132719  0.398436  1
  As  As26  1  0.293167  0.867281  0.601564  1
  As  As27  1  0.850763  0.505612  0.347147  1
  As  As28  1  0.149237  0.494388  0.652853  1
  As  As29  1  0.508144  0.861058  0.840471  1
  As  As30  1  0.491856  0.138942  0.159529  1
