# generated using pymatgen
data_Dy3Ho3Al24Os7Ru
_symmetry_space_group_name_H-M   'P 1'
_cell_length_a   8.83021100
_cell_length_b   8.83021071
_cell_length_c   9.56969300
_cell_angle_alpha   90.00000000
_cell_angle_beta   90.00000000
_cell_angle_gamma   119.99999734
_symmetry_Int_Tables_number   1
_chemical_formula_structural   Dy3Ho3Al24Os7Ru
_chemical_formula_sum   'Dy3 Ho3 Al24 Os7 Ru1'
_cell_volume   646.20571895
_cell_formula_units_Z   1
loop_
 _symmetry_equiv_pos_site_id
 _symmetry_equiv_pos_as_xyz
  1  'x, y, z'
loop_
 _atom_site_type_symbol
 _atom_site_label
 _atom_site_symmetry_multiplicity
 _atom_site_fract_x
 _atom_site_fract_y
 _atom_site_fract_z
 _atom_site_occupancy
  Dy  Dy0  1  0.806612  0.193388  0.750581  1
  Dy  Dy1  1  0.806612  0.613225  0.750581  1
  Dy  Dy2  1  0.386775  0.193388  0.750581  1
  Ho  Ho3  1  0.193446  0.806554  0.249435  1
  Ho  Ho4  1  0.193446  0.386891  0.249435  1
  Ho  Ho5  1  0.613109  0.806554  0.249435  1
  Al  Al6  1  0.560603  0.439397  0.249759  1
  Al  Al7  1  0.560603  0.121207  0.249759  1
  Al  Al8  1  0.878793  0.439397  0.249759  1
  Al  Al9  1  0.439210  0.560790  0.750236  1
  Al  Al10  1  0.439210  0.878420  0.750236  1
  Al  Al11  1  0.121580  0.560790  0.750236  1
  Al  Al12  1  0.324522  0.162261  0.423547  1
  Al  Al13  1  0.837739  0.162261  0.423547  1
  Al  Al14  1  0.837739  0.675478  0.423547  1
  Al  Al15  1  0.675342  0.837672  0.576262  1
  Al  Al16  1  0.162328  0.837672  0.576262  1
  Al  Al17  1  0.162328  0.324658  0.576262  1
  Al  Al18  1  0.675256  0.837628  0.923822  1
  Al  Al19  1  0.162372  0.837628  0.923822  1
  Al  Al20  1  0.162372  0.324744  0.923822  1
  Al  Al21  1  0.324603  0.162301  0.076371  1
  Al  Al22  1  0.837699  0.162301  0.076371  1
  Al  Al23  1  0.837699  0.675397  0.076371  1
  Al  Al24  1  0.666667  0.333333  0.515871  1
  Al  Al25  1  0.333333  0.666667  0.484050  1
  Al  Al26  1  0.333333  0.666667  0.015910  1
  Al  Al27  1  0.666667  0.333333  0.984169  1
  Al  Al28  1  0.000000  0.000000  0.248255  1
  Al  Al29  1  0.000000  0.000000  0.751744  1
  Os  Os30  1  0.000000  0.000000  0.499838  1
  Os  Os31  1  0.499857  0.500143  0.499699  1
  Os  Os32  1  0.499857  0.999714  0.499699  1
  Os  Os33  1  0.000286  0.500143  0.499699  1
  Os  Os34  1  0.499853  0.500147  0.000300  1
  Os  Os35  1  0.499853  0.999706  0.000300  1
  Os  Os36  1  0.000294  0.500147  0.000300  1
  Ru  Ru37  1  0.000000  0.000000  0.000128  1
