# generated using pymatgen
data_Al2HgSb2(PO4)6
_symmetry_space_group_name_H-M   'P 1'
_cell_length_a   8.53371700
_cell_length_b   8.75930398
_cell_length_c   12.20515726
_cell_angle_alpha   88.13826385
_cell_angle_beta   90.00000000
_cell_angle_gamma   90.00000000
_symmetry_Int_Tables_number   1
_chemical_formula_structural   Al2HgSb2(PO4)6
_chemical_formula_sum   'Al4 Hg2 Sb4 P12 O48'
_cell_volume   911.84685542
_cell_formula_units_Z   2
loop_
 _symmetry_equiv_pos_site_id
 _symmetry_equiv_pos_as_xyz
  1  'x, y, z'
loop_
 _atom_site_type_symbol
 _atom_site_label
 _atom_site_symmetry_multiplicity
 _atom_site_fract_x
 _atom_site_fract_y
 _atom_site_fract_z
 _atom_site_occupancy
  Al  Al0  1  0.500100  0.205132  0.855849  1
  Al  Al1  1  0.000100  0.294868  0.144151  1
  Al  Al2  1  0.499900  0.794868  0.144151  1
  Al  Al3  1  0.999900  0.705132  0.855849  1
  Hg  Hg4  1  0.500000  0.500000  0.000000  1
  Hg  Hg5  1  0.000000  0.000000  0.000000  1
  Sb  Sb6  1  0.500121  0.782763  0.643645  1
  Sb  Sb7  1  0.000121  0.717237  0.356355  1
  Sb  Sb8  1  0.999879  0.282763  0.643645  1
  Sb  Sb9  1  0.499879  0.217237  0.356355  1
  P  P10  1  0.360416  0.853514  0.390196  1
  P  P11  1  0.287276  0.499374  0.755036  1
  P  P12  1  0.139584  0.353514  0.390196  1
  P  P13  1  0.853523  0.359294  0.897480  1
  P  P14  1  0.353523  0.140706  0.102520  1
  P  P15  1  0.787276  0.000626  0.244964  1
  P  P16  1  0.212724  0.999374  0.755036  1
  P  P17  1  0.646477  0.859294  0.897480  1
  P  P18  1  0.146477  0.640706  0.102520  1
  P  P19  1  0.860416  0.646486  0.609804  1
  P  P20  1  0.712724  0.500626  0.244964  1
  P  P21  1  0.639584  0.146486  0.609804  1
  O  O22  1  0.305113  0.891729  0.678423  1
  O  O23  1  0.179858  0.840944  0.401095  1
  O  O24  1  0.435580  0.765129  0.488980  1
  O  O25  1  0.425885  0.789210  0.287296  1
  O  O26  1  0.392250  0.587190  0.669380  1
  O  O27  1  0.113824  0.528470  0.401285  1
  O  O28  1  0.392399  0.402677  0.833140  1
  O  O29  1  0.111168  0.471423  0.106577  1
  O  O30  1  0.194887  0.391729  0.678423  1
  O  O31  1  0.815607  0.396952  0.179751  1
  O  O32  1  0.320142  0.340944  0.401095  1
  O  O33  1  0.673234  0.336781  0.899860  1
  O  O34  1  0.064420  0.265129  0.488980  1
  O  O35  1  0.074115  0.289210  0.287296  1
  O  O36  1  0.931205  0.272722  0.995699  1
  O  O37  1  0.921516  0.273486  0.796269  1
  O  O38  1  0.421516  0.226514  0.203731  1
  O  O39  1  0.431205  0.227278  0.004301  1
  O  O40  1  0.173234  0.163219  0.100140  1
  O  O41  1  0.892399  0.097323  0.166860  1
  O  O42  1  0.315607  0.103048  0.820249  1
  O  O43  1  0.386176  0.028470  0.401285  1
  O  O44  1  0.107750  0.087190  0.669380  1
  O  O45  1  0.611168  0.028577  0.893423  1
  O  O46  1  0.388832  0.971423  0.106577  1
  O  O47  1  0.892250  0.912810  0.330620  1
  O  O48  1  0.613824  0.971530  0.598715  1
  O  O49  1  0.684393  0.896952  0.179751  1
  O  O50  1  0.107601  0.902677  0.833140  1
  O  O51  1  0.826766  0.836781  0.899860  1
  O  O52  1  0.568795  0.772722  0.995699  1
  O  O53  1  0.578484  0.773486  0.796269  1
  O  O54  1  0.078484  0.726514  0.203731  1
  O  O55  1  0.068795  0.727278  0.004301  1
  O  O56  1  0.925885  0.710790  0.712704  1
  O  O57  1  0.935580  0.734871  0.511020  1
  O  O58  1  0.326766  0.663219  0.100140  1
  O  O59  1  0.679858  0.659056  0.598905  1
  O  O60  1  0.184393  0.603048  0.820249  1
  O  O61  1  0.805113  0.608271  0.321577  1
  O  O62  1  0.888832  0.528577  0.893423  1
  O  O63  1  0.607601  0.597323  0.166860  1
  O  O64  1  0.886176  0.471530  0.598715  1
  O  O65  1  0.607750  0.412810  0.330620  1
  O  O66  1  0.574115  0.210790  0.712704  1
  O  O67  1  0.564420  0.234871  0.511020  1
  O  O68  1  0.820142  0.159056  0.598905  1
  O  O69  1  0.694887  0.108271  0.321577  1
