# generated using pymatgen
data_MoPt5Rh3
_symmetry_space_group_name_H-M   'P 1'
_cell_length_a   6.24406499
_cell_length_b   6.24406445
_cell_length_c   6.19237544
_cell_angle_alpha   95.66359302
_cell_angle_beta   95.66359015
_cell_angle_gamma   143.53876995
_symmetry_Int_Tables_number   1
_chemical_formula_structural   MoPt5Rh3
_chemical_formula_sum   'Mo1 Pt5 Rh3'
_cell_volume   136.15117316
_cell_formula_units_Z   1
loop_
 _symmetry_equiv_pos_site_id
 _symmetry_equiv_pos_as_xyz
  1  'x, y, z'
loop_
 _atom_site_type_symbol
 _atom_site_label
 _atom_site_symmetry_multiplicity
 _atom_site_fract_x
 _atom_site_fract_y
 _atom_site_fract_z
 _atom_site_occupancy
  Mo  Mo0  1  0.003515  0.996485  0.000000  1
  Pt  Pt1  1  0.337430  0.662570  0.000000  1
  Pt  Pt2  1  0.001761  0.327767  0.329528  1
  Pt  Pt3  1  0.998372  0.673680  0.672052  1
  Pt  Pt4  1  0.672233  0.998239  0.670472  1
  Pt  Pt5  1  0.326320  0.001628  0.327948  1
  Rh  Rh6  1  0.340007  0.338443  0.678449  1
  Rh  Rh7  1  0.661557  0.659993  0.321551  1
  Rh  Rh8  1  0.658805  0.341195  0.000000  1
