# generated using pymatgen
data_LiHo3Co3Ni5P6
_symmetry_space_group_name_H-M   'P 1'
_cell_length_a   3.74383700
_cell_length_b   10.54391800
_cell_length_c   12.26335500
_cell_angle_alpha   90.00000000
_cell_angle_beta   90.00000000
_cell_angle_gamma   90.00000000
_symmetry_Int_Tables_number   1
_chemical_formula_structural   LiHo3Co3Ni5P6
_chemical_formula_sum   'Li2 Ho6 Co6 Ni10 P12'
_cell_volume   484.09238634
_cell_formula_units_Z   2
loop_
 _symmetry_equiv_pos_site_id
 _symmetry_equiv_pos_as_xyz
  1  'x, y, z'
loop_
 _atom_site_type_symbol
 _atom_site_label
 _atom_site_symmetry_multiplicity
 _atom_site_fract_x
 _atom_site_fract_y
 _atom_site_fract_z
 _atom_site_occupancy
  Li  Li0  1  0.500000  0.500000  0.152789  1
  Li  Li1  1  0.000000  0.000000  0.847211  1
  Ho  Ho2  1  0.000000  0.500000  0.522276  1
  Ho  Ho3  1  0.500000  0.000000  0.477724  1
  Ho  Ho4  1  0.500000  0.817187  0.205532  1
  Ho  Ho5  1  0.500000  0.182813  0.205532  1
  Ho  Ho6  1  0.000000  0.682813  0.794468  1
  Ho  Ho7  1  0.000000  0.317187  0.794468  1
  Co  Co8  1  0.000000  0.500000  0.985698  1
  Co  Co9  1  0.500000  0.000000  0.014302  1
  Co  Co10  1  0.500000  0.333957  0.996115  1
  Co  Co11  1  0.500000  0.666043  0.996115  1
  Co  Co12  1  0.000000  0.166043  0.003885  1
  Co  Co13  1  0.000000  0.833957  0.003885  1
  Ni  Ni14  1  0.500000  0.299823  0.429992  1
  Ni  Ni15  1  0.500000  0.700177  0.429992  1
  Ni  Ni16  1  0.000000  0.200177  0.570008  1
  Ni  Ni17  1  0.000000  0.799823  0.570008  1
  Ni  Ni18  1  0.500000  0.879702  0.712168  1
  Ni  Ni19  1  0.500000  0.120298  0.712168  1
  Ni  Ni20  1  0.000000  0.620298  0.287832  1
  Ni  Ni21  1  0.000000  0.379702  0.287832  1
  Ni  Ni22  1  0.500000  0.500000  0.703360  1
  Ni  Ni23  1  0.000000  0.000000  0.296640  1
  P  P24  1  0.500000  0.314065  0.616208  1
  P  P25  1  0.500000  0.685935  0.616208  1
  P  P26  1  0.000000  0.185935  0.383792  1
  P  P27  1  0.000000  0.814065  0.383792  1
  P  P28  1  0.500000  0.500000  0.882486  1
  P  P29  1  0.000000  0.000000  0.117514  1
  P  P30  1  0.500000  0.842469  0.897741  1
  P  P31  1  0.500000  0.157531  0.897741  1
  P  P32  1  0.000000  0.657531  0.102259  1
  P  P33  1  0.000000  0.342469  0.102259  1
  P  P34  1  0.500000  0.500000  0.348719  1
  P  P35  1  0.000000  0.000000  0.651281  1
