# generated using pymatgen
data_Cs6Co(RhBr6)3
_symmetry_space_group_name_H-M   'P 1'
_cell_length_a   7.72040500
_cell_length_b   7.72040537
_cell_length_c   19.51681200
_cell_angle_alpha   90.00000000
_cell_angle_beta   90.00000000
_cell_angle_gamma   120.00000268
_symmetry_Int_Tables_number   1
_chemical_formula_structural   Cs6Co(RhBr6)3
_chemical_formula_sum   'Cs6 Co1 Rh3 Br18'
_cell_volume   1007.44115046
_cell_formula_units_Z   1
loop_
 _symmetry_equiv_pos_site_id
 _symmetry_equiv_pos_as_xyz
  1  'x, y, z'
loop_
 _atom_site_type_symbol
 _atom_site_label
 _atom_site_symmetry_multiplicity
 _atom_site_fract_x
 _atom_site_fract_y
 _atom_site_fract_z
 _atom_site_occupancy
  Cs  Cs0  1  0.666667  0.333333  0.931597  1
  Cs  Cs1  1  0.333333  0.666667  0.433111  1
  Cs  Cs2  1  0.666667  0.333333  0.568868  1
  Cs  Cs3  1  0.333333  0.666667  0.066580  1
  Cs  Cs4  1  0.000000  0.000000  0.750005  1
  Cs  Cs5  1  0.000000  0.000000  0.249941  1
  Co  Co6  1  0.333333  0.666667  0.833071  1
  Rh  Rh7  1  0.333333  0.666667  0.668461  1
  Rh  Rh8  1  0.666667  0.333333  0.165591  1
  Rh  Rh9  1  0.666667  0.333333  0.333564  1
  Br  Br10  1  0.820104  0.640208  0.405812  1
  Br  Br11  1  0.184944  0.369889  0.901722  1
  Br  Br12  1  0.184944  0.815056  0.901722  1
  Br  Br13  1  0.179770  0.359541  0.595931  1
  Br  Br14  1  0.630111  0.815056  0.901722  1
  Br  Br15  1  0.359792  0.179896  0.405812  1
  Br  Br16  1  0.044400  0.522199  0.753268  1
  Br  Br17  1  0.820104  0.179896  0.405812  1
  Br  Br18  1  0.519210  0.038422  0.249535  1
  Br  Br19  1  0.477801  0.522199  0.753268  1
  Br  Br20  1  0.519210  0.480790  0.249535  1
  Br  Br21  1  0.961578  0.480790  0.249535  1
  Br  Br22  1  0.359431  0.179715  0.093469  1
  Br  Br23  1  0.477801  0.955600  0.753268  1
  Br  Br24  1  0.820285  0.640569  0.093469  1
  Br  Br25  1  0.179770  0.820230  0.595931  1
  Br  Br26  1  0.640459  0.820230  0.595931  1
  Br  Br27  1  0.820285  0.179715  0.093469  1
