# generated using pymatgen
data_CuSn14Ir3O14
_symmetry_space_group_name_H-M   'P 1'
_cell_length_a   7.22839689
_cell_length_b   7.21805843
_cell_length_c   13.08110050
_cell_angle_alpha   72.94913505
_cell_angle_beta   73.96099953
_cell_angle_gamma   59.95261977
_symmetry_Int_Tables_number   1
_chemical_formula_structural   CuSn14Ir3O14
_chemical_formula_sum   'Cu1 Sn14 Ir3 O14'
_cell_volume   557.86219256
_cell_formula_units_Z   1
loop_
 _symmetry_equiv_pos_site_id
 _symmetry_equiv_pos_as_xyz
  1  'x, y, z'
loop_
 _atom_site_type_symbol
 _atom_site_label
 _atom_site_symmetry_multiplicity
 _atom_site_fract_x
 _atom_site_fract_y
 _atom_site_fract_z
 _atom_site_occupancy
  Cu  Cu0  1  0.900643  0.008808  0.189905  1
  Sn  Sn1  1  0.485478  0.609310  0.419734  1
  Sn  Sn2  1  0.487927  0.088240  0.421535  1
  Sn  Sn3  1  0.002300  0.088240  0.421535  1
  Sn  Sn4  1  0.095224  0.156496  0.653056  1
  Sn  Sn5  1  0.433619  0.981705  0.151057  1
  Sn  Sn6  1  0.147304  0.782856  0.922534  1
  Sn  Sn7  1  0.440888  0.496005  0.159893  1
  Sn  Sn8  1  0.903215  0.496005  0.159893  1
  Sn  Sn9  1  0.681438  0.748544  0.888579  1
  Sn  Sn10  1  0.681387  0.255514  0.917393  1
  Sn  Sn11  1  0.145705  0.255514  0.917393  1
  Sn  Sn12  1  0.573763  0.679408  0.651846  1
  Sn  Sn13  1  0.094984  0.679408  0.651846  1
  Sn  Sn14  1  0.006714  0.616072  0.370500  1
  Ir  Ir15  1  0.691892  0.307111  0.309104  1
  Ir  Ir16  1  0.885136  0.462139  0.767588  1
  Ir  Ir17  1  0.291492  0.381185  0.035831  1
  O  O18  1  0.119696  0.724152  0.467705  1
  O  O19  1  0.688447  0.724152  0.467705  1
  O  O20  1  0.965520  0.070354  0.998608  1
  O  O21  1  0.121115  0.284977  0.472794  1
  O  O22  1  0.641728  0.662915  0.053627  1
  O  O23  1  0.422926  0.562424  0.591725  1
  O  O24  1  0.343178  0.958662  0.354983  1
  O  O25  1  0.424989  0.013000  0.593738  1
  O  O26  1  0.968271  0.013000  0.593738  1
  O  O27  1  0.361346  0.941182  0.880129  1
  O  O28  1  0.817343  0.941182  0.880129  1
  O  O29  1  0.743361  0.823989  0.183959  1
  O  O30  1  0.248691  0.823989  0.183959  1
  O  O31  1  0.224649  0.801948  0.748753  1
