# generated using pymatgen
data_Mg4Ni2P6Ir5
_symmetry_space_group_name_H-M   'P 1'
_cell_length_a   6.81446291
_cell_length_b   6.77542064
_cell_length_c   6.77542016
_cell_angle_alpha   108.89834688
_cell_angle_beta   109.64053836
_cell_angle_gamma   109.64054055
_symmetry_Int_Tables_number   1
_chemical_formula_structural   Mg4Ni2P6Ir5
_chemical_formula_sum   'Mg4 Ni2 P6 Ir5'
_cell_volume   241.49779424
_cell_formula_units_Z   1
loop_
 _symmetry_equiv_pos_site_id
 _symmetry_equiv_pos_as_xyz
  1  'x, y, z'
loop_
 _atom_site_type_symbol
 _atom_site_label
 _atom_site_symmetry_multiplicity
 _atom_site_fract_x
 _atom_site_fract_y
 _atom_site_fract_z
 _atom_site_occupancy
  Mg  Mg0  1  0.000000  0.997731  0.501802  1
  Mg  Mg1  1  0.500000  0.001565  0.998435  1
  Mg  Mg2  1  0.000000  0.498198  0.002269  1
  Mg  Mg3  1  0.500000  0.501565  0.498435  1
  Ni  Ni4  1  0.239555  0.491458  0.748097  1
  Ni  Ni5  1  0.760445  0.251903  0.508542  1
  P  P6  1  0.681588  0.684100  0.997488  1
  P  P7  1  0.315626  0.320230  0.995396  1
  P  P8  1  0.000000  0.672482  0.684552  1
  P  P9  1  0.000000  0.315448  0.327518  1
  P  P10  1  0.684374  0.004604  0.679770  1
  P  P11  1  0.318412  0.002512  0.315900  1
  Ir  Ir12  1  0.000000  0.002978  0.997022  1
  Ir  Ir13  1  0.500000  0.257424  0.742576  1
  Ir  Ir14  1  0.500000  0.757424  0.242576  1
  Ir  Ir15  1  0.743980  0.492179  0.251801  1
  Ir  Ir16  1  0.256020  0.748199  0.507821  1
