# generated using pymatgen
data_Yb4P2S
_symmetry_space_group_name_H-M   'P 1'
_cell_length_a   7.44523806
_cell_length_b   7.44756655
_cell_length_c   7.42881831
_cell_angle_alpha   109.44309247
_cell_angle_beta   109.41512137
_cell_angle_gamma   109.51711202
_symmetry_Int_Tables_number   1
_chemical_formula_structural   Yb4P2S
_chemical_formula_sum   'Yb8 P4 S2'
_cell_volume   317.24578039
_cell_formula_units_Z   2
loop_
 _symmetry_equiv_pos_site_id
 _symmetry_equiv_pos_as_xyz
  1  'x, y, z'
loop_
 _atom_site_type_symbol
 _atom_site_label
 _atom_site_symmetry_multiplicity
 _atom_site_fract_x
 _atom_site_fract_y
 _atom_site_fract_z
 _atom_site_occupancy
  Yb  Yb0  1  0.144278  0.500100  0.999571  1
  Yb  Yb1  1  0.494119  0.996961  0.633827  1
  Yb  Yb2  1  0.372348  0.369606  0.366098  1
  Yb  Yb3  1  0.002621  0.139910  0.506020  1
  Yb  Yb4  1  0.855722  0.855822  0.855293  1
  Yb  Yb5  1  0.997379  0.637289  0.503398  1
  Yb  Yb6  1  0.627652  0.497258  0.993750  1
  Yb  Yb7  1  0.505881  0.002842  0.139707  1
  P  P8  1  0.375469  0.628797  0.748223  1
  P  P9  1  0.248082  0.122253  0.876808  1
  P  P10  1  0.751918  0.374170  0.628725  1
  P  P11  1  0.624531  0.753328  0.372754  1
  S  S12  1  0.880436  0.251050  0.128129  1
  S  S13  1  0.119564  0.870615  0.247694  1
