# generated using pymatgen
data_Tb2Ga9Co2Pt
_symmetry_space_group_name_H-M   'P 1'
_cell_length_a   7.49123901
_cell_length_b   7.49123800
_cell_length_c   9.45490968
_cell_angle_alpha   90.13076859
_cell_angle_beta   90.13076591
_cell_angle_gamma   119.70804095
_symmetry_Int_Tables_number   1
_chemical_formula_structural   Tb2Ga9Co2Pt
_chemical_formula_sum   'Tb4 Ga18 Co4 Pt2'
_cell_volume   460.85145094
_cell_formula_units_Z   2
loop_
 _symmetry_equiv_pos_site_id
 _symmetry_equiv_pos_as_xyz
  1  'x, y, z'
loop_
 _atom_site_type_symbol
 _atom_site_label
 _atom_site_symmetry_multiplicity
 _atom_site_fract_x
 _atom_site_fract_y
 _atom_site_fract_z
 _atom_site_occupancy
  Tb  Tb0  1  0.325188  0.998173  0.250382  1
  Tb  Tb1  1  0.001827  0.674812  0.749618  1
  Tb  Tb2  1  0.667930  0.991457  0.748788  1
  Tb  Tb3  1  0.008543  0.332070  0.251212  1
  Ga  Ga4  1  0.346169  0.015230  0.919632  1
  Ga  Ga5  1  0.984770  0.653831  0.080368  1
  Ga  Ga6  1  0.335452  0.997825  0.571378  1
  Ga  Ga7  1  0.002175  0.664548  0.428622  1
  Ga  Ga8  1  0.665680  0.013846  0.080183  1
  Ga  Ga9  1  0.986154  0.334320  0.919817  1
  Ga  Ga10  1  0.665830  0.005859  0.428808  1
  Ga  Ga11  1  0.994141  0.334170  0.571192  1
  Ga  Ga12  1  0.663242  0.653910  0.931566  1
  Ga  Ga13  1  0.346090  0.336758  0.068434  1
  Ga  Ga14  1  0.670789  0.668891  0.556457  1
  Ga  Ga15  1  0.331109  0.329211  0.443543  1
  Ga  Ga16  1  0.127447  0.129689  0.739809  1
  Ga  Ga17  1  0.870311  0.872553  0.260191  1
  Ga  Ga18  1  0.456745  0.663980  0.261063  1
  Ga  Ga19  1  0.336020  0.543255  0.738937  1
  Ga  Ga20  1  0.557588  0.337534  0.745295  1
  Ga  Ga21  1  0.662466  0.442412  0.254705  1
  Co  Co22  1  0.999670  0.000330  0.500000  1
  Co  Co23  1  0.328450  0.671550  0.500000  1
  Co  Co24  1  0.668756  0.331244  0.000000  1
  Co  Co25  1  0.670325  0.329675  0.500000  1
  Pt  Pt26  1  0.999165  0.000835  0.000000  1
  Pt  Pt27  1  0.327970  0.672030  0.000000  1
