# generated using pymatgen
data_Na4SrTeO6
_symmetry_space_group_name_H-M   'P 1'
_cell_length_a   5.96047518
_cell_length_b   5.96047581
_cell_length_c   5.87636000
_cell_angle_alpha   100.42506403
_cell_angle_beta   100.42506266
_cell_angle_gamma   119.68499316
_symmetry_Int_Tables_number   1
_chemical_formula_structural   Na4SrTeO6
_chemical_formula_sum   'Na4 Sr1 Te1 O6'
_cell_volume   169.19862195
_cell_formula_units_Z   1
loop_
 _symmetry_equiv_pos_site_id
 _symmetry_equiv_pos_as_xyz
  1  'x, y, z'
loop_
 _atom_site_type_symbol
 _atom_site_label
 _atom_site_symmetry_multiplicity
 _atom_site_fract_x
 _atom_site_fract_y
 _atom_site_fract_z
 _atom_site_occupancy
  Na  Na0  1  0.498997  0.501002  0.000000  1
  Na  Na1  1  0.015200  0.984802  0.500000  1
  Na  Na2  1  0.659588  0.340414  0.500000  1
  Na  Na3  1  0.327961  0.672041  0.500000  1
  Sr  Sr4  1  0.833927  0.166071  0.000000  1
  Te  Te5  1  0.166789  0.833210  0.000000  1
  O  O6  1  0.962600  0.631533  0.199874  1
  O  O7  1  0.237950  0.177756  0.217193  1
  O  O8  1  0.510841  0.904570  0.216863  1
  O  O9  1  0.095430  0.489159  0.783137  1
  O  O10  1  0.822244  0.762050  0.782808  1
  O  O11  1  0.368467  0.037401  0.800127  1
