# generated using pymatgen
data_Tm7Zr(Si4Mo3)4
_symmetry_space_group_name_H-M   'P 1'
_cell_length_a   6.70122605
_cell_length_b   6.88406796
_cell_length_c   12.86383931
_cell_angle_alpha   89.91742800
_cell_angle_beta   89.99823799
_cell_angle_gamma   90.09637849
_symmetry_Int_Tables_number   1
_chemical_formula_structural   Tm7Zr(Si4Mo3)4
_chemical_formula_sum   'Tm7 Zr1 Si16 Mo12'
_cell_volume   593.42926291
_cell_formula_units_Z   1
loop_
 _symmetry_equiv_pos_site_id
 _symmetry_equiv_pos_as_xyz
  1  'x, y, z'
loop_
 _atom_site_type_symbol
 _atom_site_label
 _atom_site_symmetry_multiplicity
 _atom_site_fract_x
 _atom_site_fract_y
 _atom_site_fract_z
 _atom_site_occupancy
  Tm  Tm0  1  0.996353  0.167567  0.094072  1
  Tm  Tm1  1  0.003874  0.832231  0.905442  1
  Tm  Tm2  1  0.503969  0.667050  0.906427  1
  Tm  Tm3  1  0.005331  0.831764  0.593158  1
  Tm  Tm4  1  0.496175  0.332073  0.093991  1
  Tm  Tm5  1  0.996857  0.168202  0.407149  1
  Tm  Tm6  1  0.497026  0.333394  0.407512  1
  Zr  Zr7  1  0.504777  0.670149  0.596782  1
  Si  Si8  1  0.034269  0.132182  0.749209  1
  Si  Si9  1  0.963990  0.867652  0.250187  1
  Si  Si10  1  0.464530  0.631434  0.249589  1
  Si  Si11  1  0.534996  0.369512  0.748288  1
  Si  Si12  1  0.303997  0.866617  0.749282  1
  Si  Si13  1  0.696684  0.131820  0.250731  1
  Si  Si14  1  0.197449  0.367392  0.250602  1
  Si  Si15  1  0.801025  0.632986  0.749461  1
  Si  Si16  1  0.167055  0.460933  0.545622  1
  Si  Si17  1  0.836944  0.541656  0.455727  1
  Si  Si18  1  0.339828  0.956744  0.455525  1
  Si  Si19  1  0.839314  0.541210  0.046512  1
  Si  Si20  1  0.660234  0.038999  0.546082  1
  Si  Si21  1  0.159583  0.458476  0.953031  1
  Si  Si22  1  0.659903  0.041084  0.952733  1
  Si  Si23  1  0.339332  0.959352  0.046412  1
  Mo  Mo24  1  0.166865  0.504964  0.747616  1
  Mo  Mo25  1  0.833446  0.496852  0.251201  1
  Mo  Mo26  1  0.333028  0.002452  0.250236  1
  Mo  Mo27  1  0.666330  0.993714  0.748208  1
  Mo  Mo28  1  0.331639  0.164328  0.624214  1
  Mo  Mo29  1  0.667106  0.832697  0.376871  1
  Mo  Mo30  1  0.168973  0.665191  0.375808  1
  Mo  Mo31  1  0.667873  0.834752  0.124827  1
  Mo  Mo32  1  0.831444  0.338291  0.624226  1
  Mo  Mo33  1  0.331334  0.166350  0.874113  1
  Mo  Mo34  1  0.830230  0.336099  0.874739  1
  Mo  Mo35  1  0.168238  0.663829  0.124416  1
