# generated using pymatgen
data_Ba3Sr2Tc3ClO15
_symmetry_space_group_name_H-M   'P 1'
_cell_length_a   10.81902000
_cell_length_b   10.81901986
_cell_length_c   7.84237400
_cell_angle_alpha   90.00000000
_cell_angle_beta   90.00000000
_cell_angle_gamma   120.00000043
_symmetry_Int_Tables_number   1
_chemical_formula_structural   Ba3Sr2Tc3ClO15
_chemical_formula_sum   'Ba6 Sr4 Tc6 Cl2 O30'
_cell_volume   794.97600636
_cell_formula_units_Z   2
loop_
 _symmetry_equiv_pos_site_id
 _symmetry_equiv_pos_as_xyz
  1  'x, y, z'
loop_
 _atom_site_type_symbol
 _atom_site_label
 _atom_site_symmetry_multiplicity
 _atom_site_fract_x
 _atom_site_fract_y
 _atom_site_fract_z
 _atom_site_occupancy
  Ba  Ba0  1  0.738761  0.000000  0.226684  1
  Ba  Ba1  1  0.000000  0.738761  0.226684  1
  Ba  Ba2  1  0.261239  0.000000  0.726684  1
  Ba  Ba3  1  0.000000  0.261239  0.726684  1
  Ba  Ba4  1  0.261239  0.261239  0.226684  1
  Ba  Ba5  1  0.738761  0.738761  0.726684  1
  Sr  Sr6  1  0.333333  0.666667  0.476208  1
  Sr  Sr7  1  0.666667  0.333333  0.976208  1
  Sr  Sr8  1  0.333333  0.666667  0.976208  1
  Sr  Sr9  1  0.666667  0.333333  0.476208  1
  Tc  Tc10  1  0.392341  0.000000  0.170758  1
  Tc  Tc11  1  0.000000  0.392341  0.170758  1
  Tc  Tc12  1  0.607659  0.000000  0.670758  1
  Tc  Tc13  1  0.000000  0.607659  0.670758  1
  Tc  Tc14  1  0.607659  0.607659  0.170758  1
  Tc  Tc15  1  0.392341  0.392341  0.670758  1
  Cl  Cl16  1  0.000000  0.000000  0.003400  1
  Cl  Cl17  1  0.000000  0.000000  0.503400  1
  O  O18  1  0.135611  0.581124  0.215871  1
  O  O19  1  0.418876  0.554487  0.215871  1
  O  O20  1  0.864389  0.418876  0.715871  1
  O  O21  1  0.418876  0.864389  0.715871  1
  O  O22  1  0.445513  0.864389  0.215871  1
  O  O23  1  0.581124  0.445513  0.715871  1
  O  O24  1  0.445513  0.581124  0.715871  1
  O  O25  1  0.581124  0.135611  0.215871  1
  O  O26  1  0.554487  0.135611  0.715871  1
  O  O27  1  0.554487  0.418876  0.215871  1
  O  O28  1  0.135611  0.554487  0.715871  1
  O  O29  1  0.864389  0.445513  0.215871  1
  O  O30  1  0.135383  0.395430  0.024385  1
  O  O31  1  0.604570  0.739953  0.024385  1
  O  O32  1  0.864617  0.604570  0.524385  1
  O  O33  1  0.604570  0.864617  0.524385  1
  O  O34  1  0.260047  0.864617  0.024385  1
  O  O35  1  0.395430  0.260047  0.524385  1
  O  O36  1  0.260047  0.395430  0.524385  1
  O  O37  1  0.395430  0.135383  0.024385  1
  O  O38  1  0.739953  0.135383  0.524385  1
  O  O39  1  0.739953  0.604570  0.024385  1
  O  O40  1  0.135383  0.739953  0.524385  1
  O  O41  1  0.864617  0.260047  0.024385  1
  O  O42  1  0.288827  0.000000  0.342974  1
  O  O43  1  0.000000  0.288827  0.342974  1
  O  O44  1  0.711173  0.000000  0.842974  1
  O  O45  1  0.000000  0.711173  0.842974  1
  O  O46  1  0.711173  0.711173  0.342974  1
  O  O47  1  0.288827  0.288827  0.842974  1
