# generated using pymatgen
data_Nd2Fe3P7Ru9
_symmetry_space_group_name_H-M   'P 1'
_cell_length_a   9.36270000
_cell_length_b   9.36269982
_cell_length_c   3.88289300
_cell_angle_alpha   90.00000000
_cell_angle_beta   90.00000000
_cell_angle_gamma   119.99998649
_symmetry_Int_Tables_number   1
_chemical_formula_structural   Nd2Fe3P7Ru9
_chemical_formula_sum   'Nd2 Fe3 P7 Ru9'
_cell_volume   294.77342088
_cell_formula_units_Z   1
loop_
 _symmetry_equiv_pos_site_id
 _symmetry_equiv_pos_as_xyz
  1  'x, y, z'
loop_
 _atom_site_type_symbol
 _atom_site_label
 _atom_site_symmetry_multiplicity
 _atom_site_fract_x
 _atom_site_fract_y
 _atom_site_fract_z
 _atom_site_occupancy
  Nd  Nd0  1  0.333333  0.666667  0.000000  1
  Nd  Nd1  1  0.666667  0.333333  0.500000  1
  Fe  Fe2  1  0.155267  0.889444  0.000000  1
  Fe  Fe3  1  0.110556  0.265823  0.000000  1
  Fe  Fe4  1  0.734177  0.844733  0.000000  1
  P  P5  1  0.408820  0.104530  0.000000  1
  P  P6  1  0.895470  0.304291  0.000000  1
  P  P7  1  0.695709  0.591180  0.000000  1
  P  P8  1  0.111618  0.718782  0.500000  1
  P  P9  1  0.281218  0.392836  0.500000  1
  P  P10  1  0.607164  0.888382  0.500000  1
  P  P11  1  0.000000  0.000000  0.000000  1
  Ru  Ru12  1  0.419300  0.360460  0.000000  1
  Ru  Ru13  1  0.639540  0.058838  0.000000  1
  Ru  Ru14  1  0.941162  0.580700  0.000000  1
  Ru  Ru15  1  0.384131  0.948502  0.500000  1
  Ru  Ru16  1  0.051498  0.435628  0.500000  1
  Ru  Ru17  1  0.564372  0.615869  0.500000  1
  Ru  Ru18  1  0.203624  0.115274  0.500000  1
  Ru  Ru19  1  0.884726  0.088351  0.500000  1
  Ru  Ru20  1  0.911649  0.796376  0.500000  1
