# generated using pymatgen
data_S27Br
_symmetry_space_group_name_H-M   'P 1'
_cell_length_a   14.56294565
_cell_length_b   14.56294597
_cell_length_c   14.56294796
_cell_angle_alpha   117.66284744
_cell_angle_beta   117.66285189
_cell_angle_gamma   117.66285128
_symmetry_Int_Tables_number   1
_chemical_formula_structural   S27Br
_chemical_formula_sum   'S27 Br1'
_cell_volume   1208.96225694
_cell_formula_units_Z   1
loop_
 _symmetry_equiv_pos_site_id
 _symmetry_equiv_pos_as_xyz
  1  'x, y, z'
loop_
 _atom_site_type_symbol
 _atom_site_label
 _atom_site_symmetry_multiplicity
 _atom_site_fract_x
 _atom_site_fract_y
 _atom_site_fract_z
 _atom_site_occupancy
  S  S0  1  0.044865  0.648944  0.648944  1
  S  S1  1  0.648944  0.648944  0.044865  1
  S  S2  1  0.648944  0.044865  0.648944  1
  S  S3  1  0.215526  0.832917  0.697905  1
  S  S4  1  0.832917  0.697905  0.215526  1
  S  S5  1  0.697905  0.215526  0.832917  1
  S  S6  1  0.832917  0.215526  0.697905  1
  S  S7  1  0.215526  0.697905  0.832917  1
  S  S8  1  0.697905  0.832917  0.215526  1
  S  S9  1  0.125466  0.659421  0.469035  1
  S  S10  1  0.659421  0.469035  0.125466  1
  S  S11  1  0.469035  0.125466  0.659421  1
  S  S12  1  0.659421  0.125466  0.469035  1
  S  S13  1  0.125466  0.469035  0.659421  1
  S  S14  1  0.469035  0.659421  0.125466  1
  S  S15  1  0.330234  0.714138  0.579604  1
  S  S16  1  0.714138  0.579604  0.330234  1
  S  S17  1  0.579604  0.330234  0.714138  1
  S  S18  1  0.714138  0.330234  0.579604  1
  S  S19  1  0.330234  0.579604  0.714138  1
  S  S20  1  0.579604  0.714138  0.330234  1
  S  S21  1  0.206877  0.480511  0.480511  1
  S  S22  1  0.480511  0.480511  0.206877  1
  S  S23  1  0.480511  0.206877  0.480511  1
  S  S24  1  0.002725  0.920178  0.920178  1
  S  S25  1  0.920178  0.920178  0.002725  1
  S  S26  1  0.920178  0.002725  0.920178  1
  Br  Br27  1  0.444875  0.444875  0.444875  1
