# generated using pymatgen
data_Ho12Fe4SnRh
_symmetry_space_group_name_H-M   'P 1'
_cell_length_a   8.28111702
_cell_length_b   8.28111903
_cell_length_c   8.28111753
_cell_angle_alpha   110.56303377
_cell_angle_beta   111.04052097
_cell_angle_gamma   106.84204490
_symmetry_Int_Tables_number   1
_chemical_formula_structural   Ho12Fe4SnRh
_chemical_formula_sum   'Ho12 Fe4 Sn1 Rh1'
_cell_volume   436.47025485
_cell_formula_units_Z   1
loop_
 _symmetry_equiv_pos_site_id
 _symmetry_equiv_pos_as_xyz
  1  'x, y, z'
loop_
 _atom_site_type_symbol
 _atom_site_label
 _atom_site_symmetry_multiplicity
 _atom_site_fract_x
 _atom_site_fract_y
 _atom_site_fract_z
 _atom_site_occupancy
  Ho  Ho0  1  0.411477  0.214973  0.196504  1
  Ho  Ho1  1  0.588523  0.785027  0.803496  1
  Ho  Ho2  1  0.018469  0.214973  0.803496  1
  Ho  Ho3  1  0.981531  0.785027  0.196504  1
  Ho  Ho4  1  0.186431  0.287899  0.474329  1
  Ho  Ho5  1  0.813569  0.712101  0.525671  1
  Ho  Ho6  1  0.186431  0.712101  0.898531  1
  Ho  Ho7  1  0.813569  0.287899  0.101469  1
  Ho  Ho8  1  0.311201  0.613092  0.301891  1
  Ho  Ho9  1  0.688799  0.386908  0.698109  1
  Ho  Ho10  1  0.311201  0.009309  0.698109  1
  Ho  Ho11  1  0.688799  0.990691  0.301891  1
  Fe  Fe12  1  0.385075  0.000000  0.385075  1
  Fe  Fe13  1  0.614925  0.000000  0.614925  1
  Fe  Fe14  1  0.107853  0.607853  0.500000  1
  Fe  Fe15  1  0.892147  0.392147  0.500000  1
  Sn  Sn16  1  0.500000  0.500000  0.000000  1
  Rh  Rh17  1  0.000000  0.000000  0.000000  1
