# generated using pymatgen
data_TlSnF5
_symmetry_space_group_name_H-M   'P 1'
_cell_length_a   5.86791800
_cell_length_b   8.26771300
_cell_length_c   10.93197900
_cell_angle_alpha   90.00000000
_cell_angle_beta   90.00000000
_cell_angle_gamma   90.00000000
_symmetry_Int_Tables_number   1
_chemical_formula_structural   TlSnF5
_chemical_formula_sum   'Tl4 Sn4 F20'
_cell_volume   530.35689264
_cell_formula_units_Z   4
loop_
 _symmetry_equiv_pos_site_id
 _symmetry_equiv_pos_as_xyz
  1  'x, y, z'
loop_
 _atom_site_type_symbol
 _atom_site_label
 _atom_site_symmetry_multiplicity
 _atom_site_fract_x
 _atom_site_fract_y
 _atom_site_fract_z
 _atom_site_occupancy
  Tl  Tl0  1  0.500000  0.886796  0.953376  1
  Tl  Tl1  1  0.500000  0.113204  0.453376  1
  Tl  Tl2  1  0.000000  0.365522  0.110893  1
  Tl  Tl3  1  0.000000  0.634478  0.610893  1
  Sn  Sn4  1  0.000000  0.881061  0.241505  1
  Sn  Sn5  1  0.500000  0.579423  0.342105  1
  Sn  Sn6  1  0.500000  0.420577  0.842105  1
  Sn  Sn7  1  0.000000  0.118939  0.741505  1
  F  F8  1  0.254376  0.531306  0.932987  1
  F  F9  1  0.749668  0.695939  0.232919  1
  F  F10  1  0.244042  0.045912  0.246787  1
  F  F11  1  0.749668  0.304061  0.732919  1
  F  F12  1  0.500000  0.226133  0.945579  1
  F  F13  1  0.755958  0.954088  0.746787  1
  F  F14  1  0.500000  0.582805  0.710641  1
  F  F15  1  0.244042  0.954088  0.746787  1
  F  F16  1  0.000000  0.862392  0.063155  1
  F  F17  1  0.755958  0.045912  0.246787  1
  F  F18  1  0.500000  0.417195  0.210641  1
  F  F19  1  0.745624  0.468694  0.432987  1
  F  F20  1  0.250332  0.695939  0.232919  1
  F  F21  1  0.000000  0.842021  0.418869  1
  F  F22  1  0.000000  0.137608  0.563155  1
  F  F23  1  0.250332  0.304061  0.732919  1
  F  F24  1  0.000000  0.157979  0.918869  1
  F  F25  1  0.254376  0.468694  0.432987  1
  F  F26  1  0.500000  0.773867  0.445579  1
  F  F27  1  0.745624  0.531306  0.932987  1
