# generated using pymatgen
data_DyIn3B4AsIr9
_symmetry_space_group_name_H-M   'P 1'
_cell_length_a   5.57930300
_cell_length_b   5.57930263
_cell_length_c   10.46304600
_cell_angle_alpha   90.00000000
_cell_angle_beta   90.00000000
_cell_angle_gamma   119.99999624
_symmetry_Int_Tables_number   1
_chemical_formula_structural   DyIn3B4AsIr9
_chemical_formula_sum   'Dy1 In3 B4 As1 Ir9'
_cell_volume   282.06464250
_cell_formula_units_Z   1
loop_
 _symmetry_equiv_pos_site_id
 _symmetry_equiv_pos_as_xyz
  1  'x, y, z'
loop_
 _atom_site_type_symbol
 _atom_site_label
 _atom_site_symmetry_multiplicity
 _atom_site_fract_x
 _atom_site_fract_y
 _atom_site_fract_z
 _atom_site_occupancy
  Dy  Dy0  1  0.000000  0.000000  0.916187  1
  In  In1  1  0.666667  0.333333  0.506405  1
  In  In2  1  0.000000  0.000000  0.333272  1
  In  In3  1  0.333333  0.666667  0.506405  1
  B  B4  1  0.666667  0.333333  0.154583  1
  B  B5  1  0.333333  0.666667  0.862678  1
  B  B6  1  0.666667  0.333333  0.862678  1
  B  B7  1  0.333333  0.666667  0.154583  1
  As  As8  1  0.000000  0.000000  0.639476  1
  Ir  Ir9  1  0.000000  0.500641  0.283109  1
  Ir  Ir10  1  0.434212  0.000000  0.728500  1
  Ir  Ir11  1  0.500641  0.000000  0.283109  1
  Ir  Ir12  1  0.000000  0.491699  0.009635  1
  Ir  Ir13  1  0.565788  0.565788  0.728500  1
  Ir  Ir14  1  0.000000  0.434212  0.728500  1
  Ir  Ir15  1  0.508301  0.508301  0.009635  1
  Ir  Ir16  1  0.491699  0.000000  0.009635  1
  Ir  Ir17  1  0.499359  0.499359  0.283109  1
