# generated using pymatgen
data_EuI16
_symmetry_space_group_name_H-M   'P 1'
_cell_length_a   14.33123833
_cell_length_b   12.38717935
_cell_length_c   10.78613700
_cell_angle_alpha   92.27830010
_cell_angle_beta   123.06593919
_cell_angle_gamma   124.82712743
_symmetry_Int_Tables_number   1
_chemical_formula_structural   EuI16
_chemical_formula_sum   'Eu1 I16'
_cell_volume   1132.49075390
_cell_formula_units_Z   1
loop_
 _symmetry_equiv_pos_site_id
 _symmetry_equiv_pos_as_xyz
  1  'x, y, z'
loop_
 _atom_site_type_symbol
 _atom_site_label
 _atom_site_symmetry_multiplicity
 _atom_site_fract_x
 _atom_site_fract_y
 _atom_site_fract_z
 _atom_site_occupancy
  Eu  Eu0  1  0.000000  0.000000  0.000000  1
  I  I1  1  0.997729  0.973526  0.704326  1
  I  I2  1  0.002271  0.026474  0.295674  1
  I  I3  1  0.942849  0.219494  0.985455  1
  I  I4  1  0.621152  0.760903  0.762453  1
  I  I5  1  0.378848  0.239097  0.237547  1
  I  I6  1  0.057151  0.780506  0.014545  1
  I  I7  1  0.514468  0.536894  0.294808  1
  I  I8  1  0.485532  0.463106  0.705192  1
  I  I9  1  0.700277  0.875994  0.390369  1
  I  I10  1  0.020055  0.379912  0.821171  1
  I  I11  1  0.979945  0.620088  0.178829  1
  I  I12  1  0.455511  0.843114  0.103341  1
  I  I13  1  0.544489  0.156886  0.896659  1
  I  I14  1  0.861377  0.411332  0.307291  1
  I  I15  1  0.138623  0.588668  0.692709  1
  I  I16  1  0.299723  0.124006  0.609631  1
