# generated using pymatgen
data_Zr4VSi4W3
_symmetry_space_group_name_H-M   'P 1'
_cell_length_a   6.93917926
_cell_length_b   3.54637900
_cell_length_c   8.22278663
_cell_angle_alpha   90.00000000
_cell_angle_beta   89.66732740
_cell_angle_gamma   90.00000000
_symmetry_Int_Tables_number   1
_chemical_formula_structural   Zr4VSi4W3
_chemical_formula_sum   'Zr4 V1 Si4 W3'
_cell_volume   202.35081311
_cell_formula_units_Z   1
loop_
 _symmetry_equiv_pos_site_id
 _symmetry_equiv_pos_as_xyz
  1  'x, y, z'
loop_
 _atom_site_type_symbol
 _atom_site_label
 _atom_site_symmetry_multiplicity
 _atom_site_fract_x
 _atom_site_fract_y
 _atom_site_fract_z
 _atom_site_occupancy
  Zr  Zr0  1  0.541471  0.250000  0.166623  1
  Zr  Zr1  1  0.041454  0.250000  0.332033  1
  Zr  Zr2  1  0.956748  0.750001  0.667236  1
  Zr  Zr3  1  0.458824  0.750001  0.833562  1
  V  V4  1  0.873095  0.750001  0.057879  1
  Si  Si5  1  0.241317  0.750001  0.138597  1
  Si  Si6  1  0.743296  0.750001  0.356094  1
  Si  Si7  1  0.257369  0.250000  0.640920  1
  Si  Si8  1  0.758814  0.250000  0.865378  1
  W  W9  1  0.368981  0.750001  0.439831  1
  W  W10  1  0.631808  0.250000  0.559550  1
  W  W11  1  0.126825  0.250000  0.942297  1
