# generated using pymatgen
data_Co7Si16Pt
_symmetry_space_group_name_H-M   'P 1'
_cell_length_a   6.63199991
_cell_length_b   6.63199935
_cell_length_c   7.64142803
_cell_angle_alpha   89.48335364
_cell_angle_beta   89.48335677
_cell_angle_gamma   109.51454913
_symmetry_Int_Tables_number   1
_chemical_formula_structural   Co7Si16Pt
_chemical_formula_sum   'Co7 Si16 Pt1'
_cell_volume   316.75098003
_cell_formula_units_Z   1
loop_
 _symmetry_equiv_pos_site_id
 _symmetry_equiv_pos_as_xyz
  1  'x, y, z'
loop_
 _atom_site_type_symbol
 _atom_site_label
 _atom_site_symmetry_multiplicity
 _atom_site_fract_x
 _atom_site_fract_y
 _atom_site_fract_z
 _atom_site_occupancy
  Co  Co0  1  0.251832  0.251832  0.253737  1
  Co  Co1  1  0.747961  0.747961  0.746419  1
  Co  Co2  1  0.749430  0.749430  0.246743  1
  Co  Co3  1  0.247074  0.748379  0.497395  1
  Co  Co4  1  0.250418  0.754302  0.001752  1
  Co  Co5  1  0.748379  0.247074  0.497395  1
  Co  Co6  1  0.754302  0.250418  0.001752  1
  Si  Si7  1  0.376564  0.627315  0.249690  1
  Si  Si8  1  0.115901  0.853892  0.748442  1
  Si  Si9  1  0.122641  0.875686  0.250078  1
  Si  Si10  1  0.380349  0.647037  0.749909  1
  Si  Si11  1  0.647037  0.380349  0.749909  1
  Si  Si12  1  0.875686  0.122641  0.250078  1
  Si  Si13  1  0.853892  0.115901  0.748442  1
  Si  Si14  1  0.627315  0.376564  0.249690  1
  Si  Si15  1  0.120987  0.386518  0.018431  1
  Si  Si16  1  0.380648  0.116438  0.488276  1
  Si  Si17  1  0.871940  0.623160  0.495121  1
  Si  Si18  1  0.626141  0.874791  0.999576  1
  Si  Si19  1  0.874791  0.626141  0.999576  1
  Si  Si20  1  0.623160  0.871940  0.495121  1
  Si  Si21  1  0.116438  0.380648  0.488276  1
  Si  Si22  1  0.386518  0.120987  0.018431  1
  Pt  Pt23  1  0.250594  0.250594  0.755761  1
