# generated using pymatgen
data_Tm3P6Ir8Ru
_symmetry_space_group_name_H-M   'P 1'
_cell_length_a   3.95186300
_cell_length_b   11.16809200
_cell_length_c   12.73634000
_cell_angle_alpha   90.00000000
_cell_angle_beta   90.00000000
_cell_angle_gamma   90.00000000
_symmetry_Int_Tables_number   1
_chemical_formula_structural   Tm3P6Ir8Ru
_chemical_formula_sum   'Tm6 P12 Ir16 Ru2'
_cell_volume   562.11543088
_cell_formula_units_Z   2
loop_
 _symmetry_equiv_pos_site_id
 _symmetry_equiv_pos_as_xyz
  1  'x, y, z'
loop_
 _atom_site_type_symbol
 _atom_site_label
 _atom_site_symmetry_multiplicity
 _atom_site_fract_x
 _atom_site_fract_y
 _atom_site_fract_z
 _atom_site_occupancy
  Tm  Tm0  1  0.000000  0.500000  0.523032  1
  Tm  Tm1  1  0.500000  0.000000  0.476968  1
  Tm  Tm2  1  0.500000  0.819261  0.207303  1
  Tm  Tm3  1  0.500000  0.180739  0.207303  1
  Tm  Tm4  1  0.000000  0.680739  0.792697  1
  Tm  Tm5  1  0.000000  0.319261  0.792697  1
  P  P6  1  0.500000  0.500000  0.877244  1
  P  P7  1  0.000000  0.000000  0.122756  1
  P  P8  1  0.500000  0.500000  0.353814  1
  P  P9  1  0.000000  0.000000  0.646186  1
  P  P10  1  0.500000  0.317130  0.618791  1
  P  P11  1  0.500000  0.682870  0.618791  1
  P  P12  1  0.000000  0.182870  0.381209  1
  P  P13  1  0.000000  0.817130  0.381209  1
  P  P14  1  0.500000  0.843285  0.886927  1
  P  P15  1  0.500000  0.156715  0.886927  1
  P  P16  1  0.000000  0.656715  0.113073  1
  P  P17  1  0.000000  0.343285  0.113073  1
  Ir  Ir18  1  0.500000  0.500000  0.700789  1
  Ir  Ir19  1  0.000000  0.000000  0.299211  1
  Ir  Ir20  1  0.000000  0.500000  0.996147  1
  Ir  Ir21  1  0.500000  0.000000  0.003853  1
  Ir  Ir22  1  0.500000  0.331748  0.982003  1
  Ir  Ir23  1  0.500000  0.668252  0.982003  1
  Ir  Ir24  1  0.000000  0.168252  0.017997  1
  Ir  Ir25  1  0.000000  0.831748  0.017997  1
  Ir  Ir26  1  0.500000  0.300515  0.432587  1
  Ir  Ir27  1  0.500000  0.699485  0.432587  1
  Ir  Ir28  1  0.000000  0.199485  0.567413  1
  Ir  Ir29  1  0.000000  0.800515  0.567413  1
  Ir  Ir30  1  0.500000  0.870900  0.710699  1
  Ir  Ir31  1  0.500000  0.129100  0.710699  1
  Ir  Ir32  1  0.000000  0.629100  0.289301  1
  Ir  Ir33  1  0.000000  0.370900  0.289301  1
  Ru  Ru34  1  0.500000  0.500000  0.168450  1
  Ru  Ru35  1  0.000000  0.000000  0.831550  1
