# generated using pymatgen
data_GdTh7VS17
_symmetry_space_group_name_H-M   'P 1'
_cell_length_a   8.02608250
_cell_length_b   8.02005630
_cell_length_c   10.63013700
_cell_angle_alpha   80.54749235
_cell_angle_beta   80.50958076
_cell_angle_gamma   64.81518916
_symmetry_Int_Tables_number   1
_chemical_formula_structural   GdTh7VS17
_chemical_formula_sum   'Gd1 Th7 V1 S17'
_cell_volume   607.33614673
_cell_formula_units_Z   1
loop_
 _symmetry_equiv_pos_site_id
 _symmetry_equiv_pos_as_xyz
  1  'x, y, z'
loop_
 _atom_site_type_symbol
 _atom_site_label
 _atom_site_symmetry_multiplicity
 _atom_site_fract_x
 _atom_site_fract_y
 _atom_site_fract_z
 _atom_site_occupancy
  Gd  Gd0  1  0.811901  0.303259  0.295317  1
  Th  Th1  1  0.301841  0.812983  0.293608  1
  Th  Th2  1  0.186133  0.698300  0.704745  1
  Th  Th3  1  0.698129  0.188014  0.703137  1
  Th  Th4  1  0.205192  0.205488  0.543398  1
  Th  Th5  1  0.794077  0.795739  0.452991  1
  Th  Th6  1  0.684181  0.678962  0.979070  1
  Th  Th7  1  0.317086  0.317679  0.025296  1
  V  V8  1  0.000059  0.002204  0.001764  1
  S  S9  1  0.823599  0.430412  0.531699  1
  S  S10  1  0.431431  0.821042  0.531577  1
  S  S11  1  0.177831  0.568653  0.468403  1
  S  S12  1  0.570299  0.177067  0.469399  1
  S  S13  1  0.944881  0.318990  0.027707  1
  S  S14  1  0.320645  0.944711  0.026222  1
  S  S15  1  0.055568  0.680989  0.972309  1
  S  S16  1  0.680207  0.056402  0.971684  1
  S  S17  1  0.209020  0.205663  0.278764  1
  S  S18  1  0.791340  0.791205  0.721947  1
  S  S19  1  0.060023  0.059611  0.776892  1
  S  S20  1  0.939420  0.942961  0.223627  1
  S  S21  1  0.302461  0.303071  0.756880  1
  S  S22  1  0.695427  0.697725  0.242912  1
  S  S23  1  0.519839  0.521293  0.831830  1
  S  S24  1  0.477900  0.481171  0.166238  1
  S  S25  1  0.001507  0.996407  0.502581  1
