# generated using pymatgen
data_Tb2Tm14In4RuRh3
_symmetry_space_group_name_H-M   'P 1'
_cell_length_a   9.54976499
_cell_length_b   9.54391030
_cell_length_c   9.55816852
_cell_angle_alpha   60.08271396
_cell_angle_beta   60.02908370
_cell_angle_gamma   59.97971219
_symmetry_Int_Tables_number   1
_chemical_formula_structural   Tb2Tm14In4RuRh3
_chemical_formula_sum   'Tb2 Tm14 In4 Ru1 Rh3'
_cell_volume   616.42210926
_cell_formula_units_Z   1
loop_
 _symmetry_equiv_pos_site_id
 _symmetry_equiv_pos_as_xyz
  1  'x, y, z'
loop_
 _atom_site_type_symbol
 _atom_site_label
 _atom_site_symmetry_multiplicity
 _atom_site_fract_x
 _atom_site_fract_y
 _atom_site_fract_z
 _atom_site_occupancy
  Tb  Tb0  1  0.060468  0.061660  0.435599  1
  Tb  Tb1  1  0.442274  0.061660  0.435599  1
  Tm  Tm2  1  0.062600  0.439072  0.060173  1
  Tm  Tm3  1  0.044888  0.651673  0.650636  1
  Tm  Tm4  1  0.438155  0.439072  0.060173  1
  Tm  Tm5  1  0.652213  0.045990  0.649586  1
  Tm  Tm6  1  0.188288  0.809314  0.193010  1
  Tm  Tm7  1  0.189779  0.191310  0.810952  1
  Tm  Tm8  1  0.809389  0.809314  0.193010  1
  Tm  Tm9  1  0.440510  0.061249  0.057731  1
  Tm  Tm10  1  0.809578  0.188826  0.192019  1
  Tm  Tm11  1  0.059668  0.444643  0.436021  1
  Tm  Tm12  1  0.807959  0.191310  0.810952  1
  Tm  Tm13  1  0.190398  0.807802  0.811401  1
  Tm  Tm14  1  0.651453  0.649503  0.047592  1
  Tm  Tm15  1  0.652805  0.651673  0.650636  1
  In  In16  1  0.416150  0.417631  0.417399  1
  In  In17  1  0.748820  0.417631  0.417399  1
  In  In18  1  0.418277  0.747154  0.416291  1
  In  In19  1  0.417378  0.417079  0.748165  1
  Ru  Ru20  1  0.859518  0.856450  0.424513  1
  Rh  Rh21  1  0.857869  0.858041  0.861164  1
  Rh  Rh22  1  0.422927  0.858041  0.861164  1
  Rh  Rh23  1  0.858640  0.423901  0.858819  1
