# generated using pymatgen
data_U6Fe20P13
_symmetry_space_group_name_H-M   'P 1'
_cell_length_a   12.60505700
_cell_length_b   12.60505712
_cell_length_c   3.64209400
_cell_angle_alpha   90.00000000
_cell_angle_beta   90.00000000
_cell_angle_gamma   119.99999707
_symmetry_Int_Tables_number   1
_chemical_formula_structural   U6Fe20P13
_chemical_formula_sum   'U6 Fe20 P13'
_cell_volume   501.15426040
_cell_formula_units_Z   1
loop_
 _symmetry_equiv_pos_site_id
 _symmetry_equiv_pos_as_xyz
  1  'x, y, z'
loop_
 _atom_site_type_symbol
 _atom_site_label
 _atom_site_symmetry_multiplicity
 _atom_site_fract_x
 _atom_site_fract_y
 _atom_site_fract_z
 _atom_site_occupancy
  U  U0  1  0.529080  0.721361  0.248843  1
  U  U1  1  0.278639  0.807719  0.248843  1
  U  U2  1  0.192281  0.470920  0.248843  1
  U  U3  1  0.470920  0.278639  0.751157  1
  U  U4  1  0.721361  0.192281  0.751157  1
  U  U5  1  0.807719  0.529080  0.751157  1
  Fe  Fe6  1  0.333333  0.666667  0.748386  1
  Fe  Fe7  1  0.914264  0.240718  0.254018  1
  Fe  Fe8  1  0.759282  0.673547  0.254018  1
  Fe  Fe9  1  0.326453  0.085736  0.254018  1
  Fe  Fe10  1  0.434271  0.019407  0.750891  1
  Fe  Fe11  1  0.980593  0.414864  0.750891  1
  Fe  Fe12  1  0.585136  0.565729  0.750891  1
  Fe  Fe13  1  0.666667  0.333333  0.251614  1
  Fe  Fe14  1  0.081464  0.186427  0.240601  1
  Fe  Fe15  1  0.813573  0.895037  0.240601  1
  Fe  Fe16  1  0.104963  0.918536  0.240601  1
  Fe  Fe17  1  0.019407  0.585136  0.249109  1
  Fe  Fe18  1  0.414864  0.434271  0.249109  1
  Fe  Fe19  1  0.565729  0.980593  0.249109  1
  Fe  Fe20  1  0.673547  0.914264  0.745982  1
  Fe  Fe21  1  0.085736  0.759282  0.745982  1
  Fe  Fe22  1  0.240718  0.326453  0.745982  1
  Fe  Fe23  1  0.918536  0.813573  0.759399  1
  Fe  Fe24  1  0.186427  0.104963  0.759399  1
  Fe  Fe25  1  0.895037  0.081464  0.759399  1
  P  P26  1  0.520159  0.130432  0.250711  1
  P  P27  1  0.869568  0.389727  0.250711  1
  P  P28  1  0.610273  0.479841  0.250711  1
  P  P29  1  0.959189  0.725497  0.252779  1
  P  P30  1  0.274503  0.233692  0.252779  1
  P  P31  1  0.766308  0.040811  0.252779  1
  P  P32  1  0.389727  0.520159  0.749289  1
  P  P33  1  0.479841  0.869568  0.749289  1
  P  P34  1  0.130432  0.610273  0.749289  1
  P  P35  1  0.725497  0.766308  0.747221  1
  P  P36  1  0.233692  0.959189  0.747221  1
  P  P37  1  0.040811  0.274503  0.747221  1
  P  P38  1  0.000000  0.000000  0.000000  1
