# generated using pymatgen
data_Y8Si8Pt5Rh3
_symmetry_space_group_name_H-M   'P 1'
_cell_length_a   4.28100700
_cell_length_b   7.45199466
_cell_length_c   13.97767890
_cell_angle_alpha   89.60445158
_cell_angle_beta   90.00000000
_cell_angle_gamma   90.00000000
_symmetry_Int_Tables_number   1
_chemical_formula_structural   Y8Si8Pt5Rh3
_chemical_formula_sum   'Y8 Si8 Pt5 Rh3'
_cell_volume   445.90586344
_cell_formula_units_Z   1
loop_
 _symmetry_equiv_pos_site_id
 _symmetry_equiv_pos_as_xyz
  1  'x, y, z'
loop_
 _atom_site_type_symbol
 _atom_site_label
 _atom_site_symmetry_multiplicity
 _atom_site_fract_x
 _atom_site_fract_y
 _atom_site_fract_z
 _atom_site_occupancy
  Y  Y0  1  0.500000  0.800255  0.750174  1
  Y  Y1  1  0.000000  0.199996  0.749753  1
  Y  Y2  1  0.500000  0.794990  0.252351  1
  Y  Y3  1  0.000000  0.203551  0.250422  1
  Y  Y4  1  0.500000  0.711379  0.998872  1
  Y  Y5  1  0.000000  0.289572  0.500062  1
  Y  Y6  1  0.500000  0.694070  0.501466  1
  Y  Y7  1  0.000000  0.305915  0.999040  1
  Si  Si8  1  0.500000  0.404901  0.646823  1
  Si  Si9  1  0.000000  0.594782  0.852754  1
  Si  Si10  1  0.500000  0.407928  0.355256  1
  Si  Si11  1  0.000000  0.596241  0.147754  1
  Si  Si12  1  0.500000  0.096961  0.093097  1
  Si  Si13  1  0.000000  0.897868  0.406115  1
  Si  Si14  1  0.500000  0.105157  0.904684  1
  Si  Si15  1  0.000000  0.896005  0.594918  1
  Pt  Pt16  1  0.500000  0.073731  0.606299  1
  Pt  Pt17  1  0.000000  0.926872  0.894081  1
  Pt  Pt18  1  0.500000  0.075927  0.393402  1
  Pt  Pt19  1  0.000000  0.925543  0.107432  1
  Pt  Pt20  1  0.500000  0.422810  0.157657  1
  Rh  Rh21  1  0.000000  0.575439  0.336925  1
  Rh  Rh22  1  0.500000  0.432955  0.829285  1
  Rh  Rh23  1  0.000000  0.567153  0.671379  1
