# generated using pymatgen
data_SmEr7(C2Cl3)2
_symmetry_space_group_name_H-M   'P 1'
_cell_length_a   3.62827600
_cell_length_b   10.39761101
_cell_length_c   19.72640586
_cell_angle_alpha   90.34532479
_cell_angle_beta   90.00000000
_cell_angle_gamma   90.00000000
_symmetry_Int_Tables_number   1
_chemical_formula_structural   SmEr7(C2Cl3)2
_chemical_formula_sum   'Sm2 Er14 C8 Cl12'
_cell_volume   744.17308412
_cell_formula_units_Z   2
loop_
 _symmetry_equiv_pos_site_id
 _symmetry_equiv_pos_as_xyz
  1  'x, y, z'
loop_
 _atom_site_type_symbol
 _atom_site_label
 _atom_site_symmetry_multiplicity
 _atom_site_fract_x
 _atom_site_fract_y
 _atom_site_fract_z
 _atom_site_occupancy
  Sm  Sm0  1  0.250000  0.861670  0.572778  1
  Sm  Sm1  1  0.750000  0.138330  0.427222  1
  Er  Er2  1  0.750000  0.635575  0.074565  1
  Er  Er3  1  0.250000  0.364425  0.925435  1
  Er  Er4  1  0.250000  0.866179  0.744961  1
  Er  Er5  1  0.750000  0.133821  0.255039  1
  Er  Er6  1  0.750000  0.634073  0.242151  1
  Er  Er7  1  0.250000  0.365927  0.757849  1
  Er  Er8  1  0.250000  0.871448  0.165242  1
  Er  Er9  1  0.750000  0.128552  0.834758  1
  Er  Er10  1  0.750000  0.627197  0.668280  1
  Er  Er11  1  0.250000  0.372803  0.331720  1
  Er  Er12  1  0.250000  0.897506  0.329698  1
  Er  Er13  1  0.750000  0.102494  0.670302  1
  Er  Er14  1  0.750000  0.604207  0.832668  1
  Er  Er15  1  0.250000  0.395793  0.167332  1
  C  C16  1  0.250000  0.614589  0.752693  1
  C  C17  1  0.750000  0.385411  0.247307  1
  C  C18  1  0.750000  0.883704  0.248748  1
  C  C19  1  0.250000  0.116296  0.751252  1
  C  C20  1  0.250000  0.632165  0.151642  1
  C  C21  1  0.750000  0.367835  0.848358  1
  C  C22  1  0.750000  0.865463  0.656531  1
  C  C23  1  0.250000  0.134537  0.343469  1
  Cl  Cl24  1  0.250000  0.602626  0.561249  1
  Cl  Cl25  1  0.750000  0.397374  0.438751  1
  Cl  Cl26  1  0.750000  0.884629  0.056779  1
  Cl  Cl27  1  0.250000  0.115371  0.943221  1
  Cl  Cl28  1  0.250000  0.623922  0.953849  1
  Cl  Cl29  1  0.750000  0.376078  0.046151  1
  Cl  Cl30  1  0.750000  0.869117  0.447532  1
  Cl  Cl31  1  0.250000  0.130883  0.552468  1
  Cl  Cl32  1  0.250000  0.636714  0.349981  1
  Cl  Cl33  1  0.750000  0.363286  0.650019  1
  Cl  Cl34  1  0.750000  0.864896  0.854353  1
  Cl  Cl35  1  0.250000  0.135104  0.145647  1
