# generated using pymatgen
data_Sr5Hg2Ir
_symmetry_space_group_name_H-M   'P 1'
_cell_length_a   9.87861844
_cell_length_b   9.87861825
_cell_length_c   9.87861763
_cell_angle_alpha   129.57413117
_cell_angle_beta   129.22022518
_cell_angle_gamma   74.37269110
_symmetry_Int_Tables_number   1
_chemical_formula_structural   Sr5Hg2Ir
_chemical_formula_sum   'Sr10 Hg4 Ir2'
_cell_volume   561.11540278
_cell_formula_units_Z   2
loop_
 _symmetry_equiv_pos_site_id
 _symmetry_equiv_pos_as_xyz
  1  'x, y, z'
loop_
 _atom_site_type_symbol
 _atom_site_label
 _atom_site_symmetry_multiplicity
 _atom_site_fract_x
 _atom_site_fract_y
 _atom_site_fract_z
 _atom_site_occupancy
  Sr  Sr0  1  0.986921  0.466569  0.177399  1
  Sr  Sr1  1  0.449792  0.305931  0.487248  1
  Sr  Sr2  1  0.710830  0.190477  0.177399  1
  Sr  Sr3  1  0.015772  0.004794  0.020566  1
  Sr  Sr4  1  0.181317  0.037456  0.487248  1
  Sr  Sr5  1  0.789170  0.966569  0.479648  1
  Sr  Sr6  1  0.318683  0.805931  0.856138  1
  Sr  Sr7  1  0.513079  0.690477  0.479648  1
  Sr  Sr8  1  0.484228  0.504794  0.989023  1
  Sr  Sr9  1  0.050208  0.537456  0.856138  1
  Hg  Hg10  1  0.620029  0.123107  0.743135  1
  Hg  Hg11  1  0.750000  0.742441  0.992441  1
  Hg  Hg12  1  0.879971  0.623107  0.503077  1
  Hg  Hg13  1  0.250000  0.242441  0.992441  1
  Ir  Ir14  1  0.120081  0.379226  0.499307  1
  Ir  Ir15  1  0.379919  0.879226  0.259145  1
