# generated using pymatgen
data_Cs12SiMo3Se16
_symmetry_space_group_name_H-M   'P 1'
_cell_length_a   10.33996151
_cell_length_b   10.42745582
_cell_length_c   12.13840700
_cell_angle_alpha   90.00000000
_cell_angle_beta   90.00000000
_cell_angle_gamma   89.72893576
_symmetry_Int_Tables_number   1
_chemical_formula_structural   Cs12SiMo3Se16
_chemical_formula_sum   'Cs12 Si1 Mo3 Se16'
_cell_volume   1308.74222923
_cell_formula_units_Z   1
loop_
 _symmetry_equiv_pos_site_id
 _symmetry_equiv_pos_as_xyz
  1  'x, y, z'
loop_
 _atom_site_type_symbol
 _atom_site_label
 _atom_site_symmetry_multiplicity
 _atom_site_fract_x
 _atom_site_fract_y
 _atom_site_fract_z
 _atom_site_occupancy
  Cs  Cs0  1  0.541780  0.710445  0.036949  1
  Cs  Cs1  1  0.051740  0.799840  0.464681  1
  Cs  Cs2  1  0.445271  0.287272  0.546176  1
  Cs  Cs3  1  0.963900  0.196417  0.949953  1
  Cs  Cs4  1  0.445271  0.287272  0.953824  1
  Cs  Cs5  1  0.963900  0.196417  0.550047  1
  Cs  Cs6  1  0.541780  0.710445  0.463051  1
  Cs  Cs7  1  0.051740  0.799840  0.035319  1
  Cs  Cs8  1  0.349439  0.086844  0.250000  1
  Cs  Cs9  1  0.853371  0.410199  0.250000  1
  Cs  Cs10  1  0.639209  0.918163  0.750000  1
  Cs  Cs11  1  0.151348  0.591371  0.750000  1
  Si  Si12  1  0.224911  0.020403  0.750000  1
  Mo  Mo13  1  0.275146  0.518239  0.250000  1
  Mo  Mo14  1  0.775320  0.980568  0.250000  1
  Mo  Mo15  1  0.725928  0.481633  0.750000  1
  Se  Se16  1  0.292383  0.744564  0.250000  1
  Se  Se17  1  0.790700  0.754069  0.250000  1
  Se  Se18  1  0.707818  0.256446  0.750000  1
  Se  Se19  1  0.207214  0.242700  0.750000  1
  Se  Se20  1  0.486404  0.427765  0.250000  1
  Se  Se21  1  0.986316  0.069427  0.250000  1
  Se  Se22  1  0.515390  0.571403  0.750000  1
  Se  Se23  1  0.019319  0.931172  0.750000  1
  Se  Se24  1  0.164685  0.455119  0.088634  1
  Se  Se25  1  0.664807  0.046511  0.410395  1
  Se  Se26  1  0.835210  0.544570  0.588166  1
  Se  Se27  1  0.332500  0.957342  0.908284  1
  Se  Se28  1  0.835210  0.544570  0.911834  1
  Se  Se29  1  0.332500  0.957342  0.591716  1
  Se  Se30  1  0.164685  0.455119  0.411366  1
  Se  Se31  1  0.664807  0.046511  0.089605  1
