# generated using pymatgen
data_Tm6InOsPd
_symmetry_space_group_name_H-M   'P 1'
_cell_length_a   8.47970393
_cell_length_b   8.48039981
_cell_length_c   8.47970400
_cell_angle_alpha   113.45033510
_cell_angle_beta   110.76572272
_cell_angle_gamma   104.32639358
_symmetry_Int_Tables_number   1
_chemical_formula_structural   Tm6InOsPd
_chemical_formula_sum   'Tm12 In2 Os2 Pd2'
_cell_volume   466.34643258
_cell_formula_units_Z   2
loop_
 _symmetry_equiv_pos_site_id
 _symmetry_equiv_pos_as_xyz
  1  'x, y, z'
loop_
 _atom_site_type_symbol
 _atom_site_label
 _atom_site_symmetry_multiplicity
 _atom_site_fract_x
 _atom_site_fract_y
 _atom_site_fract_z
 _atom_site_occupancy
  Tm  Tm0  1  0.438485  0.237257  0.201215  1
  Tm  Tm1  1  0.561515  0.762743  0.798785  1
  Tm  Tm2  1  0.036041  0.237257  0.798772  1
  Tm  Tm3  1  0.963959  0.762743  0.201228  1
  Tm  Tm4  1  0.186437  0.278688  0.465107  1
  Tm  Tm5  1  0.813563  0.721312  0.534893  1
  Tm  Tm6  1  0.186420  0.721312  0.907749  1
  Tm  Tm7  1  0.813580  0.278688  0.092251  1
  Tm  Tm8  1  0.336648  0.647022  0.310374  1
  Tm  Tm9  1  0.663352  0.352978  0.689626  1
  Tm  Tm10  1  0.336652  0.026284  0.689632  1
  Tm  Tm11  1  0.663348  0.973716  0.310368  1
  In  In12  1  0.500000  0.500000  0.000000  1
  In  In13  1  0.000000  0.000000  0.000000  1
  Os  Os14  1  0.331250  0.000000  0.331250  1
  Os  Os15  1  0.668750  0.000000  0.668750  1
  Pd  Pd16  1  0.129835  0.629861  0.500026  1
  Pd  Pd17  1  0.870165  0.370139  0.499974  1
