# generated using pymatgen
data_Er4Al2B4Ru3Rh7
_symmetry_space_group_name_H-M   'P 1'
_cell_length_a   9.55706216
_cell_length_b   9.57559015
_cell_length_c   3.09280600
_cell_angle_alpha   90.00000000
_cell_angle_beta   90.00000000
_cell_angle_gamma   89.94373025
_symmetry_Int_Tables_number   1
_chemical_formula_structural   Er4Al2B4Ru3Rh7
_chemical_formula_sum   'Er4 Al2 B4 Ru3 Rh7'
_cell_volume   283.03648989
_cell_formula_units_Z   1
loop_
 _symmetry_equiv_pos_site_id
 _symmetry_equiv_pos_as_xyz
  1  'x, y, z'
loop_
 _atom_site_type_symbol
 _atom_site_label
 _atom_site_symmetry_multiplicity
 _atom_site_fract_x
 _atom_site_fract_y
 _atom_site_fract_z
 _atom_site_occupancy
  Er  Er0  1  0.828049  0.323473  0.000000  1
  Er  Er1  1  0.322150  0.175879  0.000000  1
  Er  Er2  1  0.675197  0.824943  0.000000  1
  Er  Er3  1  0.175458  0.674129  0.000000  1
  Al  Al4  1  0.000458  0.002928  0.000000  1
  Al  Al5  1  0.499314  0.500006  0.000000  1
  B  B6  1  0.621035  0.120518  0.000000  1
  B  B7  1  0.118671  0.373490  0.000000  1
  B  B8  1  0.880017  0.620386  0.000000  1
  B  B9  1  0.378841  0.879174  0.000000  1
  Ru  Ru10  1  0.070195  0.217822  0.500000  1
  Ru  Ru11  1  0.499799  0.999978  0.500000  1
  Ru  Ru12  1  0.000090  0.501935  0.500000  1
  Rh  Rh13  1  0.217085  0.928748  0.500000  1
  Rh  Rh14  1  0.782389  0.069670  0.500000  1
  Rh  Rh15  1  0.929520  0.784266  0.500000  1
  Rh  Rh16  1  0.430307  0.717247  0.500000  1
  Rh  Rh17  1  0.570682  0.282873  0.500000  1
  Rh  Rh18  1  0.716686  0.570860  0.500000  1
  Rh  Rh19  1  0.284057  0.431676  0.500000  1
