# generated using pymatgen
data_TbMg2(P3Pd10)2
_symmetry_space_group_name_H-M   'P 1'
_cell_length_a   8.61334784
_cell_length_b   8.61334802
_cell_length_c   8.61334700
_cell_angle_alpha   60.00000007
_cell_angle_beta   59.99999940
_cell_angle_gamma   59.99999583
_symmetry_Int_Tables_number   1
_chemical_formula_structural   TbMg2(P3Pd10)2
_chemical_formula_sum   'Tb1 Mg2 P6 Pd20'
_cell_volume   451.85689300
_cell_formula_units_Z   1
loop_
 _symmetry_equiv_pos_site_id
 _symmetry_equiv_pos_as_xyz
  1  'x, y, z'
loop_
 _atom_site_type_symbol
 _atom_site_label
 _atom_site_symmetry_multiplicity
 _atom_site_fract_x
 _atom_site_fract_y
 _atom_site_fract_z
 _atom_site_occupancy
  Tb  Tb0  1  0.750000  0.750000  0.750000  1
  Mg  Mg1  1  0.250000  0.250000  0.250000  1
  Mg  Mg2  1  0.000000  0.000000  0.000000  1
  P  P3  1  0.735496  0.264504  0.264504  1
  P  P4  1  0.264504  0.735496  0.735496  1
  P  P5  1  0.264504  0.735496  0.264504  1
  P  P6  1  0.735496  0.264504  0.735496  1
  P  P7  1  0.264504  0.264504  0.735496  1
  P  P8  1  0.735496  0.735496  0.264504  1
  Pd  Pd9  1  0.381055  0.381055  0.381055  1
  Pd  Pd10  1  0.613835  0.613835  0.613835  1
  Pd  Pd11  1  0.381055  0.381055  0.856834  1
  Pd  Pd12  1  0.381055  0.856834  0.381055  1
  Pd  Pd13  1  0.613835  0.613835  0.158496  1
  Pd  Pd14  1  0.613835  0.158496  0.613835  1
  Pd  Pd15  1  0.856834  0.381055  0.381055  1
  Pd  Pd16  1  0.158496  0.613835  0.613835  1
  Pd  Pd17  1  0.343994  0.999236  0.999236  1
  Pd  Pd18  1  0.657534  0.999236  0.999236  1
  Pd  Pd19  1  0.999236  0.343994  0.657534  1
  Pd  Pd20  1  0.999236  0.657534  0.343994  1
  Pd  Pd21  1  0.999236  0.343994  0.999236  1
  Pd  Pd22  1  0.657534  0.999236  0.343994  1
  Pd  Pd23  1  0.999236  0.657534  0.999236  1
  Pd  Pd24  1  0.343994  0.999236  0.657534  1
  Pd  Pd25  1  0.999236  0.999236  0.343994  1
  Pd  Pd26  1  0.999236  0.999236  0.657534  1
  Pd  Pd27  1  0.657534  0.343994  0.999236  1
  Pd  Pd28  1  0.343994  0.657534  0.999236  1
