# generated using pymatgen
data_Eu4Ta2MnNbO14
_symmetry_space_group_name_H-M   'P 1'
_cell_length_a   7.56587672
_cell_length_b   7.50513912
_cell_length_c   7.51005265
_cell_angle_alpha   59.10249140
_cell_angle_beta   59.75379971
_cell_angle_gamma   59.73193457
_symmetry_Int_Tables_number   1
_chemical_formula_structural   Eu4Ta2MnNbO14
_chemical_formula_sum   'Eu4 Ta2 Mn1 Nb1 O14'
_cell_volume   298.28895523
_cell_formula_units_Z   1
loop_
 _symmetry_equiv_pos_site_id
 _symmetry_equiv_pos_as_xyz
  1  'x, y, z'
loop_
 _atom_site_type_symbol
 _atom_site_label
 _atom_site_symmetry_multiplicity
 _atom_site_fract_x
 _atom_site_fract_y
 _atom_site_fract_z
 _atom_site_occupancy
  Eu  Eu0  1  0.125000  0.625000  0.125000  1
  Eu  Eu1  1  0.125000  0.125000  0.625000  1
  Eu  Eu2  1  0.625000  0.125000  0.125000  1
  Eu  Eu3  1  0.125000  0.125000  0.125000  1
  Ta  Ta4  1  0.625000  0.625000  0.625000  1
  Ta  Ta5  1  0.125000  0.625000  0.625000  1
  Mn  Mn6  1  0.625000  0.625000  0.125000  1
  Nb  Nb7  1  0.625000  0.125000  0.625000  1
  O  O8  1  0.309077  0.701079  0.680767  1
  O  O9  1  0.551424  0.950888  0.946264  1
  O  O10  1  0.707850  0.705049  0.305248  1
  O  O11  1  0.305965  0.304746  0.690544  1
  O  O12  1  0.999283  0.003440  0.997996  1
  O  O13  1  0.281853  0.705049  0.305248  1
  O  O14  1  0.698746  0.304746  0.690544  1
  O  O15  1  0.968147  0.544951  0.944752  1
  O  O16  1  0.542150  0.544951  0.944752  1
  O  O17  1  0.944035  0.945254  0.559456  1
  O  O18  1  0.250717  0.246560  0.252004  1
  O  O19  1  0.551254  0.945254  0.559456  1
  O  O20  1  0.698576  0.299112  0.303736  1
  O  O21  1  0.940923  0.548921  0.569233  1
