# generated using pymatgen
data_YbTm3TaOs7
_symmetry_space_group_name_H-M   'P 1'
_cell_length_a   5.42393400
_cell_length_b   5.42393245
_cell_length_c   8.57884800
_cell_angle_alpha   90.00000000
_cell_angle_beta   90.00000000
_cell_angle_gamma   119.99998504
_symmetry_Int_Tables_number   1
_chemical_formula_structural   YbTm3TaOs7
_chemical_formula_sum   'Yb1 Tm3 Ta1 Os7'
_cell_volume   218.56888603
_cell_formula_units_Z   1
loop_
 _symmetry_equiv_pos_site_id
 _symmetry_equiv_pos_as_xyz
  1  'x, y, z'
loop_
 _atom_site_type_symbol
 _atom_site_label
 _atom_site_symmetry_multiplicity
 _atom_site_fract_x
 _atom_site_fract_y
 _atom_site_fract_z
 _atom_site_occupancy
  Yb  Yb0  1  0.333333  0.666667  0.061035  1
  Tm  Tm1  1  0.333333  0.666667  0.422696  1
  Tm  Tm2  1  0.666667  0.333333  0.571283  1
  Tm  Tm3  1  0.666667  0.333333  0.941444  1
  Ta  Ta4  1  0.000000  0.000000  0.502966  1
  Os  Os5  1  0.000000  0.000000  0.999260  1
  Os  Os6  1  0.827030  0.172970  0.250531  1
  Os  Os7  1  0.827030  0.654060  0.250531  1
  Os  Os8  1  0.345940  0.172970  0.250531  1
  Os  Os9  1  0.174431  0.825569  0.749908  1
  Os  Os10  1  0.174431  0.348863  0.749908  1
  Os  Os11  1  0.651137  0.825569  0.749908  1
