# generated using pymatgen
data_Pr3Dy2P12Ru19
_symmetry_space_group_name_H-M   'P 1'
_cell_length_a   12.62373700
_cell_length_b   12.62373681
_cell_length_c   4.01149300
_cell_angle_alpha   90.00000000
_cell_angle_beta   90.00000000
_cell_angle_gamma   119.99999788
_symmetry_Int_Tables_number   1
_chemical_formula_structural   Pr3Dy2P12Ru19
_chemical_formula_sum   'Pr3 Dy2 P12 Ru19'
_cell_volume   553.62099178
_cell_formula_units_Z   1
loop_
 _symmetry_equiv_pos_site_id
 _symmetry_equiv_pos_as_xyz
  1  'x, y, z'
loop_
 _atom_site_type_symbol
 _atom_site_label
 _atom_site_symmetry_multiplicity
 _atom_site_fract_x
 _atom_site_fract_y
 _atom_site_fract_z
 _atom_site_occupancy
  Pr  Pr0  1  0.815777  0.000000  0.500000  1
  Pr  Pr1  1  0.184223  0.184223  0.500000  1
  Pr  Pr2  1  0.000000  0.815777  0.500000  1
  Dy  Dy3  1  0.666667  0.333333  0.000000  1
  Dy  Dy4  1  0.333333  0.666667  0.000000  1
  P  P5  1  0.624966  0.000000  0.000000  1
  P  P6  1  0.375034  0.375034  0.000000  1
  P  P7  1  0.000000  0.624966  0.000000  1
  P  P8  1  0.695073  0.521497  0.500000  1
  P  P9  1  0.826426  0.304927  0.500000  1
  P  P10  1  0.304927  0.826426  0.500000  1
  P  P11  1  0.521497  0.695073  0.500000  1
  P  P12  1  0.188564  0.000000  0.000000  1
  P  P13  1  0.811436  0.811436  0.000000  1
  P  P14  1  0.000000  0.188564  0.000000  1
  P  P15  1  0.478503  0.173574  0.500000  1
  P  P16  1  0.173574  0.478503  0.500000  1
  Ru  Ru17  1  0.618713  0.804196  0.000000  1
  Ru  Ru18  1  0.185482  0.381287  0.000000  1
  Ru  Ru19  1  0.381287  0.185482  0.000000  1
  Ru  Ru20  1  0.195804  0.814518  0.000000  1
  Ru  Ru21  1  0.804196  0.618713  0.000000  1
  Ru  Ru22  1  0.874240  0.506387  0.500000  1
  Ru  Ru23  1  0.493613  0.367853  0.500000  1
  Ru  Ru24  1  0.632147  0.125760  0.500000  1
  Ru  Ru25  1  0.125760  0.632147  0.500000  1
  Ru  Ru26  1  0.367853  0.493613  0.500000  1
  Ru  Ru27  1  0.506387  0.874240  0.500000  1
  Ru  Ru28  1  0.000000  0.000000  0.000000  1
  Ru  Ru29  1  0.713147  0.713147  0.500000  1
  Ru  Ru30  1  0.000000  0.286853  0.500000  1
  Ru  Ru31  1  0.445515  0.000000  0.000000  1
  Ru  Ru32  1  0.554485  0.554485  0.000000  1
  Ru  Ru33  1  0.000000  0.445515  0.000000  1
  Ru  Ru34  1  0.814518  0.195804  0.000000  1
  Ru  Ru35  1  0.286853  0.000000  0.500000  1
