# generated using pymatgen
data_Dy2Ho3Ru2
_symmetry_space_group_name_H-M   'P 1'
_cell_length_a   6.34355412
_cell_length_b   7.27082453
_cell_length_c   8.46562789
_cell_angle_alpha   96.68429517
_cell_angle_beta   112.00363354
_cell_angle_gamma   90.00000247
_symmetry_Int_Tables_number   1
_chemical_formula_structural   Dy2Ho3Ru2
_chemical_formula_sum   'Dy4 Ho6 Ru4'
_cell_volume   359.15382085
_cell_formula_units_Z   2
loop_
 _symmetry_equiv_pos_site_id
 _symmetry_equiv_pos_as_xyz
  1  'x, y, z'
loop_
 _atom_site_type_symbol
 _atom_site_label
 _atom_site_symmetry_multiplicity
 _atom_site_fract_x
 _atom_site_fract_y
 _atom_site_fract_z
 _atom_site_occupancy
  Dy  Dy0  1  0.978222  0.915896  0.187047  1
  Dy  Dy1  1  0.791174  0.584104  0.812953  1
  Dy  Dy2  1  0.021778  0.084104  0.812953  1
  Dy  Dy3  1  0.208826  0.415896  0.187047  1
  Ho  Ho4  1  0.640153  0.814984  0.434036  1
  Ho  Ho5  1  0.206117  0.685016  0.565964  1
  Ho  Ho6  1  0.359847  0.185016  0.565964  1
  Ho  Ho7  1  0.793883  0.314984  0.434036  1
  Ho  Ho8  1  0.420720  0.750000  0.000000  1
  Ho  Ho9  1  0.579280  0.250000  0.000000  1
  Ru  Ru10  1  0.823364  0.575725  0.220864  1
  Ru  Ru11  1  0.602499  0.924275  0.779136  1
  Ru  Ru12  1  0.176636  0.424275  0.779136  1
  Ru  Ru13  1  0.397501  0.075725  0.220864  1
