# generated using pymatgen
data_Pr8DyHo11Si16
_symmetry_space_group_name_H-M   'P 1'
_cell_length_a   7.52664702
_cell_length_b   7.80418401
_cell_length_c   14.82046702
_cell_angle_alpha   89.99728083
_cell_angle_beta   90.00523214
_cell_angle_gamma   90.00583025
_symmetry_Int_Tables_number   1
_chemical_formula_structural   Pr8DyHo11Si16
_chemical_formula_sum   'Pr8 Dy1 Ho11 Si16'
_cell_volume   870.54441722
_cell_formula_units_Z   1
loop_
 _symmetry_equiv_pos_site_id
 _symmetry_equiv_pos_as_xyz
  1  'x, y, z'
loop_
 _atom_site_type_symbol
 _atom_site_label
 _atom_site_symmetry_multiplicity
 _atom_site_fract_x
 _atom_site_fract_y
 _atom_site_fract_z
 _atom_site_occupancy
  Pr  Pr0  1  0.975910  0.820828  0.097919  1
  Pr  Pr1  1  0.475899  0.679166  0.402093  1
  Pr  Pr2  1  0.524090  0.320824  0.902100  1
  Pr  Pr3  1  0.024110  0.179172  0.597900  1
  Pr  Pr4  1  0.024125  0.179174  0.902099  1
  Pr  Pr5  1  0.524103  0.320839  0.597899  1
  Pr  Pr6  1  0.475881  0.679162  0.097922  1
  Pr  Pr7  1  0.975893  0.820837  0.402094  1
  Dy  Dy8  1  0.680900  0.821735  0.876725  1
  Ho  Ho9  1  0.649779  0.989615  0.249995  1
  Ho  Ho10  1  0.149782  0.510384  0.249992  1
  Ho  Ho11  1  0.850241  0.489563  0.749986  1
  Ho  Ho12  1  0.350205  0.010404  0.749988  1
  Ho  Ho13  1  0.180886  0.678228  0.623298  1
  Ho  Ho14  1  0.819113  0.321764  0.123305  1
  Ho  Ho15  1  0.319114  0.178233  0.376692  1
  Ho  Ho16  1  0.319114  0.178239  0.123312  1
  Ho  Ho17  1  0.819116  0.321769  0.376692  1
  Ho  Ho18  1  0.180881  0.678200  0.876696  1
  Ho  Ho19  1  0.680873  0.821782  0.623284  1
  Si  Si20  1  0.768928  0.620522  0.250002  1
  Si  Si21  1  0.268935  0.879472  0.250000  1
  Si  Si22  1  0.731090  0.120597  0.749966  1
  Si  Si23  1  0.231078  0.379491  0.749997  1
  Si  Si24  1  0.024184  0.112079  0.250001  1
  Si  Si25  1  0.524179  0.387925  0.250005  1
  Si  Si26  1  0.475728  0.612001  0.749962  1
  Si  Si27  1  0.975912  0.887950  0.749957  1
  Si  Si28  1  0.856098  0.531038  0.960043  1
  Si  Si29  1  0.356014  0.968883  0.539988  1
  Si  Si30  1  0.643956  0.031196  0.040042  1
  Si  Si31  1  0.143987  0.468882  0.460010  1
  Si  Si32  1  0.143984  0.468871  0.039991  1
  Si  Si33  1  0.643989  0.031120  0.460013  1
  Si  Si34  1  0.355918  0.968936  0.960040  1
  Si  Si35  1  0.856006  0.531119  0.539989  1
