# generated using pymatgen
data_Y6Er10Cd4OsPd3
_symmetry_space_group_name_H-M   'P 1'
_cell_length_a   9.68496778
_cell_length_b   9.68496702
_cell_length_c   9.68496639
_cell_angle_alpha   59.46904593
_cell_angle_beta   59.46904700
_cell_angle_gamma   59.46904567
_symmetry_Int_Tables_number   1
_chemical_formula_structural   Y6Er10Cd4OsPd3
_chemical_formula_sum   'Y6 Er10 Cd4 Os1 Pd3'
_cell_volume   634.60324508
_cell_formula_units_Z   1
loop_
 _symmetry_equiv_pos_site_id
 _symmetry_equiv_pos_as_xyz
  1  'x, y, z'
loop_
 _atom_site_type_symbol
 _atom_site_label
 _atom_site_symmetry_multiplicity
 _atom_site_fract_x
 _atom_site_fract_y
 _atom_site_fract_z
 _atom_site_occupancy
  Y  Y0  1  0.935234  0.565605  0.565605  1
  Y  Y1  1  0.558110  0.937769  0.937769  1
  Y  Y2  1  0.565605  0.935234  0.565605  1
  Y  Y3  1  0.937769  0.558110  0.937769  1
  Y  Y4  1  0.565605  0.565605  0.935234  1
  Y  Y5  1  0.937769  0.937769  0.558110  1
  Er  Er6  1  0.353185  0.353185  0.353185  1
  Er  Er7  1  0.350438  0.350438  0.944956  1
  Er  Er8  1  0.350438  0.944956  0.350438  1
  Er  Er9  1  0.944956  0.350438  0.350438  1
  Er  Er10  1  0.816653  0.188059  0.188059  1
  Er  Er11  1  0.187774  0.810796  0.810796  1
  Er  Er12  1  0.188059  0.816653  0.188059  1
  Er  Er13  1  0.810796  0.187774  0.810796  1
  Er  Er14  1  0.188059  0.188059  0.816653  1
  Er  Er15  1  0.810796  0.810796  0.187774  1
  Cd  Cd16  1  0.580368  0.580368  0.580368  1
  Cd  Cd17  1  0.580956  0.580956  0.254431  1
  Cd  Cd18  1  0.580956  0.254431  0.580956  1
  Cd  Cd19  1  0.254431  0.580956  0.580956  1
  Os  Os20  1  0.144002  0.144002  0.144002  1
  Pd  Pd21  1  0.144484  0.144484  0.569071  1
  Pd  Pd22  1  0.144484  0.569071  0.144484  1
  Pd  Pd23  1  0.569071  0.144484  0.144484  1
