# generated using pymatgen
data_Nd3Zr(Ga3Rh)6
_symmetry_space_group_name_H-M   'P 1'
_cell_length_a   7.62248745
_cell_length_b   7.59820234
_cell_length_c   9.57280500
_cell_angle_alpha   90.00000000
_cell_angle_beta   90.00000000
_cell_angle_gamma   119.68969739
_symmetry_Int_Tables_number   1
_chemical_formula_structural   Nd3Zr(Ga3Rh)6
_chemical_formula_sum   'Nd3 Zr1 Ga18 Rh6'
_cell_volume   481.64482777
_cell_formula_units_Z   1
loop_
 _symmetry_equiv_pos_site_id
 _symmetry_equiv_pos_as_xyz
  1  'x, y, z'
loop_
 _atom_site_type_symbol
 _atom_site_label
 _atom_site_symmetry_multiplicity
 _atom_site_fract_x
 _atom_site_fract_y
 _atom_site_fract_z
 _atom_site_occupancy
  Nd  Nd0  1  0.003521  0.330613  0.750000  1
  Nd  Nd1  1  0.668962  0.997294  0.250000  1
  Nd  Nd2  1  0.332016  0.003974  0.750000  1
  Zr  Zr3  1  0.996722  0.668910  0.250000  1
  Ga  Ga4  1  0.125378  0.122707  0.250000  1
  Ga  Ga5  1  0.871707  0.870406  0.750000  1
  Ga  Ga6  1  0.002195  0.341000  0.082696  1
  Ga  Ga7  1  0.998215  0.665658  0.927998  1
  Ga  Ga8  1  0.998215  0.665658  0.572002  1
  Ga  Ga9  1  0.328235  0.996412  0.417275  1
  Ga  Ga10  1  0.002195  0.341000  0.417304  1
  Ga  Ga11  1  0.665448  0.996522  0.577351  1
  Ga  Ga12  1  0.665448  0.996522  0.922649  1
  Ga  Ga13  1  0.328235  0.996412  0.082725  1
  Ga  Ga14  1  0.334949  0.334752  0.558664  1
  Ga  Ga15  1  0.670646  0.666054  0.433243  1
  Ga  Ga16  1  0.670646  0.666054  0.066757  1
  Ga  Ga17  1  0.334949  0.334752  0.941336  1
  Ga  Ga18  1  0.334692  0.546119  0.250000  1
  Ga  Ga19  1  0.661987  0.455653  0.750000  1
  Ga  Ga20  1  0.552093  0.343063  0.250000  1
  Ga  Ga21  1  0.453843  0.660693  0.750000  1
  Rh  Rh22  1  0.672051  0.329741  0.001894  1
  Rh  Rh23  1  0.328303  0.671404  0.002250  1
  Rh  Rh24  1  0.328303  0.671404  0.497750  1
  Rh  Rh25  1  0.672051  0.329741  0.498106  1
  Rh  Rh26  1  0.999500  0.998740  0.002004  1
  Rh  Rh27  1  0.999500  0.998740  0.497996  1
