# generated using pymatgen
data_Pr2Y3Ga4
_symmetry_space_group_name_H-M   'P 1'
_cell_length_a   7.67884800
_cell_length_b   8.06842300
_cell_length_c   15.38085500
_cell_angle_alpha   90.00000000
_cell_angle_beta   90.00000000
_cell_angle_gamma   90.00000000
_symmetry_Int_Tables_number   1
_chemical_formula_structural   Pr2Y3Ga4
_chemical_formula_sum   'Pr8 Y12 Ga16'
_cell_volume   952.93923345
_cell_formula_units_Z   4
loop_
 _symmetry_equiv_pos_site_id
 _symmetry_equiv_pos_as_xyz
  1  'x, y, z'
loop_
 _atom_site_type_symbol
 _atom_site_label
 _atom_site_symmetry_multiplicity
 _atom_site_fract_x
 _atom_site_fract_y
 _atom_site_fract_z
 _atom_site_occupancy
  Pr  Pr0  1  0.021543  0.180539  0.406245  1
  Pr  Pr1  1  0.521543  0.319461  0.406245  1
  Pr  Pr2  1  0.478457  0.680539  0.906245  1
  Pr  Pr3  1  0.478457  0.680539  0.593755  1
  Pr  Pr4  1  0.978457  0.819461  0.593755  1
  Pr  Pr5  1  0.978457  0.819461  0.906245  1
  Pr  Pr6  1  0.521543  0.319461  0.093755  1
  Pr  Pr7  1  0.021543  0.180539  0.093755  1
  Y  Y8  1  0.321274  0.175772  0.622062  1
  Y  Y9  1  0.678726  0.824228  0.377938  1
  Y  Y10  1  0.657608  0.985487  0.750000  1
  Y  Y11  1  0.178726  0.675772  0.377938  1
  Y  Y12  1  0.821274  0.324228  0.877938  1
  Y  Y13  1  0.821274  0.324228  0.622062  1
  Y  Y14  1  0.842392  0.485487  0.250000  1
  Y  Y15  1  0.342392  0.014513  0.250000  1
  Y  Y16  1  0.321274  0.175772  0.877938  1
  Y  Y17  1  0.178726  0.675772  0.122062  1
  Y  Y18  1  0.678726  0.824228  0.122062  1
  Y  Y19  1  0.157608  0.514513  0.750000  1
  Ga  Ga20  1  0.268456  0.879033  0.750000  1
  Ga  Ga21  1  0.473457  0.612006  0.250000  1
  Ga  Ga22  1  0.026543  0.112006  0.750000  1
  Ga  Ga23  1  0.526543  0.387994  0.750000  1
  Ga  Ga24  1  0.151614  0.470532  0.541391  1
  Ga  Ga25  1  0.973457  0.887994  0.250000  1
  Ga  Ga26  1  0.731544  0.120967  0.250000  1
  Ga  Ga27  1  0.848386  0.529468  0.041391  1
  Ga  Ga28  1  0.348386  0.970532  0.041391  1
  Ga  Ga29  1  0.151614  0.470532  0.958609  1
  Ga  Ga30  1  0.651614  0.029468  0.541391  1
  Ga  Ga31  1  0.348386  0.970532  0.458609  1
  Ga  Ga32  1  0.848386  0.529468  0.458609  1
  Ga  Ga33  1  0.768456  0.620967  0.750000  1
  Ga  Ga34  1  0.231544  0.379033  0.250000  1
  Ga  Ga35  1  0.651614  0.029468  0.958609  1
