# generated using pymatgen
data_Ir3Rh3W2
_symmetry_space_group_name_H-M   'P 1'
_cell_length_a   5.53561000
_cell_length_b   5.53645709
_cell_length_c   4.41215700
_cell_angle_alpha   90.00000000
_cell_angle_beta   90.00000000
_cell_angle_gamma   119.99493884
_symmetry_Int_Tables_number   1
_chemical_formula_structural   Ir3Rh3W2
_chemical_formula_sum   'Ir3 Rh3 W2'
_cell_volume   117.11193584
_cell_formula_units_Z   1
loop_
 _symmetry_equiv_pos_site_id
 _symmetry_equiv_pos_as_xyz
  1  'x, y, z'
loop_
 _atom_site_type_symbol
 _atom_site_label
 _atom_site_symmetry_multiplicity
 _atom_site_fract_x
 _atom_site_fract_y
 _atom_site_fract_z
 _atom_site_occupancy
  Ir  Ir0  1  0.834068  0.668135  0.250000  1
  Ir  Ir1  1  0.165761  0.833738  0.750000  1
  Ir  Ir2  1  0.667975  0.833738  0.750000  1
  Rh  Rh3  1  0.333658  0.166720  0.250000  1
  Rh  Rh4  1  0.833063  0.166720  0.250000  1
  Rh  Rh5  1  0.166727  0.333455  0.750000  1
  W  W6  1  0.332788  0.665577  0.250000  1
  W  W7  1  0.665959  0.331917  0.750000  1
