# generated using pymatgen
data_Hf3Si4Tc(IrRh)2
_symmetry_space_group_name_H-M   'P 1'
_cell_length_a   3.90958100
_cell_length_b   6.40627063
_cell_length_c   7.36612914
_cell_angle_alpha   90.89307122
_cell_angle_beta   90.00000000
_cell_angle_gamma   90.00000000
_symmetry_Int_Tables_number   1
_chemical_formula_structural   Hf3Si4Tc(IrRh)2
_chemical_formula_sum   'Hf3 Si4 Tc1 Ir2 Rh2'
_cell_volume   184.46843594
_cell_formula_units_Z   1
loop_
 _symmetry_equiv_pos_site_id
 _symmetry_equiv_pos_as_xyz
  1  'x, y, z'
loop_
 _atom_site_type_symbol
 _atom_site_label
 _atom_site_symmetry_multiplicity
 _atom_site_fract_x
 _atom_site_fract_y
 _atom_site_fract_z
 _atom_site_occupancy
  Hf  Hf0  1  0.750000  0.478188  0.825525  1
  Hf  Hf1  1  0.250000  0.019367  0.311636  1
  Hf  Hf2  1  0.750000  0.967706  0.678797  1
  Si  Si3  1  0.250000  0.770227  0.894916  1
  Si  Si4  1  0.750000  0.249041  0.126705  1
  Si  Si5  1  0.250000  0.270439  0.619837  1
  Si  Si6  1  0.750000  0.702716  0.358956  1
  Tc  Tc7  1  0.250000  0.532423  0.177683  1
  Ir  Ir8  1  0.250000  0.154086  0.935989  1
  Ir  Ir9  1  0.250000  0.652920  0.564061  1
  Rh  Rh10  1  0.750000  0.860162  0.064974  1
  Rh  Rh11  1  0.750000  0.342724  0.440920  1
