# generated using pymatgen
data_Sr10CoTc3N14
_symmetry_space_group_name_H-M   'P 1'
_cell_length_a   6.41776086
_cell_length_b   9.11524057
_cell_length_c   9.28586679
_cell_angle_alpha   114.12644478
_cell_angle_beta   99.00460670
_cell_angle_gamma   89.91027690
_symmetry_Int_Tables_number   1
_chemical_formula_structural   Sr10CoTc3N14
_chemical_formula_sum   'Sr10 Co1 Tc3 N14'
_cell_volume   488.48052181
_cell_formula_units_Z   1
loop_
 _symmetry_equiv_pos_site_id
 _symmetry_equiv_pos_as_xyz
  1  'x, y, z'
loop_
 _atom_site_type_symbol
 _atom_site_label
 _atom_site_symmetry_multiplicity
 _atom_site_fract_x
 _atom_site_fract_y
 _atom_site_fract_z
 _atom_site_occupancy
  Sr  Sr0  1  0.859512  0.584293  0.337583  1
  Sr  Sr1  1  0.270573  0.991104  0.563237  1
  Sr  Sr2  1  0.692040  0.397690  0.833081  1
  Sr  Sr3  1  0.294858  0.586348  0.144955  1
  Sr  Sr4  1  0.397399  0.786592  0.910312  1
  Sr  Sr5  1  0.607004  0.214488  0.106945  1
  Sr  Sr6  1  0.137976  0.406941  0.653212  1
  Sr  Sr7  1  0.883640  0.841344  0.760813  1
  Sr  Sr8  1  0.126907  0.167151  0.250739  1
  Sr  Sr9  1  0.728567  0.038185  0.430868  1
  Co  Co10  1  0.581521  0.370708  0.480325  1
  Tc  Tc11  1  0.425509  0.637773  0.522928  1
  Tc  Tc12  1  0.120847  0.215537  0.913285  1
  Tc  Tc13  1  0.876491  0.775380  0.084957  1
  N  N14  1  0.564675  0.565501  0.674886  1
  N  N15  1  0.435323  0.446627  0.331707  1
  N  N16  1  0.164596  0.702081  0.582215  1
  N  N17  1  0.833320  0.296112  0.404188  1
  N  N18  1  0.424097  0.208403  0.504884  1
  N  N19  1  0.586128  0.800795  0.516015  1
  N  N20  1  0.951557  0.140930  0.714355  1
  N  N21  1  0.046252  0.845215  0.282705  1
  N  N22  1  0.226544  0.050121  0.962201  1
  N  N23  1  0.768121  0.944589  0.043637  1
  N  N24  1  0.351084  0.330166  0.907912  1
  N  N25  1  0.973749  0.345667  0.068718  1
  N  N26  1  0.025752  0.653024  0.925859  1
  N  N27  1  0.645956  0.657235  0.087478  1
