# generated using pymatgen
data_Tb3Sc3Si2Ru
_symmetry_space_group_name_H-M   'P 1'
_cell_length_a   7.44464400
_cell_length_b   7.44464278
_cell_length_c   4.24133500
_cell_angle_alpha   90.00000000
_cell_angle_beta   90.00000000
_cell_angle_gamma   119.99999651
_symmetry_Int_Tables_number   1
_chemical_formula_structural   Tb3Sc3Si2Ru
_chemical_formula_sum   'Tb3 Sc3 Si2 Ru1'
_cell_volume   203.57339620
_cell_formula_units_Z   1
loop_
 _symmetry_equiv_pos_site_id
 _symmetry_equiv_pos_as_xyz
  1  'x, y, z'
loop_
 _atom_site_type_symbol
 _atom_site_label
 _atom_site_symmetry_multiplicity
 _atom_site_fract_x
 _atom_site_fract_y
 _atom_site_fract_z
 _atom_site_occupancy
  Tb  Tb0  1  0.416819  0.000000  0.000000  1
  Tb  Tb1  1  0.000000  0.416819  0.000000  1
  Tb  Tb2  1  0.583181  0.583182  0.000000  1
  Sc  Sc3  1  0.759073  0.000000  0.500000  1
  Sc  Sc4  1  0.240927  0.240927  0.500000  1
  Sc  Sc5  1  0.000000  0.759072  0.500000  1
  Si  Si6  1  0.666666  0.333333  0.500000  1
  Si  Si7  1  0.333333  0.666666  0.500000  1
  Ru  Ru8  1  0.000000  0.000000  0.000000  1
