# generated using pymatgen
data_Tb8Hg2PdRh
_symmetry_space_group_name_H-M   'P 1'
_cell_length_a   9.66848354
_cell_length_b   9.65463175
_cell_length_c   9.66848191
_cell_angle_alpha   60.04738061
_cell_angle_beta   60.17636480
_cell_angle_gamma   60.04738464
_symmetry_Int_Tables_number   1
_chemical_formula_structural   Tb8Hg2PdRh
_chemical_formula_sum   'Tb16 Hg4 Pd2 Rh2'
_cell_volume   639.47619538
_cell_formula_units_Z   2
loop_
 _symmetry_equiv_pos_site_id
 _symmetry_equiv_pos_as_xyz
  1  'x, y, z'
loop_
 _atom_site_type_symbol
 _atom_site_label
 _atom_site_symmetry_multiplicity
 _atom_site_fract_x
 _atom_site_fract_y
 _atom_site_fract_z
 _atom_site_occupancy
  Tb  Tb0  1  0.809864  0.809663  0.194096  1
  Tb  Tb1  1  0.808568  0.191432  0.808568  1
  Tb  Tb2  1  0.194096  0.186375  0.809864  1
  Tb  Tb3  1  0.646569  0.053948  0.646569  1
  Tb  Tb4  1  0.062736  0.065338  0.434793  1
  Tb  Tb5  1  0.434793  0.437134  0.062736  1
  Tb  Tb6  1  0.646569  0.652914  0.646569  1
  Tb  Tb7  1  0.809864  0.186375  0.194096  1
  Tb  Tb8  1  0.194096  0.809663  0.809864  1
  Tb  Tb9  1  0.064734  0.647769  0.639727  1
  Tb  Tb10  1  0.434793  0.065338  0.062736  1
  Tb  Tb11  1  0.435071  0.064929  0.435071  1
  Tb  Tb12  1  0.063324  0.436676  0.063324  1
  Tb  Tb13  1  0.639727  0.647769  0.064734  1
  Tb  Tb14  1  0.188663  0.811337  0.188663  1
  Tb  Tb15  1  0.062736  0.437134  0.434793  1
  Hg  Hg16  1  0.414817  0.413531  0.414817  1
  Hg  Hg17  1  0.415560  0.413944  0.756550  1
  Hg  Hg18  1  0.414817  0.756832  0.414817  1
  Hg  Hg19  1  0.756550  0.413944  0.415560  1
  Pd  Pd20  1  0.856873  0.433190  0.856873  1
  Pd  Pd21  1  0.856873  0.853067  0.856873  1
  Rh  Rh22  1  0.858322  0.855849  0.429980  1
  Rh  Rh23  1  0.429980  0.855849  0.858322  1
