# generated using pymatgen
data_Dy3Si4Ge
_symmetry_space_group_name_H-M   'P 1'
_cell_length_a   6.72797224
_cell_length_b   6.72797182
_cell_length_c   8.27735400
_cell_angle_alpha   90.00000000
_cell_angle_beta   90.00000000
_cell_angle_gamma   119.93035461
_symmetry_Int_Tables_number   1
_chemical_formula_structural   Dy3Si4Ge
_chemical_formula_sum   'Dy6 Si8 Ge2'
_cell_volume   324.70940883
_cell_formula_units_Z   2
loop_
 _symmetry_equiv_pos_site_id
 _symmetry_equiv_pos_as_xyz
  1  'x, y, z'
loop_
 _atom_site_type_symbol
 _atom_site_label
 _atom_site_symmetry_multiplicity
 _atom_site_fract_x
 _atom_site_fract_y
 _atom_site_fract_z
 _atom_site_occupancy
  Dy  Dy0  1  0.672179  0.672179  0.000000  1
  Dy  Dy1  1  0.328842  0.994615  0.999082  1
  Dy  Dy2  1  0.994615  0.328842  0.000918  1
  Dy  Dy3  1  0.672179  0.672179  0.500000  1
  Dy  Dy4  1  0.328842  0.994615  0.500918  1
  Dy  Dy5  1  0.994615  0.328842  0.499082  1
  Si  Si6  1  0.668568  0.331943  0.750000  1
  Si  Si7  1  0.331943  0.668568  0.250000  1
  Si  Si8  1  0.996540  0.996490  0.750000  1
  Si  Si9  1  0.996490  0.996540  0.250000  1
  Si  Si10  1  0.623493  0.954656  0.750000  1
  Si  Si11  1  0.045311  0.668118  0.750000  1
  Si  Si12  1  0.954656  0.623493  0.250000  1
  Si  Si13  1  0.668118  0.045311  0.250000  1
  Ge  Ge14  1  0.330840  0.392770  0.750000  1
  Ge  Ge15  1  0.392770  0.330840  0.250000  1
