# generated using pymatgen
data_Dy2Be23Cu3
_symmetry_space_group_name_H-M   'P 1'
_cell_length_a   7.31783478
_cell_length_b   7.31086220
_cell_length_c   7.31385533
_cell_angle_alpha   60.04953052
_cell_angle_beta   59.95494027
_cell_angle_gamma   59.62144337
_symmetry_Int_Tables_number   1
_chemical_formula_structural   Dy2Be23Cu3
_chemical_formula_sum   'Dy2 Be23 Cu3'
_cell_volume   275.89170515
_cell_formula_units_Z   1
loop_
 _symmetry_equiv_pos_site_id
 _symmetry_equiv_pos_as_xyz
  1  'x, y, z'
loop_
 _atom_site_type_symbol
 _atom_site_label
 _atom_site_symmetry_multiplicity
 _atom_site_fract_x
 _atom_site_fract_y
 _atom_site_fract_z
 _atom_site_occupancy
  Dy  Dy0  1  0.251753  0.250900  0.248826  1
  Dy  Dy1  1  0.749100  0.748247  0.751480  1
  Be  Be2  1  0.501698  0.498302  0.499815  1
  Be  Be3  1  0.000108  0.999892  0.001162  1
  Be  Be4  1  0.062533  0.937467  0.286649  1
  Be  Be5  1  0.930369  0.069631  0.710924  1
  Be  Be6  1  0.935805  0.291153  0.067346  1
  Be  Be7  1  0.708847  0.064195  0.294305  1
  Be  Be8  1  0.567103  0.786718  0.439005  1
  Be  Be9  1  0.434667  0.783057  0.209721  1
  Be  Be10  1  0.784244  0.437463  0.564540  1
  Be  Be11  1  0.440879  0.208903  0.563599  1
  Be  Be12  1  0.791097  0.559121  0.213381  1
  Be  Be13  1  0.562537  0.215756  0.786248  1
  Be  Be14  1  0.213282  0.432897  0.792826  1
  Be  Be15  1  0.216943  0.565333  0.427445  1
  Be  Be16  1  0.704156  0.295844  0.937403  1
  Be  Be17  1  0.295415  0.062060  0.935903  1
  Be  Be18  1  0.296761  0.933590  0.711091  1
  Be  Be19  1  0.066410  0.703239  0.941442  1
  Be  Be20  1  0.937940  0.704585  0.293378  1
  Be  Be21  1  0.293385  0.706615  0.063187  1
  Be  Be22  1  0.565420  0.434580  0.209367  1
  Be  Be23  1  0.792987  0.207013  0.436768  1
  Be  Be24  1  0.433998  0.566002  0.789786  1
  Cu  Cu25  1  0.200117  0.799883  0.561511  1
  Cu  Cu26  1  0.061982  0.299538  0.700686  1
  Cu  Cu27  1  0.700462  0.938018  0.062206  1
