# generated using pymatgen
data_Ho10Ga3BiIrPb
_symmetry_space_group_name_H-M   'P 1'
_cell_length_a   8.67035516
_cell_length_b   8.67035377
_cell_length_c   8.78059800
_cell_angle_alpha   125.46002206
_cell_angle_beta   125.46002752
_cell_angle_gamma   80.14217480
_symmetry_Int_Tables_number   1
_chemical_formula_structural   Ho10Ga3BiIrPb
_chemical_formula_sum   'Ho10 Ga3 Bi1 Ir1 Pb1'
_cell_volume   424.10759491
_cell_formula_units_Z   1
loop_
 _symmetry_equiv_pos_site_id
 _symmetry_equiv_pos_as_xyz
  1  'x, y, z'
loop_
 _atom_site_type_symbol
 _atom_site_label
 _atom_site_symmetry_multiplicity
 _atom_site_fract_x
 _atom_site_fract_y
 _atom_site_fract_z
 _atom_site_occupancy
  Ho  Ho0  1  0.998391  0.998736  0.003501  1
  Ho  Ho1  1  0.501264  0.501609  0.996499  1
  Ho  Ho2  1  0.014018  0.503896  0.800363  1
  Ho  Ho3  1  0.717951  0.199476  0.199943  1
  Ho  Ho4  1  0.517844  0.706081  0.503013  1
  Ho  Ho5  1  0.192105  0.036600  0.496604  1
  Ho  Ho6  1  0.996104  0.485982  0.199637  1
  Ho  Ho7  1  0.300524  0.782049  0.800057  1
  Ho  Ho8  1  0.463400  0.307895  0.503396  1
  Ho  Ho9  1  0.793919  0.982156  0.496987  1
  Ga  Ga10  1  0.359581  0.856420  0.215966  1
  Ga  Ga11  1  0.643580  0.140419  0.784034  1
  Ga  Ga12  1  0.864416  0.635584  0.500000  1
  Bi  Bi13  1  0.255642  0.244358  0.000000  1
  Ir  Ir14  1  0.126185  0.373815  0.500000  1
  Pb  Pb15  1  0.755079  0.744921  0.000000  1
