# generated using pymatgen
data_YFe3P3Ir2
_symmetry_space_group_name_H-M   'P 1'
_cell_length_a   3.80073500
_cell_length_b   10.26186600
_cell_length_c   12.19399300
_cell_angle_alpha   90.00000000
_cell_angle_beta   90.00000000
_cell_angle_gamma   90.00000000
_symmetry_Int_Tables_number   1
_chemical_formula_structural   YFe3P3Ir2
_chemical_formula_sum   'Y4 Fe12 P12 Ir8'
_cell_volume   475.59783709
_cell_formula_units_Z   4
loop_
 _symmetry_equiv_pos_site_id
 _symmetry_equiv_pos_as_xyz
  1  'x, y, z'
loop_
 _atom_site_type_symbol
 _atom_site_label
 _atom_site_symmetry_multiplicity
 _atom_site_fract_x
 _atom_site_fract_y
 _atom_site_fract_z
 _atom_site_occupancy
  Y  Y0  1  0.250000  0.581172  0.712605  1
  Y  Y1  1  0.250000  0.918828  0.212605  1
  Y  Y2  1  0.750000  0.418828  0.287395  1
  Y  Y3  1  0.750000  0.081172  0.787395  1
  Fe  Fe4  1  0.250000  0.223523  0.170804  1
  Fe  Fe5  1  0.250000  0.276477  0.670804  1
  Fe  Fe6  1  0.750000  0.776477  0.829196  1
  Fe  Fe7  1  0.750000  0.723523  0.329196  1
  Fe  Fe8  1  0.250000  0.877675  0.695652  1
  Fe  Fe9  1  0.250000  0.622325  0.195652  1
  Fe  Fe10  1  0.750000  0.122325  0.304348  1
  Fe  Fe11  1  0.750000  0.377675  0.804348  1
  Fe  Fe12  1  0.250000  0.458063  0.937320  1
  Fe  Fe13  1  0.250000  0.041937  0.437320  1
  Fe  Fe14  1  0.750000  0.541937  0.062680  1
  Fe  Fe15  1  0.750000  0.958063  0.562680  1
  P  P16  1  0.250000  0.428508  0.113286  1
  P  P17  1  0.250000  0.071492  0.613286  1
  P  P18  1  0.750000  0.571492  0.886714  1
  P  P19  1  0.750000  0.928508  0.386714  1
  P  P20  1  0.250000  0.273499  0.852466  1
  P  P21  1  0.250000  0.226501  0.352466  1
  P  P22  1  0.750000  0.726501  0.147534  1
  P  P23  1  0.750000  0.773499  0.647534  1
  P  P24  1  0.250000  0.604346  0.375644  1
  P  P25  1  0.250000  0.895654  0.875644  1
  P  P26  1  0.750000  0.395654  0.624356  1
  P  P27  1  0.750000  0.104346  0.124356  1
  Ir  Ir28  1  0.250000  0.708858  0.983863  1
  Ir  Ir29  1  0.250000  0.791142  0.483863  1
  Ir  Ir30  1  0.750000  0.291142  0.016137  1
  Ir  Ir31  1  0.750000  0.208858  0.516137  1
  Ir  Ir32  1  0.250000  0.405221  0.476826  1
  Ir  Ir33  1  0.250000  0.094779  0.976826  1
  Ir  Ir34  1  0.750000  0.594779  0.523174  1
  Ir  Ir35  1  0.750000  0.905221  0.023174  1
