# generated using pymatgen
data_Ca7Pu(Si3Ni)4
_symmetry_space_group_name_H-M   'P 1'
_cell_length_a   8.04983900
_cell_length_b   8.04983869
_cell_length_c   8.47124000
_cell_angle_alpha   90.00000000
_cell_angle_beta   90.00000000
_cell_angle_gamma   119.99999717
_symmetry_Int_Tables_number   1
_chemical_formula_structural   Ca7Pu(Si3Ni)4
_chemical_formula_sum   'Ca7 Pu1 Si12 Ni4'
_cell_volume   475.39214561
_cell_formula_units_Z   1
loop_
 _symmetry_equiv_pos_site_id
 _symmetry_equiv_pos_as_xyz
  1  'x, y, z'
loop_
 _atom_site_type_symbol
 _atom_site_label
 _atom_site_symmetry_multiplicity
 _atom_site_fract_x
 _atom_site_fract_y
 _atom_site_fract_z
 _atom_site_occupancy
  Ca  Ca0  1  0.499901  0.500099  0.750000  1
  Ca  Ca1  1  0.500099  0.499901  0.250000  1
  Ca  Ca2  1  0.000199  0.500099  0.750000  1
  Ca  Ca3  1  0.999803  0.499901  0.250000  1
  Ca  Ca4  1  0.499901  0.999801  0.750000  1
  Ca  Ca5  1  0.500099  0.000197  0.250000  1
  Ca  Ca6  1  0.000000  0.000000  0.750000  1
  Pu  Pu7  1  0.000000  0.000000  0.250000  1
  Si  Si8  1  0.829835  0.170165  0.004889  1
  Si  Si9  1  0.170165  0.829835  0.005095  1
  Si  Si10  1  0.340332  0.170165  0.004889  1
  Si  Si11  1  0.170165  0.829835  0.494905  1
  Si  Si12  1  0.659670  0.829835  0.005095  1
  Si  Si13  1  0.829835  0.170165  0.495111  1
  Si  Si14  1  0.829835  0.659668  0.004889  1
  Si  Si15  1  0.659670  0.829835  0.494905  1
  Si  Si16  1  0.170165  0.340330  0.005095  1
  Si  Si17  1  0.340332  0.170165  0.495111  1
  Si  Si18  1  0.170165  0.340330  0.494905  1
  Si  Si19  1  0.829835  0.659668  0.495111  1
  Ni  Ni20  1  0.666667  0.333333  0.997992  1
  Ni  Ni21  1  0.333333  0.666667  0.998311  1
  Ni  Ni22  1  0.333333  0.666667  0.501689  1
  Ni  Ni23  1  0.666667  0.333333  0.502008  1
