# generated using pymatgen
data_Dy2AlZnPtRh
_symmetry_space_group_name_H-M   'P 1'
_cell_length_a   4.20775100
_cell_length_b   6.91161794
_cell_length_c   8.03116783
_cell_angle_alpha   91.29710612
_cell_angle_beta   90.00000000
_cell_angle_gamma   90.00000000
_symmetry_Int_Tables_number   1
_chemical_formula_structural   Dy2AlZnPtRh
_chemical_formula_sum   'Dy4 Al2 Zn2 Pt2 Rh2'
_cell_volume   233.50552266
_cell_formula_units_Z   2
loop_
 _symmetry_equiv_pos_site_id
 _symmetry_equiv_pos_as_xyz
  1  'x, y, z'
loop_
 _atom_site_type_symbol
 _atom_site_label
 _atom_site_symmetry_multiplicity
 _atom_site_fract_x
 _atom_site_fract_y
 _atom_site_fract_z
 _atom_site_occupancy
  Dy  Dy0  1  0.250000  0.535227  0.185111  1
  Dy  Dy1  1  0.750000  0.464773  0.814889  1
  Dy  Dy2  1  0.250000  0.041715  0.318641  1
  Dy  Dy3  1  0.750000  0.958285  0.681359  1
  Al  Al4  1  0.250000  0.134414  0.940480  1
  Al  Al5  1  0.750000  0.865586  0.059520  1
  Zn  Zn6  1  0.250000  0.638135  0.566004  1
  Zn  Zn7  1  0.750000  0.361865  0.433996  1
  Pt  Pt8  1  0.750000  0.745714  0.368948  1
  Pt  Pt9  1  0.250000  0.254286  0.631052  1
  Rh  Rh10  1  0.750000  0.237238  0.107700  1
  Rh  Rh11  1  0.250000  0.762762  0.892300  1
