# generated using pymatgen
data_Ac3Ga2Rh3
_symmetry_space_group_name_H-M   'P 1'
_cell_length_a   6.39975100
_cell_length_b   8.05786400
_cell_length_c   15.27489600
_cell_angle_alpha   90.00000000
_cell_angle_beta   90.00000000
_cell_angle_gamma   90.00000000
_symmetry_Int_Tables_number   1
_chemical_formula_structural   Ac3Ga2Rh3
_chemical_formula_sum   'Ac12 Ga8 Rh12'
_cell_volume   787.70077365
_cell_formula_units_Z   4
loop_
 _symmetry_equiv_pos_site_id
 _symmetry_equiv_pos_as_xyz
  1  'x, y, z'
loop_
 _atom_site_type_symbol
 _atom_site_label
 _atom_site_symmetry_multiplicity
 _atom_site_fract_x
 _atom_site_fract_y
 _atom_site_fract_z
 _atom_site_occupancy
  Ac  Ac0  1  0.159252  0.485770  0.894182  1
  Ac  Ac1  1  0.340748  0.985770  0.894182  1
  Ac  Ac2  1  0.624201  0.346179  0.750000  1
  Ac  Ac3  1  0.375799  0.653821  0.250000  1
  Ac  Ac4  1  0.659252  0.014230  0.394182  1
  Ac  Ac5  1  0.840748  0.514230  0.105818  1
  Ac  Ac6  1  0.840748  0.514230  0.394182  1
  Ac  Ac7  1  0.340748  0.985770  0.605818  1
  Ac  Ac8  1  0.875799  0.846179  0.750000  1
  Ac  Ac9  1  0.159252  0.485770  0.605818  1
  Ac  Ac10  1  0.659252  0.014230  0.105818  1
  Ac  Ac11  1  0.124201  0.153821  0.250000  1
  Ga  Ga12  1  0.362185  0.359351  0.093758  1
  Ga  Ga13  1  0.637815  0.640649  0.906242  1
  Ga  Ga14  1  0.862185  0.140649  0.906242  1
  Ga  Ga15  1  0.362185  0.359351  0.406242  1
  Ga  Ga16  1  0.862185  0.140649  0.593758  1
  Ga  Ga17  1  0.637815  0.640649  0.593758  1
  Ga  Ga18  1  0.137815  0.859351  0.406242  1
  Ga  Ga19  1  0.137815  0.859351  0.093758  1
  Rh  Rh20  1  0.587628  0.341127  0.955970  1
  Rh  Rh21  1  0.412372  0.658873  0.044030  1
  Rh  Rh22  1  0.567388  0.307579  0.250000  1
  Rh  Rh23  1  0.412372  0.658873  0.455970  1
  Rh  Rh24  1  0.067388  0.192421  0.750000  1
  Rh  Rh25  1  0.087628  0.158873  0.455970  1
  Rh  Rh26  1  0.432612  0.692421  0.750000  1
  Rh  Rh27  1  0.932612  0.807579  0.250000  1
  Rh  Rh28  1  0.087628  0.158873  0.044030  1
  Rh  Rh29  1  0.587628  0.341127  0.544030  1
  Rh  Rh30  1  0.912372  0.841127  0.544030  1
  Rh  Rh31  1  0.912372  0.841127  0.955970  1
