# generated using pymatgen
data_La17Pr3Si15Hg
_symmetry_space_group_name_H-M   'P 1'
_cell_length_a   8.06013981
_cell_length_b   8.04990275
_cell_length_c   15.51690108
_cell_angle_alpha   90.02704912
_cell_angle_beta   89.67065506
_cell_angle_gamma   89.87706953
_symmetry_Int_Tables_number   1
_chemical_formula_structural   La17Pr3Si15Hg
_chemical_formula_sum   'La17 Pr3 Si15 Hg1'
_cell_volume   1006.76932603
_cell_formula_units_Z   1
loop_
 _symmetry_equiv_pos_site_id
 _symmetry_equiv_pos_as_xyz
  1  'x, y, z'
loop_
 _atom_site_type_symbol
 _atom_site_label
 _atom_site_symmetry_multiplicity
 _atom_site_fract_x
 _atom_site_fract_y
 _atom_site_fract_z
 _atom_site_occupancy
  La  La0  1  0.308196  0.309179  0.999776  1
  La  La1  1  0.195606  0.807311  0.249847  1
  La  La2  1  0.796211  0.187026  0.753560  1
  La  La3  1  0.691930  0.687230  0.497731  1
  La  La4  1  0.374587  0.012671  0.448063  1
  La  La5  1  0.493511  0.869378  0.698665  1
  La  La6  1  0.510738  0.121472  0.198086  1
  La  La7  1  0.878517  0.488852  0.300600  1
  La  La8  1  0.118925  0.519835  0.803452  1
  La  La9  1  0.626284  0.986493  0.951367  1
  La  La10  1  0.000962  0.384961  0.547212  1
  La  La11  1  0.990163  0.624310  0.053046  1
  La  La12  1  0.129190  0.982679  0.879473  1
  La  La13  1  0.519729  0.629397  0.127317  1
  La  La14  1  0.488982  0.376506  0.625840  1
  La  La15  1  0.629620  0.521158  0.876613  1
  La  La16  1  0.373260  0.483493  0.371593  1
  Pr  Pr17  1  0.873481  0.018968  0.375252  1
  Pr  Pr18  1  0.982876  0.126650  0.124833  1
  Pr  Pr19  1  0.008119  0.861396  0.620091  1
  Si  Si20  1  0.331469  0.697272  0.953962  1
  Si  Si21  1  0.663852  0.299342  0.450156  1
  Si  Si22  1  0.700532  0.332330  0.049933  1
  Si  Si23  1  0.302920  0.670647  0.546180  1
  Si  Si24  1  0.806857  0.833020  0.203157  1
  Si  Si25  1  0.166972  0.196503  0.298163  1
  Si  Si26  1  0.835254  0.803578  0.797615  1
  Si  Si27  1  0.288098  0.922498  0.060204  1
  Si  Si28  1  0.582807  0.791669  0.309435  1
  Si  Si29  1  0.431168  0.209700  0.814662  1
  Si  Si30  1  0.788779  0.579415  0.691740  1
  Si  Si31  1  0.209938  0.418748  0.190778  1
  Si  Si32  1  0.709257  0.078389  0.557755  1
  Si  Si33  1  0.921623  0.289044  0.942707  1
  Si  Si34  1  0.079894  0.715298  0.439496  1
  Hg  Hg35  1  0.189689  0.163586  0.691642  1
