# generated using pymatgen
data_Y3Ho5Cd2IrPd
_symmetry_space_group_name_H-M   'P 1'
_cell_length_a   9.65856846
_cell_length_b   9.65856842
_cell_length_c   9.63112400
_cell_angle_alpha   60.09399546
_cell_angle_beta   60.09399472
_cell_angle_gamma   60.26877143
_symmetry_Int_Tables_number   1
_chemical_formula_structural   Y3Ho5Cd2IrPd
_chemical_formula_sum   'Y6 Ho10 Cd4 Ir2 Pd2'
_cell_volume   637.49967338
_cell_formula_units_Z   2
loop_
 _symmetry_equiv_pos_site_id
 _symmetry_equiv_pos_as_xyz
  1  'x, y, z'
loop_
 _atom_site_type_symbol
 _atom_site_label
 _atom_site_symmetry_multiplicity
 _atom_site_fract_x
 _atom_site_fract_y
 _atom_site_fract_z
 _atom_site_occupancy
  Y  Y0  1  0.937301  0.565435  0.561638  1
  Y  Y1  1  0.565439  0.937300  0.935629  1
  Y  Y2  1  0.565435  0.937301  0.561638  1
  Y  Y3  1  0.937300  0.565439  0.935629  1
  Y  Y4  1  0.563539  0.563539  0.936461  1
  Y  Y5  1  0.936575  0.936575  0.563422  1
  Ho  Ho6  1  0.351622  0.351622  0.345052  1
  Ho  Ho7  1  0.351623  0.351623  0.951704  1
  Ho  Ho8  1  0.358830  0.941309  0.349930  1
  Ho  Ho9  1  0.941309  0.358830  0.349930  1
  Ho  Ho10  1  0.805785  0.190142  0.189984  1
  Ho  Ho11  1  0.190140  0.805784  0.814090  1
  Ho  Ho12  1  0.190142  0.805785  0.189984  1
  Ho  Ho13  1  0.805784  0.190140  0.814090  1
  Ho  Ho14  1  0.191373  0.191373  0.808628  1
  Ho  Ho15  1  0.811232  0.811232  0.188766  1
  Cd  Cd16  1  0.581119  0.581119  0.581948  1
  Cd  Cd17  1  0.581119  0.581119  0.255814  1
  Cd  Cd18  1  0.580400  0.256034  0.581784  1
  Cd  Cd19  1  0.256034  0.580400  0.581784  1
  Ir  Ir20  1  0.140521  0.572610  0.143435  1
  Ir  Ir21  1  0.572610  0.140521  0.143435  1
  Pd  Pd22  1  0.142385  0.142385  0.145999  1
  Pd  Pd23  1  0.142385  0.142385  0.569230  1
