# generated using pymatgen
data_Nd2Ni11MoP7
_symmetry_space_group_name_H-M   'P 1'
_cell_length_a   9.12331200
_cell_length_b   9.17727941
_cell_length_c   3.73188800
_cell_angle_alpha   90.00000000
_cell_angle_beta   90.00000000
_cell_angle_gamma   119.94540593
_symmetry_Int_Tables_number   1
_chemical_formula_structural   Nd2Ni11MoP7
_chemical_formula_sum   'Nd2 Ni11 Mo1 P7'
_cell_volume   270.74744616
_cell_formula_units_Z   1
loop_
 _symmetry_equiv_pos_site_id
 _symmetry_equiv_pos_as_xyz
  1  'x, y, z'
loop_
 _atom_site_type_symbol
 _atom_site_label
 _atom_site_symmetry_multiplicity
 _atom_site_fract_x
 _atom_site_fract_y
 _atom_site_fract_z
 _atom_site_occupancy
  Nd  Nd0  1  0.333644  0.664032  0.000000  1
  Nd  Nd1  1  0.666645  0.331936  0.500001  1
  Ni  Ni2  1  0.431641  0.059207  0.000000  1
  Ni  Ni3  1  0.148222  0.277157  0.000000  1
  Ni  Ni4  1  0.941670  0.378174  0.000000  1
  Ni  Ni5  1  0.631323  0.569315  0.000000  1
  Ni  Ni6  1  0.122321  0.843791  0.000000  1
  Ni  Ni7  1  0.724998  0.876896  0.000000  1
  Ni  Ni8  1  0.903756  0.116847  0.500001  1
  Ni  Ni9  1  0.382664  0.434236  0.500001  1
  Ni  Ni10  1  0.049746  0.620239  0.500001  1
  Ni  Ni11  1  0.878372  0.779526  0.500001  1
  Ni  Ni12  1  0.572244  0.952934  0.500001  1
  Mo  Mo13  1  0.209044  0.095800  0.500001  1
  P  P14  1  0.996594  0.998076  0.000000  1
  P  P15  1  0.707951  0.110192  0.000000  1
  P  P16  1  0.405643  0.300719  0.000000  1
  P  P17  1  0.891662  0.595896  0.000000  1
  P  P18  1  0.104585  0.397212  0.500001  1
  P  P19  1  0.600613  0.707169  0.500001  1
  P  P20  1  0.296662  0.890647  0.500001  1
