# generated using pymatgen
data_Ac5LaPu2O14
_symmetry_space_group_name_H-M   'P 1'
_cell_length_a   6.96440800
_cell_length_b   6.94279761
_cell_length_c   8.01132400
_cell_angle_alpha   90.00000000
_cell_angle_beta   90.00000000
_cell_angle_gamma   111.22190754
_symmetry_Int_Tables_number   1
_chemical_formula_structural   Ac5LaPu2O14
_chemical_formula_sum   'Ac5 La1 Pu2 O14'
_cell_volume   361.09820775
_cell_formula_units_Z   1
loop_
 _symmetry_equiv_pos_site_id
 _symmetry_equiv_pos_as_xyz
  1  'x, y, z'
loop_
 _atom_site_type_symbol
 _atom_site_label
 _atom_site_symmetry_multiplicity
 _atom_site_fract_x
 _atom_site_fract_y
 _atom_site_fract_z
 _atom_site_occupancy
  Ac  Ac0  1  0.000645  0.998529  0.498945  1
  Ac  Ac1  1  0.000645  0.998529  0.001055  1
  Ac  Ac2  1  0.522039  0.064658  0.250000  1
  Ac  Ac3  1  0.934637  0.479028  0.750000  1
  Ac  Ac4  1  0.479249  0.935201  0.750000  1
  La  La5  1  0.059730  0.516972  0.250000  1
  Pu  Pu6  1  0.499246  0.501108  0.498372  1
  Pu  Pu7  1  0.499246  0.501108  0.001628  1
  O  O8  1  0.430327  0.180370  0.535522  1
  O  O9  1  0.815512  0.558258  0.459710  1
  O  O10  1  0.430327  0.180370  0.964478  1
  O  O11  1  0.815512  0.558258  0.040290  1
  O  O12  1  0.573306  0.822729  0.463975  1
  O  O13  1  0.182822  0.444692  0.532212  1
  O  O14  1  0.573306  0.822729  0.036025  1
  O  O15  1  0.182822  0.444692  0.967788  1
  O  O16  1  0.153024  0.878651  0.250000  1
  O  O17  1  0.108079  0.847415  0.750000  1
  O  O18  1  0.849361  0.108129  0.750000  1
  O  O19  1  0.896569  0.159772  0.250000  1
  O  O20  1  0.399559  0.406531  0.250000  1
  O  O21  1  0.594034  0.592272  0.750000  1
