# generated using pymatgen
data_NaTm5Al12(Si3Ru2)4
_symmetry_space_group_name_H-M   'P 1'
_cell_length_a   8.61642872
_cell_length_b   8.61642819
_cell_length_c   9.21267000
_cell_angle_alpha   90.00000000
_cell_angle_beta   90.00000000
_cell_angle_gamma   119.90900492
_symmetry_Int_Tables_number   1
_chemical_formula_structural   NaTm5Al12(Si3Ru2)4
_chemical_formula_sum   'Na1 Tm5 Al12 Si12 Ru8'
_cell_volume   592.88191834
_cell_formula_units_Z   1
loop_
 _symmetry_equiv_pos_site_id
 _symmetry_equiv_pos_as_xyz
  1  'x, y, z'
loop_
 _atom_site_type_symbol
 _atom_site_label
 _atom_site_symmetry_multiplicity
 _atom_site_fract_x
 _atom_site_fract_y
 _atom_site_fract_z
 _atom_site_occupancy
  Na  Na0  1  0.805101  0.194899  0.750000  1
  Tm  Tm1  1  0.193165  0.806835  0.250000  1
  Tm  Tm2  1  0.384754  0.192099  0.750000  1
  Tm  Tm3  1  0.616271  0.808774  0.250000  1
  Tm  Tm4  1  0.807901  0.615246  0.750000  1
  Tm  Tm5  1  0.191226  0.383729  0.250000  1
  Al  Al6  1  0.833397  0.166603  0.425364  1
  Al  Al7  1  0.165415  0.834585  0.583724  1
  Al  Al8  1  0.331637  0.166492  0.418372  1
  Al  Al9  1  0.165415  0.834585  0.916276  1
  Al  Al10  1  0.670735  0.836610  0.583885  1
  Al  Al11  1  0.833397  0.166603  0.074636  1
  Al  Al12  1  0.833508  0.668363  0.418372  1
  Al  Al13  1  0.670735  0.836610  0.916115  1
  Al  Al14  1  0.163390  0.329265  0.583885  1
  Al  Al15  1  0.331637  0.166492  0.081628  1
  Al  Al16  1  0.163390  0.329265  0.916115  1
  Al  Al17  1  0.833508  0.668363  0.081628  1
  Si  Si18  1  0.668522  0.331478  0.952311  1
  Si  Si19  1  0.334027  0.665973  0.044033  1
  Si  Si20  1  0.334027  0.665973  0.455967  1
  Si  Si21  1  0.668522  0.331478  0.547689  1
  Si  Si22  1  0.437775  0.562225  0.750000  1
  Si  Si23  1  0.562921  0.437079  0.250000  1
  Si  Si24  1  0.122852  0.559110  0.750000  1
  Si  Si25  1  0.875069  0.436474  0.250000  1
  Si  Si26  1  0.440890  0.877148  0.750000  1
  Si  Si27  1  0.563526  0.124931  0.250000  1
  Si  Si28  1  0.999444  0.000556  0.750000  1
  Si  Si29  1  0.001469  0.998531  0.250000  1
  Ru  Ru30  1  0.499798  0.500202  0.000494  1
  Ru  Ru31  1  0.002397  0.503492  0.002585  1
  Ru  Ru32  1  0.499798  0.500202  0.499506  1
  Ru  Ru33  1  0.496508  0.997603  0.002585  1
  Ru  Ru34  1  0.002397  0.503492  0.497415  1
  Ru  Ru35  1  0.496508  0.997603  0.497415  1
  Ru  Ru36  1  0.999486  0.000514  0.001232  1
  Ru  Ru37  1  0.999486  0.000514  0.498768  1
