# generated using pymatgen
data_Zr5Co15(TcP3)4
_symmetry_space_group_name_H-M   'P 1'
_cell_length_a   11.94409646
_cell_length_b   11.90725545
_cell_length_c   3.67894100
_cell_angle_alpha   90.00000000
_cell_angle_beta   90.00000000
_cell_angle_gamma   119.88001467
_symmetry_Int_Tables_number   1
_chemical_formula_structural   Zr5Co15(TcP3)4
_chemical_formula_sum   'Zr5 Co15 Tc4 P12'
_cell_volume   453.67227906
_cell_formula_units_Z   1
loop_
 _symmetry_equiv_pos_site_id
 _symmetry_equiv_pos_as_xyz
  1  'x, y, z'
loop_
 _atom_site_type_symbol
 _atom_site_label
 _atom_site_symmetry_multiplicity
 _atom_site_fract_x
 _atom_site_fract_y
 _atom_site_fract_z
 _atom_site_occupancy
  Zr  Zr0  1  0.666851  0.336938  0.000000  1
  Zr  Zr1  1  0.333921  0.667101  0.000000  1
  Zr  Zr2  1  0.180901  0.180660  0.500000  1
  Zr  Zr3  1  0.821750  0.000016  0.500000  1
  Zr  Zr4  1  0.998475  0.820231  0.500000  1
  Co  Co5  1  0.830353  0.197314  0.000000  1
  Co  Co6  1  0.804399  0.626509  0.000000  1
  Co  Co7  1  0.371604  0.178375  0.000000  1
  Co  Co8  1  0.191026  0.818852  0.000000  1
  Co  Co9  1  0.625428  0.804119  0.000000  1
  Co  Co10  1  0.180778  0.375300  0.000000  1
  Co  Co11  1  0.874924  0.521189  0.500000  1
  Co  Co12  1  0.482160  0.356015  0.500000  1
  Co  Co13  1  0.129242  0.645300  0.500000  1
  Co  Co14  1  0.512145  0.866494  0.500000  1
  Co  Co15  1  0.355533  0.483472  0.500000  1
  Co  Co16  1  0.717857  0.718139  0.500000  1
  Co  Co17  1  0.277803  0.997955  0.500000  1
  Co  Co18  1  0.004246  0.283411  0.500000  1
  Co  Co19  1  0.998926  0.998600  0.000000  1
  Tc  Tc20  1  0.552373  0.551732  0.000000  1
  Tc  Tc21  1  0.439962  0.990845  0.000000  1
  Tc  Tc22  1  0.002089  0.449616  0.000000  1
  Tc  Tc23  1  0.646520  0.128631  0.500000  1
  P  P24  1  0.358980  0.358962  0.000000  1
  P  P25  1  0.639802  0.996779  0.000000  1
  P  P26  1  0.998711  0.641662  0.000000  1
  P  P27  1  0.841288  0.321908  0.500000  1
  P  P28  1  0.685481  0.518893  0.500000  1
  P  P29  1  0.475824  0.166057  0.500000  1
  P  P30  1  0.312948  0.833088  0.500000  1
  P  P31  1  0.518725  0.683710  0.500000  1
  P  P32  1  0.168104  0.482308  0.500000  1
  P  P33  1  0.822250  0.822986  0.000000  1
  P  P34  1  0.175305  0.999691  0.000000  1
  P  P35  1  0.003316  0.177137  0.000000  1
