# generated using pymatgen
data_Tm2LuHf(Al3Ir)6
_symmetry_space_group_name_H-M   'P 1'
_cell_length_a   7.51932814
_cell_length_b   7.51260159
_cell_length_c   9.36782200
_cell_angle_alpha   90.00000000
_cell_angle_beta   90.00000000
_cell_angle_gamma   119.60348681
_symmetry_Int_Tables_number   1
_chemical_formula_structural   Tm2LuHf(Al3Ir)6
_chemical_formula_sum   'Tm2 Lu1 Hf1 Al18 Ir6'
_cell_volume   460.10829650
_cell_formula_units_Z   1
loop_
 _symmetry_equiv_pos_site_id
 _symmetry_equiv_pos_as_xyz
  1  'x, y, z'
loop_
 _atom_site_type_symbol
 _atom_site_label
 _atom_site_symmetry_multiplicity
 _atom_site_fract_x
 _atom_site_fract_y
 _atom_site_fract_z
 _atom_site_occupancy
  Tm  Tm0  1  0.005675  0.327139  0.750000  1
  Tm  Tm1  1  0.328479  0.006349  0.750000  1
  Lu  Lu2  1  0.672009  0.996124  0.250000  1
  Hf  Hf3  1  0.997476  0.672967  0.250000  1
  Al  Al4  1  0.125987  0.123839  0.250000  1
  Al  Al5  1  0.870854  0.869978  0.750000  1
  Al  Al6  1  0.999705  0.337297  0.079528  1
  Al  Al7  1  0.999415  0.664737  0.927509  1
  Al  Al8  1  0.999415  0.664737  0.572491  1
  Al  Al9  1  0.333338  0.998360  0.420316  1
  Al  Al10  1  0.999705  0.337297  0.420472  1
  Al  Al11  1  0.664406  0.998684  0.575079  1
  Al  Al12  1  0.664406  0.998684  0.924921  1
  Al  Al13  1  0.333338  0.998360  0.079684  1
  Al  Al14  1  0.333401  0.333547  0.552668  1
  Al  Al15  1  0.668852  0.667252  0.441972  1
  Al  Al16  1  0.668852  0.667252  0.058028  1
  Al  Al17  1  0.333401  0.333547  0.947332  1
  Al  Al18  1  0.336744  0.550023  0.250000  1
  Al  Al19  1  0.660682  0.451577  0.750000  1
  Al  Al20  1  0.554923  0.343672  0.250000  1
  Al  Al21  1  0.450396  0.659693  0.750000  1
  Ir  Ir22  1  0.672739  0.327955  0.001005  1
  Ir  Ir23  1  0.327383  0.672597  0.001751  1
  Ir  Ir24  1  0.327383  0.672597  0.498249  1
  Ir  Ir25  1  0.672739  0.327955  0.498995  1
  Ir  Ir26  1  0.999150  0.998892  0.001231  1
  Ir  Ir27  1  0.999150  0.998892  0.498769  1
