# generated using pymatgen
data_Er3Lu3Co2
_symmetry_space_group_name_H-M   'P 1'
_cell_length_a   6.12892434
_cell_length_b   6.88849000
_cell_length_c   9.21296149
_cell_angle_alpha   90.00000000
_cell_angle_beta   90.09996561
_cell_angle_gamma   90.00000000
_symmetry_Int_Tables_number   1
_chemical_formula_structural   Er3Lu3Co2
_chemical_formula_sum   'Er6 Lu6 Co4'
_cell_volume   388.96174278
_cell_formula_units_Z   2
loop_
 _symmetry_equiv_pos_site_id
 _symmetry_equiv_pos_as_xyz
  1  'x, y, z'
loop_
 _atom_site_type_symbol
 _atom_site_label
 _atom_site_symmetry_multiplicity
 _atom_site_fract_x
 _atom_site_fract_y
 _atom_site_fract_z
 _atom_site_occupancy
  Er  Er0  1  0.323243  0.676017  0.066209  1
  Er  Er1  1  0.176757  0.176017  0.433791  1
  Er  Er2  1  0.863864  0.540579  0.250445  1
  Er  Er3  1  0.636136  0.040579  0.249555  1
  Er  Er4  1  0.133373  0.459191  0.750000  1
  Er  Er5  1  0.366627  0.959191  0.750000  1
  Lu  Lu6  1  0.675340  0.324581  0.567197  1
  Lu  Lu7  1  0.824660  0.824581  0.932803  1
  Lu  Lu8  1  0.675842  0.323898  0.933318  1
  Lu  Lu9  1  0.824158  0.823898  0.566682  1
  Lu  Lu10  1  0.325028  0.675694  0.434193  1
  Lu  Lu11  1  0.174972  0.175694  0.065807  1
  Co  Co12  1  0.046965  0.887479  0.250297  1
  Co  Co13  1  0.453035  0.387479  0.249703  1
  Co  Co14  1  0.952181  0.112561  0.750985  1
  Co  Co15  1  0.547819  0.612561  0.749015  1
