# generated using pymatgen
data_YbPrZnIr2
_symmetry_space_group_name_H-M   'P 1'
_cell_length_a   5.60123669
_cell_length_b   5.60123577
_cell_length_c   5.60123635
_cell_angle_alpha   135.94579697
_cell_angle_beta   117.27928596
_cell_angle_gamma   79.80431477
_symmetry_Int_Tables_number   1
_chemical_formula_structural   YbPrZnIr2
_chemical_formula_sum   'Yb1 Pr1 Zn1 Ir2'
_cell_volume   105.25033081
_cell_formula_units_Z   1
loop_
 _symmetry_equiv_pos_site_id
 _symmetry_equiv_pos_as_xyz
  1  'x, y, z'
loop_
 _atom_site_type_symbol
 _atom_site_label
 _atom_site_symmetry_multiplicity
 _atom_site_fract_x
 _atom_site_fract_y
 _atom_site_fract_z
 _atom_site_occupancy
  Yb  Yb0  1  0.706573  0.206573  0.500000  1
  Pr  Pr1  1  0.297419  0.797419  0.499999  1
  Zn  Zn2  1  0.993486  0.993486  0.000000  1
  Ir  Ir3  1  0.727698  0.501261  0.226437  1
  Ir  Ir4  1  0.274825  0.501260  0.773563  1
