# generated using pymatgen
data_Li8AgAu9
_symmetry_space_group_name_H-M   'P 1'
_cell_length_a   7.73539600
_cell_length_b   7.73539648
_cell_length_c   5.46973100
_cell_angle_alpha   90.00000000
_cell_angle_beta   90.00000000
_cell_angle_gamma   119.99999794
_symmetry_Int_Tables_number   1
_chemical_formula_structural   Li8AgAu9
_chemical_formula_sum   'Li8 Ag1 Au9'
_cell_volume   283.44039149
_cell_formula_units_Z   1
loop_
 _symmetry_equiv_pos_site_id
 _symmetry_equiv_pos_as_xyz
  1  'x, y, z'
loop_
 _atom_site_type_symbol
 _atom_site_label
 _atom_site_symmetry_multiplicity
 _atom_site_fract_x
 _atom_site_fract_y
 _atom_site_fract_z
 _atom_site_occupancy
  Li  Li0  1  0.987673  0.653564  0.233586  1
  Li  Li1  1  0.665890  0.012327  0.233586  1
  Li  Li2  1  0.346436  0.334110  0.233586  1
  Li  Li3  1  0.336418  0.004379  0.885271  1
  Li  Li4  1  0.667961  0.663582  0.885271  1
  Li  Li5  1  0.995621  0.332039  0.885271  1
  Li  Li6  1  0.333333  0.666667  0.564252  1
  Li  Li7  1  0.000000  0.000000  0.569152  1
  Ag  Ag8  1  0.666667  0.333333  0.538369  1
  Au  Au9  1  0.011499  0.677103  0.737990  1
  Au  Au10  1  0.665604  0.988501  0.737990  1
  Au  Au11  1  0.322897  0.334396  0.737990  1
  Au  Au12  1  0.312820  0.980096  0.383290  1
  Au  Au13  1  0.667276  0.687180  0.383290  1
  Au  Au14  1  0.019904  0.332724  0.383290  1
  Au  Au15  1  0.333333  0.666667  0.062530  1
  Au  Au16  1  0.000000  0.000000  0.065493  1
  Au  Au17  1  0.666667  0.333333  0.038157  1
