# generated using pymatgen
data_TbTm3NpRu7
_symmetry_space_group_name_H-M   'P 1'
_cell_length_a   5.24313744
_cell_length_b   5.24313638
_cell_length_c   8.99804633
_cell_angle_alpha   89.97360311
_cell_angle_beta   90.02639361
_cell_angle_gamma   116.58658794
_symmetry_Int_Tables_number   1
_chemical_formula_structural   TbTm3NpRu7
_chemical_formula_sum   'Tb1 Tm3 Np1 Ru7'
_cell_volume   221.20446584
_cell_formula_units_Z   1
loop_
 _symmetry_equiv_pos_site_id
 _symmetry_equiv_pos_as_xyz
  1  'x, y, z'
loop_
 _atom_site_type_symbol
 _atom_site_label
 _atom_site_symmetry_multiplicity
 _atom_site_fract_x
 _atom_site_fract_y
 _atom_site_fract_z
 _atom_site_occupancy
  Tb  Tb0  1  0.329571  0.670429  0.054692  1
  Tm  Tm1  1  0.327583  0.672417  0.446502  1
  Tm  Tm2  1  0.659963  0.340037  0.573498  1
  Tm  Tm3  1  0.660808  0.339192  0.924727  1
  Np  Np4  1  0.855257  0.144743  0.250901  1
  Ru  Ru5  1  0.987276  0.012724  0.502972  1
  Ru  Ru6  1  0.987182  0.012818  0.996196  1
  Ru  Ru7  1  0.840525  0.635661  0.252010  1
  Ru  Ru8  1  0.364339  0.159475  0.252010  1
  Ru  Ru9  1  0.168030  0.831970  0.748994  1
  Ru  Ru10  1  0.162372  0.342907  0.748749  1
  Ru  Ru11  1  0.657093  0.837628  0.748749  1
