# generated using pymatgen
data_Dy3Ho2P12Ru16Pt3
_symmetry_space_group_name_H-M   'P 1'
_cell_length_a   12.60894500
_cell_length_b   12.60894416
_cell_length_c   3.96498000
_cell_angle_alpha   90.00000000
_cell_angle_beta   90.00000000
_cell_angle_gamma   119.99999959
_symmetry_Int_Tables_number   1
_chemical_formula_structural   Dy3Ho2P12Ru16Pt3
_chemical_formula_sum   'Dy3 Ho2 P12 Ru16 Pt3'
_cell_volume   545.92012696
_cell_formula_units_Z   1
loop_
 _symmetry_equiv_pos_site_id
 _symmetry_equiv_pos_as_xyz
  1  'x, y, z'
loop_
 _atom_site_type_symbol
 _atom_site_label
 _atom_site_symmetry_multiplicity
 _atom_site_fract_x
 _atom_site_fract_y
 _atom_site_fract_z
 _atom_site_occupancy
  Dy  Dy0  1  0.816198  0.999287  0.500000  1
  Dy  Dy1  1  0.183089  0.183802  0.500000  1
  Dy  Dy2  1  0.000713  0.816911  0.500000  1
  Ho  Ho3  1  0.666667  0.333333  0.000000  1
  Ho  Ho4  1  0.333333  0.666667  0.000000  1
  P  P5  1  0.627848  0.987188  0.000000  1
  P  P6  1  0.359340  0.372152  0.000000  1
  P  P7  1  0.012812  0.640660  0.000000  1
  P  P8  1  0.695901  0.528548  0.500000  1
  P  P9  1  0.832648  0.304099  0.500000  1
  P  P10  1  0.308471  0.829398  0.500000  1
  P  P11  1  0.520926  0.691529  0.500000  1
  P  P12  1  0.183264  0.000888  0.000000  1
  P  P13  1  0.817625  0.816736  0.000000  1
  P  P14  1  0.999112  0.182375  0.000000  1
  P  P15  1  0.471452  0.167352  0.500000  1
  P  P16  1  0.170602  0.479074  0.500000  1
  Ru  Ru17  1  0.620965  0.799697  0.000000  1
  Ru  Ru18  1  0.178732  0.379035  0.000000  1
  Ru  Ru19  1  0.378453  0.187990  0.000000  1
  Ru  Ru20  1  0.200303  0.821268  0.000000  1
  Ru  Ru21  1  0.809537  0.621547  0.000000  1
  Ru  Ru22  1  0.126653  0.636170  0.500000  1
  Ru  Ru23  1  0.363830  0.490484  0.500000  1
  Ru  Ru24  1  0.509516  0.873347  0.500000  1
  Ru  Ru25  1  0.000000  0.000000  0.000000  1
  Ru  Ru26  1  0.717230  0.715813  0.500000  1
  Ru  Ru27  1  0.998583  0.282770  0.500000  1
  Ru  Ru28  1  0.453271  0.005626  0.000000  1
  Ru  Ru29  1  0.552356  0.546729  0.000000  1
  Ru  Ru30  1  0.994374  0.447644  0.000000  1
  Ru  Ru31  1  0.812010  0.190463  0.000000  1
  Ru  Ru32  1  0.284187  0.001417  0.500000  1
  Pt  Pt33  1  0.868107  0.501806  0.500000  1
  Pt  Pt34  1  0.498194  0.366301  0.500000  1
  Pt  Pt35  1  0.633699  0.131893  0.500000  1
