# generated using pymatgen
data_Tm4ReBr4
_symmetry_space_group_name_H-M   'P 1'
_cell_length_a   8.88856208
_cell_length_b   8.88856110
_cell_length_c   6.54021024
_cell_angle_alpha   89.42234314
_cell_angle_beta   89.42233827
_cell_angle_gamma   89.28268646
_symmetry_Int_Tables_number   1
_chemical_formula_structural   Tm4ReBr4
_chemical_formula_sum   'Tm8 Re2 Br8'
_cell_volume   516.62693306
_cell_formula_units_Z   2
loop_
 _symmetry_equiv_pos_site_id
 _symmetry_equiv_pos_as_xyz
  1  'x, y, z'
loop_
 _atom_site_type_symbol
 _atom_site_label
 _atom_site_symmetry_multiplicity
 _atom_site_fract_x
 _atom_site_fract_y
 _atom_site_fract_z
 _atom_site_occupancy
  Tm  Tm0  1  0.752609  0.098467  0.987906  1
  Tm  Tm1  1  0.098467  0.752609  0.487906  1
  Tm  Tm2  1  0.096661  0.246408  0.991678  1
  Tm  Tm3  1  0.246408  0.096661  0.491678  1
  Tm  Tm4  1  0.903339  0.753592  0.008322  1
  Tm  Tm5  1  0.901533  0.247391  0.512094  1
  Tm  Tm6  1  0.247391  0.901533  0.012094  1
  Tm  Tm7  1  0.753592  0.903339  0.508322  1
  Re  Re8  1  0.994207  0.005793  0.250000  1
  Re  Re9  1  0.005793  0.994207  0.750000  1
  Br  Br10  1  0.580040  0.183399  0.590892  1
  Br  Br11  1  0.809861  0.584723  0.406627  1
  Br  Br12  1  0.415277  0.190139  0.093373  1
  Br  Br13  1  0.190139  0.415277  0.593373  1
  Br  Br14  1  0.584723  0.809861  0.906627  1
  Br  Br15  1  0.419960  0.816601  0.409108  1
  Br  Br16  1  0.183399  0.580040  0.090892  1
  Br  Br17  1  0.816601  0.419960  0.909108  1
