# generated using pymatgen
data_Ho2ErIn3Ni2Au
_symmetry_space_group_name_H-M   'P 1'
_cell_length_a   7.64076803
_cell_length_b   7.64271621
_cell_length_c   3.71538200
_cell_angle_alpha   90.00000000
_cell_angle_beta   90.00000000
_cell_angle_gamma   120.00136391
_symmetry_Int_Tables_number   1
_chemical_formula_structural   Ho2ErIn3Ni2Au
_chemical_formula_sum   'Ho2 Er1 In3 Ni2 Au1'
_cell_volume   187.89398793
_cell_formula_units_Z   1
loop_
 _symmetry_equiv_pos_site_id
 _symmetry_equiv_pos_as_xyz
  1  'x, y, z'
loop_
 _atom_site_type_symbol
 _atom_site_label
 _atom_site_symmetry_multiplicity
 _atom_site_fract_x
 _atom_site_fract_y
 _atom_site_fract_z
 _atom_site_occupancy
  Ho  Ho0  1  0.418324  0.400789  0.500000  1
  Ho  Ho1  1  0.599246  0.017545  0.500000  1
  Er  Er2  1  0.982430  0.581691  0.500000  1
  In  In3  1  0.253700  0.004256  0.000000  1
  In  In4  1  0.750652  0.746218  0.000000  1
  In  In5  1  0.995681  0.249501  0.000000  1
  Ni  Ni6  1  0.000007  0.999948  0.500000  1
  Ni  Ni7  1  0.666815  0.333435  0.000000  1
  Au  Au8  1  0.333145  0.666616  0.000000  1
