# generated using pymatgen
data_Ho6Co10Si11PIr8
_symmetry_space_group_name_H-M   'P 1'
_cell_length_a   3.87304500
_cell_length_b   10.90958228
_cell_length_c   12.66604243
_cell_angle_alpha   89.94496449
_cell_angle_beta   90.00000000
_cell_angle_gamma   90.00000000
_symmetry_Int_Tables_number   1
_chemical_formula_structural   Ho6Co10Si11PIr8
_chemical_formula_sum   'Ho6 Co10 Si11 P1 Ir8'
_cell_volume   535.18188324
_cell_formula_units_Z   1
loop_
 _symmetry_equiv_pos_site_id
 _symmetry_equiv_pos_as_xyz
  1  'x, y, z'
loop_
 _atom_site_type_symbol
 _atom_site_label
 _atom_site_symmetry_multiplicity
 _atom_site_fract_x
 _atom_site_fract_y
 _atom_site_fract_z
 _atom_site_occupancy
  Ho  Ho0  1  0.000000  0.500046  0.524116  1
  Ho  Ho1  1  0.500000  0.999946  0.475421  1
  Ho  Ho2  1  0.500000  0.815139  0.199235  1
  Ho  Ho3  1  0.500000  0.185529  0.197826  1
  Ho  Ho4  1  0.000000  0.684351  0.802593  1
  Ho  Ho5  1  0.000000  0.315612  0.799851  1
  Co  Co6  1  0.000000  0.494123  0.987984  1
  Co  Co7  1  0.500000  0.000866  0.016970  1
  Co  Co8  1  0.500000  0.884320  0.715495  1
  Co  Co9  1  0.500000  0.117577  0.714995  1
  Co  Co10  1  0.000000  0.616423  0.284883  1
  Co  Co11  1  0.000000  0.382197  0.276890  1
  Co  Co12  1  0.500000  0.329658  0.997909  1
  Co  Co13  1  0.500000  0.669761  0.992601  1
  Co  Co14  1  0.000000  0.171342  0.007293  1
  Co  Co15  1  0.000000  0.829602  0.007134  1
  Si  Si16  1  0.500000  0.303176  0.621513  1
  Si  Si17  1  0.500000  0.697821  0.623546  1
  Si  Si18  1  0.000000  0.198152  0.375588  1
  Si  Si19  1  0.000000  0.802151  0.378008  1
  Si  Si20  1  0.500000  0.498751  0.892315  1
  Si  Si21  1  0.000000  0.999767  0.109324  1
  Si  Si22  1  0.500000  0.850552  0.898101  1
  Si  Si23  1  0.500000  0.150673  0.897701  1
  Si  Si24  1  0.000000  0.650182  0.101959  1
  Si  Si25  1  0.500000  0.500176  0.336413  1
  Si  Si26  1  0.000000  0.000977  0.663830  1
  P  P27  1  0.000000  0.343491  0.100392  1
  Ir  Ir28  1  0.500000  0.304801  0.425960  1
  Ir  Ir29  1  0.500000  0.695383  0.428671  1
  Ir  Ir30  1  0.000000  0.196502  0.570546  1
  Ir  Ir31  1  0.000000  0.804790  0.572531  1
  Ir  Ir32  1  0.500000  0.505704  0.150330  1
  Ir  Ir33  1  0.000000  0.000908  0.850896  1
  Ir  Ir34  1  0.500000  0.499858  0.702668  1
  Ir  Ir35  1  0.000000  0.999691  0.298513  1
