# generated using pymatgen
data_Sc4MoOs6W
_symmetry_space_group_name_H-M   'P 1'
_cell_length_a   5.33395800
_cell_length_b   5.33395615
_cell_length_c   8.40194300
_cell_angle_alpha   90.00000000
_cell_angle_beta   90.00000000
_cell_angle_gamma   120.00001144
_symmetry_Int_Tables_number   1
_chemical_formula_structural   Sc4MoOs6W
_chemical_formula_sum   'Sc4 Mo1 Os6 W1'
_cell_volume   207.01858970
_cell_formula_units_Z   1
loop_
 _symmetry_equiv_pos_site_id
 _symmetry_equiv_pos_as_xyz
  1  'x, y, z'
loop_
 _atom_site_type_symbol
 _atom_site_label
 _atom_site_symmetry_multiplicity
 _atom_site_fract_x
 _atom_site_fract_y
 _atom_site_fract_z
 _atom_site_occupancy
  Sc  Sc0  1  0.333333  0.666667  0.434051  1
  Sc  Sc1  1  0.666667  0.333333  0.565949  1
  Sc  Sc2  1  0.666667  0.333333  0.934045  1
  Sc  Sc3  1  0.333333  0.666667  0.065955  1
  Mo  Mo4  1  0.000000  0.000000  0.500000  1
  Os  Os5  1  0.173852  0.347704  0.750284  1
  Os  Os6  1  0.173852  0.826148  0.750284  1
  Os  Os7  1  0.347704  0.173852  0.249716  1
  Os  Os8  1  0.826148  0.652296  0.249716  1
  Os  Os9  1  0.652296  0.826148  0.750284  1
  Os  Os10  1  0.826148  0.173852  0.249716  1
  W  W11  1  0.000000  0.000000  0.000000  1
