# generated using pymatgen
data_Tm16MgIn3Ir4
_symmetry_space_group_name_H-M   'P 1'
_cell_length_a   9.54975355
_cell_length_b   9.54975423
_cell_length_c   9.54975302
_cell_angle_alpha   59.97156569
_cell_angle_beta   59.97156713
_cell_angle_gamma   59.97156237
_symmetry_Int_Tables_number   1
_chemical_formula_structural   Tm16MgIn3Ir4
_chemical_formula_sum   'Tm16 Mg1 In3 Ir4'
_cell_volume   615.43384260
_cell_formula_units_Z   1
loop_
 _symmetry_equiv_pos_site_id
 _symmetry_equiv_pos_as_xyz
  1  'x, y, z'
loop_
 _atom_site_type_symbol
 _atom_site_label
 _atom_site_symmetry_multiplicity
 _atom_site_fract_x
 _atom_site_fract_y
 _atom_site_fract_z
 _atom_site_occupancy
  Tm  Tm0  1  0.059294  0.059294  0.440271  1
  Tm  Tm1  1  0.437320  0.062341  0.437320  1
  Tm  Tm2  1  0.059294  0.440271  0.059294  1
  Tm  Tm3  1  0.046421  0.650194  0.650194  1
  Tm  Tm4  1  0.437320  0.437320  0.062341  1
  Tm  Tm5  1  0.650194  0.046421  0.650194  1
  Tm  Tm6  1  0.189214  0.811186  0.189214  1
  Tm  Tm7  1  0.189214  0.189214  0.811186  1
  Tm  Tm8  1  0.808542  0.808542  0.191804  1
  Tm  Tm9  1  0.440271  0.059294  0.059294  1
  Tm  Tm10  1  0.811186  0.189214  0.189214  1
  Tm  Tm11  1  0.062341  0.437320  0.437320  1
  Tm  Tm12  1  0.808542  0.191804  0.808542  1
  Tm  Tm13  1  0.191804  0.808542  0.808542  1
  Tm  Tm14  1  0.650194  0.650194  0.046421  1
  Tm  Tm15  1  0.652118  0.652118  0.652118  1
  Mg  Mg16  1  0.422766  0.422766  0.422766  1
  In  In17  1  0.749391  0.417323  0.417323  1
  In  In18  1  0.417323  0.749391  0.417323  1
  In  In19  1  0.417323  0.417323  0.749391  1
  Ir  Ir20  1  0.859364  0.859364  0.423136  1
  Ir  Ir21  1  0.858064  0.858064  0.858064  1
  Ir  Ir22  1  0.423136  0.859364  0.859364  1
  Ir  Ir23  1  0.859364  0.423136  0.859364  1
