# generated using pymatgen
data_V4Pt11Rh
_symmetry_space_group_name_H-M   'P 1'
_cell_length_a   5.51098890
_cell_length_b   4.81908229
_cell_length_c   9.13435437
_cell_angle_alpha   79.46315312
_cell_angle_beta   90.00021343
_cell_angle_gamma   89.99164496
_symmetry_Int_Tables_number   1
_chemical_formula_structural   V4Pt11Rh
_chemical_formula_sum   'V4 Pt11 Rh1'
_cell_volume   238.49868873
_cell_formula_units_Z   1
loop_
 _symmetry_equiv_pos_site_id
 _symmetry_equiv_pos_as_xyz
  1  'x, y, z'
loop_
 _atom_site_type_symbol
 _atom_site_label
 _atom_site_symmetry_multiplicity
 _atom_site_fract_x
 _atom_site_fract_y
 _atom_site_fract_z
 _atom_site_occupancy
  V  V0  1  0.253405  0.376979  0.877068  1
  V  V1  1  0.747360  0.626059  0.119270  1
  V  V2  1  0.249914  0.214552  0.371905  1
  V  V3  1  0.746515  0.786371  0.631690  1
  Pt  Pt4  1  0.251408  0.609915  0.121421  1
  Pt  Pt5  1  0.747800  0.391446  0.876769  1
  Pt  Pt6  1  0.252523  0.788918  0.629590  1
  Pt  Pt7  1  0.750079  0.210638  0.372152  1
  Pt  Pt8  1  0.999393  0.122079  0.125593  1
  Pt  Pt9  1  0.501664  0.121649  0.124464  1
  Pt  Pt10  1  0.000847  0.877353  0.874142  1
  Pt  Pt11  1  0.500271  0.708507  0.376437  1
  Pt  Pt12  1  0.000522  0.291702  0.624102  1
  Pt  Pt13  1  0.499919  0.289674  0.625280  1
  Pt  Pt14  1  0.000061  0.707960  0.375888  1
  Rh  Rh15  1  0.498318  0.876198  0.874227  1
