# generated using pymatgen
data_Sr2Li3LaPd3
_symmetry_space_group_name_H-M   'P 1'
_cell_length_a   7.67849176
_cell_length_b   7.68010033
_cell_length_c   4.24999300
_cell_angle_alpha   90.00000000
_cell_angle_beta   90.00000000
_cell_angle_gamma   120.00694149
_symmetry_Int_Tables_number   1
_chemical_formula_structural   Sr2Li3LaPd3
_chemical_formula_sum   'Sr2 Li3 La1 Pd3'
_cell_volume   217.03575226
_cell_formula_units_Z   1
loop_
 _symmetry_equiv_pos_site_id
 _symmetry_equiv_pos_as_xyz
  1  'x, y, z'
loop_
 _atom_site_type_symbol
 _atom_site_label
 _atom_site_symmetry_multiplicity
 _atom_site_fract_x
 _atom_site_fract_y
 _atom_site_fract_z
 _atom_site_occupancy
  Sr  Sr0  1  0.411110  0.412485  0.500000  1
  Sr  Sr1  1  0.588890  0.001375  0.500000  1
  Li  Li2  1  0.768708  0.765580  0.000000  1
  Li  Li3  1  0.231292  0.996873  0.000000  1
  Li  Li4  1  0.000000  0.227316  0.000000  1
  La  La5  1  0.000000  0.596699  0.500000  1
  Pd  Pd6  1  0.699496  0.360777  0.000000  1
  Pd  Pd7  1  0.300504  0.661283  0.000000  1
  Pd  Pd8  1  0.000000  0.977611  0.500000  1
