# generated using pymatgen
data_Nd8ZnSi14Rh
_symmetry_space_group_name_H-M   'P 1'
_cell_length_a   8.23143500
_cell_length_b   8.23143491
_cell_length_c   8.42649200
_cell_angle_alpha   90.00000000
_cell_angle_beta   90.00000000
_cell_angle_gamma   119.99999636
_symmetry_Int_Tables_number   1
_chemical_formula_structural   Nd8ZnSi14Rh
_chemical_formula_sum   'Nd8 Zn1 Si14 Rh1'
_cell_volume   494.45703660
_cell_formula_units_Z   1
loop_
 _symmetry_equiv_pos_site_id
 _symmetry_equiv_pos_as_xyz
  1  'x, y, z'
loop_
 _atom_site_type_symbol
 _atom_site_label
 _atom_site_symmetry_multiplicity
 _atom_site_fract_x
 _atom_site_fract_y
 _atom_site_fract_z
 _atom_site_occupancy
  Nd  Nd0  1  0.000000  0.000000  0.747380  1
  Nd  Nd1  1  0.000000  0.000000  0.252680  1
  Nd  Nd2  1  0.498822  0.501178  0.744150  1
  Nd  Nd3  1  0.498822  0.997646  0.744150  1
  Nd  Nd4  1  0.002354  0.501178  0.744150  1
  Nd  Nd5  1  0.499140  0.500860  0.255877  1
  Nd  Nd6  1  0.001722  0.500860  0.255877  1
  Nd  Nd7  1  0.499140  0.998278  0.255877  1
  Zn  Zn8  1  0.666667  0.333333  0.999569  1
  Si  Si9  1  0.666667  0.333333  0.500715  1
  Si  Si10  1  0.333333  0.666667  0.499193  1
  Si  Si11  1  0.836493  0.163507  0.999923  1
  Si  Si12  1  0.836493  0.672985  0.999923  1
  Si  Si13  1  0.327015  0.163507  0.999923  1
  Si  Si14  1  0.833627  0.166373  0.500041  1
  Si  Si15  1  0.833627  0.667255  0.500041  1
  Si  Si16  1  0.332745  0.166373  0.500041  1
  Si  Si17  1  0.166007  0.833993  0.500025  1
  Si  Si18  1  0.667986  0.833993  0.500025  1
  Si  Si19  1  0.166007  0.332014  0.500025  1
  Si  Si20  1  0.170798  0.829202  0.000131  1
  Si  Si21  1  0.658404  0.829202  0.000131  1
  Si  Si22  1  0.170798  0.341596  0.000131  1
  Rh  Rh23  1  0.333333  0.666667  0.000022  1
