# generated using pymatgen
data_Na2LiInBi2
_symmetry_space_group_name_H-M   'P 1'
_cell_length_a   10.53547247
_cell_length_b   10.53547406
_cell_length_c   6.54185700
_cell_angle_alpha   90.00000000
_cell_angle_beta   90.00000000
_cell_angle_gamma   98.50890672
_symmetry_Int_Tables_number   1
_chemical_formula_structural   Na2LiInBi2
_chemical_formula_sum   'Na8 Li4 In4 Bi8'
_cell_volume   718.12874024
_cell_formula_units_Z   4
loop_
 _symmetry_equiv_pos_site_id
 _symmetry_equiv_pos_as_xyz
  1  'x, y, z'
loop_
 _atom_site_type_symbol
 _atom_site_label
 _atom_site_symmetry_multiplicity
 _atom_site_fract_x
 _atom_site_fract_y
 _atom_site_fract_z
 _atom_site_occupancy
  Na  Na0  1  0.425660  0.074340  0.250000  1
  Na  Na1  1  0.074340  0.425660  0.750000  1
  Na  Na2  1  0.574340  0.925660  0.750000  1
  Na  Na3  1  0.324919  0.675081  0.271868  1
  Na  Na4  1  0.824919  0.175081  0.228132  1
  Na  Na5  1  0.675081  0.324919  0.728132  1
  Na  Na6  1  0.175081  0.824919  0.771868  1
  Na  Na7  1  0.925660  0.574340  0.250000  1
  Li  Li8  1  0.379943  0.379943  0.500000  1
  Li  Li9  1  0.120057  0.120057  0.000000  1
  Li  Li10  1  0.620057  0.620057  0.500000  1
  Li  Li11  1  0.879943  0.879943  0.000000  1
  In  In12  1  0.868872  0.868872  0.500000  1
  In  In13  1  0.131128  0.131128  0.500000  1
  In  In14  1  0.631128  0.631128  0.000000  1
  In  In15  1  0.368872  0.368872  0.000000  1
  Bi  Bi16  1  0.115820  0.884180  0.258754  1
  Bi  Bi17  1  0.615820  0.384180  0.241246  1
  Bi  Bi18  1  0.884180  0.115820  0.741246  1
  Bi  Bi19  1  0.384180  0.615820  0.758754  1
  Bi  Bi20  1  0.130702  0.369298  0.250000  1
  Bi  Bi21  1  0.369298  0.130702  0.750000  1
  Bi  Bi22  1  0.869298  0.630702  0.750000  1
  Bi  Bi23  1  0.630702  0.869298  0.250000  1
