# generated using pymatgen
data_Ta3FeB3Ru2
_symmetry_space_group_name_H-M   'P 1'
_cell_length_a   3.12540000
_cell_length_b   6.31755300
_cell_length_c   10.82737800
_cell_angle_alpha   90.00000000
_cell_angle_beta   90.00000000
_cell_angle_gamma   90.00000000
_symmetry_Int_Tables_number   1
_chemical_formula_structural   Ta3FeB3Ru2
_chemical_formula_sum   'Ta6 Fe2 B6 Ru4'
_cell_volume   213.78528091
_cell_formula_units_Z   2
loop_
 _symmetry_equiv_pos_site_id
 _symmetry_equiv_pos_as_xyz
  1  'x, y, z'
loop_
 _atom_site_type_symbol
 _atom_site_label
 _atom_site_symmetry_multiplicity
 _atom_site_fract_x
 _atom_site_fract_y
 _atom_site_fract_z
 _atom_site_occupancy
  Ta  Ta0  1  0.000000  0.224432  0.951651  1
  Ta  Ta1  1  0.000000  0.775568  0.048349  1
  Ta  Ta2  1  0.000000  0.224432  0.548349  1
  Ta  Ta3  1  0.000000  0.775568  0.451651  1
  Ta  Ta4  1  0.000000  0.137450  0.250000  1
  Ta  Ta5  1  0.000000  0.862550  0.750000  1
  Fe  Fe6  1  0.500000  0.798873  0.250000  1
  Fe  Fe7  1  0.500000  0.201127  0.750000  1
  B  B8  1  0.500000  0.047623  0.084457  1
  B  B9  1  0.500000  0.952377  0.915543  1
  B  B10  1  0.500000  0.047623  0.415543  1
  B  B11  1  0.500000  0.952377  0.584457  1
  B  B12  1  0.000000  0.567476  0.250000  1
  B  B13  1  0.000000  0.432524  0.750000  1
  Ru  Ru14  1  0.500000  0.425738  0.123991  1
  Ru  Ru15  1  0.500000  0.574262  0.876009  1
  Ru  Ru16  1  0.500000  0.425738  0.376009  1
  Ru  Ru17  1  0.500000  0.574262  0.623991  1
