# generated using pymatgen
data_NpPaZn17
_symmetry_space_group_name_H-M   'P 1'
_cell_length_a   6.77338213
_cell_length_b   6.77338126
_cell_length_c   6.77338059
_cell_angle_alpha   82.66310343
_cell_angle_beta   82.66310183
_cell_angle_gamma   82.66311519
_symmetry_Int_Tables_number   1
_chemical_formula_structural   NpPaZn17
_chemical_formula_sum   'Np1 Pa1 Zn17'
_cell_volume   303.71973776
_cell_formula_units_Z   1
loop_
 _symmetry_equiv_pos_site_id
 _symmetry_equiv_pos_as_xyz
  1  'x, y, z'
loop_
 _atom_site_type_symbol
 _atom_site_label
 _atom_site_symmetry_multiplicity
 _atom_site_fract_x
 _atom_site_fract_y
 _atom_site_fract_z
 _atom_site_occupancy
  Np  Np0  1  0.662915  0.662915  0.662915  1
  Pa  Pa1  1  0.338314  0.338314  0.338314  1
  Zn  Zn2  1  0.354353  0.354353  0.839284  1
  Zn  Zn3  1  0.839284  0.354353  0.354353  1
  Zn  Zn4  1  0.101662  0.101662  0.101662  1
  Zn  Zn5  1  0.897402  0.897402  0.897402  1
  Zn  Zn6  1  0.999877  0.999877  0.500192  1
  Zn  Zn7  1  0.999877  0.500192  0.999877  1
  Zn  Zn8  1  0.500192  0.999877  0.999877  1
  Zn  Zn9  1  0.297994  0.702733  0.999045  1
  Zn  Zn10  1  0.702733  0.999045  0.297994  1
  Zn  Zn11  1  0.999045  0.297994  0.702733  1
  Zn  Zn12  1  0.702733  0.297994  0.999045  1
  Zn  Zn13  1  0.297994  0.999045  0.702733  1
  Zn  Zn14  1  0.999045  0.702733  0.297994  1
  Zn  Zn15  1  0.159160  0.646534  0.646534  1
  Zn  Zn16  1  0.646534  0.646534  0.159160  1
  Zn  Zn17  1  0.646534  0.159160  0.646534  1
  Zn  Zn18  1  0.354353  0.839284  0.354353  1
