# generated using pymatgen
data_Y5Tl4IrPd
_symmetry_space_group_name_H-M   'P 1'
_cell_length_a   3.64511700
_cell_length_b   8.14214398
_cell_length_c   18.31765500
_cell_angle_alpha   90.12370247
_cell_angle_beta   90.00000000
_cell_angle_gamma   90.00000000
_symmetry_Int_Tables_number   1
_chemical_formula_structural   Y5Tl4IrPd
_chemical_formula_sum   'Y10 Tl8 Ir2 Pd2'
_cell_volume   543.64965076
_cell_formula_units_Z   2
loop_
 _symmetry_equiv_pos_site_id
 _symmetry_equiv_pos_as_xyz
  1  'x, y, z'
loop_
 _atom_site_type_symbol
 _atom_site_label
 _atom_site_symmetry_multiplicity
 _atom_site_fract_x
 _atom_site_fract_y
 _atom_site_fract_z
 _atom_site_occupancy
  Y  Y0  1  0.500000  0.229016  0.778716  1
  Y  Y1  1  0.500000  0.770984  0.221284  1
  Y  Y2  1  0.500000  0.245611  0.280924  1
  Y  Y3  1  0.500000  0.754389  0.719076  1
  Y  Y4  1  0.500000  0.114752  0.587845  1
  Y  Y5  1  0.500000  0.885248  0.412155  1
  Y  Y6  1  0.500000  0.383702  0.085797  1
  Y  Y7  1  0.500000  0.616298  0.914203  1
  Y  Y8  1  0.500000  0.000000  0.000000  1
  Y  Y9  1  0.500000  0.500000  0.500000  1
  Tl  Tl10  1  0.000000  0.080987  0.147675  1
  Tl  Tl11  1  0.000000  0.919013  0.852325  1
  Tl  Tl12  1  0.000000  0.421479  0.649910  1
  Tl  Tl13  1  0.000000  0.578521  0.350090  1
  Tl  Tl14  1  0.000000  0.207756  0.434406  1
  Tl  Tl15  1  0.000000  0.792244  0.565594  1
  Tl  Tl16  1  0.000000  0.293989  0.933585  1
  Tl  Tl17  1  0.000000  0.706011  0.066415  1
  Ir  Ir18  1  0.000000  0.022092  0.695812  1
  Ir  Ir19  1  0.000000  0.977908  0.304188  1
  Pd  Pd20  1  0.000000  0.478433  0.196406  1
  Pd  Pd21  1  0.000000  0.521567  0.803594  1
