# generated using pymatgen
data_TbDy6Sn23Rh6
_symmetry_space_group_name_H-M   'P 1'
_cell_length_a   9.86691100
_cell_length_b   9.86691075
_cell_length_c   10.11480400
_cell_angle_alpha   90.00000000
_cell_angle_beta   90.00000000
_cell_angle_gamma   120.00000421
_symmetry_Int_Tables_number   1
_chemical_formula_structural   TbDy6Sn23Rh6
_chemical_formula_sum   'Tb1 Dy6 Sn23 Rh6'
_cell_volume   852.80648741
_cell_formula_units_Z   1
loop_
 _symmetry_equiv_pos_site_id
 _symmetry_equiv_pos_as_xyz
  1  'x, y, z'
loop_
 _atom_site_type_symbol
 _atom_site_label
 _atom_site_symmetry_multiplicity
 _atom_site_fract_x
 _atom_site_fract_y
 _atom_site_fract_z
 _atom_site_occupancy
  Tb  Tb0  1  0.000000  0.000000  0.000000  1
  Dy  Dy1  1  0.478497  0.521503  0.307764  1
  Dy  Dy2  1  0.521503  0.478497  0.692236  1
  Dy  Dy3  1  0.478497  0.956994  0.307764  1
  Dy  Dy4  1  0.521503  0.043006  0.692236  1
  Dy  Dy5  1  0.043006  0.521503  0.307764  1
  Dy  Dy6  1  0.956994  0.478497  0.692236  1
  Sn  Sn7  1  0.351281  0.000000  0.000000  1
  Sn  Sn8  1  0.648719  0.000000  0.000000  1
  Sn  Sn9  1  0.000000  0.351281  0.000000  1
  Sn  Sn10  1  0.000000  0.648719  0.000000  1
  Sn  Sn11  1  0.648719  0.648719  0.000000  1
  Sn  Sn12  1  0.351281  0.351281  0.000000  1
  Sn  Sn13  1  0.333333  0.666667  0.818659  1
  Sn  Sn14  1  0.666667  0.333333  0.181341  1
  Sn  Sn15  1  0.000000  0.000000  0.500000  1
  Sn  Sn16  1  0.778976  0.221024  0.455108  1
  Sn  Sn17  1  0.221024  0.778976  0.544892  1
  Sn  Sn18  1  0.778976  0.557951  0.455108  1
  Sn  Sn19  1  0.221024  0.442049  0.544892  1
  Sn  Sn20  1  0.442049  0.221024  0.455108  1
  Sn  Sn21  1  0.557951  0.778976  0.544892  1
  Sn  Sn22  1  0.333333  0.666667  0.118646  1
  Sn  Sn23  1  0.666667  0.333333  0.881354  1
  Sn  Sn24  1  0.119506  0.880494  0.280037  1
  Sn  Sn25  1  0.880494  0.119506  0.719963  1
  Sn  Sn26  1  0.119506  0.239012  0.280037  1
  Sn  Sn27  1  0.880494  0.760988  0.719963  1
  Sn  Sn28  1  0.760988  0.880494  0.280037  1
  Sn  Sn29  1  0.239012  0.119506  0.719963  1
  Rh  Rh30  1  0.831321  0.168679  0.197947  1
  Rh  Rh31  1  0.168679  0.831321  0.802053  1
  Rh  Rh32  1  0.831321  0.662643  0.197947  1
  Rh  Rh33  1  0.168679  0.337357  0.802053  1
  Rh  Rh34  1  0.337357  0.168679  0.197947  1
  Rh  Rh35  1  0.662643  0.831321  0.802053  1
