# generated using pymatgen
data_HoEr7In3Tc
_symmetry_space_group_name_H-M   'P 1'
_cell_length_a   10.33967538
_cell_length_b   10.34031876
_cell_length_c   6.98060932
_cell_angle_alpha   89.97007938
_cell_angle_beta   90.02980522
_cell_angle_gamma   119.98916789
_symmetry_Int_Tables_number   1
_chemical_formula_structural   HoEr7In3Tc
_chemical_formula_sum   'Ho2 Er14 In6 Tc2'
_cell_volume   646.41601910
_cell_formula_units_Z   2
loop_
 _symmetry_equiv_pos_site_id
 _symmetry_equiv_pos_as_xyz
  1  'x, y, z'
loop_
 _atom_site_type_symbol
 _atom_site_label
 _atom_site_symmetry_multiplicity
 _atom_site_fract_x
 _atom_site_fract_y
 _atom_site_fract_z
 _atom_site_occupancy
  Ho  Ho0  1  0.530318  0.060618  0.796190  1
  Ho  Ho1  1  0.939448  0.469725  0.796322  1
  Er  Er2  1  0.530272  0.469765  0.796629  1
  Er  Er3  1  0.469284  0.938705  0.296567  1
  Er  Er4  1  0.061318  0.530734  0.296638  1
  Er  Er5  1  0.469370  0.530634  0.296869  1
  Er  Er6  1  0.822188  0.644638  0.500259  1
  Er  Er7  1  0.355430  0.177863  0.500147  1
  Er  Er8  1  0.822520  0.177533  0.499918  1
  Er  Er9  1  0.177866  0.355482  0.000733  1
  Er  Er10  1  0.644486  0.822103  0.000722  1
  Er  Er11  1  0.177661  0.822320  0.000766  1
  Er  Er12  1  0.666608  0.333420  0.166662  1
  Er  Er13  1  0.333356  0.666576  0.665818  1
  Er  Er14  1  0.999977  0.999894  0.775990  1
  Er  Er15  1  0.999920  0.999938  0.275806  1
  In  In16  1  0.837188  0.674573  0.038197  1
  In  In17  1  0.325420  0.162817  0.037910  1
  In  In18  1  0.837355  0.162419  0.037704  1
  In  In19  1  0.162949  0.325622  0.538039  1
  In  In20  1  0.674273  0.837125  0.537916  1
  In  In21  1  0.162689  0.837383  0.537871  1
  Tc  Tc22  1  0.666792  0.333468  0.571437  1
  Tc  Tc23  1  0.333312  0.666647  0.070795  1
