# generated using pymatgen
data_Lu12In2FeTc2
_symmetry_space_group_name_H-M   'P 1'
_cell_length_a   8.23407424
_cell_length_b   8.23407539
_cell_length_c   8.23407452
_cell_angle_alpha   108.74872139
_cell_angle_beta   108.74872646
_cell_angle_gamma   110.92608206
_symmetry_Int_Tables_number   1
_chemical_formula_structural   Lu12In2FeTc2
_chemical_formula_sum   'Lu12 In2 Fe1 Tc2'
_cell_volume   429.54815555
_cell_formula_units_Z   1
loop_
 _symmetry_equiv_pos_site_id
 _symmetry_equiv_pos_as_xyz
  1  'x, y, z'
loop_
 _atom_site_type_symbol
 _atom_site_label
 _atom_site_symmetry_multiplicity
 _atom_site_fract_x
 _atom_site_fract_y
 _atom_site_fract_z
 _atom_site_occupancy
  Lu  Lu0  1  0.305172  0.305172  0.611724  1
  Lu  Lu1  1  0.693448  0.693448  0.388276  1
  Lu  Lu2  1  0.693448  0.305172  0.000000  1
  Lu  Lu3  1  0.305172  0.693448  0.000000  1
  Lu  Lu4  1  0.190259  0.430976  0.240717  1
  Lu  Lu5  1  0.807462  0.570024  0.762562  1
  Lu  Lu6  1  0.190259  0.949541  0.759283  1
  Lu  Lu7  1  0.949541  0.190259  0.759283  1
  Lu  Lu8  1  0.807462  0.044901  0.237438  1
  Lu  Lu9  1  0.044901  0.807462  0.237438  1
  Lu  Lu10  1  0.430976  0.190259  0.240717  1
  Lu  Lu11  1  0.570024  0.807462  0.762562  1
  In  In12  1  0.998242  0.498242  0.500000  1
  In  In13  1  0.498242  0.998242  0.500000  1
  Fe  Fe14  1  0.630910  0.630910  0.000000  1
  Tc  Tc15  1  0.384084  0.384084  0.000000  1
  Tc  Tc16  1  0.000398  0.000398  0.000000  1
