# generated using pymatgen
data_Ho8NiGePt23
_symmetry_space_group_name_H-M   'P 1'
_cell_length_a   8.34428800
_cell_length_b   8.34428800
_cell_length_c   8.35234100
_cell_angle_alpha   90.00000000
_cell_angle_beta   90.00000000
_cell_angle_gamma   90.00000000
_symmetry_Int_Tables_number   1
_chemical_formula_structural   Ho8NiGePt23
_chemical_formula_sum   'Ho8 Ni1 Ge1 Pt23'
_cell_volume   581.54963473
_cell_formula_units_Z   1
loop_
 _symmetry_equiv_pos_site_id
 _symmetry_equiv_pos_as_xyz
  1  'x, y, z'
loop_
 _atom_site_type_symbol
 _atom_site_label
 _atom_site_symmetry_multiplicity
 _atom_site_fract_x
 _atom_site_fract_y
 _atom_site_fract_z
 _atom_site_occupancy
  Ho  Ho0  1  0.252735  0.252735  0.255583  1
  Ho  Ho1  1  0.749059  0.749059  0.749877  1
  Ho  Ho2  1  0.747265  0.747265  0.255583  1
  Ho  Ho3  1  0.749059  0.250941  0.749877  1
  Ho  Ho4  1  0.250941  0.250941  0.749877  1
  Ho  Ho5  1  0.252735  0.747265  0.255583  1
  Ho  Ho6  1  0.250941  0.749059  0.749877  1
  Ho  Ho7  1  0.747265  0.252735  0.255583  1
  Ni  Ni8  1  0.000000  0.000000  0.679927  1
  Ge  Ge9  1  0.000000  0.000000  0.958687  1
  Pt  Pt10  1  0.259820  0.500000  0.001793  1
  Pt  Pt11  1  0.740180  0.500000  0.001793  1
  Pt  Pt12  1  0.000000  0.255041  0.503405  1
  Pt  Pt13  1  0.500000  0.259820  0.001793  1
  Pt  Pt14  1  0.000000  0.744959  0.503405  1
  Pt  Pt15  1  0.500000  0.740180  0.001793  1
  Pt  Pt16  1  0.500000  0.000000  0.264257  1
  Pt  Pt17  1  0.255041  0.000000  0.503405  1
  Pt  Pt18  1  0.500000  0.000000  0.742668  1
  Pt  Pt19  1  0.744959  0.000000  0.503405  1
  Pt  Pt20  1  0.000000  0.500000  0.264257  1
  Pt  Pt21  1  0.000000  0.500000  0.742668  1
  Pt  Pt22  1  0.251903  0.500000  0.503178  1
  Pt  Pt23  1  0.748097  0.500000  0.503178  1
  Pt  Pt24  1  0.500000  0.251903  0.503178  1
  Pt  Pt25  1  0.500000  0.748097  0.503178  1
  Pt  Pt26  1  0.500000  0.500000  0.255451  1
  Pt  Pt27  1  0.500000  0.500000  0.749022  1
  Pt  Pt28  1  0.288590  0.000000  0.004537  1
  Pt  Pt29  1  0.711410  0.000000  0.004537  1
  Pt  Pt30  1  0.000000  0.288590  0.004537  1
  Pt  Pt31  1  0.000000  0.711410  0.004537  1
  Pt  Pt32  1  0.000000  0.000000  0.269573  1
