# generated using pymatgen
data_Nb12Al5Pt3N4
_symmetry_space_group_name_H-M   'P 1'
_cell_length_a   7.07206104
_cell_length_b   7.07206104
_cell_length_c   7.07206104
_cell_angle_alpha   90.26545978
_cell_angle_beta   90.26545978
_cell_angle_gamma   90.26545978
_symmetry_Int_Tables_number   1
_chemical_formula_structural   Nb12Al5Pt3N4
_chemical_formula_sum   'Nb12 Al5 Pt3 N4'
_cell_volume   353.69097168
_cell_formula_units_Z   1
loop_
 _symmetry_equiv_pos_site_id
 _symmetry_equiv_pos_as_xyz
  1  'x, y, z'
loop_
 _atom_site_type_symbol
 _atom_site_label
 _atom_site_symmetry_multiplicity
 _atom_site_fract_x
 _atom_site_fract_y
 _atom_site_fract_z
 _atom_site_occupancy
  Nb  Nb0  1  0.788094  0.956415  0.380362  1
  Nb  Nb1  1  0.709893  0.042964  0.872765  1
  Nb  Nb2  1  0.209837  0.455478  0.124528  1
  Nb  Nb3  1  0.290985  0.544087  0.623357  1
  Nb  Nb4  1  0.956415  0.380362  0.788094  1
  Nb  Nb5  1  0.042964  0.872765  0.709893  1
  Nb  Nb6  1  0.455478  0.124528  0.209837  1
  Nb  Nb7  1  0.544087  0.623357  0.290985  1
  Nb  Nb8  1  0.380362  0.788094  0.956415  1
  Nb  Nb9  1  0.872765  0.709893  0.042964  1
  Nb  Nb10  1  0.124528  0.209837  0.455478  1
  Nb  Nb11  1  0.623357  0.290985  0.544087  1
  Al  Al12  1  0.677317  0.677317  0.677317  1
  Al  Al13  1  0.570497  0.421868  0.933239  1
  Al  Al14  1  0.421868  0.933239  0.570497  1
  Al  Al15  1  0.933239  0.570497  0.421868  1
  Al  Al16  1  0.072646  0.072646  0.072646  1
  Pt  Pt17  1  0.177769  0.822741  0.318133  1
  Pt  Pt18  1  0.318133  0.177769  0.822741  1
  Pt  Pt19  1  0.822741  0.318133  0.177769  1
  N  N20  1  0.879317  0.126673  0.625328  1
  N  N21  1  0.625328  0.879317  0.126673  1
  N  N22  1  0.126673  0.625328  0.879317  1
  N  N23  1  0.375705  0.375705  0.375705  1
