# generated using pymatgen
data_BeFe3Mo2
_symmetry_space_group_name_H-M   'P 1'
_cell_length_a   4.69076700
_cell_length_b   4.69076692
_cell_length_c   7.57825700
_cell_angle_alpha   90.00000000
_cell_angle_beta   90.00000000
_cell_angle_gamma   120.00000764
_symmetry_Int_Tables_number   1
_chemical_formula_structural   BeFe3Mo2
_chemical_formula_sum   'Be2 Fe6 Mo4'
_cell_volume   144.40679931
_cell_formula_units_Z   2
loop_
 _symmetry_equiv_pos_site_id
 _symmetry_equiv_pos_as_xyz
  1  'x, y, z'
loop_
 _atom_site_type_symbol
 _atom_site_label
 _atom_site_symmetry_multiplicity
 _atom_site_fract_x
 _atom_site_fract_y
 _atom_site_fract_z
 _atom_site_occupancy
  Be  Be0  1  0.000000  0.000000  0.500000  1
  Be  Be1  1  0.000000  0.000000  0.000000  1
  Fe  Fe2  1  0.832205  0.167795  0.250000  1
  Fe  Fe3  1  0.832205  0.664409  0.250000  1
  Fe  Fe4  1  0.335591  0.167795  0.250000  1
  Fe  Fe5  1  0.167795  0.832205  0.750000  1
  Fe  Fe6  1  0.167795  0.335591  0.750000  1
  Fe  Fe7  1  0.664409  0.832205  0.750000  1
  Mo  Mo8  1  0.333333  0.666667  0.435139  1
  Mo  Mo9  1  0.666667  0.333333  0.564861  1
  Mo  Mo10  1  0.666667  0.333333  0.935139  1
  Mo  Mo11  1  0.333333  0.666667  0.064861  1
