# generated using pymatgen
data_Y20CdHg5Os2
_symmetry_space_group_name_H-M   'P 1'
_cell_length_a   9.67335442
_cell_length_b   9.65403650
_cell_length_c   9.75978900
_cell_angle_alpha   90.00000000
_cell_angle_beta   90.00000000
_cell_angle_gamma   119.93396217
_symmetry_Int_Tables_number   1
_chemical_formula_structural   Y20CdHg5Os2
_chemical_formula_sum   'Y20 Cd1 Hg5 Os2'
_cell_volume   789.85197762
_cell_formula_units_Z   1
loop_
 _symmetry_equiv_pos_site_id
 _symmetry_equiv_pos_as_xyz
  1  'x, y, z'
loop_
 _atom_site_type_symbol
 _atom_site_label
 _atom_site_symmetry_multiplicity
 _atom_site_fract_x
 _atom_site_fract_y
 _atom_site_fract_z
 _atom_site_occupancy
  Y  Y0  1  0.002458  0.001229  0.497773  1
  Y  Y1  1  0.002458  0.001229  0.002227  1
  Y  Y2  1  0.209223  0.790723  0.440112  1
  Y  Y3  1  0.209223  0.418500  0.440112  1
  Y  Y4  1  0.581227  0.790614  0.440526  1
  Y  Y5  1  0.790398  0.209229  0.559377  1
  Y  Y6  1  0.790398  0.581169  0.559377  1
  Y  Y7  1  0.418604  0.209302  0.559530  1
  Y  Y8  1  0.790398  0.209229  0.940623  1
  Y  Y9  1  0.790398  0.581169  0.940623  1
  Y  Y10  1  0.418604  0.209302  0.940470  1
  Y  Y11  1  0.209223  0.790723  0.059888  1
  Y  Y12  1  0.209223  0.418500  0.059888  1
  Y  Y13  1  0.581227  0.790614  0.059474  1
  Y  Y14  1  0.539765  0.459965  0.250000  1
  Y  Y15  1  0.539765  0.079800  0.250000  1
  Y  Y16  1  0.920328  0.460164  0.250000  1
  Y  Y17  1  0.457818  0.537326  0.750000  1
  Y  Y18  1  0.457818  0.920492  0.750000  1
  Y  Y19  1  0.079821  0.539911  0.750000  1
  Cd  Cd20  1  0.769363  0.884680  0.750000  1
  Hg  Hg21  1  0.882053  0.118313  0.250000  1
  Hg  Hg22  1  0.882053  0.763742  0.250000  1
  Hg  Hg23  1  0.236716  0.118359  0.250000  1
  Hg  Hg24  1  0.115988  0.881924  0.750000  1
  Hg  Hg25  1  0.115988  0.234062  0.750000  1
  Os  Os26  1  0.333006  0.666504  0.250000  1
  Os  Os27  1  0.666454  0.333226  0.750000  1
