# generated using pymatgen
data_Ce4InCu3Rh8
_symmetry_space_group_name_H-M   'P 1'
_cell_length_a   6.03001500
_cell_length_b   6.03195073
_cell_length_c   7.34549300
_cell_angle_alpha   90.00617416
_cell_angle_beta   90.00076964
_cell_angle_gamma   89.91466343
_symmetry_Int_Tables_number   1
_chemical_formula_structural   Ce4InCu3Rh8
_chemical_formula_sum   'Ce4 In1 Cu3 Rh8'
_cell_volume   267.17550726
_cell_formula_units_Z   1
loop_
 _symmetry_equiv_pos_site_id
 _symmetry_equiv_pos_as_xyz
  1  'x, y, z'
loop_
 _atom_site_type_symbol
 _atom_site_label
 _atom_site_symmetry_multiplicity
 _atom_site_fract_x
 _atom_site_fract_y
 _atom_site_fract_z
 _atom_site_occupancy
  Ce  Ce0  1  0.750000  0.250000  0.999984  1
  Ce  Ce1  1  0.249998  0.750008  0.999993  1
  Ce  Ce2  1  0.250005  0.750002  0.500012  1
  Ce  Ce3  1  0.750000  0.250003  0.500016  1
  In  In4  1  0.250008  0.249988  0.500020  1
  Cu  Cu5  1  0.250013  0.249992  0.999989  1
  Cu  Cu6  1  0.749996  0.750004  0.999973  1
  Cu  Cu7  1  0.749997  0.750003  0.500017  1
  Rh  Rh8  1  0.996282  0.996210  0.247727  1
  Rh  Rh9  1  0.996222  0.503854  0.247862  1
  Rh  Rh10  1  0.503713  0.503801  0.247735  1
  Rh  Rh11  1  0.503766  0.996166  0.247842  1
  Rh  Rh12  1  0.503790  0.996130  0.752133  1
  Rh  Rh13  1  0.503725  0.503804  0.752275  1
  Rh  Rh14  1  0.996223  0.503847  0.752159  1
  Rh  Rh15  1  0.996267  0.996189  0.752263  1
