# generated using pymatgen
data_Hf4ZrSn3
_symmetry_space_group_name_H-M   'P 1'
_cell_length_a   8.48131900
_cell_length_b   8.46406211
_cell_length_c   5.73410400
_cell_angle_alpha   90.00000000
_cell_angle_beta   90.00000000
_cell_angle_gamma   120.06564191
_symmetry_Int_Tables_number   1
_chemical_formula_structural   Hf4ZrSn3
_chemical_formula_sum   'Hf8 Zr2 Sn6'
_cell_volume   356.24665263
_cell_formula_units_Z   2
loop_
 _symmetry_equiv_pos_site_id
 _symmetry_equiv_pos_as_xyz
  1  'x, y, z'
loop_
 _atom_site_type_symbol
 _atom_site_label
 _atom_site_symmetry_multiplicity
 _atom_site_fract_x
 _atom_site_fract_y
 _atom_site_fract_z
 _atom_site_occupancy
  Hf  Hf0  1  0.757865  0.759046  0.250000  1
  Hf  Hf1  1  0.998811  0.240945  0.250000  1
  Hf  Hf2  1  0.754369  0.000005  0.749999  1
  Hf  Hf3  1  0.246014  0.999992  0.250000  1
  Hf  Hf4  1  0.333046  0.666490  0.499932  1
  Hf  Hf5  1  0.666564  0.333513  0.000071  1
  Hf  Hf6  1  0.666564  0.333513  0.499929  1
  Hf  Hf7  1  0.333046  0.666490  0.000068  1
  Zr  Zr8  1  0.000293  0.757452  0.749999  1
  Zr  Zr9  1  0.242838  0.242564  0.749999  1
  Sn  Sn10  1  0.999329  0.392265  0.749999  1
  Sn  Sn11  1  0.607078  0.607739  0.749999  1
  Sn  Sn12  1  0.393189  0.393244  0.250000  1
  Sn  Sn13  1  0.999937  0.606739  0.250000  1
  Sn  Sn14  1  0.394539  0.000018  0.749999  1
  Sn  Sn15  1  0.606522  0.999986  0.250000  1
