# generated using pymatgen
data_NaLaCuTe4
_symmetry_space_group_name_H-M   'P 1'
_cell_length_a   4.45062900
_cell_length_b   4.45061900
_cell_length_c   20.58879900
_cell_angle_alpha   90.00000000
_cell_angle_beta   90.00000000
_cell_angle_gamma   90.00000000
_symmetry_Int_Tables_number   1
_chemical_formula_structural   NaLaCuTe4
_chemical_formula_sum   'Na2 La2 Cu2 Te8'
_cell_volume   407.82404217
_cell_formula_units_Z   2
loop_
 _symmetry_equiv_pos_site_id
 _symmetry_equiv_pos_as_xyz
  1  'x, y, z'
loop_
 _atom_site_type_symbol
 _atom_site_label
 _atom_site_symmetry_multiplicity
 _atom_site_fract_x
 _atom_site_fract_y
 _atom_site_fract_z
 _atom_site_occupancy
  Na  Na0  1  0.749999  0.750001  0.134205  1
  Na  Na1  1  0.249998  0.250001  0.865795  1
  La  La2  1  0.249998  0.250001  0.395668  1
  La  La3  1  0.749999  0.750001  0.604332  1
  Cu  Cu4  1  0.249998  0.750001  0.000002  1
  Cu  Cu5  1  0.749999  0.250001  0.999998  1
  Te  Te6  1  0.249998  0.250001  0.559504  1
  Te  Te7  1  0.749999  0.750001  0.440496  1
  Te  Te8  1  0.249998  0.750001  0.271072  1
  Te  Te9  1  0.749999  0.250001  0.728928  1
  Te  Te10  1  0.749999  0.250001  0.271072  1
  Te  Te11  1  0.249998  0.750001  0.728928  1
  Te  Te12  1  0.249998  0.250001  0.075172  1
  Te  Te13  1  0.749999  0.750001  0.924828  1
