# generated using pymatgen
data_CaNdNpO6
_symmetry_space_group_name_H-M   'P 1'
_cell_length_a   5.57444900
_cell_length_b   9.44932500
_cell_length_c   10.43529300
_cell_angle_alpha   90.00000000
_cell_angle_beta   90.00000000
_cell_angle_gamma   90.00000000
_symmetry_Int_Tables_number   1
_chemical_formula_structural   CaNdNpO6
_chemical_formula_sum   'Ca4 Nd4 Np4 O24'
_cell_volume   549.67676611
_cell_formula_units_Z   4
loop_
 _symmetry_equiv_pos_site_id
 _symmetry_equiv_pos_as_xyz
  1  'x, y, z'
loop_
 _atom_site_type_symbol
 _atom_site_label
 _atom_site_symmetry_multiplicity
 _atom_site_fract_x
 _atom_site_fract_y
 _atom_site_fract_z
 _atom_site_occupancy
  Ca  Ca0  1  0.472106  0.602187  0.536373  1
  Ca  Ca1  1  0.972106  0.897813  0.463627  1
  Ca  Ca2  1  0.527894  0.102187  0.963627  1
  Ca  Ca3  1  0.027894  0.397813  0.036373  1
  Nd  Nd4  1  0.961348  0.781677  0.869881  1
  Nd  Nd5  1  0.461348  0.718323  0.130119  1
  Nd  Nd6  1  0.038652  0.281677  0.630119  1
  Nd  Nd7  1  0.538652  0.218323  0.369881  1
  Np  Np8  1  0.460519  0.991950  0.648793  1
  Np  Np9  1  0.960519  0.508050  0.351207  1
  Np  Np10  1  0.539481  0.491950  0.851207  1
  Np  Np11  1  0.039481  0.008050  0.148793  1
  O  O12  1  0.252900  0.084833  0.506086  1
  O  O13  1  0.752900  0.415167  0.493914  1
  O  O14  1  0.747100  0.584833  0.993914  1
  O  O15  1  0.247100  0.915167  0.006086  1
  O  O16  1  0.726118  0.118891  0.565880  1
  O  O17  1  0.226118  0.381109  0.434120  1
  O  O18  1  0.273882  0.618891  0.934120  1
  O  O19  1  0.773882  0.881109  0.065880  1
  O  O20  1  0.588240  0.843030  0.536880  1
  O  O21  1  0.088240  0.656970  0.463120  1
  O  O22  1  0.411760  0.343030  0.963120  1
  O  O23  1  0.911760  0.156970  0.036880  1
  O  O24  1  0.180841  0.861282  0.259498  1
  O  O25  1  0.680841  0.638718  0.740502  1
  O  O26  1  0.819159  0.361282  0.240502  1
  O  O27  1  0.319159  0.138718  0.759498  1
  O  O28  1  0.826290  0.048358  0.300717  1
  O  O29  1  0.326290  0.451642  0.699283  1
  O  O30  1  0.173710  0.548358  0.199283  1
  O  O31  1  0.673710  0.951642  0.800717  1
  O  O32  1  0.324135  0.138394  0.184017  1
  O  O33  1  0.824135  0.361606  0.815983  1
  O  O34  1  0.675865  0.638394  0.315983  1
  O  O35  1  0.175865  0.861606  0.684017  1
