# generated using pymatgen
data_Dy14Ho2In3HgIr4
_symmetry_space_group_name_H-M   'P 1'
_cell_length_a   9.64010515
_cell_length_b   9.63734128
_cell_length_c   9.63971674
_cell_angle_alpha   60.00802382
_cell_angle_beta   60.06386826
_cell_angle_gamma   59.94227164
_symmetry_Int_Tables_number   1
_chemical_formula_structural   Dy14Ho2In3HgIr4
_chemical_formula_sum   'Dy14 Ho2 In3 Hg1 Ir4'
_cell_volume   633.33543631
_cell_formula_units_Z   1
loop_
 _symmetry_equiv_pos_site_id
 _symmetry_equiv_pos_as_xyz
  1  'x, y, z'
loop_
 _atom_site_type_symbol
 _atom_site_label
 _atom_site_symmetry_multiplicity
 _atom_site_fract_x
 _atom_site_fract_y
 _atom_site_fract_z
 _atom_site_occupancy
  Dy  Dy0  1  0.438613  0.438211  0.063303  1
  Dy  Dy1  1  0.648846  0.649080  0.050462  1
  Dy  Dy2  1  0.190378  0.812310  0.190485  1
  Dy  Dy3  1  0.059951  0.440123  0.060120  1
  Dy  Dy4  1  0.191567  0.809345  0.808862  1
  Dy  Dy5  1  0.063161  0.438232  0.438594  1
  Dy  Dy6  1  0.811924  0.190439  0.190574  1
  Dy  Dy7  1  0.651727  0.651603  0.651627  1
  Dy  Dy8  1  0.809159  0.191614  0.809165  1
  Dy  Dy9  1  0.190650  0.190603  0.811785  1
  Dy  Dy10  1  0.049998  0.649278  0.648804  1
  Dy  Dy11  1  0.440139  0.059987  0.060359  1
  Dy  Dy12  1  0.060337  0.060153  0.440009  1
  Dy  Dy13  1  0.649244  0.049811  0.649017  1
  Ho  Ho14  1  0.808729  0.809330  0.191512  1
  Ho  Ho15  1  0.438743  0.062803  0.438808  1
  In  In16  1  0.417634  0.417649  0.747237  1
  In  In17  1  0.417793  0.747231  0.417655  1
  In  In18  1  0.747137  0.417827  0.417642  1
  Hg  Hg19  1  0.414203  0.413988  0.414180  1
  Ir  Ir20  1  0.424349  0.859013  0.858714  1
  Ir  Ir21  1  0.858011  0.857910  0.858442  1
  Ir  Ir22  1  0.858915  0.424448  0.858841  1
  Ir  Ir23  1  0.858793  0.859013  0.423806  1
