# generated using pymatgen
data_Tm2Co3Si2P5Ru9
_symmetry_space_group_name_H-M   'P 1'
_cell_length_a   9.33188702
_cell_length_b   9.36219431
_cell_length_c   3.82808700
_cell_angle_alpha   90.00000000
_cell_angle_beta   90.00000000
_cell_angle_gamma   119.89929225
_symmetry_Int_Tables_number   1
_chemical_formula_structural   Tm2Co3Si2P5Ru9
_chemical_formula_sum   'Tm2 Co3 Si2 P5 Ru9'
_cell_volume   289.93415613
_cell_formula_units_Z   1
loop_
 _symmetry_equiv_pos_site_id
 _symmetry_equiv_pos_as_xyz
  1  'x, y, z'
loop_
 _atom_site_type_symbol
 _atom_site_label
 _atom_site_symmetry_multiplicity
 _atom_site_fract_x
 _atom_site_fract_y
 _atom_site_fract_z
 _atom_site_occupancy
  Tm  Tm0  1  0.666168  0.332756  0.000000  1
  Tm  Tm1  1  0.002303  0.999705  0.500000  1
  Co  Co2  1  0.495610  0.941118  0.000000  1
  Co  Co3  1  0.054325  0.549645  0.000000  1
  Co  Co4  1  0.448019  0.507444  0.000000  1
  Si  Si5  1  0.332034  0.667421  0.000000  1
  Si  Si6  1  0.448583  0.063699  0.500000  1
  P  P7  1  0.935446  0.383969  0.500000  1
  P  P8  1  0.615181  0.552555  0.500000  1
  P  P9  1  0.747729  0.970779  0.000000  1
  P  P10  1  0.030365  0.775397  0.000000  1
  P  P11  1  0.225868  0.254543  0.000000  1
  Ru  Ru12  1  0.759217  0.730826  0.000000  1
  Ru  Ru13  1  0.269528  0.028188  0.000000  1
  Ru  Ru14  1  0.974231  0.243251  0.000000  1
  Ru  Ru15  1  0.724009  0.104275  0.500000  1
  Ru  Ru16  1  0.891465  0.611532  0.500000  1
  Ru  Ru17  1  0.385385  0.285132  0.500000  1
  Ru  Ru18  1  0.537914  0.754937  0.500000  1
  Ru  Ru19  1  0.241112  0.779034  0.500000  1
  Ru  Ru20  1  0.215509  0.463792  0.500000  1
