# generated using pymatgen
data_MgFe5(SiRu2)6
_symmetry_space_group_name_H-M   'P 1'
_cell_length_a   4.18665700
_cell_length_b   5.92554700
_cell_length_c   12.59168400
_cell_angle_alpha   89.99996246
_cell_angle_beta   90.00068340
_cell_angle_gamma   89.99995329
_symmetry_Int_Tables_number   1
_chemical_formula_structural   MgFe5(SiRu2)6
_chemical_formula_sum   'Mg1 Fe5 Si6 Ru12'
_cell_volume   312.37742834
_cell_formula_units_Z   1
loop_
 _symmetry_equiv_pos_site_id
 _symmetry_equiv_pos_as_xyz
  1  'x, y, z'
loop_
 _atom_site_type_symbol
 _atom_site_label
 _atom_site_symmetry_multiplicity
 _atom_site_fract_x
 _atom_site_fract_y
 _atom_site_fract_z
 _atom_site_occupancy
  Mg  Mg0  1  0.000000  0.000000  0.000000  1
  Fe  Fe1  1  0.499767  0.500000  0.167329  1
  Fe  Fe2  1  0.999784  0.000001  0.333530  1
  Fe  Fe3  1  0.500000  0.500000  0.500000  1
  Fe  Fe4  1  0.000216  0.999999  0.666470  1
  Fe  Fe5  1  0.500233  0.500000  0.832671  1
  Si  Si6  1  0.000000  0.500000  0.000000  1
  Si  Si7  1  0.499798  0.000000  0.164392  1
  Si  Si8  1  0.999767  0.500001  0.333554  1
  Si  Si9  1  0.500000  0.000000  0.500000  1
  Si  Si10  1  0.000232  0.499999  0.666445  1
  Si  Si11  1  0.500201  0.000000  0.835609  1
  Ru  Ru12  1  0.500000  0.260733  0.000000  1
  Ru  Ru13  1  0.500000  0.739266  0.000000  1
  Ru  Ru14  1  0.999784  0.253414  0.171160  1
  Ru  Ru15  1  0.999784  0.746586  0.171159  1
  Ru  Ru16  1  0.499789  0.249673  0.334328  1
  Ru  Ru17  1  0.499789  0.750328  0.334328  1
  Ru  Ru18  1  0.000000  0.249266  0.500000  1
  Ru  Ru19  1  0.000000  0.750733  0.500000  1
  Ru  Ru20  1  0.500211  0.249673  0.665672  1
  Ru  Ru21  1  0.500211  0.750328  0.665672  1
  Ru  Ru22  1  0.000216  0.253413  0.828841  1
  Ru  Ru23  1  0.000216  0.746585  0.828840  1
