# generated using pymatgen
data_NdY3Re16Si7Ge
_symmetry_space_group_name_H-M   'P 1'
_cell_length_a   4.14949500
_cell_length_b   7.32791729
_cell_length_c   15.44779728
_cell_angle_alpha   89.89389146
_cell_angle_beta   90.00000000
_cell_angle_gamma   90.00000000
_symmetry_Int_Tables_number   1
_chemical_formula_structural   NdY3Re16Si7Ge
_chemical_formula_sum   'Nd1 Y3 Re16 Si7 Ge1'
_cell_volume   469.72277860
_cell_formula_units_Z   1
loop_
 _symmetry_equiv_pos_site_id
 _symmetry_equiv_pos_as_xyz
  1  'x, y, z'
loop_
 _atom_site_type_symbol
 _atom_site_label
 _atom_site_symmetry_multiplicity
 _atom_site_fract_x
 _atom_site_fract_y
 _atom_site_fract_z
 _atom_site_occupancy
  Nd  Nd0  1  0.000000  0.419873  0.882112  1
  Y  Y1  1  0.000000  0.579524  0.118924  1
  Y  Y2  1  0.500000  0.083596  0.380342  1
  Y  Y3  1  0.500000  0.921769  0.620412  1
  Re  Re4  1  0.000000  0.140235  0.052241  1
  Re  Re5  1  0.000000  0.859985  0.949152  1
  Re  Re6  1  0.500000  0.637223  0.446943  1
  Re  Re7  1  0.500000  0.359220  0.551288  1
  Re  Re8  1  0.000000  0.732437  0.320856  1
  Re  Re9  1  0.000000  0.265444  0.678499  1
  Re  Re10  1  0.500000  0.232682  0.178217  1
  Re  Re11  1  0.500000  0.766706  0.821260  1
  Re  Re12  1  0.000000  0.429891  0.417446  1
  Re  Re13  1  0.000000  0.567471  0.581536  1
  Re  Re14  1  0.500000  0.929751  0.082313  1
  Re  Re15  1  0.500000  0.067291  0.918862  1
  Re  Re16  1  0.000000  0.987404  0.206176  1
  Re  Re17  1  0.000000  0.007894  0.793374  1
  Re  Re18  1  0.500000  0.487370  0.292935  1
  Re  Re19  1  0.500000  0.510802  0.705398  1
  Si  Si20  1  0.000000  0.174148  0.524307  1
  Si  Si21  1  0.500000  0.330975  0.024278  1
  Si  Si22  1  0.500000  0.668504  0.977220  1
  Si  Si23  1  0.000000  0.290404  0.272534  1
  Si  Si24  1  0.000000  0.708103  0.725776  1
  Si  Si25  1  0.500000  0.789598  0.226650  1
  Si  Si26  1  0.500000  0.206554  0.772957  1
  Ge  Ge27  1  0.000000  0.845145  0.477995  1
