# generated using pymatgen
data_YSc6Co6Sn22Hg
_symmetry_space_group_name_H-M   'P 1'
_cell_length_a   9.52862200
_cell_length_b   9.52862275
_cell_length_c   9.84861500
_cell_angle_alpha   90.00000000
_cell_angle_beta   90.00000000
_cell_angle_gamma   120.00000435
_symmetry_Int_Tables_number   1
_chemical_formula_structural   YSc6Co6Sn22Hg
_chemical_formula_sum   'Y1 Sc6 Co6 Sn22 Hg1'
_cell_volume   774.40117779
_cell_formula_units_Z   1
loop_
 _symmetry_equiv_pos_site_id
 _symmetry_equiv_pos_as_xyz
  1  'x, y, z'
loop_
 _atom_site_type_symbol
 _atom_site_label
 _atom_site_symmetry_multiplicity
 _atom_site_fract_x
 _atom_site_fract_y
 _atom_site_fract_z
 _atom_site_occupancy
  Y  Y0  1  0.000000  0.000000  0.000000  1
  Sc  Sc1  1  0.036449  0.518224  0.309225  1
  Sc  Sc2  1  0.481776  0.963551  0.309225  1
  Sc  Sc3  1  0.481776  0.518224  0.309225  1
  Sc  Sc4  1  0.963551  0.481776  0.690775  1
  Sc  Sc5  1  0.518224  0.036449  0.690775  1
  Sc  Sc6  1  0.518224  0.481776  0.690775  1
  Co  Co7  1  0.169217  0.830783  0.800761  1
  Co  Co8  1  0.661566  0.830783  0.800761  1
  Co  Co9  1  0.169217  0.338434  0.800761  1
  Co  Co10  1  0.830783  0.169217  0.199239  1
  Co  Co11  1  0.338434  0.169217  0.199239  1
  Co  Co12  1  0.830783  0.661566  0.199239  1
  Sn  Sn13  1  0.121246  0.878754  0.272354  1
  Sn  Sn14  1  0.757505  0.878754  0.272354  1
  Sn  Sn15  1  0.121246  0.242495  0.272354  1
  Sn  Sn16  1  0.878754  0.121246  0.727646  1
  Sn  Sn17  1  0.242495  0.121246  0.727646  1
  Sn  Sn18  1  0.878754  0.757505  0.727646  1
  Sn  Sn19  1  0.348047  0.000000  0.000000  1
  Sn  Sn20  1  0.651953  0.651953  0.000000  1
  Sn  Sn21  1  0.000000  0.348047  0.000000  1
  Sn  Sn22  1  0.348047  0.348047  0.000000  1
  Sn  Sn23  1  0.000000  0.651953  0.000000  1
  Sn  Sn24  1  0.651953  0.000000  0.000000  1
  Sn  Sn25  1  0.780094  0.560187  0.454959  1
  Sn  Sn26  1  0.780094  0.219906  0.454959  1
  Sn  Sn27  1  0.439813  0.219906  0.454959  1
  Sn  Sn28  1  0.219906  0.439813  0.545041  1
  Sn  Sn29  1  0.219906  0.780094  0.545041  1
  Sn  Sn30  1  0.560187  0.780094  0.545041  1
  Sn  Sn31  1  0.666667  0.333333  0.178890  1
  Sn  Sn32  1  0.333333  0.666667  0.821110  1
  Sn  Sn33  1  0.666667  0.333333  0.863156  1
  Sn  Sn34  1  0.333333  0.666667  0.136844  1
  Hg  Hg35  1  0.000000  0.000000  0.500000  1
