# generated using pymatgen
data_Th2Zn19Cu3
_symmetry_space_group_name_H-M   'P 1'
_cell_length_a   6.77128353
_cell_length_b   8.19752455
_cell_length_c   8.19820591
_cell_angle_alpha   99.95334896
_cell_angle_beta   65.51382376
_cell_angle_gamma   114.48094533
_symmetry_Int_Tables_number   1
_chemical_formula_structural   Th2Zn19Cu3
_chemical_formula_sum   'Th2 Zn19 Cu3'
_cell_volume   376.90466777
_cell_formula_units_Z   1
loop_
 _symmetry_equiv_pos_site_id
 _symmetry_equiv_pos_as_xyz
  1  'x, y, z'
loop_
 _atom_site_type_symbol
 _atom_site_label
 _atom_site_symmetry_multiplicity
 _atom_site_fract_x
 _atom_site_fract_y
 _atom_site_fract_z
 _atom_site_occupancy
  Th  Th0  1  0.995567  0.998381  0.001621  1
  Th  Th1  1  0.754347  0.501572  0.498436  1
  Zn  Zn2  1  0.501282  0.003924  0.996040  1
  Zn  Zn3  1  0.100764  0.673720  0.080287  1
  Zn  Zn4  1  0.814202  0.325366  0.081041  1
  Zn  Zn5  1  0.649282  0.580380  0.173709  1
  Zn  Zn6  1  0.174223  0.411392  0.171637  1
  Zn  Zn7  1  0.374846  0.749935  0.250085  1
  Zn  Zn8  1  0.575741  0.088510  0.328359  1
  Zn  Zn9  1  0.100775  0.919723  0.326275  1
  Zn  Zn10  1  0.936005  0.174612  0.418792  1
  Zn  Zn11  1  0.649270  0.826289  0.419642  1
  Zn  Zn12  1  0.248579  0.496006  0.503978  1
  Zn  Zn13  1  0.239338  0.173892  0.583098  1
  Zn  Zn14  1  0.174185  0.828352  0.588610  1
  Zn  Zn15  1  0.510473  0.083090  0.673834  1
  Zn  Zn16  1  0.814078  0.918846  0.674634  1
  Zn  Zn17  1  0.239283  0.416833  0.826105  1
  Zn  Zn18  1  0.935903  0.581119  0.825398  1
  Zn  Zn19  1  0.575678  0.671655  0.911502  1
  Zn  Zn20  1  0.510526  0.326148  0.916851  1
  Cu  Cu21  1  0.375591  0.250235  0.250007  1
  Cu  Cu22  1  0.375119  0.749779  0.749994  1
  Cu  Cu23  1  0.874951  0.250238  0.750059  1
