# generated using pymatgen
data_Zr6V4Ga12Os7
_symmetry_space_group_name_H-M   'P 1'
_cell_length_a   8.74451154
_cell_length_b   8.74451130
_cell_length_c   8.74451100
_cell_angle_alpha   59.99999735
_cell_angle_beta   59.99999825
_cell_angle_gamma   59.99999138
_symmetry_Int_Tables_number   1
_chemical_formula_structural   Zr6V4Ga12Os7
_chemical_formula_sum   'Zr6 V4 Ga12 Os7'
_cell_volume   472.81537016
_cell_formula_units_Z   1
loop_
 _symmetry_equiv_pos_site_id
 _symmetry_equiv_pos_as_xyz
  1  'x, y, z'
loop_
 _atom_site_type_symbol
 _atom_site_label
 _atom_site_symmetry_multiplicity
 _atom_site_fract_x
 _atom_site_fract_y
 _atom_site_fract_z
 _atom_site_occupancy
  Zr  Zr0  1  0.708454  0.708454  0.291546  1
  Zr  Zr1  1  0.291546  0.708454  0.291546  1
  Zr  Zr2  1  0.708454  0.291546  0.291546  1
  Zr  Zr3  1  0.291546  0.291546  0.708454  1
  Zr  Zr4  1  0.708454  0.291546  0.708454  1
  Zr  Zr5  1  0.291546  0.708454  0.708454  1
  V  V6  1  0.878061  0.878061  0.365818  1
  V  V7  1  0.878061  0.365818  0.878061  1
  V  V8  1  0.365818  0.878061  0.878061  1
  V  V9  1  0.878061  0.878061  0.878061  1
  Ga  Ga10  1  0.119028  0.119028  0.642916  1
  Ga  Ga11  1  0.119028  0.642916  0.119028  1
  Ga  Ga12  1  0.642916  0.119028  0.119028  1
  Ga  Ga13  1  0.119028  0.119028  0.119028  1
  Ga  Ga14  1  0.660114  0.660114  0.019656  1
  Ga  Ga15  1  0.660114  0.019656  0.660114  1
  Ga  Ga16  1  0.019656  0.660114  0.660114  1
  Ga  Ga17  1  0.660114  0.660114  0.660114  1
  Ga  Ga18  1  0.339033  0.339033  0.982901  1
  Ga  Ga19  1  0.339033  0.982901  0.339033  1
  Ga  Ga20  1  0.982901  0.339033  0.339033  1
  Ga  Ga21  1  0.339033  0.339033  0.339033  1
  Os  Os22  1  0.000000  0.000000  0.000000  1
  Os  Os23  1  0.997103  0.997103  0.502897  1
  Os  Os24  1  0.502897  0.997103  0.502897  1
  Os  Os25  1  0.997103  0.502897  0.502897  1
  Os  Os26  1  0.502897  0.502897  0.997103  1
  Os  Os27  1  0.997103  0.502897  0.997103  1
  Os  Os28  1  0.502897  0.997103  0.997103  1
