# generated using pymatgen
data_K7RbZr6MnI20
_symmetry_space_group_name_H-M   'P 1'
_cell_length_a   12.70645763
_cell_length_b   12.70645802
_cell_length_c   12.70645744
_cell_angle_alpha   59.93111114
_cell_angle_beta   59.93111063
_cell_angle_gamma   59.93111300
_symmetry_Int_Tables_number   1
_chemical_formula_structural   K7RbZr6MnI20
_chemical_formula_sum   'K7 Rb1 Zr6 Mn1 I20'
_cell_volume   1448.36943171
_cell_formula_units_Z   1
loop_
 _symmetry_equiv_pos_site_id
 _symmetry_equiv_pos_as_xyz
  1  'x, y, z'
loop_
 _atom_site_type_symbol
 _atom_site_label
 _atom_site_symmetry_multiplicity
 _atom_site_fract_x
 _atom_site_fract_y
 _atom_site_fract_z
 _atom_site_occupancy
  K  K0  1  0.638860  0.638860  0.638860  1
  K  K1  1  0.361240  0.361240  0.916261  1
  K  K2  1  0.361240  0.916261  0.361240  1
  K  K3  1  0.639021  0.639021  0.083454  1
  K  K4  1  0.639021  0.083454  0.639021  1
  K  K5  1  0.916261  0.361240  0.361240  1
  K  K6  1  0.083454  0.639021  0.639021  1
  Rb  Rb7  1  0.360194  0.360194  0.360194  1
  Zr  Zr8  1  0.862311  0.137827  0.137827  1
  Zr  Zr9  1  0.137854  0.862234  0.862234  1
  Zr  Zr10  1  0.137827  0.862311  0.137827  1
  Zr  Zr11  1  0.862234  0.137854  0.862234  1
  Zr  Zr12  1  0.137827  0.137827  0.862311  1
  Zr  Zr13  1  0.862234  0.862234  0.137854  1
  Mn  Mn14  1  0.999972  0.999972  0.999972  1
  I  I15  1  0.327531  0.999681  0.999681  1
  I  I16  1  0.672412  0.000177  0.000177  1
  I  I17  1  0.000164  0.327890  0.672180  1
  I  I18  1  0.000164  0.672180  0.327890  1
  I  I19  1  0.999681  0.327531  0.999681  1
  I  I20  1  0.672180  0.000164  0.327890  1
  I  I21  1  0.000177  0.672412  0.000177  1
  I  I22  1  0.327890  0.000164  0.672180  1
  I  I23  1  0.999681  0.999681  0.327531  1
  I  I24  1  0.000177  0.000177  0.672412  1
  I  I25  1  0.672180  0.327890  0.000164  1
  I  I26  1  0.327890  0.672180  0.000164  1
  I  I27  1  0.686908  0.316713  0.316713  1
  I  I28  1  0.317079  0.683190  0.683190  1
  I  I29  1  0.316713  0.686908  0.316713  1
  I  I30  1  0.683190  0.317079  0.683190  1
  I  I31  1  0.316713  0.316713  0.686908  1
  I  I32  1  0.683190  0.683190  0.317079  1
  I  I33  1  0.246571  0.246571  0.246571  1
  I  I34  1  0.749959  0.749959  0.749959  1
