# generated using pymatgen
data_Y6Ho10Cd4Ir3Pd
_symmetry_space_group_name_H-M   'P 1'
_cell_length_a   9.63441303
_cell_length_b   9.63441259
_cell_length_c   9.63441091
_cell_angle_alpha   60.15644786
_cell_angle_beta   60.15645192
_cell_angle_gamma   60.15644710
_symmetry_Int_Tables_number   1
_chemical_formula_structural   Y6Ho10Cd4Ir3Pd
_chemical_formula_sum   'Y6 Ho10 Cd4 Ir3 Pd1'
_cell_volume   634.59537623
_cell_formula_units_Z   1
loop_
 _symmetry_equiv_pos_site_id
 _symmetry_equiv_pos_as_xyz
  1  'x, y, z'
loop_
 _atom_site_type_symbol
 _atom_site_label
 _atom_site_symmetry_multiplicity
 _atom_site_fract_x
 _atom_site_fract_y
 _atom_site_fract_z
 _atom_site_occupancy
  Y  Y0  1  0.938809  0.562601  0.562601  1
  Y  Y1  1  0.564445  0.937310  0.937310  1
  Y  Y2  1  0.562601  0.938809  0.562601  1
  Y  Y3  1  0.937310  0.564445  0.937310  1
  Y  Y4  1  0.562601  0.562601  0.938809  1
  Y  Y5  1  0.937310  0.937310  0.564445  1
  Ho  Ho6  1  0.347676  0.347676  0.347676  1
  Ho  Ho7  1  0.353394  0.353394  0.948239  1
  Ho  Ho8  1  0.353394  0.948239  0.353394  1
  Ho  Ho9  1  0.948239  0.353394  0.353394  1
  Ho  Ho10  1  0.804586  0.190513  0.190513  1
  Ho  Ho11  1  0.188193  0.810503  0.810503  1
  Ho  Ho12  1  0.190513  0.804586  0.190513  1
  Ho  Ho13  1  0.810503  0.188193  0.810503  1
  Ho  Ho14  1  0.190513  0.190513  0.804586  1
  Ho  Ho15  1  0.810503  0.810503  0.188193  1
  Cd  Cd16  1  0.580581  0.580581  0.580581  1
  Cd  Cd17  1  0.580765  0.580765  0.256701  1
  Cd  Cd18  1  0.580765  0.256701  0.580765  1
  Cd  Cd19  1  0.256701  0.580765  0.580765  1
  Ir  Ir20  1  0.141763  0.141763  0.574048  1
  Ir  Ir21  1  0.141763  0.574048  0.141763  1
  Ir  Ir22  1  0.574048  0.141763  0.141763  1
  Pd  Pd23  1  0.143026  0.143026  0.143026  1
