# generated using pymatgen
data_LiNd9S10
_symmetry_space_group_name_H-M   'P 1'
_cell_length_a   7.00821868
_cell_length_b   8.09523502
_cell_length_c   9.09404799
_cell_angle_alpha   103.09759831
_cell_angle_beta   97.22871392
_cell_angle_gamma   106.82441952
_symmetry_Int_Tables_number   1
_chemical_formula_structural   LiNd9S10
_chemical_formula_sum   'Li1 Nd9 S10'
_cell_volume   470.75502075
_cell_formula_units_Z   1
loop_
 _symmetry_equiv_pos_site_id
 _symmetry_equiv_pos_as_xyz
  1  'x, y, z'
loop_
 _atom_site_type_symbol
 _atom_site_label
 _atom_site_symmetry_multiplicity
 _atom_site_fract_x
 _atom_site_fract_y
 _atom_site_fract_z
 _atom_site_occupancy
  Li  Li0  1  0.000000  0.500000  0.000000  1
  Nd  Nd1  1  0.800435  0.600318  0.600167  1
  Nd  Nd2  1  0.600856  0.200953  0.203027  1
  Nd  Nd3  1  0.399144  0.799047  0.796973  1
  Nd  Nd4  1  0.599950  0.701484  0.202393  1
  Nd  Nd5  1  0.199565  0.399682  0.399833  1
  Nd  Nd6  1  0.400050  0.298516  0.797607  1
  Nd  Nd7  1  0.000000  0.000000  0.000000  1
  Nd  Nd8  1  0.200289  0.900356  0.402350  1
  Nd  Nd9  1  0.799711  0.099644  0.597650  1
  S  S10  1  0.706543  0.646142  0.903961  1
  S  S11  1  0.500493  0.251061  0.500023  1
  S  S12  1  0.707138  0.159322  0.904119  1
  S  S13  1  0.292862  0.840678  0.095881  1
  S  S14  1  0.499507  0.748939  0.499977  1
  S  S15  1  0.096679  0.451483  0.708657  1
  S  S16  1  0.293457  0.353858  0.096039  1
  S  S17  1  0.901827  0.050002  0.298585  1
  S  S18  1  0.098173  0.949998  0.701415  1
  S  S19  1  0.903321  0.548517  0.291343  1
