# generated using pymatgen
data_YHo3CdCo
_symmetry_space_group_name_H-M   'P 1'
_cell_length_a   9.47558264
_cell_length_b   9.46723327
_cell_length_c   9.46723407
_cell_angle_alpha   59.95345743
_cell_angle_beta   59.92352632
_cell_angle_gamma   59.92352367
_symmetry_Int_Tables_number   1
_chemical_formula_structural   YHo3CdCo
_chemical_formula_sum   'Y4 Ho12 Cd4 Co4'
_cell_volume   599.62744337
_cell_formula_units_Z   4
loop_
 _symmetry_equiv_pos_site_id
 _symmetry_equiv_pos_as_xyz
  1  'x, y, z'
loop_
 _atom_site_type_symbol
 _atom_site_label
 _atom_site_symmetry_multiplicity
 _atom_site_fract_x
 _atom_site_fract_y
 _atom_site_fract_z
 _atom_site_occupancy
  Y  Y0  1  0.938262  0.938619  0.561882  1
  Y  Y1  1  0.810426  0.188025  0.188025  1
  Y  Y2  1  0.938733  0.561756  0.561756  1
  Y  Y3  1  0.938262  0.561882  0.938619  1
  Ho  Ho4  1  0.811375  0.812055  0.186276  1
  Ho  Ho5  1  0.345371  0.345407  0.345407  1
  Ho  Ho6  1  0.559922  0.939142  0.939142  1
  Ho  Ho7  1  0.560509  0.938988  0.562877  1
  Ho  Ho8  1  0.186982  0.811923  0.811923  1
  Ho  Ho9  1  0.188949  0.187106  0.810739  1
  Ho  Ho10  1  0.347508  0.347097  0.961257  1
  Ho  Ho11  1  0.347508  0.961257  0.347097  1
  Ho  Ho12  1  0.811375  0.186276  0.812055  1
  Ho  Ho13  1  0.560509  0.562877  0.938988  1
  Ho  Ho14  1  0.188949  0.810739  0.187106  1
  Ho  Ho15  1  0.961723  0.347115  0.347115  1
  Cd  Cd16  1  0.580197  0.580520  0.257687  1
  Cd  Cd17  1  0.258775  0.580139  0.580139  1
  Cd  Cd18  1  0.579860  0.579936  0.579936  1
  Cd  Cd19  1  0.580197  0.257687  0.580520  1
  Co  Co20  1  0.576453  0.141219  0.141219  1
  Co  Co21  1  0.144095  0.140655  0.140655  1
  Co  Co22  1  0.142032  0.578057  0.141525  1
  Co  Co23  1  0.142032  0.141525  0.578057  1
