# generated using pymatgen
data_Tb3Er2Pa(Al3Os)8
_symmetry_space_group_name_H-M   'P 1'
_cell_length_a   8.79000600
_cell_length_b   8.83893120
_cell_length_c   9.57709700
_cell_angle_alpha   90.00000000
_cell_angle_beta   90.00000000
_cell_angle_gamma   119.81705808
_symmetry_Int_Tables_number   1
_chemical_formula_structural   Tb3Er2Pa(Al3Os)8
_chemical_formula_sum   'Tb3 Er2 Pa1 Al24 Os8'
_cell_volume   645.58152323
_cell_formula_units_Z   1
loop_
 _symmetry_equiv_pos_site_id
 _symmetry_equiv_pos_as_xyz
  1  'x, y, z'
loop_
 _atom_site_type_symbol
 _atom_site_label
 _atom_site_symmetry_multiplicity
 _atom_site_fract_x
 _atom_site_fract_y
 _atom_site_fract_z
 _atom_site_occupancy
  Tb  Tb0  1  0.808064  0.616128  0.750000  1
  Tb  Tb1  1  0.386798  0.191449  0.750000  1
  Tb  Tb2  1  0.804650  0.191449  0.750000  1
  Er  Er3  1  0.609809  0.802994  0.250000  1
  Er  Er4  1  0.193185  0.802994  0.250000  1
  Pa  Pa5  1  0.197394  0.394788  0.250000  1
  Al  Al6  1  0.336618  0.673236  0.018912  1
  Al  Al7  1  0.667589  0.335178  0.981221  1
  Al  Al8  1  0.667589  0.335178  0.518779  1
  Al  Al9  1  0.336618  0.673236  0.481088  1
  Al  Al10  1  0.163118  0.326235  0.576679  1
  Al  Al11  1  0.836655  0.673309  0.424378  1
  Al  Al12  1  0.672130  0.835119  0.574235  1
  Al  Al13  1  0.836655  0.673309  0.075622  1
  Al  Al14  1  0.326195  0.162004  0.423121  1
  Al  Al15  1  0.163118  0.326235  0.923321  1
  Al  Al16  1  0.162989  0.835119  0.574235  1
  Al  Al17  1  0.326195  0.162004  0.076879  1
  Al  Al18  1  0.835809  0.162004  0.423121  1
  Al  Al19  1  0.672130  0.835119  0.925765  1
  Al  Al20  1  0.835809  0.162004  0.076879  1
  Al  Al21  1  0.162989  0.835119  0.925765  1
  Al  Al22  1  0.559700  0.119399  0.250000  1
  Al  Al23  1  0.437543  0.875087  0.750000  1
  Al  Al24  1  0.873073  0.438058  0.250000  1
  Al  Al25  1  0.120955  0.559758  0.750000  1
  Al  Al26  1  0.564986  0.438058  0.250000  1
  Al  Al27  1  0.438804  0.559758  0.750000  1
  Al  Al28  1  0.001776  0.003551  0.250000  1
  Al  Al29  1  0.000204  0.000410  0.750000  1
  Os  Os30  1  0.501321  0.002641  0.999087  1
  Os  Os31  1  0.003948  0.499819  0.005542  1
  Os  Os32  1  0.501321  0.002641  0.500913  1
  Os  Os33  1  0.495871  0.499819  0.005542  1
  Os  Os34  1  0.003948  0.499819  0.494458  1
  Os  Os35  1  0.495871  0.499819  0.494458  1
  Os  Os36  1  0.999289  0.998577  0.999446  1
  Os  Os37  1  0.999289  0.998577  0.500554  1
