# generated using pymatgen
data_Sr2Ac2As7Ir8
_symmetry_space_group_name_H-M   'P 1'
_cell_length_a   4.19773100
_cell_length_b   13.54732929
_cell_length_c   13.71910110
_cell_angle_alpha   81.67280571
_cell_angle_beta   90.00000000
_cell_angle_gamma   90.00000000
_symmetry_Int_Tables_number   1
_chemical_formula_structural   Sr2Ac2As7Ir8
_chemical_formula_sum   'Sr4 Ac4 As14 Ir16'
_cell_volume   771.95315174
_cell_formula_units_Z   2
loop_
 _symmetry_equiv_pos_site_id
 _symmetry_equiv_pos_as_xyz
  1  'x, y, z'
loop_
 _atom_site_type_symbol
 _atom_site_label
 _atom_site_symmetry_multiplicity
 _atom_site_fract_x
 _atom_site_fract_y
 _atom_site_fract_z
 _atom_site_occupancy
  Sr  Sr0  1  0.250000  0.515649  0.291319  1
  Sr  Sr1  1  0.750000  0.484351  0.708681  1
  Sr  Sr2  1  0.250000  0.212436  0.436125  1
  Sr  Sr3  1  0.750000  0.787564  0.563875  1
  Ac  Ac4  1  0.250000  0.102572  0.790763  1
  Ac  Ac5  1  0.750000  0.897428  0.209237  1
  Ac  Ac6  1  0.250000  0.287038  0.107626  1
  Ac  Ac7  1  0.750000  0.712962  0.892374  1
  As  As8  1  0.250000  0.059694  0.096280  1
  As  As9  1  0.750000  0.940306  0.903720  1
  As  As10  1  0.250000  0.314932  0.684562  1
  As  As11  1  0.750000  0.685068  0.315438  1
  As  As12  1  0.250000  0.608129  0.564121  1
  As  As13  1  0.750000  0.391871  0.435879  1
  As  As14  1  0.250000  0.849274  0.719395  1
  As  As15  1  0.750000  0.150726  0.280605  1
  As  As16  1  0.750000  0.256135  0.915134  1
  As  As17  1  0.250000  0.743865  0.084866  1
  As  As18  1  0.750000  0.094520  0.586061  1
  As  As19  1  0.250000  0.905480  0.413939  1
  As  As20  1  0.750000  0.474490  0.128083  1
  As  As21  1  0.250000  0.525510  0.871917  1
  Ir  Ir22  1  0.250000  0.986832  0.573244  1
  Ir  Ir23  1  0.750000  0.013168  0.426756  1
  Ir  Ir24  1  0.250000  0.666495  0.733669  1
  Ir  Ir25  1  0.750000  0.333505  0.266331  1
  Ir  Ir26  1  0.250000  0.551870  0.048342  1
  Ir  Ir27  1  0.750000  0.448130  0.951658  1
  Ir  Ir28  1  0.250000  0.055090  0.279495  1
  Ir  Ir29  1  0.750000  0.944910  0.720505  1
  Ir  Ir30  1  0.250000  0.428160  0.526819  1
  Ir  Ir31  1  0.750000  0.571840  0.473181  1
  Ir  Ir32  1  0.250000  0.919269  0.001643  1
  Ir  Ir33  1  0.750000  0.080731  0.998357  1
  Ir  Ir34  1  0.250000  0.721477  0.401360  1
  Ir  Ir35  1  0.750000  0.278523  0.598640  1
  Ir  Ir36  1  0.250000  0.342940  0.861330  1
  Ir  Ir37  1  0.750000  0.657060  0.138670  1
