# generated using pymatgen
data_Lu4PdPb2Au3
_symmetry_space_group_name_H-M   'P 1'
_cell_length_a   8.01320742
_cell_length_b   8.01320742
_cell_length_c   3.57765800
_cell_angle_alpha   90.00000000
_cell_angle_beta   90.00000000
_cell_angle_gamma   90.16611276
_symmetry_Int_Tables_number   1
_chemical_formula_structural   Lu4PdPb2Au3
_chemical_formula_sum   'Lu4 Pd1 Pb2 Au3'
_cell_volume   229.72579667
_cell_formula_units_Z   1
loop_
 _symmetry_equiv_pos_site_id
 _symmetry_equiv_pos_as_xyz
  1  'x, y, z'
loop_
 _atom_site_type_symbol
 _atom_site_label
 _atom_site_symmetry_multiplicity
 _atom_site_fract_x
 _atom_site_fract_y
 _atom_site_fract_z
 _atom_site_occupancy
  Lu  Lu0  1  0.673073  0.173073  0.500000  1
  Lu  Lu1  1  0.157570  0.332410  0.500000  1
  Lu  Lu2  1  0.832410  0.657570  0.500000  1
  Lu  Lu3  1  0.333877  0.833877  0.500000  1
  Pd  Pd4  1  0.873152  0.373152  0.000000  1
  Pb  Pb5  1  0.997746  0.004884  0.000000  1
  Pb  Pb6  1  0.504884  0.497746  0.000000  1
  Au  Au7  1  0.373442  0.128218  0.000000  1
  Au  Au8  1  0.125628  0.625628  0.000000  1
  Au  Au9  1  0.628218  0.873442  0.000000  1
