# generated using pymatgen
data_AsIrBr18
_symmetry_space_group_name_H-M   'P 1'
_cell_length_a   9.22189007
_cell_length_b   9.22188666
_cell_length_c   9.22188769
_cell_angle_alpha   93.31593748
_cell_angle_beta   93.31594609
_cell_angle_gamma   93.31594013
_symmetry_Int_Tables_number   1
_chemical_formula_structural   AsIrBr18
_chemical_formula_sum   'As1 Ir1 Br18'
_cell_volume   780.16078039
_cell_formula_units_Z   1
loop_
 _symmetry_equiv_pos_site_id
 _symmetry_equiv_pos_as_xyz
  1  'x, y, z'
loop_
 _atom_site_type_symbol
 _atom_site_label
 _atom_site_symmetry_multiplicity
 _atom_site_fract_x
 _atom_site_fract_y
 _atom_site_fract_z
 _atom_site_occupancy
  As  As0  1  0.500000  0.500000  0.500000  1
  Ir  Ir1  1  0.000000  0.000000  0.000000  1
  Br  Br2  1  0.271233  0.002186  0.022515  1
  Br  Br3  1  0.022515  0.271233  0.002186  1
  Br  Br4  1  0.002186  0.022515  0.271233  1
  Br  Br5  1  0.728767  0.997814  0.977485  1
  Br  Br6  1  0.977485  0.728767  0.997814  1
  Br  Br7  1  0.997814  0.977485  0.728767  1
  Br  Br8  1  0.635815  0.223534  0.109214  1
  Br  Br9  1  0.109214  0.635815  0.223534  1
  Br  Br10  1  0.223534  0.109214  0.635815  1
  Br  Br11  1  0.364185  0.776466  0.890786  1
  Br  Br12  1  0.890786  0.364185  0.776466  1
  Br  Br13  1  0.776466  0.890786  0.364185  1
  Br  Br14  1  0.459356  0.211844  0.531323  1
  Br  Br15  1  0.531323  0.459356  0.211844  1
  Br  Br16  1  0.211844  0.531323  0.459356  1
  Br  Br17  1  0.540644  0.788156  0.468677  1
  Br  Br18  1  0.468677  0.540644  0.788156  1
  Br  Br19  1  0.788156  0.468677  0.540644  1
