# generated using pymatgen
data_YbCe4Sn3H
_symmetry_space_group_name_H-M   'P 1'
_cell_length_a   8.98012172
_cell_length_b   8.98012171
_cell_length_c   8.98012148
_cell_angle_alpha   124.52464255
_cell_angle_beta   124.52465723
_cell_angle_gamma   82.32686843
_symmetry_Int_Tables_number   1
_chemical_formula_structural   YbCe4Sn3H
_chemical_formula_sum   'Yb2 Ce8 Sn6 H2'
_cell_volume   472.39395568
_cell_formula_units_Z   2
loop_
 _symmetry_equiv_pos_site_id
 _symmetry_equiv_pos_as_xyz
  1  'x, y, z'
loop_
 _atom_site_type_symbol
 _atom_site_label
 _atom_site_symmetry_multiplicity
 _atom_site_fract_x
 _atom_site_fract_y
 _atom_site_fract_z
 _atom_site_occupancy
  Yb  Yb0  1  0.500000  0.500000  0.000000  1
  Yb  Yb1  1  0.000000  0.000000  0.000000  1
  Ce  Ce2  1  0.512209  0.012209  0.846490  1
  Ce  Ce3  1  0.165720  0.665720  0.153510  1
  Ce  Ce4  1  0.012209  0.165720  0.500000  1
  Ce  Ce5  1  0.665720  0.512209  0.500000  1
  Ce  Ce6  1  0.487791  0.987791  0.153510  1
  Ce  Ce7  1  0.834280  0.334280  0.846490  1
  Ce  Ce8  1  0.987791  0.834280  0.500000  1
  Ce  Ce9  1  0.334280  0.487791  0.500000  1
  Sn  Sn10  1  0.250000  0.250000  0.000000  1
  Sn  Sn11  1  0.750000  0.750000  0.000000  1
  Sn  Sn12  1  0.873507  0.373507  0.247015  1
  Sn  Sn13  1  0.126493  0.626493  0.752985  1
  Sn  Sn14  1  0.373507  0.126493  0.500000  1
  Sn  Sn15  1  0.626493  0.873507  0.500000  1
  H  H16  1  0.250000  0.750000  0.500000  1
  H  H17  1  0.750000  0.250000  0.500000  1
