# generated using pymatgen
data_Tb3Fe8CoP6
_symmetry_space_group_name_H-M   'P 1'
_cell_length_a   3.72046900
_cell_length_b   10.49088000
_cell_length_c   12.23016800
_cell_angle_alpha   90.00000000
_cell_angle_beta   90.00000000
_cell_angle_gamma   90.00000000
_symmetry_Int_Tables_number   1
_chemical_formula_structural   Tb3Fe8CoP6
_chemical_formula_sum   'Tb6 Fe16 Co2 P12'
_cell_volume   477.35561166
_cell_formula_units_Z   2
loop_
 _symmetry_equiv_pos_site_id
 _symmetry_equiv_pos_as_xyz
  1  'x, y, z'
loop_
 _atom_site_type_symbol
 _atom_site_label
 _atom_site_symmetry_multiplicity
 _atom_site_fract_x
 _atom_site_fract_y
 _atom_site_fract_z
 _atom_site_occupancy
  Tb  Tb0  1  0.000000  0.500000  0.525380  1
  Tb  Tb1  1  0.500000  0.000000  0.474620  1
  Tb  Tb2  1  0.500000  0.819203  0.206968  1
  Tb  Tb3  1  0.500000  0.180797  0.206968  1
  Tb  Tb4  1  0.000000  0.680797  0.793032  1
  Tb  Tb5  1  0.000000  0.319203  0.793032  1
  Fe  Fe6  1  0.500000  0.500000  0.152334  1
  Fe  Fe7  1  0.000000  0.000000  0.847666  1
  Fe  Fe8  1  0.000000  0.500000  0.988787  1
  Fe  Fe9  1  0.500000  0.000000  0.011213  1
  Fe  Fe10  1  0.500000  0.327334  0.996598  1
  Fe  Fe11  1  0.500000  0.672666  0.996598  1
  Fe  Fe12  1  0.000000  0.172666  0.003402  1
  Fe  Fe13  1  0.000000  0.827334  0.003402  1
  Fe  Fe14  1  0.500000  0.299267  0.429456  1
  Fe  Fe15  1  0.500000  0.700733  0.429456  1
  Fe  Fe16  1  0.000000  0.200733  0.570544  1
  Fe  Fe17  1  0.000000  0.799267  0.570544  1
  Fe  Fe18  1  0.500000  0.882931  0.709342  1
  Fe  Fe19  1  0.500000  0.117069  0.709342  1
  Fe  Fe20  1  0.000000  0.617069  0.290658  1
  Fe  Fe21  1  0.000000  0.382931  0.290658  1
  Co  Co22  1  0.500000  0.500000  0.699765  1
  Co  Co23  1  0.000000  0.000000  0.300235  1
  P  P24  1  0.500000  0.500000  0.884749  1
  P  P25  1  0.000000  0.000000  0.115251  1
  P  P26  1  0.500000  0.500000  0.340133  1
  P  P27  1  0.000000  0.000000  0.659867  1
  P  P28  1  0.500000  0.304726  0.613544  1
  P  P29  1  0.500000  0.695274  0.613544  1
  P  P30  1  0.000000  0.195274  0.386456  1
  P  P31  1  0.000000  0.804726  0.386456  1
  P  P32  1  0.500000  0.851782  0.888764  1
  P  P33  1  0.500000  0.148218  0.888764  1
  P  P34  1  0.000000  0.648218  0.111236  1
  P  P35  1  0.000000  0.351782  0.111236  1
