# generated using pymatgen
data_Hf5Sc(SnRu2)6
_symmetry_space_group_name_H-M   'P 1'
_cell_length_a   4.56245800
_cell_length_b   6.43597600
_cell_length_c   13.66509400
_cell_angle_alpha   90.00000000
_cell_angle_beta   89.99889399
_cell_angle_gamma   90.00000000
_symmetry_Int_Tables_number   1
_chemical_formula_structural   Hf5Sc(SnRu2)6
_chemical_formula_sum   'Hf5 Sc1 Sn6 Ru12'
_cell_volume   401.26004630
_cell_formula_units_Z   1
loop_
 _symmetry_equiv_pos_site_id
 _symmetry_equiv_pos_as_xyz
  1  'x, y, z'
loop_
 _atom_site_type_symbol
 _atom_site_label
 _atom_site_symmetry_multiplicity
 _atom_site_fract_x
 _atom_site_fract_y
 _atom_site_fract_z
 _atom_site_occupancy
  Hf  Hf0  1  0.000003  0.500001  0.998985  1
  Hf  Hf1  1  0.499951  0.000000  0.165881  1
  Hf  Hf2  1  0.999967  0.500001  0.333325  1
  Hf  Hf3  1  0.500007  0.000000  0.500791  1
  Hf  Hf4  1  0.000043  0.500001  0.667684  1
  Sc  Sc5  1  0.500062  0.000000  0.833352  1
  Sn  Sn6  1  0.000011  0.000000  0.998201  1
  Sn  Sn7  1  0.499928  0.500001  0.166159  1
  Sn  Sn8  1  0.999969  0.000000  0.333340  1
  Sn  Sn9  1  0.500014  0.500001  0.500495  1
  Sn  Sn10  1  0.000024  0.000000  0.668451  1
  Sn  Sn11  1  0.499998  0.500001  0.833354  1
  Ru  Ru12  1  0.500003  0.250895  0.001204  1
  Ru  Ru13  1  0.500003  0.749106  0.001204  1
  Ru  Ru14  1  0.999938  0.249523  0.167003  1
  Ru  Ru15  1  0.999938  0.750476  0.167003  1
  Ru  Ru16  1  0.499949  0.250279  0.333331  1
  Ru  Ru17  1  0.499949  0.749721  0.333331  1
  Ru  Ru18  1  0.000007  0.249537  0.499665  1
  Ru  Ru19  1  0.000007  0.750464  0.499665  1
  Ru  Ru20  1  0.500044  0.250904  0.665461  1
  Ru  Ru21  1  0.500044  0.749096  0.665461  1
  Ru  Ru22  1  0.000070  0.252547  0.833328  1
  Ru  Ru23  1  0.000070  0.747452  0.833328  1
