# generated using pymatgen
data_Tm2Mn3Cr2(PRh)7
_symmetry_space_group_name_H-M   'P 1'
_cell_length_a   9.39821731
_cell_length_b   9.40245919
_cell_length_c   3.79258200
_cell_angle_alpha   90.00000000
_cell_angle_beta   90.00000000
_cell_angle_gamma   120.16703979
_symmetry_Int_Tables_number   1
_chemical_formula_structural   Tm2Mn3Cr2(PRh)7
_chemical_formula_sum   'Tm2 Mn3 Cr2 P7 Rh7'
_cell_volume   289.74708904
_cell_formula_units_Z   1
loop_
 _symmetry_equiv_pos_site_id
 _symmetry_equiv_pos_as_xyz
  1  'x, y, z'
loop_
 _atom_site_type_symbol
 _atom_site_label
 _atom_site_symmetry_multiplicity
 _atom_site_fract_x
 _atom_site_fract_y
 _atom_site_fract_z
 _atom_site_occupancy
  Tm  Tm0  1  0.000790  0.001300  0.000000  1
  Tm  Tm1  1  0.667858  0.332463  0.500000  1
  Mn  Mn2  1  0.221180  0.396063  0.000000  1
  Mn  Mn3  1  0.603424  0.822275  0.000000  1
  Mn  Mn4  1  0.173847  0.779077  0.000000  1
  Cr  Cr5  1  0.432621  0.883831  0.500000  1
  Cr  Cr6  1  0.115994  0.548810  0.500000  1
  P  P7  1  0.443009  0.367579  0.000000  1
  P  P8  1  0.627700  0.071095  0.000000  1
  P  P9  1  0.926010  0.554417  0.000000  1
  P  P10  1  0.056347  0.270203  0.500000  1
  P  P11  1  0.732565  0.789769  0.500000  1
  P  P12  1  0.214481  0.942860  0.500000  1
  P  P13  1  0.331551  0.668381  0.000000  1
  Rh  Rh14  1  0.698003  0.602263  0.000000  1
  Rh  Rh15  1  0.397411  0.095768  0.000000  1
  Rh  Rh16  1  0.902022  0.300784  0.000000  1
  Rh  Rh17  1  0.277132  0.222698  0.500000  1
  Rh  Rh18  1  0.776103  0.053978  0.500000  1
  Rh  Rh19  1  0.944304  0.722946  0.500000  1
  Rh  Rh20  1  0.457650  0.573444  0.500000  1
