# generated using pymatgen
data_Yb6ErTm3Si8
_symmetry_space_group_name_H-M   'P 1'
_cell_length_a   7.35192300
_cell_length_b   7.76997400
_cell_length_c   15.00963501
_cell_angle_alpha   89.99626773
_cell_angle_beta   90.00000000
_cell_angle_gamma   90.00000000
_symmetry_Int_Tables_number   1
_chemical_formula_structural   Yb6ErTm3Si8
_chemical_formula_sum   'Yb12 Er2 Tm6 Si16'
_cell_volume   857.41414964
_cell_formula_units_Z   2
loop_
 _symmetry_equiv_pos_site_id
 _symmetry_equiv_pos_as_xyz
  1  'x, y, z'
loop_
 _atom_site_type_symbol
 _atom_site_label
 _atom_site_symmetry_multiplicity
 _atom_site_fract_x
 _atom_site_fract_y
 _atom_site_fract_z
 _atom_site_occupancy
  Yb  Yb0  1  0.973056  0.816411  0.403833  1
  Yb  Yb1  1  0.473056  0.683589  0.096167  1
  Yb  Yb2  1  0.526925  0.316398  0.596217  1
  Yb  Yb3  1  0.026925  0.183602  0.903783  1
  Yb  Yb4  1  0.027040  0.183574  0.596229  1
  Yb  Yb5  1  0.527040  0.316426  0.903771  1
  Yb  Yb6  1  0.472939  0.683638  0.403834  1
  Yb  Yb7  1  0.972939  0.816362  0.096166  1
  Yb  Yb8  1  0.352557  0.019612  0.749987  1
  Yb  Yb9  1  0.852557  0.480388  0.750013  1
  Yb  Yb10  1  0.147470  0.519727  0.250012  1
  Yb  Yb11  1  0.647470  0.980273  0.249988  1
  Er  Er12  1  0.314398  0.176482  0.121069  1
  Er  Er13  1  0.814398  0.323518  0.378931  1
  Tm  Tm14  1  0.185607  0.676498  0.878822  1
  Tm  Tm15  1  0.685607  0.823502  0.621178  1
  Tm  Tm16  1  0.314381  0.176359  0.378905  1
  Tm  Tm17  1  0.814381  0.323641  0.121095  1
  Tm  Tm18  1  0.185652  0.676518  0.621200  1
  Tm  Tm19  1  0.685652  0.823482  0.878800  1
  Si  Si20  1  0.857087  0.534090  0.538563  1
  Si  Si21  1  0.357087  0.965910  0.961437  1
  Si  Si22  1  0.642741  0.033693  0.461681  1
  Si  Si23  1  0.142741  0.466307  0.038319  1
  Si  Si24  1  0.143340  0.466229  0.461684  1
  Si  Si25  1  0.643340  0.033771  0.038316  1
  Si  Si26  1  0.356882  0.966031  0.538431  1
  Si  Si27  1  0.856882  0.533969  0.961569  1
  Si  Si28  1  0.977706  0.879925  0.750002  1
  Si  Si29  1  0.477706  0.620075  0.749998  1
  Si  Si30  1  0.522312  0.380237  0.249937  1
  Si  Si31  1  0.022312  0.119763  0.250063  1
  Si  Si32  1  0.249054  0.396273  0.749999  1
  Si  Si33  1  0.749054  0.103727  0.750001  1
  Si  Si34  1  0.250853  0.896071  0.250112  1
  Si  Si35  1  0.750853  0.603929  0.249888  1
