# generated using pymatgen
data_ZrTa(Ni7B2)3
_symmetry_space_group_name_H-M   'P 1'
_cell_length_a   7.45684023
_cell_length_b   7.45903173
_cell_length_c   7.46031000
_cell_angle_alpha   59.99433089
_cell_angle_beta   59.98460634
_cell_angle_gamma   60.01453786
_symmetry_Int_Tables_number   1
_chemical_formula_structural   ZrTa(Ni7B2)3
_chemical_formula_sum   'Zr1 Ta1 Ni21 B6'
_cell_volume   293.39836564
_cell_formula_units_Z   1
loop_
 _symmetry_equiv_pos_site_id
 _symmetry_equiv_pos_as_xyz
  1  'x, y, z'
loop_
 _atom_site_type_symbol
 _atom_site_label
 _atom_site_symmetry_multiplicity
 _atom_site_fract_x
 _atom_site_fract_y
 _atom_site_fract_z
 _atom_site_occupancy
  Zr  Zr0  1  0.749981  0.750116  0.749952  1
  Ta  Ta1  1  0.250024  0.249899  0.250039  1
  Ni  Ni2  1  0.000009  0.999998  0.999997  1
  Ni  Ni3  1  0.612653  0.612622  0.162117  1
  Ni  Ni4  1  0.612676  0.162069  0.612627  1
  Ni  Ni5  1  0.162114  0.612644  0.612621  1
  Ni  Ni6  1  0.612653  0.612622  0.612607  1
  Ni  Ni7  1  0.383355  0.383313  0.849957  1
  Ni  Ni8  1  0.383281  0.850084  0.383317  1
  Ni  Ni9  1  0.849966  0.383294  0.383370  1
  Ni  Ni10  1  0.383355  0.383313  0.383375  1
  Ni  Ni11  1  0.001629  0.001625  0.338333  1
  Ni  Ni12  1  0.658438  0.001539  0.338332  1
  Ni  Ni13  1  0.001513  0.658411  0.338398  1
  Ni  Ni14  1  0.658461  0.338284  0.001627  1
  Ni  Ni15  1  0.001648  0.338377  0.001563  1
  Ni  Ni16  1  0.001648  0.338377  0.658410  1
  Ni  Ni17  1  0.338264  0.658468  0.001634  1
  Ni  Ni18  1  0.338383  0.001642  0.658434  1
  Ni  Ni19  1  0.338383  0.001642  0.001541  1
  Ni  Ni20  1  0.001629  0.001625  0.658413  1
  Ni  Ni21  1  0.001513  0.658411  0.001678  1
  Ni  Ni22  1  0.658438  0.001539  0.001690  1
  B  B23  1  0.732016  0.732075  0.267954  1
  B  B24  1  0.268022  0.731993  0.268119  1
  B  B25  1  0.731966  0.268016  0.268126  1
  B  B26  1  0.267994  0.267991  0.732008  1
  B  B27  1  0.731966  0.268016  0.731892  1
  B  B28  1  0.268022  0.731993  0.731865  1
