# generated using pymatgen
data_Ca2Al20RuRh3
_symmetry_space_group_name_H-M   'P 1'
_cell_length_a   6.87851443
_cell_length_b   6.88547833
_cell_length_c   9.17152204
_cell_angle_alpha   90.10039441
_cell_angle_beta   90.09485560
_cell_angle_gamma   97.16593779
_symmetry_Int_Tables_number   1
_chemical_formula_structural   Ca2Al20RuRh3
_chemical_formula_sum   'Ca2 Al20 Ru1 Rh3'
_cell_volume   430.98600252
_cell_formula_units_Z   1
loop_
 _symmetry_equiv_pos_site_id
 _symmetry_equiv_pos_as_xyz
  1  'x, y, z'
loop_
 _atom_site_type_symbol
 _atom_site_label
 _atom_site_symmetry_multiplicity
 _atom_site_fract_x
 _atom_site_fract_y
 _atom_site_fract_z
 _atom_site_occupancy
  Ca  Ca0  1  0.873016  0.125088  0.749742  1
  Ca  Ca1  1  0.126984  0.874912  0.250258  1
  Al  Al2  1  0.620269  0.376875  0.548141  1
  Al  Al3  1  0.379731  0.623125  0.451859  1
  Al  Al4  1  0.379075  0.621711  0.049540  1
  Al  Al5  1  0.620925  0.378289  0.950460  1
  Al  Al6  1  0.224755  0.223011  0.498948  1
  Al  Al7  1  0.775245  0.776989  0.501052  1
  Al  Al8  1  0.774708  0.775381  0.999917  1
  Al  Al9  1  0.225292  0.224619  0.000083  1
  Al  Al10  1  0.842765  0.157626  0.102151  1
  Al  Al11  1  0.157235  0.842374  0.897849  1
  Al  Al12  1  0.157974  0.843661  0.600302  1
  Al  Al13  1  0.842026  0.156339  0.399698  1
  Al  Al14  1  0.856906  0.588556  0.749567  1
  Al  Al15  1  0.143094  0.411444  0.250433  1
  Al  Al16  1  0.411628  0.142183  0.749064  1
  Al  Al17  1  0.588372  0.857817  0.250936  1
  Al  Al18  1  0.224696  0.479285  0.749677  1
  Al  Al19  1  0.775304  0.520715  0.250323  1
  Al  Al20  1  0.520472  0.777468  0.746664  1
  Al  Al21  1  0.479528  0.222532  0.253336  1
  Ru  Ru22  1  0.500000  0.000000  0.500000  1
  Rh  Rh23  1  0.000000  0.500000  0.500000  1
  Rh  Rh24  1  0.000000  0.500000  0.000000  1
  Rh  Rh25  1  0.500000  0.000000  0.000000  1
