# generated using pymatgen
data_TbTm11Si11Ni
_symmetry_space_group_name_H-M   'P 1'
_cell_length_a   3.81509200
_cell_length_b   5.62781643
_cell_length_c   23.39438752
_cell_angle_alpha   82.68222928
_cell_angle_beta   90.00000000
_cell_angle_gamma   90.00000000
_symmetry_Int_Tables_number   1
_chemical_formula_structural   TbTm11Si11Ni
_chemical_formula_sum   'Tb1 Tm11 Si11 Ni1'
_cell_volume   498.20123364
_cell_formula_units_Z   1
loop_
 _symmetry_equiv_pos_site_id
 _symmetry_equiv_pos_as_xyz
  1  'x, y, z'
loop_
 _atom_site_type_symbol
 _atom_site_label
 _atom_site_symmetry_multiplicity
 _atom_site_fract_x
 _atom_site_fract_y
 _atom_site_fract_z
 _atom_site_occupancy
  Tb  Tb0  1  0.750000  0.171500  0.893674  1
  Tm  Tm1  1  0.750000  0.357299  0.066445  1
  Tm  Tm2  1  0.250000  0.662032  0.940712  1
  Tm  Tm3  1  0.750000  0.520984  0.221060  1
  Tm  Tm4  1  0.250000  0.468949  0.773044  1
  Tm  Tm5  1  0.750000  0.168015  0.392488  1
  Tm  Tm6  1  0.250000  0.826907  0.606298  1
  Tm  Tm7  1  0.750000  0.351951  0.559046  1
  Tm  Tm8  1  0.250000  0.643572  0.439309  1
  Tm  Tm9  1  0.750000  0.994799  0.726019  1
  Tm  Tm10  1  0.250000  0.995444  0.272633  1
  Tm  Tm11  1  0.250000  0.834358  0.109230  1
  Si  Si12  1  0.750000  0.872846  0.014688  1
  Si  Si13  1  0.250000  0.150248  0.990305  1
  Si  Si14  1  0.750000  0.051423  0.179509  1
  Si  Si15  1  0.250000  0.957700  0.820109  1
  Si  Si16  1  0.750000  0.705890  0.345180  1
  Si  Si17  1  0.250000  0.287011  0.653140  1
  Si  Si18  1  0.750000  0.860056  0.511952  1
  Si  Si19  1  0.250000  0.135922  0.486392  1
  Si  Si20  1  0.750000  0.535322  0.679103  1
  Si  Si21  1  0.250000  0.459449  0.318280  1
  Si  Si22  1  0.750000  0.681950  0.845575  1
  Ni  Ni23  1  0.250000  0.306374  0.155806  1
