# generated using pymatgen
data_Sm2Al3Cu7
_symmetry_space_group_name_H-M   'P 1'
_cell_length_a   4.18748700
_cell_length_b   5.11750946
_cell_length_c   8.89741551
_cell_angle_alpha   90.54767973
_cell_angle_beta   90.00000000
_cell_angle_gamma   90.00000000
_symmetry_Int_Tables_number   1
_chemical_formula_structural   Sm2Al3Cu7
_chemical_formula_sum   'Sm2 Al3 Cu7'
_cell_volume   190.65849371
_cell_formula_units_Z   1
loop_
 _symmetry_equiv_pos_site_id
 _symmetry_equiv_pos_as_xyz
  1  'x, y, z'
loop_
 _atom_site_type_symbol
 _atom_site_label
 _atom_site_symmetry_multiplicity
 _atom_site_fract_x
 _atom_site_fract_y
 _atom_site_fract_z
 _atom_site_occupancy
  Sm  Sm0  1  0.000000  0.002699  0.999709  1
  Sm  Sm1  1  0.000000  0.497275  0.500278  1
  Al  Al2  1  0.500000  0.512153  0.994534  1
  Al  Al3  1  0.500000  0.987856  0.505473  1
  Al  Al4  1  0.500000  0.249923  0.249980  1
  Cu  Cu5  1  0.000000  0.995802  0.334605  1
  Cu  Cu6  1  0.000000  0.499737  0.831473  1
  Cu  Cu7  1  0.000000  0.504140  0.165388  1
  Cu  Cu8  1  0.000000  0.000257  0.668530  1
  Cu  Cu9  1  0.500000  0.750025  0.750008  1
  Cu  Cu10  1  0.500000  0.749907  0.250038  1
  Cu  Cu11  1  0.500000  0.250025  0.749984  1
