# generated using pymatgen
data_CaZr4N5
_symmetry_space_group_name_H-M   'P 1'
_cell_length_a   13.89042928
_cell_length_b   13.89042912
_cell_length_c   13.89043000
_cell_angle_alpha   13.47464673
_cell_angle_beta   13.47464953
_cell_angle_gamma   13.47464765
_symmetry_Int_Tables_number   1
_chemical_formula_structural   CaZr4N5
_chemical_formula_sum   'Ca1 Zr4 N5'
_cell_volume   126.60262399
_cell_formula_units_Z   1
loop_
 _symmetry_equiv_pos_site_id
 _symmetry_equiv_pos_as_xyz
  1  'x, y, z'
loop_
 _atom_site_type_symbol
 _atom_site_label
 _atom_site_symmetry_multiplicity
 _atom_site_fract_x
 _atom_site_fract_y
 _atom_site_fract_z
 _atom_site_occupancy
  Ca  Ca0  1  0.000000  0.000000  0.000000  1
  Zr  Zr1  1  0.597753  0.597753  0.597753  1
  Zr  Zr2  1  0.198541  0.198541  0.198541  1
  Zr  Zr3  1  0.801459  0.801459  0.801459  1
  Zr  Zr4  1  0.402247  0.402247  0.402247  1
  N  N5  1  0.705846  0.705846  0.705846  1
  N  N6  1  0.500000  0.500000  0.500000  1
  N  N7  1  0.101362  0.101362  0.101362  1
  N  N8  1  0.294154  0.294154  0.294154  1
  N  N9  1  0.898638  0.898638  0.898638  1
