# generated using pymatgen
data_Li4Yb5PdPt3
_symmetry_space_group_name_H-M   'P 1'
_cell_length_a   8.23958034
_cell_length_b   8.23958259
_cell_length_c   8.22489542
_cell_angle_alpha   94.09225218
_cell_angle_beta   93.64964007
_cell_angle_gamma   149.90813729
_symmetry_Int_Tables_number   1
_chemical_formula_structural   Li4Yb5PdPt3
_chemical_formula_sum   'Li4 Yb5 Pd1 Pt3'
_cell_volume   270.33676436
_cell_formula_units_Z   1
loop_
 _symmetry_equiv_pos_site_id
 _symmetry_equiv_pos_as_xyz
  1  'x, y, z'
loop_
 _atom_site_type_symbol
 _atom_site_label
 _atom_site_symmetry_multiplicity
 _atom_site_fract_x
 _atom_site_fract_y
 _atom_site_fract_z
 _atom_site_occupancy
  Li  Li0  1  0.607947  0.075467  0.683413  1
  Li  Li1  1  0.922802  0.603258  0.526060  1
  Li  Li2  1  0.076951  0.393646  0.470597  1
  Li  Li3  1  0.394385  0.923227  0.317613  1
  Yb  Yb4  1  0.135567  0.793461  0.929028  1
  Yb  Yb5  1  0.205321  0.129627  0.334948  1
  Yb  Yb6  1  0.870309  0.207342  0.077651  1
  Yb  Yb7  1  0.499395  0.501465  0.000859  1
  Yb  Yb8  1  0.788379  0.873792  0.662171  1
  Pd  Pd9  1  0.439670  0.249716  0.689386  1
  Pt  Pt10  1  0.560599  0.750449  0.311048  1
  Pt  Pt11  1  0.249252  0.559195  0.808447  1
  Pt  Pt12  1  0.749424  0.439356  0.188779  1
