# generated using pymatgen
data_Tm3Sc7(GaSb)4
_symmetry_space_group_name_H-M   'P 1'
_cell_length_a   7.97140899
_cell_length_b   8.48216912
_cell_length_c   7.57907700
_cell_angle_alpha   90.00466085
_cell_angle_beta   89.77404813
_cell_angle_gamma   125.38634982
_symmetry_Int_Tables_number   1
_chemical_formula_structural   Tm3Sc7(GaSb)4
_chemical_formula_sum   'Tm3 Sc7 Ga4 Sb4'
_cell_volume   417.78475731
_cell_formula_units_Z   1
loop_
 _symmetry_equiv_pos_site_id
 _symmetry_equiv_pos_as_xyz
  1  'x, y, z'
loop_
 _atom_site_type_symbol
 _atom_site_label
 _atom_site_symmetry_multiplicity
 _atom_site_fract_x
 _atom_site_fract_y
 _atom_site_fract_z
 _atom_site_occupancy
  Tm  Tm0  1  0.163592  0.442938  0.819820  1
  Tm  Tm1  1  0.668170  0.946183  0.681431  1
  Tm  Tm2  1  0.338482  0.056094  0.318470  1
  Sc  Sc3  1  0.031270  0.274881  0.336653  1
  Sc  Sc4  1  0.972970  0.727933  0.661399  1
  Sc  Sc5  1  0.469672  0.224900  0.836858  1
  Sc  Sc6  1  0.823337  0.554294  0.177540  1
  Sc  Sc7  1  0.529987  0.773775  0.161733  1
  Sc  Sc8  1  0.998795  0.998334  0.001869  1
  Sc  Sc9  1  0.502374  0.501282  0.498831  1
  Ga  Ga10  1  0.376225  0.373201  0.127021  1
  Ga  Ga11  1  0.627021  0.626850  0.873294  1
  Ga  Ga12  1  0.126839  0.127307  0.625979  1
  Ga  Ga13  1  0.875922  0.869393  0.368715  1
  Sb  Sb14  1  0.763455  0.186894  0.038372  1
  Sb  Sb15  1  0.223138  0.809337  0.972437  1
  Sb  Sb16  1  0.737161  0.321508  0.531107  1
  Sb  Sb17  1  0.271584  0.684898  0.468471  1
