# generated using pymatgen
data_Hf12Al9Fe3N4
_symmetry_space_group_name_H-M   'P 1'
_cell_length_a   8.45650009
_cell_length_b   8.45650052
_cell_length_c   8.48265720
_cell_angle_alpha   60.10195479
_cell_angle_beta   60.10195524
_cell_angle_gamma   59.99999717
_symmetry_Int_Tables_number   1
_chemical_formula_structural   Hf12Al9Fe3N4
_chemical_formula_sum   'Hf12 Al9 Fe3 N4'
_cell_volume   429.60151114
_cell_formula_units_Z   1
loop_
 _symmetry_equiv_pos_site_id
 _symmetry_equiv_pos_as_xyz
  1  'x, y, z'
loop_
 _atom_site_type_symbol
 _atom_site_label
 _atom_site_symmetry_multiplicity
 _atom_site_fract_x
 _atom_site_fract_y
 _atom_site_fract_z
 _atom_site_occupancy
  Hf  Hf0  1  0.809633  0.809633  0.194165  1
  Hf  Hf1  1  0.191722  0.191722  0.809154  1
  Hf  Hf2  1  0.807402  0.191722  0.809154  1
  Hf  Hf3  1  0.186569  0.809633  0.194165  1
  Hf  Hf4  1  0.191722  0.807402  0.809154  1
  Hf  Hf5  1  0.809633  0.186569  0.194165  1
  Hf  Hf6  1  0.440367  0.440367  0.055835  1
  Hf  Hf7  1  0.058278  0.058278  0.440846  1
  Hf  Hf8  1  0.442598  0.058278  0.440846  1
  Hf  Hf9  1  0.063431  0.440367  0.055835  1
  Hf  Hf10  1  0.058278  0.442598  0.440846  1
  Hf  Hf11  1  0.440367  0.063431  0.055835  1
  Al  Al12  1  0.625000  0.625000  0.125000  1
  Al  Al13  1  0.740227  0.411935  0.435905  1
  Al  Al14  1  0.411935  0.740227  0.435905  1
  Al  Al15  1  0.418957  0.418957  0.743129  1
  Al  Al16  1  0.411935  0.411935  0.435905  1
  Al  Al17  1  0.509773  0.838065  0.814095  1
  Al  Al18  1  0.838065  0.509773  0.814095  1
  Al  Al19  1  0.831043  0.831043  0.506871  1
  Al  Al20  1  0.838065  0.838065  0.814095  1
  Fe  Fe21  1  0.125000  0.625000  0.625000  1
  Fe  Fe22  1  0.625000  0.125000  0.625000  1
  Fe  Fe23  1  0.625000  0.625000  0.625000  1
  N  N24  1  0.625000  0.125000  0.125000  1
  N  N25  1  0.125000  0.625000  0.125000  1
  N  N26  1  0.125000  0.125000  0.625000  1
  N  N27  1  0.125000  0.125000  0.125000  1
