# generated using pymatgen
data_Ho4LuBi3
_symmetry_space_group_name_H-M   'P 1'
_cell_length_a   8.21502100
_cell_length_b   9.45929000
_cell_length_c   11.98507100
_cell_angle_alpha   90.00000000
_cell_angle_beta   90.00000000
_cell_angle_gamma   90.00000000
_symmetry_Int_Tables_number   1
_chemical_formula_structural   Ho4LuBi3
_chemical_formula_sum   'Ho16 Lu4 Bi12'
_cell_volume   931.33908524
_cell_formula_units_Z   4
loop_
 _symmetry_equiv_pos_site_id
 _symmetry_equiv_pos_as_xyz
  1  'x, y, z'
loop_
 _atom_site_type_symbol
 _atom_site_label
 _atom_site_symmetry_multiplicity
 _atom_site_fract_x
 _atom_site_fract_y
 _atom_site_fract_z
 _atom_site_occupancy
  Ho  Ho0  1  0.353323  0.750034  0.216484  1
  Ho  Ho1  1  0.853323  0.749966  0.283516  1
  Ho  Ho2  1  0.646677  0.250034  0.783516  1
  Ho  Ho3  1  0.146677  0.249966  0.716484  1
  Ho  Ho4  1  0.308005  0.435512  0.940959  1
  Ho  Ho5  1  0.808005  0.064488  0.559041  1
  Ho  Ho6  1  0.691995  0.935512  0.059041  1
  Ho  Ho7  1  0.191995  0.564488  0.440959  1
  Ho  Ho8  1  0.476654  0.250114  0.488909  1
  Ho  Ho9  1  0.976654  0.249886  0.011091  1
  Ho  Ho10  1  0.523346  0.750114  0.511091  1
  Ho  Ho11  1  0.023346  0.749886  0.988909  1
  Ho  Ho12  1  0.314197  0.249776  0.217985  1
  Ho  Ho13  1  0.814197  0.250224  0.282015  1
  Ho  Ho14  1  0.685803  0.749776  0.782015  1
  Ho  Ho15  1  0.185803  0.750224  0.717985  1
  Lu  Lu16  1  0.691806  0.565714  0.058945  1
  Lu  Lu17  1  0.191806  0.934286  0.441055  1
  Lu  Lu18  1  0.308194  0.065714  0.941055  1
  Lu  Lu19  1  0.808194  0.434286  0.558945  1
  Bi  Bi20  1  0.405360  0.751249  0.957438  1
  Bi  Bi21  1  0.905360  0.748751  0.542562  1
  Bi  Bi22  1  0.594640  0.251249  0.042562  1
  Bi  Bi23  1  0.094640  0.248751  0.457438  1
  Bi  Bi24  1  0.566181  0.996122  0.325615  1
  Bi  Bi25  1  0.066181  0.503878  0.174385  1
  Bi  Bi26  1  0.433819  0.496122  0.674385  1
  Bi  Bi27  1  0.933819  0.003878  0.825615  1
  Bi  Bi28  1  0.433613  0.004033  0.674318  1
  Bi  Bi29  1  0.933613  0.495967  0.825682  1
  Bi  Bi30  1  0.566387  0.504033  0.325682  1
  Bi  Bi31  1  0.066387  0.995967  0.174318  1
