# generated using pymatgen
data_Er5InOs2
_symmetry_space_group_name_H-M   'P 1'
_cell_length_a   8.73772713
_cell_length_b   8.73772636
_cell_length_c   8.73772679
_cell_angle_alpha   128.07771408
_cell_angle_beta   128.07771270
_cell_angle_gamma   76.49916419
_symmetry_Int_Tables_number   1
_chemical_formula_structural   Er5InOs2
_chemical_formula_sum   'Er10 In2 Os4'
_cell_volume   401.58544534
_cell_formula_units_Z   2
loop_
 _symmetry_equiv_pos_site_id
 _symmetry_equiv_pos_as_xyz
  1  'x, y, z'
loop_
 _atom_site_type_symbol
 _atom_site_label
 _atom_site_symmetry_multiplicity
 _atom_site_fract_x
 _atom_site_fract_y
 _atom_site_fract_z
 _atom_site_occupancy
  Er  Er0  1  0.000000  0.000000  0.000000  1
  Er  Er1  1  0.500000  0.500000  0.000000  1
  Er  Er2  1  0.796757  0.296757  0.829129  1
  Er  Er3  1  0.203243  0.703243  0.170871  1
  Er  Er4  1  0.467627  0.967627  0.170871  1
  Er  Er5  1  0.296757  0.467627  0.500000  1
  Er  Er6  1  0.032373  0.203243  0.500000  1
  Er  Er7  1  0.532373  0.032373  0.829129  1
  Er  Er8  1  0.703243  0.532373  0.500000  1
  Er  Er9  1  0.967627  0.796757  0.500000  1
  In  In10  1  0.250000  0.250000  0.000000  1
  In  In11  1  0.750000  0.750000  0.000000  1
  Os  Os12  1  0.133717  0.633717  0.767433  1
  Os  Os13  1  0.866283  0.366283  0.232567  1
  Os  Os14  1  0.633717  0.866283  0.500000  1
  Os  Os15  1  0.366283  0.133717  0.500000  1
