# generated using pymatgen
data_Y3HoGa18Co5Pt
_symmetry_space_group_name_H-M   'P 1'
_cell_length_a   7.42807690
_cell_length_b   7.42686002
_cell_length_c   9.44175601
_cell_angle_alpha   89.88312382
_cell_angle_beta   89.87469511
_cell_angle_gamma   119.80235144
_symmetry_Int_Tables_number   1
_chemical_formula_structural   Y3HoGa18Co5Pt
_chemical_formula_sum   'Y3 Ho1 Ga18 Co5 Pt1'
_cell_volume   451.98361707
_cell_formula_units_Z   1
loop_
 _symmetry_equiv_pos_site_id
 _symmetry_equiv_pos_as_xyz
  1  'x, y, z'
loop_
 _atom_site_type_symbol
 _atom_site_label
 _atom_site_symmetry_multiplicity
 _atom_site_fract_x
 _atom_site_fract_y
 _atom_site_fract_z
 _atom_site_occupancy
  Y  Y0  1  0.328116  0.003002  0.748810  1
  Y  Y1  1  0.003035  0.328195  0.748828  1
  Y  Y2  1  0.671880  0.996941  0.251182  1
  Ho  Ho3  1  0.997070  0.671818  0.251272  1
  Ga  Ga4  1  0.655521  0.000251  0.923874  1
  Ga  Ga5  1  0.334680  0.997858  0.427889  1
  Ga  Ga6  1  0.998473  0.335884  0.427874  1
  Ga  Ga7  1  0.343883  0.999163  0.076505  1
  Ga  Ga8  1  0.000258  0.655544  0.924330  1
  Ga  Ga9  1  0.999726  0.345131  0.076560  1
  Ga  Ga10  1  0.333733  0.333733  0.557279  1
  Ga  Ga11  1  0.343845  0.343844  0.937565  1
  Ga  Ga12  1  0.656669  0.656163  0.062836  1
  Ga  Ga13  1  0.666826  0.666279  0.442282  1
  Ga  Ga14  1  0.869832  0.869802  0.741094  1
  Ga  Ga15  1  0.130017  0.129503  0.258885  1
  Ga  Ga16  1  0.334908  0.552335  0.251487  1
  Ga  Ga17  1  0.552975  0.336084  0.251492  1
  Ga  Ga18  1  0.664589  0.447848  0.748507  1
  Ga  Ga19  1  0.447830  0.664554  0.748505  1
  Ga  Ga20  1  0.664710  0.001528  0.571733  1
  Ga  Ga21  1  0.001528  0.664729  0.571198  1
  Co  Co22  1  0.329523  0.670401  0.000158  1
  Co  Co23  1  0.670849  0.329385  0.499824  1
  Co  Co24  1  0.670463  0.329674  0.000158  1
  Co  Co25  1  0.329172  0.670742  0.499838  1
  Co  Co26  1  0.999939  0.999806  0.499806  1
  Pt  Pt27  1  0.999949  0.999803  0.000227  1
