# generated using pymatgen
data_Y4TmRuRh4
_symmetry_space_group_name_H-M   'P 1'
_cell_length_a   3.41844400
_cell_length_b   3.41844400
_cell_length_c   17.17443600
_cell_angle_alpha   90.00000000
_cell_angle_beta   90.00000000
_cell_angle_gamma   90.00000000
_symmetry_Int_Tables_number   1
_chemical_formula_structural   Y4TmRuRh4
_chemical_formula_sum   'Y4 Tm1 Ru1 Rh4'
_cell_volume   200.69632660
_cell_formula_units_Z   1
loop_
 _symmetry_equiv_pos_site_id
 _symmetry_equiv_pos_as_xyz
  1  'x, y, z'
loop_
 _atom_site_type_symbol
 _atom_site_label
 _atom_site_symmetry_multiplicity
 _atom_site_fract_x
 _atom_site_fract_y
 _atom_site_fract_z
 _atom_site_occupancy
  Y  Y0  1  0.000000  0.000000  0.199321  1
  Y  Y1  1  0.000000  0.000000  0.401507  1
  Y  Y2  1  0.000000  0.000000  0.598493  1
  Y  Y3  1  0.000000  0.000000  0.800679  1
  Tm  Tm4  1  0.000000  0.000000  0.000000  1
  Ru  Ru5  1  0.500000  0.500000  0.500000  1
  Rh  Rh6  1  0.500000  0.500000  0.096279  1
  Rh  Rh7  1  0.500000  0.500000  0.297659  1
  Rh  Rh8  1  0.500000  0.500000  0.702341  1
  Rh  Rh9  1  0.500000  0.500000  0.903721  1
