# generated using pymatgen
data_Dy2Si7(Pt3Rh)3
_symmetry_space_group_name_H-M   'P 1'
_cell_length_a   9.92553700
_cell_length_b   9.92553709
_cell_length_c   3.90820400
_cell_angle_alpha   90.00000000
_cell_angle_beta   90.00000000
_cell_angle_gamma   120.00000304
_symmetry_Int_Tables_number   1
_chemical_formula_structural   Dy2Si7(Pt3Rh)3
_chemical_formula_sum   'Dy2 Si7 Pt9 Rh3'
_cell_volume   333.43859889
_cell_formula_units_Z   1
loop_
 _symmetry_equiv_pos_site_id
 _symmetry_equiv_pos_as_xyz
  1  'x, y, z'
loop_
 _atom_site_type_symbol
 _atom_site_label
 _atom_site_symmetry_multiplicity
 _atom_site_fract_x
 _atom_site_fract_y
 _atom_site_fract_z
 _atom_site_occupancy
  Dy  Dy0  1  0.333333  0.666667  0.751096  1
  Dy  Dy1  1  0.666667  0.333333  0.249720  1
  Si  Si2  1  0.000000  0.000000  0.484704  1
  Si  Si3  1  0.399894  0.284123  0.751381  1
  Si  Si4  1  0.715877  0.115773  0.751381  1
  Si  Si5  1  0.884227  0.600106  0.751381  1
  Si  Si6  1  0.600435  0.712683  0.250630  1
  Si  Si7  1  0.287317  0.887751  0.250630  1
  Si  Si8  1  0.112249  0.399565  0.250630  1
  Pt  Pt9  1  0.454147  0.073618  0.749520  1
  Pt  Pt10  1  0.926382  0.380529  0.749520  1
  Pt  Pt11  1  0.619471  0.545853  0.749520  1
  Pt  Pt12  1  0.546512  0.926747  0.248257  1
  Pt  Pt13  1  0.073253  0.619765  0.248257  1
  Pt  Pt14  1  0.380235  0.453488  0.248257  1
  Pt  Pt15  1  0.144418  0.260777  0.752174  1
  Pt  Pt16  1  0.739223  0.883642  0.752174  1
  Pt  Pt17  1  0.116358  0.855582  0.752174  1
  Rh  Rh18  1  0.855111  0.738729  0.252865  1
  Rh  Rh19  1  0.261271  0.116381  0.252865  1
  Rh  Rh20  1  0.883619  0.144889  0.252865  1
