# generated using pymatgen
data_Na4ErSbO6
_symmetry_space_group_name_H-M   'P 1'
_cell_length_a   5.72788224
_cell_length_b   5.72786790
_cell_length_c   5.85394184
_cell_angle_alpha   99.49817106
_cell_angle_beta   99.49881942
_cell_angle_gamma   119.96809439
_symmetry_Int_Tables_number   1
_chemical_formula_structural   Na4ErSbO6
_chemical_formula_sum   'Na4 Er1 Sb1 O6'
_cell_volume   157.06791063
_cell_formula_units_Z   1
loop_
 _symmetry_equiv_pos_site_id
 _symmetry_equiv_pos_as_xyz
  1  'x, y, z'
loop_
 _atom_site_type_symbol
 _atom_site_label
 _atom_site_symmetry_multiplicity
 _atom_site_fract_x
 _atom_site_fract_y
 _atom_site_fract_z
 _atom_site_occupancy
  Na  Na0  1  0.498628  0.501382  0.000006  1
  Na  Na1  1  0.012605  0.987391  0.500000  1
  Na  Na2  1  0.656737  0.343258  0.500006  1
  Na  Na3  1  0.338698  0.661315  0.500002  1
  Er  Er4  1  0.832394  0.167580  0.999988  1
  Sb  Sb5  1  0.166621  0.833376  0.000000  1
  O  O6  1  0.951301  0.598592  0.206887  1
  O  O7  1  0.541465  0.926064  0.213532  1
  O  O8  1  0.215148  0.188943  0.213220  1
  O  O9  1  0.811054  0.784851  0.786778  1
  O  O10  1  0.073944  0.458544  0.786471  1
  O  O11  1  0.401406  0.048706  0.793111  1
