# generated using pymatgen
data_Li8HfNp7N16
_symmetry_space_group_name_H-M   'P 1'
_cell_length_a   21.74714632
_cell_length_b   4.31355219
_cell_length_c   4.31169520
_cell_angle_alpha   89.98958955
_cell_angle_beta   90.01308436
_cell_angle_gamma   89.97900874
_symmetry_Int_Tables_number   1
_chemical_formula_structural   Li8HfNp7N16
_chemical_formula_sum   'Li8 Hf1 Np7 N16'
_cell_volume   404.46909050
_cell_formula_units_Z   1
loop_
 _symmetry_equiv_pos_site_id
 _symmetry_equiv_pos_as_xyz
  1  'x, y, z'
loop_
 _atom_site_type_symbol
 _atom_site_label
 _atom_site_symmetry_multiplicity
 _atom_site_fract_x
 _atom_site_fract_y
 _atom_site_fract_z
 _atom_site_occupancy
  Li  Li0  1  0.186616  0.999769  0.748381  1
  Li  Li1  1  0.812246  0.000720  0.251112  1
  Li  Li2  1  0.312812  0.998900  0.248332  1
  Li  Li3  1  0.698284  0.000759  0.750800  1
  Li  Li4  1  0.051372  0.500571  0.749278  1
  Li  Li5  1  0.926884  0.500255  0.250529  1
  Li  Li6  1  0.438148  0.498972  0.250101  1
  Li  Li7  1  0.573758  0.499886  0.751049  1
  Hf  Hf8  1  0.812453  0.500506  0.750862  1
  Np  Np9  1  0.440355  0.997983  0.749405  1
  Np  Np10  1  0.567771  0.998946  0.250109  1
  Np  Np11  1  0.057221  0.999728  0.248643  1
  Np  Np12  1  0.930262  0.000198  0.750331  1
  Np  Np13  1  0.312506  0.498322  0.747910  1
  Np  Np14  1  0.694662  0.500496  0.250667  1
  Np  Np15  1  0.184596  0.499036  0.247447  1
  N  N16  1  0.332945  0.999627  0.749055  1
  N  N17  1  0.677061  0.000685  0.250726  1
  N  N18  1  0.163496  0.000546  0.248808  1
  N  N19  1  0.831839  0.000479  0.750456  1
  N  N20  1  0.418460  0.499771  0.750376  1
  N  N21  1  0.591814  0.501228  0.251278  1
  N  N22  1  0.076690  0.500776  0.249856  1
  N  N23  1  0.915083  0.500442  0.751000  1
  N  N24  1  0.033588  0.000834  0.750826  1
  N  N25  1  0.948266  0.000250  0.250456  1
  N  N26  1  0.461182  0.999425  0.250893  1
  N  N27  1  0.548101  0.000186  0.751167  1
  N  N28  1  0.206576  0.499954  0.749234  1
  N  N29  1  0.792980  0.500158  0.250859  1
  N  N30  1  0.292238  0.499442  0.249118  1
  N  N31  1  0.709736  0.501149  0.750933  1
