# generated using pymatgen
data_Er8CdHgPd2
_symmetry_space_group_name_H-M   'P 1'
_cell_length_a   9.58907215
_cell_length_b   9.58907153
_cell_length_c   9.59180500
_cell_angle_alpha   59.99057327
_cell_angle_beta   59.99057540
_cell_angle_gamma   60.01943582
_symmetry_Int_Tables_number   1
_chemical_formula_structural   Er8CdHgPd2
_chemical_formula_sum   'Er16 Cd2 Hg2 Pd4'
_cell_volume   623.64914738
_cell_formula_units_Z   2
loop_
 _symmetry_equiv_pos_site_id
 _symmetry_equiv_pos_as_xyz
  1  'x, y, z'
loop_
 _atom_site_type_symbol
 _atom_site_label
 _atom_site_symmetry_multiplicity
 _atom_site_fract_x
 _atom_site_fract_y
 _atom_site_fract_z
 _atom_site_occupancy
  Er  Er0  1  0.355141  0.355141  0.351361  1
  Er  Er1  1  0.355141  0.355141  0.938355  1
  Er  Er2  1  0.359955  0.928656  0.355694  1
  Er  Er3  1  0.928656  0.359955  0.355694  1
  Er  Er4  1  0.811112  0.188735  0.189720  1
  Er  Er5  1  0.188735  0.811112  0.810433  1
  Er  Er6  1  0.188735  0.811112  0.189720  1
  Er  Er7  1  0.811112  0.188735  0.810433  1
  Er  Er8  1  0.189664  0.189664  0.810336  1
  Er  Er9  1  0.811054  0.811054  0.188946  1
  Er  Er10  1  0.933792  0.565013  0.565945  1
  Er  Er11  1  0.565013  0.933792  0.935250  1
  Er  Er12  1  0.565013  0.933792  0.565945  1
  Er  Er13  1  0.933792  0.565013  0.935250  1
  Er  Er14  1  0.565915  0.565915  0.934085  1
  Er  Er15  1  0.934957  0.934957  0.565043  1
  Cd  Cd16  1  0.580741  0.252705  0.583276  1
  Cd  Cd17  1  0.252705  0.580741  0.583276  1
  Hg  Hg18  1  0.585214  0.585214  0.589192  1
  Hg  Hg19  1  0.585214  0.585214  0.240378  1
  Pd  Pd20  1  0.144720  0.144720  0.148039  1
  Pd  Pd21  1  0.144720  0.144720  0.562520  1
  Pd  Pd22  1  0.142974  0.565923  0.145552  1
  Pd  Pd23  1  0.565923  0.142974  0.145552  1
