# generated using pymatgen
data_Sc12Ni2RuBr16
_symmetry_space_group_name_H-M   'P 1'
_cell_length_a   8.81539297
_cell_length_b   11.00035862
_cell_length_c   11.62342224
_cell_angle_alpha   117.16249792
_cell_angle_beta   101.60543136
_cell_angle_gamma   101.25973870
_symmetry_Int_Tables_number   1
_chemical_formula_structural   Sc12Ni2RuBr16
_chemical_formula_sum   'Sc12 Ni2 Ru1 Br16'
_cell_volume   927.51304980
_cell_formula_units_Z   1
loop_
 _symmetry_equiv_pos_site_id
 _symmetry_equiv_pos_as_xyz
  1  'x, y, z'
loop_
 _atom_site_type_symbol
 _atom_site_label
 _atom_site_symmetry_multiplicity
 _atom_site_fract_x
 _atom_site_fract_y
 _atom_site_fract_z
 _atom_site_occupancy
  Sc  Sc0  1  0.080456  0.256618  0.350529  1
  Sc  Sc1  1  0.919544  0.743382  0.649471  1
  Sc  Sc2  1  0.780197  0.537247  0.320464  1
  Sc  Sc3  1  0.219803  0.462753  0.679536  1
  Sc  Sc4  1  0.279662  0.743942  0.649561  1
  Sc  Sc5  1  0.720338  0.256058  0.350439  1
  Sc  Sc6  1  0.140115  0.537245  0.320755  1
  Sc  Sc7  1  0.859885  0.462755  0.679245  1
  Sc  Sc8  1  0.400547  0.350669  0.261910  1
  Sc  Sc9  1  0.599453  0.649331  0.738090  1
  Sc  Sc10  1  0.456384  0.299055  0.521504  1
  Sc  Sc11  1  0.543616  0.700945  0.478496  1
  Ni  Ni12  1  0.346309  0.500196  0.499436  1
  Ni  Ni13  1  0.653692  0.499804  0.500564  1
  Ru  Ru14  1  0.000000  0.500000  0.500000  1
  Br  Br15  1  0.398866  0.744782  0.889483  1
  Br  Br16  1  0.601134  0.255218  0.110517  1
  Br  Br17  1  0.192837  0.976397  0.788689  1
  Br  Br18  1  0.807163  0.023603  0.211311  1
  Br  Br19  1  0.335047  0.088704  0.247279  1
  Br  Br20  1  0.664953  0.911296  0.752721  1
  Br  Br21  1  0.557162  0.437404  0.803107  1
  Br  Br22  1  0.442838  0.562596  0.196893  1
  Br  Br23  1  0.311126  0.831364  0.462437  1
  Br  Br24  1  0.688874  0.168636  0.537563  1
  Br  Br25  1  0.167092  0.167660  0.533976  1
  Br  Br26  1  0.832908  0.832340  0.466024  1
  Br  Br27  1  0.925782  0.579561  0.155077  1
  Br  Br28  1  0.074218  0.420439  0.844923  1
  Br  Br29  1  0.925464  0.743415  0.889563  1
  Br  Br30  1  0.074536  0.256585  0.110437  1
