# generated using pymatgen
data_Zr6BiRhPb
_symmetry_space_group_name_H-M   'P 1'
_cell_length_a   3.61595400
_cell_length_b   8.10223942
_cell_length_c   8.10224000
_cell_angle_alpha   120.00000236
_cell_angle_beta   90.00000000
_cell_angle_gamma   90.00000000
_symmetry_Int_Tables_number   1
_chemical_formula_structural   Zr6BiRhPb
_chemical_formula_sum   'Zr6 Bi1 Rh1 Pb1'
_cell_volume   205.57187370
_cell_formula_units_Z   1
loop_
 _symmetry_equiv_pos_site_id
 _symmetry_equiv_pos_as_xyz
  1  'x, y, z'
loop_
 _atom_site_type_symbol
 _atom_site_label
 _atom_site_symmetry_multiplicity
 _atom_site_fract_x
 _atom_site_fract_y
 _atom_site_fract_z
 _atom_site_occupancy
  Zr  Zr0  1  0.500000  0.753142  0.751817  1
  Zr  Zr1  1  0.500000  0.998675  0.246858  1
  Zr  Zr2  1  0.500000  0.248183  0.001325  1
  Zr  Zr3  1  0.000000  0.394177  0.396016  1
  Zr  Zr4  1  0.000000  0.001841  0.605823  1
  Zr  Zr5  1  0.000000  0.603984  0.998159  1
  Bi  Bi6  1  0.500000  0.333333  0.666667  1
  Rh  Rh7  1  0.000000  0.000000  0.000000  1
  Pb  Pb8  1  0.500000  0.666667  0.333333  1
