# generated using pymatgen
data_LaNd(BIr)8
_symmetry_space_group_name_H-M   'P 1'
_cell_length_a   7.72405300
_cell_length_b   7.72405300
_cell_length_c   3.98844800
_cell_angle_alpha   90.00000000
_cell_angle_beta   90.00000000
_cell_angle_gamma   90.00000000
_symmetry_Int_Tables_number   1
_chemical_formula_structural   LaNd(BIr)8
_chemical_formula_sum   'La1 Nd1 B8 Ir8'
_cell_volume   237.95477518
_cell_formula_units_Z   1
loop_
 _symmetry_equiv_pos_site_id
 _symmetry_equiv_pos_as_xyz
  1  'x, y, z'
loop_
 _atom_site_type_symbol
 _atom_site_label
 _atom_site_symmetry_multiplicity
 _atom_site_fract_x
 _atom_site_fract_y
 _atom_site_fract_z
 _atom_site_occupancy
  La  La0  1  0.500000  0.500000  0.000000  1
  Nd  Nd1  1  0.000000  0.000000  0.500000  1
  B  B2  1  0.658489  0.779959  0.607440  1
  B  B3  1  0.158137  0.278784  0.891362  1
  B  B4  1  0.278784  0.841863  0.108638  1
  B  B5  1  0.721216  0.158137  0.108638  1
  B  B6  1  0.341511  0.220041  0.607440  1
  B  B7  1  0.841863  0.721216  0.891362  1
  B  B8  1  0.220041  0.658489  0.392560  1
  B  B9  1  0.779959  0.341511  0.392560  1
  Ir  Ir10  1  0.340091  0.109331  0.108569  1
  Ir  Ir11  1  0.659909  0.890669  0.108569  1
  Ir  Ir12  1  0.609710  0.158150  0.608623  1
  Ir  Ir13  1  0.109331  0.659909  0.891431  1
  Ir  Ir14  1  0.158150  0.390290  0.391377  1
  Ir  Ir15  1  0.841850  0.609710  0.391377  1
  Ir  Ir16  1  0.890669  0.340091  0.891431  1
  Ir  Ir17  1  0.390290  0.841850  0.608623  1
