# generated using pymatgen
data_Y16In6FePt
_symmetry_space_group_name_H-M   'P 1'
_cell_length_a   10.48452000
_cell_length_b   10.48443585
_cell_length_c   7.05754400
_cell_angle_alpha   89.99998907
_cell_angle_beta   90.00028417
_cell_angle_gamma   119.99973543
_symmetry_Int_Tables_number   1
_chemical_formula_structural   Y16In6FePt
_chemical_formula_sum   'Y16 In6 Fe1 Pt1'
_cell_volume   671.86033681
_cell_formula_units_Z   1
loop_
 _symmetry_equiv_pos_site_id
 _symmetry_equiv_pos_as_xyz
  1  'x, y, z'
loop_
 _atom_site_type_symbol
 _atom_site_label
 _atom_site_symmetry_multiplicity
 _atom_site_fract_x
 _atom_site_fract_y
 _atom_site_fract_z
 _atom_site_occupancy
  Y  Y0  1  0.824763  0.649607  0.493505  1
  Y  Y1  1  0.350386  0.175198  0.493480  1
  Y  Y2  1  0.824780  0.175142  0.493331  1
  Y  Y3  1  0.177063  0.354011  0.998707  1
  Y  Y4  1  0.645904  0.823028  0.998397  1
  Y  Y5  1  0.177046  0.822968  0.998383  1
  Y  Y6  1  0.666764  0.333432  0.164506  1
  Y  Y7  1  0.333253  0.666596  0.676610  1
  Y  Y8  1  0.530400  0.060687  0.788572  1
  Y  Y9  1  0.939241  0.469578  0.788528  1
  Y  Y10  1  0.530235  0.469596  0.788520  1
  Y  Y11  1  0.462592  0.925374  0.288446  1
  Y  Y12  1  0.074796  0.537412  0.288403  1
  Y  Y13  1  0.462784  0.537386  0.288388  1
  Y  Y14  1  0.999984  0.000012  0.773777  1
  Y  Y15  1  0.000002  0.999910  0.272901  1
  In  In16  1  0.836840  0.673875  0.032457  1
  In  In17  1  0.326246  0.163085  0.032565  1
  In  In18  1  0.836934  0.163107  0.032559  1
  In  In19  1  0.163306  0.326551  0.537275  1
  In  In20  1  0.673347  0.836676  0.537020  1
  In  In21  1  0.163231  0.836714  0.537056  1
  Fe  Fe22  1  0.333458  0.666756  0.061137  1
  Pt  Pt23  1  0.666648  0.333307  0.561550  1
