# generated using pymatgen
data_Sc2Ga3Ru6W
_symmetry_space_group_name_H-M   'P 1'
_cell_length_a   4.37183300
_cell_length_b   6.26836500
_cell_length_c   13.12842800
_cell_angle_alpha   90.00000000
_cell_angle_beta   89.99723606
_cell_angle_gamma   90.00000000
_symmetry_Int_Tables_number   1
_chemical_formula_structural   Sc2Ga3Ru6W
_chemical_formula_sum   'Sc4 Ga6 Ru12 W2'
_cell_volume   359.77465668
_cell_formula_units_Z   2
loop_
 _symmetry_equiv_pos_site_id
 _symmetry_equiv_pos_as_xyz
  1  'x, y, z'
loop_
 _atom_site_type_symbol
 _atom_site_label
 _atom_site_symmetry_multiplicity
 _atom_site_fract_x
 _atom_site_fract_y
 _atom_site_fract_z
 _atom_site_occupancy
  Sc  Sc0  1  0.999832  0.000000  0.332357  1
  Sc  Sc1  1  0.499985  0.499999  0.499691  1
  Sc  Sc2  1  0.000210  0.000000  0.667127  1
  Sc  Sc3  1  0.500161  0.499999  0.834227  1
  Ga  Ga4  1  0.000035  0.499999  0.996782  1
  Ga  Ga5  1  0.499798  0.000000  0.169840  1
  Ga  Ga6  1  0.999808  0.499999  0.334796  1
  Ga  Ga7  1  0.500002  0.000000  0.499142  1
  Ga  Ga8  1  0.000212  0.499999  0.667605  1
  Ga  Ga9  1  0.500182  0.000000  0.831828  1
  Ru  Ru10  1  0.499993  0.241892  0.006174  1
  Ru  Ru11  1  0.499993  0.758109  0.006174  1
  Ru  Ru12  1  0.999826  0.258139  0.160424  1
  Ru  Ru13  1  0.999826  0.741860  0.160424  1
  Ru  Ru14  1  0.499838  0.255427  0.326251  1
  Ru  Ru15  1  0.499838  0.744574  0.326251  1
  Ru  Ru16  1  0.999996  0.252238  0.498786  1
  Ru  Ru17  1  0.999996  0.747761  0.498786  1
  Ru  Ru18  1  0.500176  0.247875  0.667871  1
  Ru  Ru19  1  0.500176  0.752126  0.667871  1
  Ru  Ru20  1  0.000151  0.244533  0.840442  1
  Ru  Ru21  1  0.000151  0.755466  0.840442  1
  W  W22  1  0.000006  0.000000  0.997162  1
  W  W23  1  0.499814  0.499999  0.169549  1
