# generated using pymatgen
data_YbPr6OsI12
_symmetry_space_group_name_H-M   'P 1'
_cell_length_a   10.14116951
_cell_length_b   10.14116921
_cell_length_c   10.14117053
_cell_angle_alpha   107.07418839
_cell_angle_beta   107.07418173
_cell_angle_gamma   107.07418276
_symmetry_Int_Tables_number   1
_chemical_formula_structural   YbPr6OsI12
_chemical_formula_sum   'Yb1 Pr6 Os1 I12'
_cell_volume   866.81635914
_cell_formula_units_Z   1
loop_
 _symmetry_equiv_pos_site_id
 _symmetry_equiv_pos_as_xyz
  1  'x, y, z'
loop_
 _atom_site_type_symbol
 _atom_site_label
 _atom_site_symmetry_multiplicity
 _atom_site_fract_x
 _atom_site_fract_y
 _atom_site_fract_z
 _atom_site_occupancy
  Yb  Yb0  1  0.500000  0.500000  0.500000  1
  Pr  Pr1  1  0.974672  0.900441  0.696406  1
  Pr  Pr2  1  0.025328  0.099559  0.303594  1
  Pr  Pr3  1  0.099559  0.303594  0.025328  1
  Pr  Pr4  1  0.303594  0.025328  0.099559  1
  Pr  Pr5  1  0.900441  0.696406  0.974672  1
  Pr  Pr6  1  0.696406  0.974672  0.900441  1
  Os  Os7  1  0.000000  0.000000  0.000000  1
  I  I8  1  0.539355  0.617495  0.837766  1
  I  I9  1  0.460645  0.382505  0.162234  1
  I  I10  1  0.318605  0.927494  0.775175  1
  I  I11  1  0.382505  0.162234  0.460645  1
  I  I12  1  0.927494  0.775175  0.318605  1
  I  I13  1  0.681395  0.072506  0.224825  1
  I  I14  1  0.072506  0.224825  0.681395  1
  I  I15  1  0.775175  0.318605  0.927494  1
  I  I16  1  0.224825  0.681395  0.072506  1
  I  I17  1  0.837766  0.539355  0.617495  1
  I  I18  1  0.162234  0.460645  0.382505  1
  I  I19  1  0.617495  0.837766  0.539355  1
