# generated using pymatgen
data_Pr4TmIr3
_symmetry_space_group_name_H-M   'P 1'
_cell_length_a   11.25122800
_cell_length_b   11.25122800
_cell_length_c   6.53796500
_cell_angle_alpha   90.00000000
_cell_angle_beta   90.00000000
_cell_angle_gamma   90.00000000
_symmetry_Int_Tables_number   1
_chemical_formula_structural   Pr4TmIr3
_chemical_formula_sum   'Pr16 Tm4 Ir12'
_cell_volume   827.64184914
_cell_formula_units_Z   4
loop_
 _symmetry_equiv_pos_site_id
 _symmetry_equiv_pos_as_xyz
  1  'x, y, z'
loop_
 _atom_site_type_symbol
 _atom_site_label
 _atom_site_symmetry_multiplicity
 _atom_site_fract_x
 _atom_site_fract_y
 _atom_site_fract_z
 _atom_site_occupancy
  Pr  Pr0  1  0.287984  0.087342  0.380550  1
  Pr  Pr1  1  0.287984  0.912658  0.880550  1
  Pr  Pr2  1  0.712016  0.087342  0.880550  1
  Pr  Pr3  1  0.712016  0.912658  0.380550  1
  Pr  Pr4  1  0.587342  0.787984  0.880550  1
  Pr  Pr5  1  0.587342  0.212016  0.380550  1
  Pr  Pr6  1  0.412658  0.787984  0.380550  1
  Pr  Pr7  1  0.412658  0.212016  0.880550  1
  Pr  Pr8  1  0.212016  0.412658  0.619450  1
  Pr  Pr9  1  0.212016  0.587342  0.119450  1
  Pr  Pr10  1  0.787984  0.412658  0.119450  1
  Pr  Pr11  1  0.787984  0.587342  0.619450  1
  Pr  Pr12  1  0.912658  0.712016  0.119450  1
  Pr  Pr13  1  0.912658  0.287984  0.619450  1
  Pr  Pr14  1  0.087342  0.712016  0.619450  1
  Pr  Pr15  1  0.087342  0.287984  0.119450  1
  Tm  Tm16  1  0.000000  0.000000  0.500000  1
  Tm  Tm17  1  0.000000  0.000000  0.000000  1
  Tm  Tm18  1  0.500000  0.500000  0.000000  1
  Tm  Tm19  1  0.500000  0.500000  0.500000  1
  Ir  Ir20  1  0.853240  0.146760  0.250000  1
  Ir  Ir21  1  0.853240  0.853240  0.750000  1
  Ir  Ir22  1  0.146760  0.146760  0.750000  1
  Ir  Ir23  1  0.146760  0.853240  0.250000  1
  Ir  Ir24  1  0.646760  0.353240  0.750000  1
  Ir  Ir25  1  0.646760  0.646760  0.250000  1
  Ir  Ir26  1  0.353240  0.353240  0.250000  1
  Ir  Ir27  1  0.353240  0.646760  0.750000  1
  Ir  Ir28  1  0.500000  0.000000  0.116614  1
  Ir  Ir29  1  0.500000  0.000000  0.616614  1
  Ir  Ir30  1  0.000000  0.500000  0.883386  1
  Ir  Ir31  1  0.000000  0.500000  0.383386  1
