# generated using pymatgen
data_Y6IrPtRh16
_symmetry_space_group_name_H-M   'P 1'
_cell_length_a   5.29610900
_cell_length_b   5.29610881
_cell_length_c   17.52653300
_cell_angle_alpha   90.00000000
_cell_angle_beta   90.00000000
_cell_angle_gamma   119.99999497
_symmetry_Int_Tables_number   1
_chemical_formula_structural   Y6IrPtRh16
_chemical_formula_sum   'Y6 Ir1 Pt1 Rh16'
_cell_volume   425.73610480
_cell_formula_units_Z   1
loop_
 _symmetry_equiv_pos_site_id
 _symmetry_equiv_pos_as_xyz
  1  'x, y, z'
loop_
 _atom_site_type_symbol
 _atom_site_label
 _atom_site_symmetry_multiplicity
 _atom_site_fract_x
 _atom_site_fract_y
 _atom_site_fract_z
 _atom_site_occupancy
  Y  Y0  1  0.333333  0.666667  0.957159  1
  Y  Y1  1  0.666667  0.333333  0.042841  1
  Y  Y2  1  0.666667  0.333333  0.458318  1
  Y  Y3  1  0.333333  0.666667  0.541682  1
  Y  Y4  1  0.333333  0.666667  0.749724  1
  Y  Y5  1  0.666667  0.333333  0.250276  1
  Ir  Ir6  1  0.000000  0.000000  0.500000  1
  Pt  Pt7  1  0.000000  0.000000  0.000000  1
  Rh  Rh8  1  0.166922  0.833078  0.374312  1
  Rh  Rh9  1  0.166922  0.333846  0.374312  1
  Rh  Rh10  1  0.666154  0.833078  0.374312  1
  Rh  Rh11  1  0.833078  0.166922  0.625688  1
  Rh  Rh12  1  0.833078  0.666154  0.625688  1
  Rh  Rh13  1  0.333846  0.166922  0.625688  1
  Rh  Rh14  1  0.832261  0.167739  0.873550  1
  Rh  Rh15  1  0.832261  0.664521  0.873550  1
  Rh  Rh16  1  0.335479  0.167739  0.873550  1
  Rh  Rh17  1  0.167739  0.832261  0.126450  1
  Rh  Rh18  1  0.167739  0.335479  0.126450  1
  Rh  Rh19  1  0.664521  0.832261  0.126450  1
  Rh  Rh20  1  0.333333  0.666667  0.249073  1
  Rh  Rh21  1  0.666667  0.333333  0.750927  1
  Rh  Rh22  1  0.000000  0.000000  0.249718  1
  Rh  Rh23  1  0.000000  0.000000  0.750282  1
