# generated using pymatgen
data_Lu8In3Ir
_symmetry_space_group_name_H-M   'P 1'
_cell_length_a   10.23278800
_cell_length_b   10.23278769
_cell_length_c   6.90880800
_cell_angle_alpha   90.00000000
_cell_angle_beta   90.00000000
_cell_angle_gamma   120.00000101
_symmetry_Int_Tables_number   1
_chemical_formula_structural   Lu8In3Ir
_chemical_formula_sum   'Lu16 In6 Ir2'
_cell_volume   626.50088797
_cell_formula_units_Z   2
loop_
 _symmetry_equiv_pos_site_id
 _symmetry_equiv_pos_as_xyz
  1  'x, y, z'
loop_
 _atom_site_type_symbol
 _atom_site_label
 _atom_site_symmetry_multiplicity
 _atom_site_fract_x
 _atom_site_fract_y
 _atom_site_fract_z
 _atom_site_occupancy
  Lu  Lu0  1  0.532868  0.065735  0.523507  1
  Lu  Lu1  1  0.934265  0.467132  0.523507  1
  Lu  Lu2  1  0.532868  0.467132  0.523507  1
  Lu  Lu3  1  0.467132  0.934265  0.023507  1
  Lu  Lu4  1  0.065735  0.532868  0.023507  1
  Lu  Lu5  1  0.467132  0.532868  0.023507  1
  Lu  Lu6  1  0.177309  0.354618  0.729507  1
  Lu  Lu7  1  0.645382  0.822691  0.729507  1
  Lu  Lu8  1  0.177309  0.822691  0.729507  1
  Lu  Lu9  1  0.822691  0.645382  0.229507  1
  Lu  Lu10  1  0.354618  0.177309  0.229507  1
  Lu  Lu11  1  0.822691  0.177309  0.229507  1
  Lu  Lu12  1  0.666667  0.333333  0.904004  1
  Lu  Lu13  1  0.333333  0.666667  0.404004  1
  Lu  Lu14  1  0.000000  0.000000  0.506200  1
  Lu  Lu15  1  0.000000  0.000000  0.006200  1
  In  In16  1  0.837186  0.674372  0.769457  1
  In  In17  1  0.325628  0.162814  0.769457  1
  In  In18  1  0.837186  0.162814  0.769457  1
  In  In19  1  0.162814  0.325628  0.269457  1
  In  In20  1  0.674372  0.837186  0.269457  1
  In  In21  1  0.162814  0.837186  0.269457  1
  Ir  Ir22  1  0.666667  0.333333  0.300225  1
  Ir  Ir23  1  0.333333  0.666667  0.800225  1
