# generated using pymatgen
data_LiY3(Ni4P3)2
_symmetry_space_group_name_H-M   'P 1'
_cell_length_a   3.80234300
_cell_length_b   10.58866900
_cell_length_c   12.34274500
_cell_angle_alpha   90.00000000
_cell_angle_beta   90.00000000
_cell_angle_gamma   90.00000000
_symmetry_Int_Tables_number   1
_chemical_formula_structural   LiY3(Ni4P3)2
_chemical_formula_sum   'Li2 Y6 Ni16 P12'
_cell_volume   496.94053142
_cell_formula_units_Z   2
loop_
 _symmetry_equiv_pos_site_id
 _symmetry_equiv_pos_as_xyz
  1  'x, y, z'
loop_
 _atom_site_type_symbol
 _atom_site_label
 _atom_site_symmetry_multiplicity
 _atom_site_fract_x
 _atom_site_fract_y
 _atom_site_fract_z
 _atom_site_occupancy
  Li  Li0  1  0.500000  0.500000  0.152707  1
  Li  Li1  1  0.000000  0.000000  0.847293  1
  Y  Y2  1  0.000000  0.500000  0.523684  1
  Y  Y3  1  0.500000  0.000000  0.476316  1
  Y  Y4  1  0.500000  0.818310  0.204389  1
  Y  Y5  1  0.500000  0.181690  0.204389  1
  Y  Y6  1  0.000000  0.681690  0.795611  1
  Y  Y7  1  0.000000  0.318310  0.795611  1
  Ni  Ni8  1  0.500000  0.500000  0.702818  1
  Ni  Ni9  1  0.000000  0.000000  0.297182  1
  Ni  Ni10  1  0.000000  0.500000  0.988256  1
  Ni  Ni11  1  0.500000  0.000000  0.011744  1
  Ni  Ni12  1  0.500000  0.332154  0.997455  1
  Ni  Ni13  1  0.500000  0.667846  0.997455  1
  Ni  Ni14  1  0.000000  0.167846  0.002545  1
  Ni  Ni15  1  0.000000  0.832154  0.002545  1
  Ni  Ni16  1  0.500000  0.299591  0.430663  1
  Ni  Ni17  1  0.500000  0.700409  0.430663  1
  Ni  Ni18  1  0.000000  0.200409  0.569337  1
  Ni  Ni19  1  0.000000  0.799591  0.569337  1
  Ni  Ni20  1  0.500000  0.880399  0.708605  1
  Ni  Ni21  1  0.500000  0.119601  0.708605  1
  Ni  Ni22  1  0.000000  0.619601  0.291395  1
  Ni  Ni23  1  0.000000  0.380399  0.291395  1
  P  P24  1  0.500000  0.500000  0.881611  1
  P  P25  1  0.000000  0.000000  0.118389  1
  P  P26  1  0.500000  0.500000  0.349661  1
  P  P27  1  0.000000  0.000000  0.650339  1
  P  P28  1  0.500000  0.312951  0.615732  1
  P  P29  1  0.500000  0.687049  0.615732  1
  P  P30  1  0.000000  0.187049  0.384268  1
  P  P31  1  0.000000  0.812951  0.384268  1
  P  P32  1  0.500000  0.842509  0.893241  1
  P  P33  1  0.500000  0.157491  0.893241  1
  P  P34  1  0.000000  0.657491  0.106759  1
  P  P35  1  0.000000  0.342509  0.106759  1
