# generated using pymatgen
data_Rb3Y(AsSe2)6
_symmetry_space_group_name_H-M   'P 1'
_cell_length_a   9.89202000
_cell_length_b   9.89201983
_cell_length_c   8.40530200
_cell_angle_alpha   90.00000000
_cell_angle_beta   90.00000000
_cell_angle_gamma   119.99999387
_symmetry_Int_Tables_number   1
_chemical_formula_structural   Rb3Y(AsSe2)6
_chemical_formula_sum   'Rb3 Y1 As6 Se12'
_cell_volume   712.28523984
_cell_formula_units_Z   1
loop_
 _symmetry_equiv_pos_site_id
 _symmetry_equiv_pos_as_xyz
  1  'x, y, z'
loop_
 _atom_site_type_symbol
 _atom_site_label
 _atom_site_symmetry_multiplicity
 _atom_site_fract_x
 _atom_site_fract_y
 _atom_site_fract_z
 _atom_site_occupancy
  Rb  Rb0  1  0.000000  0.000000  0.000000  1
  Rb  Rb1  1  0.333333  0.666667  0.838534  1
  Rb  Rb2  1  0.666667  0.333333  0.161466  1
  Y  Y3  1  0.000000  0.000000  0.500000  1
  As  As4  1  0.293662  0.839375  0.370519  1
  As  As5  1  0.160625  0.454287  0.370519  1
  As  As6  1  0.545713  0.706338  0.370519  1
  As  As7  1  0.706338  0.160625  0.629481  1
  As  As8  1  0.839375  0.545713  0.629481  1
  As  As9  1  0.454287  0.293662  0.629481  1
  Se  Se10  1  0.266539  0.058837  0.302396  1
  Se  Se11  1  0.941163  0.207703  0.302396  1
  Se  Se12  1  0.792297  0.733461  0.302396  1
  Se  Se13  1  0.733461  0.941163  0.697604  1
  Se  Se14  1  0.058837  0.792297  0.697604  1
  Se  Se15  1  0.207703  0.266539  0.697604  1
  Se  Se16  1  0.529972  0.905991  0.208886  1
  Se  Se17  1  0.094009  0.623981  0.208886  1
  Se  Se18  1  0.376019  0.470028  0.208886  1
  Se  Se19  1  0.470028  0.094009  0.791114  1
  Se  Se20  1  0.905991  0.376019  0.791114  1
  Se  Se21  1  0.623981  0.529972  0.791114  1
