# generated using pymatgen
data_Hf18VCo2Re6Mo
_symmetry_space_group_name_H-M   'P 1'
_cell_length_a   8.58601900
_cell_length_b   8.58601739
_cell_length_c   8.40436500
_cell_angle_alpha   90.00000000
_cell_angle_beta   90.00000000
_cell_angle_gamma   120.00000235
_symmetry_Int_Tables_number   1
_chemical_formula_structural   Hf18VCo2Re6Mo
_chemical_formula_sum   'Hf18 V1 Co2 Re6 Mo1'
_cell_volume   536.56104082
_cell_formula_units_Z   1
loop_
 _symmetry_equiv_pos_site_id
 _symmetry_equiv_pos_as_xyz
  1  'x, y, z'
loop_
 _atom_site_type_symbol
 _atom_site_label
 _atom_site_symmetry_multiplicity
 _atom_site_fract_x
 _atom_site_fract_y
 _atom_site_fract_z
 _atom_site_occupancy
  Hf  Hf0  1  0.541727  0.083453  0.249683  1
  Hf  Hf1  1  0.458273  0.916547  0.750317  1
  Hf  Hf2  1  0.916547  0.458273  0.249683  1
  Hf  Hf3  1  0.541727  0.458273  0.249683  1
  Hf  Hf4  1  0.458273  0.541727  0.750317  1
  Hf  Hf5  1  0.083453  0.541727  0.750317  1
  Hf  Hf6  1  0.198921  0.397843  0.058427  1
  Hf  Hf7  1  0.799287  0.598576  0.559491  1
  Hf  Hf8  1  0.602157  0.801079  0.058427  1
  Hf  Hf9  1  0.198921  0.801079  0.058427  1
  Hf  Hf10  1  0.799287  0.200713  0.559491  1
  Hf  Hf11  1  0.401424  0.200713  0.559491  1
  Hf  Hf12  1  0.801079  0.602157  0.941573  1
  Hf  Hf13  1  0.801079  0.198921  0.941573  1
  Hf  Hf14  1  0.397843  0.198921  0.941573  1
  Hf  Hf15  1  0.598576  0.799287  0.440509  1
  Hf  Hf16  1  0.200713  0.799287  0.440509  1
  Hf  Hf17  1  0.200713  0.401424  0.440509  1
  V  V18  1  0.000000  0.000000  0.000000  1
  Co  Co19  1  0.333333  0.666667  0.249565  1
  Co  Co20  1  0.666667  0.333333  0.750435  1
  Re  Re21  1  0.888936  0.777873  0.247132  1
  Re  Re22  1  0.111064  0.222127  0.752868  1
  Re  Re23  1  0.222127  0.111064  0.247132  1
  Re  Re24  1  0.888936  0.111064  0.247132  1
  Re  Re25  1  0.111064  0.888936  0.752868  1
  Re  Re26  1  0.777873  0.888936  0.752868  1
  Mo  Mo27  1  0.000000  0.000000  0.500000  1
