# generated using pymatgen
data_Yb2GeN2
_symmetry_space_group_name_H-M   'P 1'
_cell_length_a   5.93092250
_cell_length_b   5.93092256
_cell_length_c   11.38914200
_cell_angle_alpha   90.00000000
_cell_angle_beta   90.00000000
_cell_angle_gamma   130.16759743
_symmetry_Int_Tables_number   1
_chemical_formula_structural   Yb2GeN2
_chemical_formula_sum   'Yb8 Ge4 N8'
_cell_volume   306.14018590
_cell_formula_units_Z   4
loop_
 _symmetry_equiv_pos_site_id
 _symmetry_equiv_pos_as_xyz
  1  'x, y, z'
loop_
 _atom_site_type_symbol
 _atom_site_label
 _atom_site_symmetry_multiplicity
 _atom_site_fract_x
 _atom_site_fract_y
 _atom_site_fract_z
 _atom_site_occupancy
  Yb  Yb0  1  0.142345  0.857655  0.946834  1
  Yb  Yb1  1  0.545848  0.454152  0.139819  1
  Yb  Yb2  1  0.045848  0.954152  0.360181  1
  Yb  Yb3  1  0.454152  0.545848  0.860181  1
  Yb  Yb4  1  0.357655  0.642345  0.446834  1
  Yb  Yb5  1  0.954152  0.045848  0.639819  1
  Yb  Yb6  1  0.857655  0.142345  0.053166  1
  Yb  Yb7  1  0.642345  0.357655  0.553166  1
  Ge  Ge8  1  0.259030  0.740970  0.684918  1
  Ge  Ge9  1  0.740970  0.259030  0.315082  1
  Ge  Ge10  1  0.759030  0.240970  0.815082  1
  Ge  Ge11  1  0.240970  0.759030  0.184918  1
  N  N12  1  0.344528  0.655472  0.053700  1
  N  N13  1  0.929430  0.070570  0.858990  1
  N  N14  1  0.844528  0.155472  0.446300  1
  N  N15  1  0.429430  0.570570  0.641010  1
  N  N16  1  0.655472  0.344528  0.946300  1
  N  N17  1  0.155471  0.844528  0.553700  1
  N  N18  1  0.570570  0.429430  0.358990  1
  N  N19  1  0.070570  0.929430  0.141010  1
