# generated using pymatgen
data_YLuPu3(SiB4)2
_symmetry_space_group_name_H-M   'P 1'
_cell_length_a   7.19043817
_cell_length_b   7.19043770
_cell_length_c   8.02562800
_cell_angle_alpha   90.00000000
_cell_angle_beta   90.00000000
_cell_angle_gamma   89.90924867
_symmetry_Int_Tables_number   1
_chemical_formula_structural   YLuPu3(SiB4)2
_chemical_formula_sum   'Y2 Lu2 Pu6 Si4 B16'
_cell_volume   414.94369038
_cell_formula_units_Z   2
loop_
 _symmetry_equiv_pos_site_id
 _symmetry_equiv_pos_as_xyz
  1  'x, y, z'
loop_
 _atom_site_type_symbol
 _atom_site_label
 _atom_site_symmetry_multiplicity
 _atom_site_fract_x
 _atom_site_fract_y
 _atom_site_fract_z
 _atom_site_occupancy
  Y  Y0  1  0.181832  0.318168  0.775734  1
  Y  Y1  1  0.181832  0.318168  0.224266  1
  Lu  Lu2  1  0.998680  0.997539  0.500000  1
  Lu  Lu3  1  0.502461  0.501320  0.500000  1
  Pu  Pu4  1  0.683035  0.182783  0.230209  1
  Pu  Pu5  1  0.317217  0.816965  0.769791  1
  Pu  Pu6  1  0.317217  0.816965  0.230209  1
  Pu  Pu7  1  0.816340  0.683660  0.230124  1
  Pu  Pu8  1  0.816340  0.683660  0.769876  1
  Pu  Pu9  1  0.683035  0.182783  0.769791  1
  Si  Si10  1  0.117304  0.615123  0.500000  1
  Si  Si11  1  0.884877  0.382696  0.500000  1
  Si  Si12  1  0.382408  0.117592  0.500000  1
  Si  Si13  1  0.613980  0.886020  0.500000  1
  B  B14  1  0.173264  0.037617  0.000000  1
  B  B15  1  0.825975  0.959776  0.000000  1
  B  B16  1  0.958103  0.171872  0.000000  1
  B  B17  1  0.328128  0.541897  0.000000  1
  B  B18  1  0.039733  0.825522  0.000000  1
  B  B19  1  0.674478  0.460267  0.000000  1
  B  B20  1  0.540224  0.674025  0.000000  1
  B  B21  1  0.462383  0.326736  0.000000  1
  B  B22  1  0.090184  0.589248  0.000000  1
  B  B23  1  0.910752  0.409816  0.000000  1
  B  B24  1  0.410005  0.089995  0.000000  1
  B  B25  1  0.588686  0.911314  0.000000  1
  B  B26  1  0.999156  0.998394  0.163008  1
  B  B27  1  0.999156  0.998394  0.836992  1
  B  B28  1  0.501606  0.500844  0.836992  1
  B  B29  1  0.501606  0.500844  0.163008  1
