# generated using pymatgen
data_Zr10BeTl5SiPb
_symmetry_space_group_name_H-M   'P 1'
_cell_length_a   8.76934677
_cell_length_b   8.77798220
_cell_length_c   5.91468392
_cell_angle_alpha   90.06456734
_cell_angle_beta   89.96767982
_cell_angle_gamma   120.03258535
_symmetry_Int_Tables_number   1
_chemical_formula_structural   Zr10BeTl5SiPb
_chemical_formula_sum   'Zr10 Be1 Tl5 Si1 Pb1'
_cell_volume   394.16779874
_cell_formula_units_Z   1
loop_
 _symmetry_equiv_pos_site_id
 _symmetry_equiv_pos_as_xyz
  1  'x, y, z'
loop_
 _atom_site_type_symbol
 _atom_site_label
 _atom_site_symmetry_multiplicity
 _atom_site_fract_x
 _atom_site_fract_y
 _atom_site_fract_z
 _atom_site_occupancy
  Zr  Zr0  1  0.665803  0.333265  0.499335  1
  Zr  Zr1  1  0.334197  0.667463  0.499335  1
  Zr  Zr2  1  0.334501  0.667398  0.000710  1
  Zr  Zr3  1  0.665499  0.332896  0.000710  1
  Zr  Zr4  1  0.751284  0.751585  0.257931  1
  Zr  Zr5  1  0.248716  0.000301  0.257931  1
  Zr  Zr6  1  0.000000  0.248164  0.256438  1
  Zr  Zr7  1  0.248285  0.247556  0.742412  1
  Zr  Zr8  1  0.751715  0.999271  0.742412  1
  Zr  Zr9  1  0.000000  0.751421  0.742365  1
  Be  Be10  1  0.000000  0.999658  0.499264  1
  Tl  Tl11  1  0.389698  0.389906  0.248934  1
  Tl  Tl12  1  0.610302  0.000207  0.248934  1
  Tl  Tl13  1  0.000000  0.610922  0.248647  1
  Tl  Tl14  1  0.609780  0.610216  0.751209  1
  Tl  Tl15  1  0.390220  0.000436  0.751209  1
  Si  Si16  1  0.000000  0.999346  0.000593  1
  Pb  Pb17  1  0.000000  0.389989  0.751629  1
