# generated using pymatgen
data_Sc10Pd3
_symmetry_space_group_name_H-M   'P 1'
_cell_length_a   8.73127000
_cell_length_b   8.73127032
_cell_length_c   8.46762700
_cell_angle_alpha   90.00000000
_cell_angle_beta   90.00000000
_cell_angle_gamma   119.99999878
_symmetry_Int_Tables_number   1
_chemical_formula_structural   Sc10Pd3
_chemical_formula_sum   'Sc20 Pd6'
_cell_volume   559.04556780
_cell_formula_units_Z   2
loop_
 _symmetry_equiv_pos_site_id
 _symmetry_equiv_pos_as_xyz
  1  'x, y, z'
loop_
 _atom_site_type_symbol
 _atom_site_label
 _atom_site_symmetry_multiplicity
 _atom_site_fract_x
 _atom_site_fract_y
 _atom_site_fract_z
 _atom_site_occupancy
  Sc  Sc0  1  0.000000  0.000000  0.000000  1
  Sc  Sc1  1  0.416625  0.208312  0.062867  1
  Sc  Sc2  1  0.791688  0.208312  0.062867  1
  Sc  Sc3  1  0.791687  0.583374  0.062867  1
  Sc  Sc4  1  0.092619  0.546310  0.250000  1
  Sc  Sc5  1  0.453690  0.546310  0.250000  1
  Sc  Sc6  1  0.453690  0.907382  0.250000  1
  Sc  Sc7  1  0.416625  0.208312  0.437133  1
  Sc  Sc8  1  0.791688  0.208312  0.437133  1
  Sc  Sc9  1  0.791687  0.583374  0.437133  1
  Sc  Sc10  1  0.000000  0.000000  0.500000  1
  Sc  Sc11  1  0.208312  0.416626  0.562868  1
  Sc  Sc12  1  0.208311  0.791688  0.562868  1
  Sc  Sc13  1  0.583375  0.791688  0.562868  1
  Sc  Sc14  1  0.546309  0.092618  0.750001  1
  Sc  Sc15  1  0.546310  0.453690  0.750001  1
  Sc  Sc16  1  0.907382  0.453690  0.750001  1
  Sc  Sc17  1  0.208312  0.416626  0.937132  1
  Sc  Sc18  1  0.208311  0.791688  0.937132  1
  Sc  Sc19  1  0.583375  0.791688  0.937132  1
  Pd  Pd20  1  0.120495  0.240989  0.250000  1
  Pd  Pd21  1  0.120494  0.879505  0.250000  1
  Pd  Pd22  1  0.759012  0.879505  0.250000  1
  Pd  Pd23  1  0.240989  0.120495  0.750001  1
  Pd  Pd24  1  0.879505  0.120495  0.750001  1
  Pd  Pd25  1  0.879504  0.759011  0.750001  1
