# generated using pymatgen
data_Y2Sc4CoTe2
_symmetry_space_group_name_H-M   'P 1'
_cell_length_a   3.89809900
_cell_length_b   7.85624832
_cell_length_c   7.93961004
_cell_angle_alpha   119.65408346
_cell_angle_beta   90.00000000
_cell_angle_gamma   90.00000000
_symmetry_Int_Tables_number   1
_chemical_formula_structural   Y2Sc4CoTe2
_chemical_formula_sum   'Y2 Sc4 Co1 Te2'
_cell_volume   211.30080667
_cell_formula_units_Z   1
loop_
 _symmetry_equiv_pos_site_id
 _symmetry_equiv_pos_as_xyz
  1  'x, y, z'
loop_
 _atom_site_type_symbol
 _atom_site_label
 _atom_site_symmetry_multiplicity
 _atom_site_fract_x
 _atom_site_fract_y
 _atom_site_fract_z
 _atom_site_occupancy
  Y  Y0  1  0.000000  0.395780  0.394647  1
  Y  Y1  1  0.000000  0.001116  0.605318  1
  Sc  Sc2  1  0.500000  0.773098  0.769523  1
  Sc  Sc3  1  0.500000  0.003580  0.230499  1
  Sc  Sc4  1  0.500000  0.228938  0.000003  1
  Sc  Sc5  1  0.000000  0.621851  0.999982  1
  Co  Co6  1  0.000000  0.965302  0.000025  1
  Te  Te7  1  0.500000  0.665364  0.320388  1
  Te  Te8  1  0.500000  0.344971  0.679616  1
