# generated using pymatgen
data_Al2PdPt2Rh
_symmetry_space_group_name_H-M   'P 1'
_cell_length_a   4.11125900
_cell_length_b   5.45786114
_cell_length_c   7.81982244
_cell_angle_alpha   90.87884674
_cell_angle_beta   90.00000000
_cell_angle_gamma   90.00000000
_symmetry_Int_Tables_number   1
_chemical_formula_structural   Al2PdPt2Rh
_chemical_formula_sum   'Al4 Pd2 Pt4 Rh2'
_cell_volume   175.44585777
_cell_formula_units_Z   2
loop_
 _symmetry_equiv_pos_site_id
 _symmetry_equiv_pos_as_xyz
  1  'x, y, z'
loop_
 _atom_site_type_symbol
 _atom_site_label
 _atom_site_symmetry_multiplicity
 _atom_site_fract_x
 _atom_site_fract_y
 _atom_site_fract_z
 _atom_site_occupancy
  Al  Al0  1  0.750000  0.802125  0.892938  1
  Al  Al1  1  0.250000  0.197875  0.107062  1
  Al  Al2  1  0.750000  0.317033  0.598661  1
  Al  Al3  1  0.250000  0.682967  0.401339  1
  Pd  Pd4  1  0.750000  0.960490  0.212612  1
  Pd  Pd5  1  0.250000  0.039510  0.787388  1
  Pt  Pt6  1  0.750000  0.333954  0.933063  1
  Pt  Pt7  1  0.250000  0.666046  0.066937  1
  Pt  Pt8  1  0.750000  0.833797  0.567946  1
  Pt  Pt9  1  0.250000  0.166203  0.432054  1
  Rh  Rh10  1  0.750000  0.463414  0.283428  1
  Rh  Rh11  1  0.250000  0.536586  0.716572  1
