# generated using pymatgen
data_Ho5Er5Os4
_symmetry_space_group_name_H-M   'P 1'
_cell_length_a   6.31595694
_cell_length_b   7.33354765
_cell_length_c   8.37788473
_cell_angle_alpha   96.95749494
_cell_angle_beta   112.16016362
_cell_angle_gamma   89.97244092
_symmetry_Int_Tables_number   1
_chemical_formula_structural   Ho5Er5Os4
_chemical_formula_sum   'Ho5 Er5 Os4'
_cell_volume   356.30785330
_cell_formula_units_Z   1
loop_
 _symmetry_equiv_pos_site_id
 _symmetry_equiv_pos_as_xyz
  1  'x, y, z'
loop_
 _atom_site_type_symbol
 _atom_site_label
 _atom_site_symmetry_multiplicity
 _atom_site_fract_x
 _atom_site_fract_y
 _atom_site_fract_z
 _atom_site_occupancy
  Ho  Ho0  1  0.792244  0.583856  0.815889  1
  Ho  Ho1  1  0.976130  0.916029  0.183885  1
  Ho  Ho2  1  0.207899  0.415996  0.184104  1
  Ho  Ho3  1  0.023740  0.084084  0.816102  1
  Ho  Ho4  1  0.203948  0.683674  0.564473  1
  Er  Er5  1  0.639592  0.816535  0.435594  1
  Er  Er6  1  0.795953  0.316393  0.435399  1
  Er  Er7  1  0.360455  0.183498  0.564310  1
  Er  Er8  1  0.420584  0.749848  0.000062  1
  Er  Er9  1  0.579559  0.250214  0.000134  1
  Os  Os10  1  0.602158  0.923297  0.780225  1
  Os  Os11  1  0.821422  0.577038  0.219610  1
  Os  Os12  1  0.398098  0.076881  0.219939  1
  Os  Os13  1  0.178217  0.422659  0.780274  1
