# generated using pymatgen
data_YTm(Ga2Ag)2
_symmetry_space_group_name_H-M   'P 1'
_cell_length_a   4.37203600
_cell_length_b   6.93060538
_cell_length_c   10.24928663
_cell_angle_alpha   90.23583947
_cell_angle_beta   90.00000000
_cell_angle_gamma   90.00000000
_symmetry_Int_Tables_number   1
_chemical_formula_structural   YTm(Ga2Ag)2
_chemical_formula_sum   'Y2 Tm2 Ga8 Ag4'
_cell_volume   310.55952974
_cell_formula_units_Z   2
loop_
 _symmetry_equiv_pos_site_id
 _symmetry_equiv_pos_as_xyz
  1  'x, y, z'
loop_
 _atom_site_type_symbol
 _atom_site_label
 _atom_site_symmetry_multiplicity
 _atom_site_fract_x
 _atom_site_fract_y
 _atom_site_fract_z
 _atom_site_occupancy
  Y  Y0  1  0.750000  0.720826  0.323228  1
  Y  Y1  1  0.250000  0.279174  0.676772  1
  Tm  Tm2  1  0.250000  0.778778  0.824844  1
  Tm  Tm3  1  0.750000  0.221222  0.175156  1
  Ga  Ga4  1  0.250000  0.703216  0.537060  1
  Ga  Ga5  1  0.750000  0.296784  0.462940  1
  Ga  Ga6  1  0.750000  0.800303  0.034842  1
  Ga  Ga7  1  0.250000  0.199697  0.965158  1
  Ga  Ga8  1  0.250000  0.931089  0.153979  1
  Ga  Ga9  1  0.750000  0.068911  0.846021  1
  Ga  Ga10  1  0.750000  0.571881  0.654705  1
  Ga  Ga11  1  0.250000  0.428119  0.345295  1
  Ag  Ag12  1  0.250000  0.544646  0.095277  1
  Ag  Ag13  1  0.750000  0.455354  0.904723  1
  Ag  Ag14  1  0.750000  0.954691  0.596553  1
  Ag  Ag15  1  0.250000  0.045309  0.403447  1
