# generated using pymatgen
data_Tb7YIn3Tc
_symmetry_space_group_name_H-M   'P 1'
_cell_length_a   10.46302400
_cell_length_b   10.46305178
_cell_length_c   7.07920300
_cell_angle_alpha   90.00000000
_cell_angle_beta   90.00000000
_cell_angle_gamma   120.00009464
_symmetry_Int_Tables_number   1
_chemical_formula_structural   Tb7YIn3Tc
_chemical_formula_sum   'Tb14 Y2 In6 Tc2'
_cell_volume   671.16635830
_cell_formula_units_Z   2
loop_
 _symmetry_equiv_pos_site_id
 _symmetry_equiv_pos_as_xyz
  1  'x, y, z'
loop_
 _atom_site_type_symbol
 _atom_site_label
 _atom_site_symmetry_multiplicity
 _atom_site_fract_x
 _atom_site_fract_y
 _atom_site_fract_z
 _atom_site_occupancy
  Tb  Tb0  1  0.467546  0.532454  0.477104  1
  Tb  Tb1  1  0.064907  0.532454  0.477104  1
  Tb  Tb2  1  0.467546  0.935093  0.477104  1
  Tb  Tb3  1  0.532454  0.467546  0.977104  1
  Tb  Tb4  1  0.935093  0.467546  0.977104  1
  Tb  Tb5  1  0.532454  0.064907  0.977104  1
  Tb  Tb6  1  0.822971  0.177030  0.274699  1
  Tb  Tb7  1  0.354059  0.177030  0.274697  1
  Tb  Tb8  1  0.822970  0.645940  0.274698  1
  Tb  Tb9  1  0.177029  0.822970  0.774699  1
  Tb  Tb10  1  0.645941  0.822970  0.774697  1
  Tb  Tb11  1  0.177030  0.354060  0.774698  1
  Tb  Tb12  1  0.333333  0.666667  0.106654  1
  Tb  Tb13  1  0.666667  0.333333  0.606654  1
  Y  Y14  1  0.000000  0.000000  0.497977  1
  Y  Y15  1  0.000000  0.000000  0.997977  1
  In  In16  1  0.162479  0.837521  0.235577  1
  In  In17  1  0.675046  0.837523  0.235576  1
  In  In18  1  0.162478  0.324956  0.235577  1
  In  In19  1  0.837521  0.162479  0.735577  1
  In  In20  1  0.324954  0.162477  0.735576  1
  In  In21  1  0.837522  0.675044  0.735577  1
  Tc  Tc22  1  0.333333  0.666667  0.705510  1
  Tc  Tc23  1  0.666667  0.333333  0.205510  1
