# generated using pymatgen
data_La4Ga10Ir5Au
_symmetry_space_group_name_H-M   'P 1'
_cell_length_a   8.75027252
_cell_length_b   8.75443722
_cell_length_c   8.75455603
_cell_angle_alpha   140.52380263
_cell_angle_beta   107.70363739
_cell_angle_gamma   85.64851205
_symmetry_Int_Tables_number   1
_chemical_formula_structural   La4Ga10Ir5Au
_chemical_formula_sum   'La4 Ga10 Ir5 Au1'
_cell_volume   391.94810448
_cell_formula_units_Z   1
loop_
 _symmetry_equiv_pos_site_id
 _symmetry_equiv_pos_as_xyz
  1  'x, y, z'
loop_
 _atom_site_type_symbol
 _atom_site_label
 _atom_site_symmetry_multiplicity
 _atom_site_fract_x
 _atom_site_fract_y
 _atom_site_fract_z
 _atom_site_occupancy
  La  La0  1  0.094251  0.866869  0.227398  1
  La  La1  1  0.636739  0.363285  0.273353  1
  La  La2  1  0.902785  0.135086  0.767581  1
  La  La3  1  0.365128  0.635977  0.729245  1
  Ga  Ga4  1  0.297654  0.049802  0.761354  1
  Ga  Ga5  1  0.297655  0.536298  0.247818  1
  Ga  Ga6  1  0.001296  0.239273  0.247555  1
  Ga  Ga7  1  0.240896  0.406887  0.833970  1
  Ga  Ga8  1  0.746854  0.591744  0.155169  1
  Ga  Ga9  1  0.710771  0.461761  0.749924  1
  Ga  Ga10  1  0.572246  0.906347  0.665892  1
  Ga  Ga11  1  0.710776  0.960864  0.249017  1
  Ga  Ga12  1  0.427857  0.093238  0.334608  1
  Ga  Ga13  1  0.001281  0.753747  0.762006  1
  Ir  Ir14  1  0.754098  0.854352  0.899726  1
  Ir  Ir15  1  0.954004  0.353563  0.600560  1
  Ir  Ir16  1  0.245536  0.146485  0.099107  1
  Ir  Ir17  1  0.497953  0.750890  0.250605  1
  Ir  Ir18  1  0.497993  0.247372  0.747089  1
  Au  Au19  1  0.044226  0.646161  0.398022  1
