# generated using pymatgen
data_BaNa2SnSe4
_symmetry_space_group_name_H-M   'P 1'
_cell_length_a   6.87236908
_cell_length_b   6.87236851
_cell_length_c   6.87236927
_cell_angle_alpha   111.86088716
_cell_angle_beta   111.80132863
_cell_angle_gamma   104.84803444
_symmetry_Int_Tables_number   1
_chemical_formula_structural   BaNa2SnSe4
_chemical_formula_sum   'Ba1 Na2 Sn1 Se4'
_cell_volume   248.65329107
_cell_formula_units_Z   1
loop_
 _symmetry_equiv_pos_site_id
 _symmetry_equiv_pos_as_xyz
  1  'x, y, z'
loop_
 _atom_site_type_symbol
 _atom_site_label
 _atom_site_symmetry_multiplicity
 _atom_site_fract_x
 _atom_site_fract_y
 _atom_site_fract_z
 _atom_site_occupancy
  Ba  Ba0  1  0.000000  0.000000  0.000000  1
  Na  Na1  1  0.257676  0.757676  0.500000  1
  Na  Na2  1  0.742324  0.242324  0.500000  1
  Sn  Sn3  1  0.500000  0.500000  0.000000  1
  Se  Se4  1  0.479072  0.867062  0.998044  1
  Se  Se5  1  0.869019  0.481028  0.001956  1
  Se  Se6  1  0.520928  0.518972  0.387990  1
  Se  Se7  1  0.130981  0.132938  0.612010  1
