# generated using pymatgen
data_Lu4MnAl3B16
_symmetry_space_group_name_H-M   'P 1'
_cell_length_a   3.45549700
_cell_length_b   5.89919419
_cell_length_c   11.40644974
_cell_angle_alpha   90.22344660
_cell_angle_beta   90.00000000
_cell_angle_gamma   90.00000000
_symmetry_Int_Tables_number   1
_chemical_formula_structural   Lu4MnAl3B16
_chemical_formula_sum   'Lu4 Mn1 Al3 B16'
_cell_volume   232.51469259
_cell_formula_units_Z   1
loop_
 _symmetry_equiv_pos_site_id
 _symmetry_equiv_pos_as_xyz
  1  'x, y, z'
loop_
 _atom_site_type_symbol
 _atom_site_label
 _atom_site_symmetry_multiplicity
 _atom_site_fract_x
 _atom_site_fract_y
 _atom_site_fract_z
 _atom_site_occupancy
  Lu  Lu0  1  0.000000  0.370592  0.657352  1
  Lu  Lu1  1  0.000000  0.628289  0.347500  1
  Lu  Lu2  1  0.000000  0.875085  0.851655  1
  Lu  Lu3  1  0.000000  0.129726  0.144738  1
  Mn  Mn4  1  0.000000  0.372327  0.917152  1
  Al  Al5  1  0.000000  0.632736  0.083076  1
  Al  Al6  1  0.000000  0.860882  0.592967  1
  Al  Al7  1  0.000000  0.138010  0.409866  1
  B  B8  1  0.500000  0.026622  0.693864  1
  B  B9  1  0.500000  0.973315  0.305678  1
  B  B10  1  0.500000  0.518389  0.808637  1
  B  B11  1  0.500000  0.475611  0.193198  1
  B  B12  1  0.500000  0.114726  0.547977  1
  B  B13  1  0.500000  0.885269  0.452144  1
  B  B14  1  0.500000  0.610249  0.949845  1
  B  B15  1  0.500000  0.382200  0.044143  1
  B  B16  1  0.500000  0.291998  0.312370  1
  B  B17  1  0.500000  0.707495  0.687530  1
  B  B18  1  0.500000  0.790039  0.186358  1
  B  B19  1  0.500000  0.214312  0.816326  1
  B  B20  1  0.500000  0.367140  0.469151  1
  B  B21  1  0.500000  0.632148  0.530763  1
  B  B22  1  0.500000  0.866583  0.031369  1
  B  B23  1  0.500000  0.136256  0.966340  1
