# generated using pymatgen
data_Ti3B2Mo2P
_symmetry_space_group_name_H-M   'P 1'
_cell_length_a   7.06653045
_cell_length_b   7.04940371
_cell_length_c   7.04940328
_cell_angle_alpha   129.50249192
_cell_angle_beta   129.64041327
_cell_angle_gamma   74.04030651
_symmetry_Int_Tables_number   1
_chemical_formula_structural   Ti3B2Mo2P
_chemical_formula_sum   'Ti6 B4 Mo4 P2'
_cell_volume   203.53158846
_cell_formula_units_Z   2
loop_
 _symmetry_equiv_pos_site_id
 _symmetry_equiv_pos_as_xyz
  1  'x, y, z'
loop_
 _atom_site_type_symbol
 _atom_site_label
 _atom_site_symmetry_multiplicity
 _atom_site_fract_x
 _atom_site_fract_y
 _atom_site_fract_z
 _atom_site_occupancy
  Ti  Ti0  1  0.809185  0.966155  0.499703  1
  Ti  Ti1  1  0.309185  0.809483  0.843031  1
  Ti  Ti2  1  0.191928  0.034223  0.500597  1
  Ti  Ti3  1  0.532506  0.689365  0.500032  1
  Ti  Ti4  1  0.032506  0.532473  0.843141  1
  Ti  Ti5  1  0.691928  0.191331  0.157704  1
  B  B6  1  0.389173  0.889283  0.278011  1
  B  B7  1  0.889173  0.611163  0.499890  1
  B  B8  1  0.611095  0.110839  0.722786  1
  B  B9  1  0.111095  0.388308  0.500257  1
  Mo  Mo10  1  0.001214  0.999712  0.999970  1
  Mo  Mo11  1  0.965278  0.466488  0.156238  1
  Mo  Mo12  1  0.501214  0.501243  0.001501  1
  Mo  Mo13  1  0.465278  0.309040  0.498790  1
  P  P14  1  0.749621  0.751408  0.000134  1
  P  P15  1  0.249621  0.249487  0.998213  1
