# generated using pymatgen
data_Pr3ClO4
_symmetry_space_group_name_H-M   'P 1'
_cell_length_a   6.53774548
_cell_length_b   6.53774607
_cell_length_c   12.34738900
_cell_angle_alpha   90.00000000
_cell_angle_beta   90.00000000
_cell_angle_gamma   142.29056605
_symmetry_Int_Tables_number   1
_chemical_formula_structural   Pr3ClO4
_chemical_formula_sum   'Pr6 Cl2 O8'
_cell_volume   322.80433478
_cell_formula_units_Z   2
loop_
 _symmetry_equiv_pos_site_id
 _symmetry_equiv_pos_as_xyz
  1  'x, y, z'
loop_
 _atom_site_type_symbol
 _atom_site_label
 _atom_site_symmetry_multiplicity
 _atom_site_fract_x
 _atom_site_fract_y
 _atom_site_fract_z
 _atom_site_occupancy
  Pr  Pr0  1  0.824251  0.175749  0.399257  1
  Pr  Pr1  1  0.175749  0.824251  0.600743  1
  Pr  Pr2  1  0.175749  0.824251  0.899257  1
  Pr  Pr3  1  0.824251  0.175749  0.100743  1
  Pr  Pr4  1  0.874541  0.125459  0.750000  1
  Pr  Pr5  1  0.125459  0.874541  0.250000  1
  Cl  Cl6  1  0.500000  0.500000  0.000000  1
  Cl  Cl7  1  0.500000  0.500000  0.500000  1
  O  O8  1  0.295398  0.704602  0.750000  1
  O  O9  1  0.704602  0.295398  0.250000  1
  O  O10  1  0.058836  0.941164  0.750000  1
  O  O11  1  0.941164  0.058836  0.250000  1
  O  O12  1  0.766040  0.233960  0.910659  1
  O  O13  1  0.233960  0.766040  0.089341  1
  O  O14  1  0.233960  0.766040  0.410659  1
  O  O15  1  0.766040  0.233960  0.589341  1
