# generated using pymatgen
data_K2Ti(WO4)3
_symmetry_space_group_name_H-M   'P 1'
_cell_length_a   7.30524631
_cell_length_b   7.37323003
_cell_length_c   7.30465441
_cell_angle_alpha   89.99999907
_cell_angle_beta   60.61851547
_cell_angle_gamma   120.30832494
_symmetry_Int_Tables_number   1
_chemical_formula_structural   K2Ti(WO4)3
_chemical_formula_sum   'K2 Ti1 W3 O12'
_cell_volume   279.49398057
_cell_formula_units_Z   1
loop_
 _symmetry_equiv_pos_site_id
 _symmetry_equiv_pos_as_xyz
  1  'x, y, z'
loop_
 _atom_site_type_symbol
 _atom_site_label
 _atom_site_symmetry_multiplicity
 _atom_site_fract_x
 _atom_site_fract_y
 _atom_site_fract_z
 _atom_site_occupancy
  K  K0  1  0.265621  0.130081  0.632863  1
  K  K1  1  0.734379  0.864461  0.367137  1
  Ti  Ti2  1  0.000000  0.497431  0.000000  1
  W  W3  1  0.500029  0.497199  0.999881  1
  W  W4  1  0.499971  0.997170  0.000119  1
  W  W5  1  0.000000  0.497268  0.500000  1
  O  O6  1  0.627953  0.811328  0.938661  1
  O  O7  1  0.877789  0.436258  0.314009  1
  O  O8  1  0.252907  0.436260  0.938912  1
  O  O9  1  0.252588  0.811346  0.314012  1
  O  O10  1  0.252925  0.811409  0.938880  1
  O  O11  1  0.252622  0.435988  0.314008  1
  O  O12  1  0.372047  0.183374  0.061339  1
  O  O13  1  0.122211  0.558469  0.685991  1
  O  O14  1  0.747075  0.558483  0.061120  1
  O  O15  1  0.747378  0.183365  0.685992  1
  O  O16  1  0.747093  0.183353  0.061088  1
  O  O17  1  0.747412  0.558758  0.685988  1
