# generated using pymatgen
data_NaNd6NiBr12
_symmetry_space_group_name_H-M   'P 1'
_cell_length_a   9.38397893
_cell_length_b   9.51644713
_cell_length_c   9.54168542
_cell_angle_alpha   107.08981388
_cell_angle_beta   107.15984134
_cell_angle_gamma   107.13286920
_symmetry_Int_Tables_number   1
_chemical_formula_structural   NaNd6NiBr12
_chemical_formula_sum   'Na1 Nd6 Ni1 Br12'
_cell_volume   707.14811978
_cell_formula_units_Z   1
loop_
 _symmetry_equiv_pos_site_id
 _symmetry_equiv_pos_as_xyz
  1  'x, y, z'
loop_
 _atom_site_type_symbol
 _atom_site_label
 _atom_site_symmetry_multiplicity
 _atom_site_fract_x
 _atom_site_fract_y
 _atom_site_fract_z
 _atom_site_occupancy
  Na  Na0  1  0.500000  0.500000  0.500000  1
  Nd  Nd1  1  0.308166  0.106478  0.027955  1
  Nd  Nd2  1  0.029608  0.323860  0.113992  1
  Nd  Nd3  1  0.113884  0.030393  0.322933  1
  Nd  Nd4  1  0.886115  0.969607  0.677067  1
  Nd  Nd5  1  0.970392  0.676140  0.886007  1
  Nd  Nd6  1  0.691834  0.893522  0.972044  1
  Ni  Ni7  1  0.000000  0.000000  0.000000  1
  Br  Br8  1  0.681313  0.217084  0.072852  1
  Br  Br9  1  0.372632  0.452858  0.153419  1
  Br  Br10  1  0.073468  0.684507  0.218098  1
  Br  Br11  1  0.779407  0.926783  0.315262  1
  Br  Br12  1  0.456382  0.154632  0.370056  1
  Br  Br13  1  0.151689  0.369980  0.453362  1
  Br  Br14  1  0.848312  0.630020  0.546639  1
  Br  Br15  1  0.543618  0.845369  0.629944  1
  Br  Br16  1  0.220592  0.073217  0.684738  1
  Br  Br17  1  0.926532  0.315493  0.781901  1
  Br  Br18  1  0.627369  0.547143  0.846581  1
  Br  Br19  1  0.318687  0.782915  0.927148  1
