# generated using pymatgen
data_Ho2Be23Cu3
_symmetry_space_group_name_H-M   'P 1'
_cell_length_a   7.30040987
_cell_length_b   7.34325744
_cell_length_c   7.27806348
_cell_angle_alpha   59.90527560
_cell_angle_beta   60.08645517
_cell_angle_gamma   59.60402675
_symmetry_Int_Tables_number   1
_chemical_formula_structural   Ho2Be23Cu3
_chemical_formula_sum   'Ho2 Be23 Cu3'
_cell_volume   275.03700390
_cell_formula_units_Z   1
loop_
 _symmetry_equiv_pos_site_id
 _symmetry_equiv_pos_as_xyz
  1  'x, y, z'
loop_
 _atom_site_type_symbol
 _atom_site_label
 _atom_site_symmetry_multiplicity
 _atom_site_fract_x
 _atom_site_fract_y
 _atom_site_fract_z
 _atom_site_occupancy
  Ho  Ho0  1  0.251934  0.248886  0.250972  1
  Ho  Ho1  1  0.749028  0.751792  0.748066  1
  Be  Be2  1  0.500442  0.500328  0.499558  1
  Be  Be3  1  0.999171  0.999612  0.000829  1
  Be  Be4  1  0.436660  0.204186  0.563340  1
  Be  Be5  1  0.283470  0.936695  0.716530  1
  Be  Be6  1  0.715188  0.070326  0.284812  1
  Be  Be7  1  0.932272  0.278768  0.067728  1
  Be  Be8  1  0.069833  0.720806  0.930167  1
  Be  Be9  1  0.201806  0.799486  0.560753  1
  Be  Be10  1  0.794796  0.199655  0.441349  1
  Be  Be11  1  0.439247  0.562045  0.798194  1
  Be  Be12  1  0.558651  0.435800  0.205204  1
  Be  Be13  1  0.712099  0.285379  0.935712  1
  Be  Be14  1  0.286476  0.714302  0.066076  1
  Be  Be15  1  0.064288  0.933190  0.287901  1
  Be  Be16  1  0.933924  0.066854  0.713524  1
  Be  Be17  1  0.567037  0.205966  0.790893  1
  Be  Be18  1  0.432848  0.792858  0.206338  1
  Be  Be19  1  0.793662  0.432044  0.567152  1
  Be  Be20  1  0.209107  0.563897  0.432963  1
  Be  Be21  1  0.940078  0.710360  0.289758  1
  Be  Be22  1  0.063848  0.287882  0.708516  1
  Be  Be23  1  0.291484  0.060247  0.936152  1
  Be  Be24  1  0.710242  0.940196  0.059922  1
  Cu  Cu25  1  0.805749  0.555587  0.194251  1
  Cu  Cu26  1  0.198079  0.439835  0.801921  1
  Cu  Cu27  1  0.558582  0.803018  0.441418  1
