# generated using pymatgen
data_Hf24SiAs7
_symmetry_space_group_name_H-M   'P 1'
_cell_length_a   8.21168696
_cell_length_b   8.21866948
_cell_length_c   15.37677796
_cell_angle_alpha   89.65271602
_cell_angle_beta   89.66663859
_cell_angle_gamma   38.43652920
_symmetry_Int_Tables_number   1
_chemical_formula_structural   Hf24SiAs7
_chemical_formula_sum   'Hf24 Si1 As7'
_cell_volume   645.11133806
_cell_formula_units_Z   1
loop_
 _symmetry_equiv_pos_site_id
 _symmetry_equiv_pos_as_xyz
  1  'x, y, z'
loop_
 _atom_site_type_symbol
 _atom_site_label
 _atom_site_symmetry_multiplicity
 _atom_site_fract_x
 _atom_site_fract_y
 _atom_site_fract_z
 _atom_site_occupancy
  Hf  Hf0  1  0.122118  0.043046  0.808860  1
  Hf  Hf1  1  0.423656  0.460362  0.832882  1
  Hf  Hf2  1  0.956737  0.878153  0.691049  1
  Hf  Hf3  1  0.459347  0.424384  0.331929  1
  Hf  Hf4  1  0.051002  0.470475  0.904863  1
  Hf  Hf5  1  0.539556  0.576527  0.667042  1
  Hf  Hf6  1  0.431422  0.879935  0.989913  1
  Hf  Hf7  1  0.202027  0.700343  0.016984  1
  Hf  Hf8  1  0.565531  0.122920  0.011351  1
  Hf  Hf9  1  0.119634  0.568826  0.509702  1
  Hf  Hf10  1  0.953638  0.527248  0.095295  1
  Hf  Hf11  1  0.880815  0.430815  0.489985  1
  Hf  Hf12  1  0.005079  0.527832  0.300573  1
  Hf  Hf13  1  0.996883  0.471036  0.699035  1
  Hf  Hf14  1  0.799167  0.297396  0.983670  1
  Hf  Hf15  1  0.529448  0.949422  0.594919  1
  Hf  Hf16  1  0.043353  0.121993  0.308847  1
  Hf  Hf17  1  0.702080  0.200676  0.516395  1
  Hf  Hf18  1  0.297375  0.799731  0.483599  1
  Hf  Hf19  1  0.878661  0.954440  0.191073  1
  Hf  Hf20  1  0.469569  0.000875  0.198453  1
  Hf  Hf21  1  0.573637  0.539464  0.167047  1
  Hf  Hf22  1  0.528904  0.002917  0.800966  1
  Hf  Hf23  1  0.470560  0.050662  0.404999  1
  Si  Si24  1  0.336392  0.420224  0.167293  1
  As  As25  1  0.895134  0.934951  0.871304  1
  As  As26  1  0.104594  0.064801  0.128623  1
  As  As27  1  0.663838  0.579935  0.833172  1
  As  As28  1  0.579953  0.664310  0.333026  1
  As  As29  1  0.419783  0.336269  0.666920  1
  As  As30  1  0.935185  0.895308  0.371383  1
  As  As31  1  0.064923  0.104725  0.628850  1
