# generated using pymatgen
data_Dy5Ho13(BiO)10
_symmetry_space_group_name_H-M   'P 1'
_cell_length_a   9.99370405
_cell_length_b   9.99393500
_cell_length_c   8.92086605
_cell_angle_alpha   89.99739420
_cell_angle_beta   89.98875959
_cell_angle_gamma   90.00197207
_symmetry_Int_Tables_number   1
_chemical_formula_structural   Dy5Ho13(BiO)10
_chemical_formula_sum   'Dy5 Ho13 Bi10 O10'
_cell_volume   890.98422310
_cell_formula_units_Z   1
loop_
 _symmetry_equiv_pos_site_id
 _symmetry_equiv_pos_as_xyz
  1  'x, y, z'
loop_
 _atom_site_type_symbol
 _atom_site_label
 _atom_site_symmetry_multiplicity
 _atom_site_fract_x
 _atom_site_fract_y
 _atom_site_fract_z
 _atom_site_occupancy
  Dy  Dy0  1  0.500001  0.000060  0.679338  1
  Dy  Dy1  1  0.999991  0.499951  0.320691  1
  Dy  Dy2  1  0.394656  0.293141  0.335957  1
  Dy  Dy3  1  0.706845  0.394619  0.664065  1
  Dy  Dy4  1  0.105354  0.206880  0.664073  1
  Ho  Ho5  1  0.793088  0.105436  0.335235  1
  Ho  Ho6  1  0.274489  0.083727  0.002328  1
  Ho  Ho7  1  0.583655  0.225515  0.002301  1
  Ho  Ho8  1  0.206936  0.894617  0.335239  1
  Ho  Ho9  1  0.605393  0.706866  0.335249  1
  Ho  Ho10  1  0.293090  0.605363  0.664765  1
  Ho  Ho11  1  0.416323  0.774506  0.002326  1
  Ho  Ho12  1  0.225502  0.416289  0.997644  1
  Ho  Ho13  1  0.894592  0.793097  0.664782  1
  Ho  Ho14  1  0.083687  0.725493  0.997662  1
  Ho  Ho15  1  0.916328  0.274498  0.997802  1
  Ho  Ho16  1  0.774502  0.583637  0.997735  1
  Ho  Ho17  1  0.725500  0.916349  0.002310  1
  Bi  Bi18  1  0.594859  0.694006  0.696882  1
  Bi  Bi19  1  0.905080  0.806207  0.303139  1
  Bi  Bi20  1  0.694001  0.405170  0.302860  1
  Bi  Bi21  1  0.000155  0.500334  0.681002  1
  Bi  Bi22  1  0.306131  0.595181  0.303111  1
  Bi  Bi23  1  0.806061  0.094612  0.696900  1
  Bi  Bi24  1  0.405069  0.306195  0.697180  1
  Bi  Bi25  1  0.193869  0.904823  0.696887  1
  Bi  Bi26  1  0.094681  0.193727  0.302847  1
  Bi  Bi27  1  0.500086  0.999754  0.319015  1
  O  O28  1  0.226038  0.879836  0.083954  1
  O  O29  1  0.273977  0.620173  0.916065  1
  O  O30  1  0.120169  0.226120  0.916727  1
  O  O31  1  0.879855  0.773965  0.916041  1
  O  O32  1  0.726156  0.379826  0.916721  1
  O  O33  1  0.499996  0.999965  0.937685  1
  O  O34  1  0.773924  0.120095  0.083959  1
  O  O35  1  0.000018  0.500047  0.062305  1
  O  O36  1  0.379795  0.273877  0.083266  1
  O  O37  1  0.620146  0.726044  0.083953  1
