# generated using pymatgen
data_Ca3InAs3
_symmetry_space_group_name_H-M   'P 1'
_cell_length_a   4.30034000
_cell_length_b   12.41096500
_cell_length_c   13.87018200
_cell_angle_alpha   90.00000000
_cell_angle_beta   90.00000000
_cell_angle_gamma   90.00000000
_symmetry_Int_Tables_number   1
_chemical_formula_structural   Ca3InAs3
_chemical_formula_sum   'Ca12 In4 As12'
_cell_volume   740.27060478
_cell_formula_units_Z   4
loop_
 _symmetry_equiv_pos_site_id
 _symmetry_equiv_pos_as_xyz
  1  'x, y, z'
loop_
 _atom_site_type_symbol
 _atom_site_label
 _atom_site_symmetry_multiplicity
 _atom_site_fract_x
 _atom_site_fract_y
 _atom_site_fract_z
 _atom_site_occupancy
  Ca  Ca0  1  0.750000  0.847221  0.006342  1
  Ca  Ca1  1  0.750000  0.771223  0.288087  1
  Ca  Ca2  1  0.750000  0.347221  0.493658  1
  Ca  Ca3  1  0.250000  0.652779  0.506342  1
  Ca  Ca4  1  0.250000  0.152779  0.993658  1
  Ca  Ca5  1  0.250000  0.435906  0.896327  1
  Ca  Ca6  1  0.250000  0.935906  0.603673  1
  Ca  Ca7  1  0.750000  0.564094  0.103673  1
  Ca  Ca8  1  0.250000  0.228777  0.711913  1
  Ca  Ca9  1  0.250000  0.728777  0.788087  1
  Ca  Ca10  1  0.750000  0.064094  0.396327  1
  Ca  Ca11  1  0.750000  0.271223  0.211913  1
  In  In12  1  0.250000  0.447967  0.299788  1
  In  In13  1  0.750000  0.052033  0.799788  1
  In  In14  1  0.750000  0.552033  0.700212  1
  In  In15  1  0.250000  0.947967  0.200212  1
  As  As16  1  0.250000  0.946853  0.868906  1
  As  As17  1  0.750000  0.553147  0.368906  1
  As  As18  1  0.250000  0.242733  0.373484  1
  As  As19  1  0.750000  0.257267  0.873484  1
  As  As20  1  0.250000  0.394912  0.110473  1
  As  As21  1  0.250000  0.894912  0.389527  1
  As  As22  1  0.250000  0.742733  0.126516  1
  As  As23  1  0.750000  0.605088  0.889527  1
  As  As24  1  0.750000  0.757267  0.626516  1
  As  As25  1  0.250000  0.446853  0.631094  1
  As  As26  1  0.750000  0.105088  0.610473  1
  As  As27  1  0.750000  0.053147  0.131094  1
