# generated using pymatgen
data_LiInSnO4
_symmetry_space_group_name_H-M   'P 1'
_cell_length_a   3.23532000
_cell_length_b   5.22209400
_cell_length_c   10.47058900
_cell_angle_alpha   90.00000000
_cell_angle_beta   90.00000000
_cell_angle_gamma   90.00000000
_symmetry_Int_Tables_number   1
_chemical_formula_structural   LiInSnO4
_chemical_formula_sum   'Li2 In2 Sn2 O8'
_cell_volume   176.90212107
_cell_formula_units_Z   2
loop_
 _symmetry_equiv_pos_site_id
 _symmetry_equiv_pos_as_xyz
  1  'x, y, z'
loop_
 _atom_site_type_symbol
 _atom_site_label
 _atom_site_symmetry_multiplicity
 _atom_site_fract_x
 _atom_site_fract_y
 _atom_site_fract_z
 _atom_site_occupancy
  Li  Li0  1  0.500000  0.174637  0.025439  1
  Li  Li1  1  0.500000  0.825363  0.525439  1
  In  In2  1  0.500000  0.236410  0.343292  1
  In  In3  1  0.500000  0.763590  0.843292  1
  Sn  Sn4  1  0.000000  0.282464  0.622802  1
  Sn  Sn5  1  0.000000  0.717536  0.122802  1
  O  O6  1  0.000000  0.039792  0.458234  1
  O  O7  1  0.000000  0.442830  0.260058  1
  O  O8  1  0.000000  0.960208  0.958234  1
  O  O9  1  0.000000  0.557170  0.760058  1
  O  O10  1  0.500000  0.464739  0.527635  1
  O  O11  1  0.500000  0.943216  0.191539  1
  O  O12  1  0.500000  0.056784  0.691539  1
  O  O13  1  0.500000  0.535261  0.027635  1
