# generated using pymatgen
data_TbTmMn4Fe8P7
_symmetry_space_group_name_H-M   'P 1'
_cell_length_a   9.16232328
_cell_length_b   9.04306258
_cell_length_c   3.59775500
_cell_angle_alpha   90.00000000
_cell_angle_beta   90.00000000
_cell_angle_gamma   120.22815052
_symmetry_Int_Tables_number   1
_chemical_formula_structural   TbTmMn4Fe8P7
_chemical_formula_sum   'Tb1 Tm1 Mn4 Fe8 P7'
_cell_volume   257.56113205
_cell_formula_units_Z   1
loop_
 _symmetry_equiv_pos_site_id
 _symmetry_equiv_pos_as_xyz
  1  'x, y, z'
loop_
 _atom_site_type_symbol
 _atom_site_label
 _atom_site_symmetry_multiplicity
 _atom_site_fract_x
 _atom_site_fract_y
 _atom_site_fract_z
 _atom_site_occupancy
  Tb  Tb0  1  0.338416  0.668484  0.500000  1
  Tm  Tm1  1  0.660135  0.330678  0.000000  1
  Mn  Mn2  1  0.951032  0.389147  0.500000  1
  Mn  Mn3  1  0.107248  0.876132  0.500000  1
  Mn  Mn4  1  0.776500  0.897301  0.500000  1
  Mn  Mn5  1  0.123142  0.227233  0.500000  1
  Fe  Fe6  1  0.051403  0.622449  0.000000  1
  Fe  Fe7  1  0.573708  0.943238  0.000000  1
  Fe  Fe8  1  0.372747  0.425836  0.000000  1
  Fe  Fe9  1  0.271260  0.118234  0.000000  1
  Fe  Fe10  1  0.846907  0.727895  0.000000  1
  Fe  Fe11  1  0.880037  0.158703  0.000000  1
  Fe  Fe12  1  0.434348  0.051018  0.500000  1
  Fe  Fe13  1  0.613662  0.563545  0.500000  1
  P  P14  1  0.303104  0.890919  0.000000  1
  P  P15  1  0.590119  0.698827  0.000000  1
  P  P16  1  0.122570  0.411142  0.000000  1
  P  P17  1  0.406510  0.287987  0.500000  1
  P  P18  1  0.872540  0.594393  0.500000  1
  P  P19  1  0.704681  0.114393  0.500000  1
  P  P20  1  0.999932  0.002448  0.000000  1
