# generated using pymatgen
data_TbBe12Ni
_symmetry_space_group_name_H-M   'P 1'
_cell_length_a   7.28360875
_cell_length_b   7.34253602
_cell_length_c   7.25889569
_cell_angle_alpha   59.84178916
_cell_angle_beta   59.57486511
_cell_angle_gamma   59.50884596
_symmetry_Int_Tables_number   1
_chemical_formula_structural   TbBe12Ni
_chemical_formula_sum   'Tb2 Be24 Ni2'
_cell_volume   272.26442800
_cell_formula_units_Z   2
loop_
 _symmetry_equiv_pos_site_id
 _symmetry_equiv_pos_as_xyz
  1  'x, y, z'
loop_
 _atom_site_type_symbol
 _atom_site_label
 _atom_site_symmetry_multiplicity
 _atom_site_fract_x
 _atom_site_fract_y
 _atom_site_fract_z
 _atom_site_occupancy
  Tb  Tb0  1  0.248760  0.251240  0.248760  1
  Tb  Tb1  1  0.751240  0.748760  0.751240  1
  Be  Be2  1  0.500000  0.500000  0.500000  1
  Be  Be3  1  0.000000  0.000000  0.000000  1
  Be  Be4  1  0.568430  0.787273  0.431570  1
  Be  Be5  1  0.431570  0.212727  0.568430  1
  Be  Be6  1  0.293996  0.935402  0.706004  1
  Be  Be7  1  0.706004  0.064598  0.293996  1
  Be  Be8  1  0.932314  0.284568  0.067686  1
  Be  Be9  1  0.067686  0.715432  0.932314  1
  Be  Be10  1  0.206112  0.797714  0.560567  1
  Be  Be11  1  0.793888  0.202286  0.439433  1
  Be  Be12  1  0.439433  0.564393  0.793888  1
  Be  Be13  1  0.560567  0.435607  0.206112  1
  Be  Be14  1  0.711356  0.283665  0.935566  1
  Be  Be15  1  0.288644  0.716335  0.064434  1
  Be  Be16  1  0.064434  0.930586  0.288644  1
  Be  Be17  1  0.935566  0.069414  0.711356  1
  Be  Be18  1  0.561825  0.207210  0.794867  1
  Be  Be19  1  0.438175  0.792790  0.205133  1
  Be  Be20  1  0.794867  0.436097  0.561825  1
  Be  Be21  1  0.205133  0.563903  0.438175  1
  Be  Be22  1  0.936520  0.711050  0.289108  1
  Be  Be23  1  0.063480  0.288950  0.710892  1
  Be  Be24  1  0.289108  0.063321  0.936520  1
  Be  Be25  1  0.710892  0.936679  0.063480  1
  Ni  Ni26  1  0.799549  0.558869  0.200451  1
  Ni  Ni27  1  0.200451  0.441131  0.799549  1
