# generated using pymatgen
data_Tm3U2O10
_symmetry_space_group_name_H-M   'P 1'
_cell_length_a   6.39379198
_cell_length_b   6.39379132
_cell_length_c   8.28111808
_cell_angle_alpha   51.49458923
_cell_angle_beta   51.49459494
_cell_angle_gamma   48.98340882
_symmetry_Int_Tables_number   1
_chemical_formula_structural   Tm3U2O10
_chemical_formula_sum   'Tm3 U2 O10'
_cell_volume   186.29828317
_cell_formula_units_Z   1
loop_
 _symmetry_equiv_pos_site_id
 _symmetry_equiv_pos_as_xyz
  1  'x, y, z'
loop_
 _atom_site_type_symbol
 _atom_site_label
 _atom_site_symmetry_multiplicity
 _atom_site_fract_x
 _atom_site_fract_y
 _atom_site_fract_z
 _atom_site_occupancy
  Tm  Tm0  1  0.102798  0.102798  0.595907  1
  Tm  Tm1  1  0.500000  0.500000  0.000000  1
  Tm  Tm2  1  0.897202  0.897202  0.404093  1
  U  U3  1  0.302230  0.302230  0.794593  1
  U  U4  1  0.697770  0.697770  0.205407  1
  O  O5  1  0.552268  0.041734  0.292597  1
  O  O6  1  0.958266  0.447732  0.707403  1
  O  O7  1  0.041734  0.552268  0.292597  1
  O  O8  1  0.353860  0.852718  0.106403  1
  O  O9  1  0.447732  0.958266  0.707403  1
  O  O10  1  0.738110  0.261890  0.500000  1
  O  O11  1  0.852718  0.353860  0.106403  1
  O  O12  1  0.147282  0.646140  0.893597  1
  O  O13  1  0.261890  0.738110  0.500000  1
  O  O14  1  0.646140  0.147282  0.893597  1
