# generated using pymatgen
data_Tm2Mn8Fe4P7
_symmetry_space_group_name_H-M   'P 1'
_cell_length_a   9.19008578
_cell_length_b   9.16718637
_cell_length_c   3.57655700
_cell_angle_alpha   90.00000000
_cell_angle_beta   90.00000000
_cell_angle_gamma   119.84850614
_symmetry_Int_Tables_number   1
_chemical_formula_structural   Tm2Mn8Fe4P7
_chemical_formula_sum   'Tm2 Mn8 Fe4 P7'
_cell_volume   261.34389522
_cell_formula_units_Z   1
loop_
 _symmetry_equiv_pos_site_id
 _symmetry_equiv_pos_as_xyz
  1  'x, y, z'
loop_
 _atom_site_type_symbol
 _atom_site_label
 _atom_site_symmetry_multiplicity
 _atom_site_fract_x
 _atom_site_fract_y
 _atom_site_fract_z
 _atom_site_occupancy
  Tm  Tm0  1  0.332317  0.665708  0.000000  1
  Tm  Tm1  1  0.999985  0.002658  0.500000  1
  Mn  Mn2  1  0.717106  0.763617  0.000000  1
  Mn  Mn3  1  0.237684  0.954092  0.000000  1
  Mn  Mn4  1  0.103452  0.722883  0.500000  1
  Mn  Mn5  1  0.277700  0.378081  0.500000  1
  Mn  Mn6  1  0.622912  0.897426  0.500000  1
  Mn  Mn7  1  0.769911  0.563666  0.500000  1
  Mn  Mn8  1  0.434012  0.206871  0.500000  1
  Mn  Mn9  1  0.793388  0.231176  0.500000  1
  Fe  Fe10  1  0.044999  0.282002  0.000000  1
  Fe  Fe11  1  0.941605  0.489607  0.000000  1
  Fe  Fe12  1  0.509131  0.451798  0.000000  1
  Fe  Fe13  1  0.549215  0.058894  0.000000  1
  P  P14  1  0.956055  0.743386  0.000000  1
  P  P15  1  0.254078  0.211872  0.000000  1
  P  P16  1  0.790171  0.048455  0.000000  1
  P  P17  1  0.071401  0.452304  0.500000  1
  P  P18  1  0.541161  0.614428  0.500000  1
  P  P19  1  0.386807  0.927056  0.500000  1
  P  P20  1  0.666910  0.334015  0.000000  1
