# generated using pymatgen
data_Dy7HoMg2(SiB4)4
_symmetry_space_group_name_H-M   'P 1'
_cell_length_a   7.16967902
_cell_length_b   7.16971202
_cell_length_c   7.84751100
_cell_angle_alpha   89.99921413
_cell_angle_beta   90.00073269
_cell_angle_gamma   90.00867864
_symmetry_Int_Tables_number   1
_chemical_formula_structural   Dy7HoMg2(SiB4)4
_chemical_formula_sum   'Dy7 Ho1 Mg2 Si4 B16'
_cell_volume   403.39764023
_cell_formula_units_Z   1
loop_
 _symmetry_equiv_pos_site_id
 _symmetry_equiv_pos_as_xyz
  1  'x, y, z'
loop_
 _atom_site_type_symbol
 _atom_site_label
 _atom_site_symmetry_multiplicity
 _atom_site_fract_x
 _atom_site_fract_y
 _atom_site_fract_z
 _atom_site_occupancy
  Dy  Dy0  1  0.682892  0.182874  0.233198  1
  Dy  Dy1  1  0.317100  0.817158  0.766798  1
  Dy  Dy2  1  0.317125  0.817108  0.233197  1
  Dy  Dy3  1  0.817139  0.682861  0.233263  1
  Dy  Dy4  1  0.817119  0.682879  0.766717  1
  Dy  Dy5  1  0.682844  0.182899  0.766799  1
  Dy  Dy6  1  0.182918  0.317084  0.766778  1
  Ho  Ho7  1  0.182870  0.317129  0.232692  1
  Mg  Mg8  1  0.000042  0.000086  0.499936  1
  Mg  Mg9  1  0.499914  0.499956  0.499937  1
  Si  Si10  1  0.115306  0.615025  0.499824  1
  Si  Si11  1  0.884974  0.384693  0.499823  1
  Si  Si12  1  0.384526  0.115472  0.499787  1
  Si  Si13  1  0.615243  0.884757  0.499945  1
  B  B14  1  0.173472  0.040004  0.000077  1
  B  B15  1  0.826615  0.960170  0.000070  1
  B  B16  1  0.960226  0.173418  0.000148  1
  B  B17  1  0.326580  0.539774  0.000148  1
  B  B18  1  0.039940  0.826687  0.000041  1
  B  B19  1  0.673314  0.460060  0.000042  1
  B  B20  1  0.539832  0.673386  0.000071  1
  B  B21  1  0.459993  0.326526  0.000077  1
  B  B22  1  0.089583  0.589456  0.000140  1
  B  B23  1  0.910545  0.410417  0.000139  1
  B  B24  1  0.410446  0.089558  0.000034  1
  B  B25  1  0.589523  0.910478  0.000023  1
  B  B26  1  0.000089  0.000201  0.162487  1
  B  B27  1  0.000041  0.000012  0.837659  1
  B  B28  1  0.499988  0.499958  0.837660  1
  B  B29  1  0.499800  0.499911  0.162488  1
