# generated using pymatgen
data_Y2Th2B3C4
_symmetry_space_group_name_H-M   'P 1'
_cell_length_a   3.62150886
_cell_length_b   3.74870428
_cell_length_c   11.96396955
_cell_angle_alpha   93.90537863
_cell_angle_beta   96.37798257
_cell_angle_gamma   90.19966102
_symmetry_Int_Tables_number   1
_chemical_formula_structural   Y2Th2B3C4
_chemical_formula_sum   'Y2 Th2 B3 C4'
_cell_volume   161.03232533
_cell_formula_units_Z   1
loop_
 _symmetry_equiv_pos_site_id
 _symmetry_equiv_pos_as_xyz
  1  'x, y, z'
loop_
 _atom_site_type_symbol
 _atom_site_label
 _atom_site_symmetry_multiplicity
 _atom_site_fract_x
 _atom_site_fract_y
 _atom_site_fract_z
 _atom_site_occupancy
  Y  Y0  1  0.385145  0.575340  0.863714  1
  Y  Y1  1  0.614855  0.424660  0.136286  1
  Th  Th2  1  0.802367  0.032047  0.647201  1
  Th  Th3  1  0.197633  0.967953  0.352799  1
  B  B4  1  0.000000  0.000000  0.000000  1
  B  B5  1  0.260701  0.508282  0.539139  1
  B  B6  1  0.739299  0.491718  0.460861  1
  C  C7  1  0.884775  0.085198  0.883019  1
  C  C8  1  0.115225  0.914802  0.116981  1
  C  C9  1  0.311665  0.535677  0.670915  1
  C  C10  1  0.688335  0.464323  0.329085  1
