# generated using pymatgen
data_Ba4HoPtO8
_symmetry_space_group_name_H-M   'P 1'
_cell_length_a   7.43572000
_cell_length_b   7.43571846
_cell_length_c   5.95971800
_cell_angle_alpha   90.00000000
_cell_angle_beta   90.00000000
_cell_angle_gamma   132.98011359
_symmetry_Int_Tables_number   1
_chemical_formula_structural   Ba4HoPtO8
_chemical_formula_sum   'Ba4 Ho1 Pt1 O8'
_cell_volume   241.06804966
_cell_formula_units_Z   1
loop_
 _symmetry_equiv_pos_site_id
 _symmetry_equiv_pos_as_xyz
  1  'x, y, z'
loop_
 _atom_site_type_symbol
 _atom_site_label
 _atom_site_symmetry_multiplicity
 _atom_site_fract_x
 _atom_site_fract_y
 _atom_site_fract_z
 _atom_site_occupancy
  Ba  Ba0  1  0.354618  0.645382  0.000000  1
  Ba  Ba1  1  0.853372  0.146628  0.500000  1
  Ba  Ba2  1  0.146628  0.853372  0.500000  1
  Ba  Ba3  1  0.645382  0.354618  0.000000  1
  Ho  Ho4  1  0.000000  0.000000  0.000000  1
  Pt  Pt5  1  0.500000  0.500000  0.500000  1
  O  O6  1  0.259058  0.259058  0.735236  1
  O  O7  1  0.740942  0.740942  0.264764  1
  O  O8  1  0.740942  0.740942  0.735236  1
  O  O9  1  0.259058  0.259058  0.264764  1
  O  O10  1  0.165254  0.834746  0.000000  1
  O  O11  1  0.651946  0.348054  0.500000  1
  O  O12  1  0.348054  0.651946  0.500000  1
  O  O13  1  0.834746  0.165254  0.000000  1
