# generated using pymatgen
data_Tm16In5HgRh2
_symmetry_space_group_name_H-M   'P 1'
_cell_length_a   10.24057700
_cell_length_b   10.26687388
_cell_length_c   6.93880515
_cell_angle_alpha   90.02049592
_cell_angle_beta   90.00000000
_cell_angle_gamma   119.91530468
_symmetry_Int_Tables_number   1
_chemical_formula_structural   Tm16In5HgRh2
_chemical_formula_sum   'Tm16 In5 Hg1 Rh2'
_cell_volume   632.33607028
_cell_formula_units_Z   1
loop_
 _symmetry_equiv_pos_site_id
 _symmetry_equiv_pos_as_xyz
  1  'x, y, z'
loop_
 _atom_site_type_symbol
 _atom_site_label
 _atom_site_symmetry_multiplicity
 _atom_site_fract_x
 _atom_site_fract_y
 _atom_site_fract_z
 _atom_site_occupancy
  Tm  Tm0  1  0.531100  0.062202  0.516534  1
  Tm  Tm1  1  0.934068  0.470942  0.516903  1
  Tm  Tm2  1  0.536872  0.470942  0.516903  1
  Tm  Tm3  1  0.467926  0.935849  0.013118  1
  Tm  Tm4  1  0.065483  0.530950  0.017218  1
  Tm  Tm5  1  0.465469  0.530950  0.017218  1
  Tm  Tm6  1  0.176425  0.352850  0.720298  1
  Tm  Tm7  1  0.651682  0.821712  0.724564  1
  Tm  Tm8  1  0.170030  0.821712  0.724564  1
  Tm  Tm9  1  0.823348  0.646697  0.207765  1
  Tm  Tm10  1  0.353436  0.176515  0.222427  1
  Tm  Tm11  1  0.823078  0.176515  0.222427  1
  Tm  Tm12  1  0.668662  0.337322  0.891787  1
  Tm  Tm13  1  0.333592  0.667186  0.394106  1
  Tm  Tm14  1  0.999701  0.999402  0.498962  1
  Tm  Tm15  1  0.000752  0.001504  0.000444  1
  In  In16  1  0.326197  0.162650  0.761493  1
  In  In17  1  0.836452  0.162650  0.761493  1
  In  In18  1  0.162867  0.325734  0.262924  1
  In  In19  1  0.674315  0.837535  0.261067  1
  In  In20  1  0.163221  0.837535  0.261067  1
  Hg  Hg21  1  0.834947  0.669896  0.767817  1
  Rh  Rh22  1  0.666841  0.333682  0.288845  1
  Rh  Rh23  1  0.333535  0.667070  0.788056  1
