# generated using pymatgen
data_K4Li2ScAlAs4
_symmetry_space_group_name_H-M   'P 1'
_cell_length_a   8.93095501
_cell_length_b   8.93095614
_cell_length_c   8.93095679
_cell_angle_alpha   137.94482583
_cell_angle_beta   137.62930775
_cell_angle_gamma   61.22963812
_symmetry_Int_Tables_number   1
_chemical_formula_structural   K4Li2ScAlAs4
_chemical_formula_sum   'K4 Li2 Sc1 Al1 As4'
_cell_volume   317.98406940
_cell_formula_units_Z   1
loop_
 _symmetry_equiv_pos_site_id
 _symmetry_equiv_pos_as_xyz
  1  'x, y, z'
loop_
 _atom_site_type_symbol
 _atom_site_label
 _atom_site_symmetry_multiplicity
 _atom_site_fract_x
 _atom_site_fract_y
 _atom_site_fract_z
 _atom_site_occupancy
  K  K0  1  0.103881  0.829474  0.282988  1
  K  K1  1  0.896119  0.179107  0.725593  1
  K  K2  1  0.453515  0.670526  0.774407  1
  K  K3  1  0.546485  0.320893  0.217012  1
  Li  Li4  1  0.500000  0.250000  0.750000  1
  Li  Li5  1  0.500000  0.750000  0.250000  1
  Sc  Sc6  1  0.000000  0.750000  0.750000  1
  Al  Al7  1  0.000000  0.250000  0.250000  1
  As  As8  1  0.677686  0.916649  0.780526  1
  As  As9  1  0.136123  0.397159  0.719474  1
  As  As10  1  0.863877  0.583351  0.261036  1
  As  As11  1  0.322314  0.102841  0.238964  1
