# generated using pymatgen
data_Zn11RhAu2
_symmetry_space_group_name_H-M   'P 1'
_cell_length_a   6.81823655
_cell_length_b   6.81823666
_cell_length_c   5.12261400
_cell_angle_alpha   80.28794053
_cell_angle_beta   80.28795339
_cell_angle_gamma   70.10339740
_symmetry_Int_Tables_number   1
_chemical_formula_structural   Zn11RhAu2
_chemical_formula_sum   'Zn11 Rh1 Au2'
_cell_volume   219.12065382
_cell_formula_units_Z   1
loop_
 _symmetry_equiv_pos_site_id
 _symmetry_equiv_pos_as_xyz
  1  'x, y, z'
loop_
 _atom_site_type_symbol
 _atom_site_label
 _atom_site_symmetry_multiplicity
 _atom_site_fract_x
 _atom_site_fract_y
 _atom_site_fract_z
 _atom_site_occupancy
  Zn  Zn0  1  0.000000  0.000000  0.000000  1
  Zn  Zn1  1  0.776244  0.776244  0.383839  1
  Zn  Zn2  1  0.223756  0.223756  0.616161  1
  Zn  Zn3  1  0.221162  0.632133  0.311389  1
  Zn  Zn4  1  0.367867  0.778838  0.688611  1
  Zn  Zn5  1  0.778838  0.367867  0.688611  1
  Zn  Zn6  1  0.632133  0.221162  0.311389  1
  Zn  Zn7  1  0.003723  0.641721  0.798132  1
  Zn  Zn8  1  0.358279  0.996277  0.201868  1
  Zn  Zn9  1  0.996277  0.358279  0.201868  1
  Zn  Zn10  1  0.641721  0.003723  0.798132  1
  Rh  Rh11  1  0.000000  0.000000  0.500000  1
  Au  Au12  1  0.376931  0.376931  0.935740  1
  Au  Au13  1  0.623069  0.623069  0.064260  1
