# generated using pymatgen
data_Ho16Tl3In(RuRh)2
_symmetry_space_group_name_H-M   'P 1'
_cell_length_a   9.63069897
_cell_length_b   9.64895906
_cell_length_c   9.63069767
_cell_angle_alpha   59.92048582
_cell_angle_beta   59.85696836
_cell_angle_gamma   59.92049227
_symmetry_Int_Tables_number   1
_chemical_formula_structural   Ho16Tl3In(RuRh)2
_chemical_formula_sum   'Ho16 Tl3 In1 Ru2 Rh2'
_cell_volume   631.37518916
_cell_formula_units_Z   1
loop_
 _symmetry_equiv_pos_site_id
 _symmetry_equiv_pos_as_xyz
  1  'x, y, z'
loop_
 _atom_site_type_symbol
 _atom_site_label
 _atom_site_symmetry_multiplicity
 _atom_site_fract_x
 _atom_site_fract_y
 _atom_site_fract_z
 _atom_site_occupancy
  Ho  Ho0  1  0.188709  0.190671  0.808072  1
  Ho  Ho1  1  0.598213  0.598137  0.204991  1
  Ho  Ho2  1  0.440274  0.059712  0.440274  1
  Ho  Ho3  1  0.440280  0.441380  0.060713  1
  Ho  Ho4  1  0.812202  0.188191  0.812202  1
  Ho  Ho5  1  0.192009  0.808008  0.192009  1
  Ho  Ho6  1  0.439533  0.057812  0.060947  1
  Ho  Ho7  1  0.189321  0.812354  0.807873  1
  Ho  Ho8  1  0.058203  0.441226  0.058203  1
  Ho  Ho9  1  0.807873  0.812354  0.189321  1
  Ho  Ho10  1  0.204991  0.598137  0.598213  1
  Ho  Ho11  1  0.060713  0.441380  0.440280  1
  Ho  Ho12  1  0.060947  0.057812  0.439533  1
  Ho  Ho13  1  0.808072  0.190671  0.188709  1
  Ho  Ho14  1  0.598580  0.203588  0.598580  1
  Ho  Ho15  1  0.598796  0.598935  0.598796  1
  Tl  Tl16  1  0.834447  0.834118  0.834447  1
  Tl  Tl17  1  0.835016  0.834332  0.495200  1
  Tl  Tl18  1  0.495200  0.834332  0.835016  1
  In  In19  1  0.833070  0.500313  0.833070  1
  Ru  Ru20  1  0.391861  0.827632  0.391861  1
  Ru  Ru21  1  0.391864  0.388683  0.391864  1
  Rh  Rh22  1  0.827705  0.390110  0.392126  1
  Rh  Rh23  1  0.392126  0.390110  0.827705  1
