# generated using pymatgen
data_UCd(SeO4)2
_symmetry_space_group_name_H-M   'P 1'
_cell_length_a   5.66326755
_cell_length_b   6.72045144
_cell_length_c   11.27881963
_cell_angle_alpha   103.44886637
_cell_angle_beta   92.91529278
_cell_angle_gamma   112.49436064
_symmetry_Int_Tables_number   1
_chemical_formula_structural   UCd(SeO4)2
_chemical_formula_sum   'U2 Cd2 Se4 O16'
_cell_volume   381.03313687
_cell_formula_units_Z   2
loop_
 _symmetry_equiv_pos_site_id
 _symmetry_equiv_pos_as_xyz
  1  'x, y, z'
loop_
 _atom_site_type_symbol
 _atom_site_label
 _atom_site_symmetry_multiplicity
 _atom_site_fract_x
 _atom_site_fract_y
 _atom_site_fract_z
 _atom_site_occupancy
  U  U0  1  0.166024  0.259711  0.165440  1
  U  U1  1  0.833977  0.740289  0.834561  1
  Cd  Cd2  1  0.677120  0.239221  0.435838  1
  Cd  Cd3  1  0.322879  0.760779  0.564162  1
  Se  Se4  1  0.315819  0.816640  0.125478  1
  Se  Se5  1  0.736980  0.707947  0.358013  1
  Se  Se6  1  0.263021  0.292053  0.641987  1
  Se  Se7  1  0.684183  0.183361  0.874522  1
  O  O8  1  0.109406  0.874911  0.030438  1
  O  O9  1  0.450413  0.356601  0.092006  1
  O  O10  1  0.108425  0.578226  0.158669  1
  O  O11  1  0.888266  0.168809  0.248150  1
  O  O12  1  0.327436  0.024458  0.253166  1
  O  O13  1  0.434639  0.484035  0.344393  1
  O  O14  1  0.911797  0.606737  0.436801  1
  O  O15  1  0.677018  0.903125  0.467813  1
  O  O16  1  0.322983  0.096876  0.532187  1
  O  O17  1  0.088204  0.393263  0.563199  1
  O  O18  1  0.565362  0.515964  0.655606  1
  O  O19  1  0.672565  0.975541  0.746834  1
  O  O20  1  0.111735  0.831191  0.751850  1
  O  O21  1  0.891576  0.421773  0.841331  1
  O  O22  1  0.549588  0.643399  0.907994  1
  O  O23  1  0.890593  0.125089  0.969562  1
