# generated using pymatgen
data_LaThNiB10
_symmetry_space_group_name_H-M   'P 1'
_cell_length_a   4.19919800
_cell_length_b   5.66143219
_cell_length_c   11.24928137
_cell_angle_alpha   90.02942938
_cell_angle_beta   90.00000000
_cell_angle_gamma   90.00000000
_symmetry_Int_Tables_number   1
_chemical_formula_structural   LaThNiB10
_chemical_formula_sum   'La2 Th2 Ni2 B20'
_cell_volume   267.43447096
_cell_formula_units_Z   2
loop_
 _symmetry_equiv_pos_site_id
 _symmetry_equiv_pos_as_xyz
  1  'x, y, z'
loop_
 _atom_site_type_symbol
 _atom_site_label
 _atom_site_symmetry_multiplicity
 _atom_site_fract_x
 _atom_site_fract_y
 _atom_site_fract_z
 _atom_site_occupancy
  La  La0  1  0.500000  0.307987  0.863007  1
  La  La1  1  0.500000  0.692013  0.136993  1
  Th  Th2  1  0.500000  0.807490  0.636517  1
  Th  Th3  1  0.500000  0.192510  0.363483  1
  Ni  Ni4  1  0.000000  0.500000  0.500000  1
  Ni  Ni5  1  0.000000  0.000000  0.000000  1
  B  B6  1  0.000000  0.124812  0.540561  1
  B  B7  1  0.000000  0.875188  0.459439  1
  B  B8  1  0.000000  0.625944  0.958154  1
  B  B9  1  0.000000  0.374056  0.041846  1
  B  B10  1  0.000000  0.153407  0.696885  1
  B  B11  1  0.000000  0.846593  0.303115  1
  B  B12  1  0.299819  0.203106  0.115133  1
  B  B13  1  0.299819  0.796894  0.884867  1
  B  B14  1  0.699275  0.702536  0.386403  1
  B  B15  1  0.699275  0.297464  0.613597  1
  B  B16  1  0.700181  0.796894  0.884867  1
  B  B17  1  0.700181  0.203106  0.115133  1
  B  B18  1  0.300725  0.297464  0.613597  1
  B  B19  1  0.300725  0.702536  0.386403  1
  B  B20  1  0.000000  0.036268  0.188318  1
  B  B21  1  0.000000  0.963732  0.811682  1
  B  B22  1  0.000000  0.535739  0.312938  1
  B  B23  1  0.000000  0.464261  0.687062  1
  B  B24  1  0.000000  0.345905  0.197977  1
  B  B25  1  0.000000  0.654095  0.802023  1
