# generated using pymatgen
data_Ti8Al15CuOs6
_symmetry_space_group_name_H-M   'P 1'
_cell_length_a   8.71321179
_cell_length_b   8.66014720
_cell_length_c   8.64749801
_cell_angle_alpha   120.22169540
_cell_angle_beta   119.89952258
_cell_angle_gamma   90.13596077
_symmetry_Int_Tables_number   1
_chemical_formula_structural   Ti8Al15CuOs6
_chemical_formula_sum   'Ti8 Al15 Cu1 Os6'
_cell_volume   459.99781571
_cell_formula_units_Z   1
loop_
 _symmetry_equiv_pos_site_id
 _symmetry_equiv_pos_as_xyz
  1  'x, y, z'
loop_
 _atom_site_type_symbol
 _atom_site_label
 _atom_site_symmetry_multiplicity
 _atom_site_fract_x
 _atom_site_fract_y
 _atom_site_fract_z
 _atom_site_occupancy
  Ti  Ti0  1  0.790868  0.283278  0.064893  1
  Ti  Ti1  1  0.220459  0.284209  0.492521  1
  Ti  Ti2  1  0.216423  0.710136  0.499283  1
  Ti  Ti3  1  0.219420  0.724593  0.933502  1
  Ti  Ti4  1  0.784599  0.719830  0.508186  1
  Ti  Ti5  1  0.772365  0.281971  0.499036  1
  Ti  Ti6  1  0.389315  0.125103  0.749822  1
  Ti  Ti7  1  0.378853  0.634491  0.256368  1
  Al  Al8  1  0.996641  0.496310  0.500393  1
  Al  Al9  1  0.156482  0.343677  0.187041  1
  Al  Al10  1  0.154651  0.969312  0.808467  1
  Al  Al11  1  0.150430  0.343190  0.802618  1
  Al  Al12  1  0.538827  0.345706  0.191879  1
  Al  Al13  1  0.846582  0.653404  0.809970  1
  Al  Al14  1  0.845314  0.038933  0.194784  1
  Al  Al15  1  0.843783  0.657329  0.192410  1
  Al  Al16  1  0.465996  0.654394  0.810760  1
  Al  Al17  1  0.377210  0.121410  0.255554  1
  Al  Al18  1  0.861903  0.122723  0.744217  1
  Al  Al19  1  0.617151  0.875135  0.254374  1
  Al  Al20  1  0.619706  0.366267  0.745287  1
  Al  Al21  1  0.619148  0.876399  0.742652  1
  Al  Al22  1  0.137744  0.876520  0.254620  1
  Cu  Cu23  1  0.003945  0.999391  0.500255  1
  Os  Os24  1  0.498171  0.998724  0.000626  1
  Os  Os25  1  0.498186  0.500210  0.001195  1
  Os  Os26  1  0.499152  0.498414  0.498907  1
  Os  Os27  1  0.998895  0.499126  0.001923  1
  Os  Os28  1  0.998099  0.999998  0.998606  1
  Os  Os29  1  0.499680  0.999814  0.499851  1
