# generated using pymatgen
data_BeV2B5W8
_symmetry_space_group_name_H-M   'P 1'
_cell_length_a   5.86384652
_cell_length_b   5.86384740
_cell_length_c   6.85683434
_cell_angle_alpha   115.31480738
_cell_angle_beta   115.31480662
_cell_angle_gamma   89.99999782
_symmetry_Int_Tables_number   1
_chemical_formula_structural   BeV2B5W8
_chemical_formula_sum   'Be1 V2 B5 W8'
_cell_volume   187.77894508
_cell_formula_units_Z   1
loop_
 _symmetry_equiv_pos_site_id
 _symmetry_equiv_pos_as_xyz
  1  'x, y, z'
loop_
 _atom_site_type_symbol
 _atom_site_label
 _atom_site_symmetry_multiplicity
 _atom_site_fract_x
 _atom_site_fract_y
 _atom_site_fract_z
 _atom_site_occupancy
  Be  Be0  1  0.250000  0.250000  0.500000  1
  V  V1  1  0.499305  0.499305  0.998610  1
  V  V2  1  0.000695  0.000695  0.001390  1
  B  B3  1  0.750000  0.750000  0.500000  1
  B  B4  1  0.622144  0.122144  0.000000  1
  B  B5  1  0.377856  0.877856  0.000000  1
  B  B6  1  0.877856  0.622144  0.000000  1
  B  B7  1  0.122144  0.377856  0.000000  1
  W  W8  1  0.023608  0.528448  0.714398  1
  W  W9  1  0.690789  0.185948  0.714398  1
  W  W10  1  0.185948  0.023608  0.714398  1
  W  W11  1  0.528448  0.690789  0.714398  1
  W  W12  1  0.971552  0.476392  0.285602  1
  W  W13  1  0.314052  0.809211  0.285602  1
  W  W14  1  0.809211  0.971552  0.285602  1
  W  W15  1  0.476392  0.314052  0.285602  1
