# generated using pymatgen
data_Dy4Lu16Bi11Sb
_symmetry_space_group_name_H-M   'P 1'
_cell_length_a   8.14709409
_cell_length_b   9.37479600
_cell_length_c   11.83869212
_cell_angle_alpha   90.00000000
_cell_angle_beta   90.01666723
_cell_angle_gamma   90.00000000
_symmetry_Int_Tables_number   1
_chemical_formula_structural   Dy4Lu16Bi11Sb
_chemical_formula_sum   'Dy4 Lu16 Bi11 Sb1'
_cell_volume   904.20783514
_cell_formula_units_Z   1
loop_
 _symmetry_equiv_pos_site_id
 _symmetry_equiv_pos_as_xyz
  1  'x, y, z'
loop_
 _atom_site_type_symbol
 _atom_site_label
 _atom_site_symmetry_multiplicity
 _atom_site_fract_x
 _atom_site_fract_y
 _atom_site_fract_z
 _atom_site_occupancy
  Dy  Dy0  1  0.313021  0.250000  0.217614  1
  Dy  Dy1  1  0.813148  0.250000  0.282316  1
  Dy  Dy2  1  0.683523  0.750000  0.784380  1
  Dy  Dy3  1  0.188267  0.750000  0.719156  1
  Lu  Lu4  1  0.352948  0.750000  0.215680  1
  Lu  Lu5  1  0.852392  0.750000  0.281491  1
  Lu  Lu6  1  0.647804  0.250000  0.781584  1
  Lu  Lu7  1  0.147781  0.250000  0.718500  1
  Lu  Lu8  1  0.690071  0.569061  0.059064  1
  Lu  Lu9  1  0.192472  0.932569  0.439753  1
  Lu  Lu10  1  0.308631  0.064033  0.940138  1
  Lu  Lu11  1  0.807503  0.432711  0.560115  1
  Lu  Lu12  1  0.308631  0.435967  0.940138  1
  Lu  Lu13  1  0.807503  0.067289  0.560115  1
  Lu  Lu14  1  0.690071  0.930939  0.059064  1
  Lu  Lu15  1  0.192472  0.567431  0.439753  1
  Lu  Lu16  1  0.476632  0.250000  0.489219  1
  Lu  Lu17  1  0.977258  0.250000  0.010659  1
  Lu  Lu18  1  0.523365  0.750000  0.510930  1
  Lu  Lu19  1  0.026651  0.750000  0.989029  1
  Bi  Bi20  1  0.903544  0.750000  0.541012  1
  Bi  Bi21  1  0.596837  0.250000  0.040622  1
  Bi  Bi22  1  0.096700  0.250000  0.459334  1
  Bi  Bi23  1  0.565538  0.994267  0.325904  1
  Bi  Bi24  1  0.065346  0.505514  0.174067  1
  Bi  Bi25  1  0.434483  0.494315  0.674052  1
  Bi  Bi26  1  0.934281  0.005382  0.825964  1
  Bi  Bi27  1  0.434483  0.005685  0.674052  1
  Bi  Bi28  1  0.934281  0.494618  0.825964  1
  Bi  Bi29  1  0.565538  0.505733  0.325904  1
  Bi  Bi30  1  0.065346  0.994486  0.174067  1
  Sb  Sb31  1  0.403480  0.750000  0.960359  1
