# generated using pymatgen
data_La2SmCoSn6
_symmetry_space_group_name_H-M   'P 1'
_cell_length_a   8.66948594
_cell_length_b   8.66948709
_cell_length_c   13.51278100
_cell_angle_alpha   90.00000000
_cell_angle_beta   90.00000000
_cell_angle_gamma   148.73808875
_symmetry_Int_Tables_number   1
_chemical_formula_structural   La2SmCoSn6
_chemical_formula_sum   'La4 Sm2 Co2 Sn12'
_cell_volume   527.05728594
_cell_formula_units_Z   2
loop_
 _symmetry_equiv_pos_site_id
 _symmetry_equiv_pos_as_xyz
  1  'x, y, z'
loop_
 _atom_site_type_symbol
 _atom_site_label
 _atom_site_symmetry_multiplicity
 _atom_site_fract_x
 _atom_site_fract_y
 _atom_site_fract_z
 _atom_site_occupancy
  La  La0  1  0.900079  0.099921  0.091770  1
  La  La1  1  0.099921  0.900079  0.591770  1
  La  La2  1  0.099921  0.900079  0.908230  1
  La  La3  1  0.900079  0.099921  0.408230  1
  Sm  Sm4  1  0.897676  0.102324  0.750000  1
  Sm  Sm5  1  0.102324  0.897676  0.250000  1
  Co  Co6  1  0.298851  0.701149  0.250000  1
  Co  Co7  1  0.701149  0.298851  0.750000  1
  Sn  Sn8  1  0.754397  0.245603  0.572676  1
  Sn  Sn9  1  0.428698  0.571302  0.580695  1
  Sn  Sn10  1  0.571302  0.428698  0.419305  1
  Sn  Sn11  1  0.735731  0.264269  0.250000  1
  Sn  Sn12  1  0.264269  0.735731  0.750000  1
  Sn  Sn13  1  0.245603  0.754397  0.072676  1
  Sn  Sn14  1  0.245603  0.754397  0.427324  1
  Sn  Sn15  1  0.571302  0.428698  0.080695  1
  Sn  Sn16  1  0.453877  0.546123  0.250000  1
  Sn  Sn17  1  0.546123  0.453877  0.750000  1
  Sn  Sn18  1  0.754397  0.245603  0.927324  1
  Sn  Sn19  1  0.428698  0.571302  0.919305  1
