# generated using pymatgen
data_Ca2Hg13(As2Cl3)4
_symmetry_space_group_name_H-M   'P 1'
_cell_length_a   12.51251800
_cell_length_b   12.51232735
_cell_length_c   12.51261900
_cell_angle_alpha   89.94701927
_cell_angle_beta   90.00000000
_cell_angle_gamma   90.00000000
_symmetry_Int_Tables_number   1
_chemical_formula_structural   Ca2Hg13(As2Cl3)4
_chemical_formula_sum   'Ca4 Hg26 As16 Cl24'
_cell_volume   1958.98381698
_cell_formula_units_Z   2
loop_
 _symmetry_equiv_pos_site_id
 _symmetry_equiv_pos_as_xyz
  1  'x, y, z'
loop_
 _atom_site_type_symbol
 _atom_site_label
 _atom_site_symmetry_multiplicity
 _atom_site_fract_x
 _atom_site_fract_y
 _atom_site_fract_z
 _atom_site_occupancy
  Ca  Ca0  1  0.500000  0.500000  0.500000  1
  Ca  Ca1  1  0.000000  0.500000  0.000000  1
  Ca  Ca2  1  0.500000  0.000000  0.000000  1
  Ca  Ca3  1  0.000000  0.000000  0.500000  1
  Hg  Hg4  1  0.000000  0.500000  0.500000  1
  Hg  Hg5  1  0.500000  0.500000  0.000000  1
  Hg  Hg6  1  0.780739  0.291998  0.471765  1
  Hg  Hg7  1  0.280739  0.708002  0.028235  1
  Hg  Hg8  1  0.219612  0.207429  0.971802  1
  Hg  Hg9  1  0.719612  0.792571  0.528198  1
  Hg  Hg10  1  0.292851  0.471499  0.780916  1
  Hg  Hg11  1  0.708232  0.027978  0.280262  1
  Hg  Hg12  1  0.208232  0.972022  0.219738  1
  Hg  Hg13  1  0.792851  0.528501  0.719084  1
  Hg  Hg14  1  0.471826  0.780697  0.292199  1
  Hg  Hg15  1  0.028276  0.280425  0.707629  1
  Hg  Hg16  1  0.971826  0.219303  0.207801  1
  Hg  Hg17  1  0.528276  0.719575  0.792371  1
  Hg  Hg18  1  0.219261  0.708002  0.528235  1
  Hg  Hg19  1  0.719261  0.291998  0.971765  1
  Hg  Hg20  1  0.780388  0.792571  0.028198  1
  Hg  Hg21  1  0.280388  0.207429  0.471802  1
  Hg  Hg22  1  0.707149  0.528501  0.219084  1
  Hg  Hg23  1  0.291768  0.972022  0.719738  1
  Hg  Hg24  1  0.791768  0.027978  0.780262  1
  Hg  Hg25  1  0.207149  0.471499  0.280916  1
  Hg  Hg26  1  0.528174  0.219303  0.707801  1
  Hg  Hg27  1  0.971724  0.719575  0.292371  1
  Hg  Hg28  1  0.028174  0.780697  0.792199  1
  Hg  Hg29  1  0.471724  0.280425  0.207629  1
  As  As30  1  0.833933  0.333936  0.666126  1
  As  As31  1  0.333933  0.666064  0.833874  1
  As  As32  1  0.166061  0.166073  0.166048  1
  As  As33  1  0.666061  0.833927  0.333952  1
  As  As34  1  0.166067  0.666064  0.333874  1
  As  As35  1  0.666067  0.333936  0.166126  1
  As  As36  1  0.833939  0.833927  0.833952  1
  As  As37  1  0.333939  0.166073  0.666048  1
  As  As38  1  0.779336  0.220594  0.279288  1
  As  As39  1  0.279336  0.779406  0.220712  1
  As  As40  1  0.221120  0.278805  0.778974  1
  As  As41  1  0.721120  0.721195  0.721026  1
  As  As42  1  0.220664  0.779406  0.720712  1
  As  As43  1  0.720664  0.220594  0.779288  1
  As  As44  1  0.778880  0.721195  0.221026  1
  As  As45  1  0.278880  0.278805  0.278974  1
  Cl  Cl46  1  0.541181  0.285315  0.464454  1
  Cl  Cl47  1  0.041181  0.714685  0.035546  1
  Cl  Cl48  1  0.458165  0.212780  0.964006  1
  Cl  Cl49  1  0.958165  0.787220  0.535994  1
  Cl  Cl50  1  0.287178  0.463821  0.541874  1
  Cl  Cl51  1  0.714656  0.035360  0.041153  1
  Cl  Cl52  1  0.214656  0.964640  0.458847  1
  Cl  Cl53  1  0.787178  0.536179  0.958126  1
  Cl  Cl54  1  0.463556  0.541614  0.287105  1
  Cl  Cl55  1  0.035089  0.041418  0.714575  1
  Cl  Cl56  1  0.963556  0.458386  0.212895  1
  Cl  Cl57  1  0.535089  0.958582  0.785425  1
  Cl  Cl58  1  0.458819  0.714685  0.535546  1
  Cl  Cl59  1  0.958819  0.285315  0.964454  1
  Cl  Cl60  1  0.541835  0.787220  0.035994  1
  Cl  Cl61  1  0.041835  0.212780  0.464006  1
  Cl  Cl62  1  0.712822  0.536179  0.458126  1
  Cl  Cl63  1  0.285344  0.964640  0.958847  1
  Cl  Cl64  1  0.785344  0.035360  0.541153  1
  Cl  Cl65  1  0.212822  0.463821  0.041874  1
  Cl  Cl66  1  0.536444  0.458386  0.712895  1
  Cl  Cl67  1  0.964911  0.958582  0.285425  1
  Cl  Cl68  1  0.036444  0.541614  0.787105  1
  Cl  Cl69  1  0.464911  0.041418  0.214575  1
