# generated using pymatgen
data_Pr4Er12Cd4OsPd3
_symmetry_space_group_name_H-M   'P 1'
_cell_length_a   9.73778966
_cell_length_b   9.73053132
_cell_length_c   9.73053039
_cell_angle_alpha   59.62061016
_cell_angle_beta   59.54984782
_cell_angle_gamma   59.54985192
_symmetry_Int_Tables_number   1
_chemical_formula_structural   Pr4Er12Cd4OsPd3
_chemical_formula_sum   'Pr4 Er12 Cd4 Os1 Pd3'
_cell_volume   645.63366417
_cell_formula_units_Z   1
loop_
 _symmetry_equiv_pos_site_id
 _symmetry_equiv_pos_as_xyz
  1  'x, y, z'
loop_
 _atom_site_type_symbol
 _atom_site_label
 _atom_site_symmetry_multiplicity
 _atom_site_fract_x
 _atom_site_fract_y
 _atom_site_fract_z
 _atom_site_occupancy
  Pr  Pr0  1  0.566385  0.933338  0.566601  1
  Pr  Pr1  1  0.937836  0.558825  0.935847  1
  Pr  Pr2  1  0.566385  0.566601  0.933338  1
  Pr  Pr3  1  0.937836  0.935847  0.558825  1
  Er  Er4  1  0.353157  0.352896  0.352896  1
  Er  Er5  1  0.347804  0.349210  0.951342  1
  Er  Er6  1  0.347804  0.951342  0.349210  1
  Er  Er7  1  0.948920  0.348453  0.348453  1
  Er  Er8  1  0.820034  0.185095  0.185095  1
  Er  Er9  1  0.185812  0.812195  0.812195  1
  Er  Er10  1  0.187284  0.817952  0.186841  1
  Er  Er11  1  0.811526  0.183834  0.811654  1
  Er  Er12  1  0.187284  0.186841  0.817952  1
  Er  Er13  1  0.811526  0.811654  0.183834  1
  Er  Er14  1  0.940430  0.558065  0.558065  1
  Er  Er15  1  0.549290  0.944635  0.944635  1
  Cd  Cd16  1  0.582651  0.577708  0.577708  1
  Cd  Cd17  1  0.577987  0.583191  0.259092  1
  Cd  Cd18  1  0.577987  0.259092  0.583191  1
  Cd  Cd19  1  0.258749  0.578894  0.578894  1
  Os  Os20  1  0.146589  0.141537  0.141537  1
  Pd  Pd21  1  0.142882  0.147683  0.571486  1
  Pd  Pd22  1  0.142882  0.571486  0.147683  1
  Pd  Pd23  1  0.570957  0.143624  0.143624  1
