# generated using pymatgen
data_Y5Ho2P12Ir17
_symmetry_space_group_name_H-M   'P 1'
_cell_length_a   12.72268700
_cell_length_b   13.00035768
_cell_length_c   3.98882700
_cell_angle_alpha   90.00000000
_cell_angle_beta   90.00000000
_cell_angle_gamma   119.29594233
_symmetry_Int_Tables_number   1
_chemical_formula_structural   Y5Ho2P12Ir17
_chemical_formula_sum   'Y5 Ho2 P12 Ir17'
_cell_volume   575.37049525
_cell_formula_units_Z   1
loop_
 _symmetry_equiv_pos_site_id
 _symmetry_equiv_pos_as_xyz
  1  'x, y, z'
loop_
 _atom_site_type_symbol
 _atom_site_label
 _atom_site_symmetry_multiplicity
 _atom_site_fract_x
 _atom_site_fract_y
 _atom_site_fract_z
 _atom_site_occupancy
  Y  Y0  1  0.330270  0.662463  0.500000  1
  Y  Y1  1  0.667809  0.337537  0.500000  1
  Y  Y2  1  0.002007  0.816546  0.000000  1
  Y  Y3  1  0.185462  0.183454  0.000000  1
  Y  Y4  1  0.810422  0.000000  0.000000  1
  Ho  Ho5  1  0.996758  0.444090  0.500000  1
  Ho  Ho6  1  0.552668  0.555910  0.500000  1
  P  P7  1  0.009981  0.658341  0.500000  1
  P  P8  1  0.351640  0.341659  0.500000  1
  P  P9  1  0.643603  0.000000  0.500000  1
  P  P10  1  0.516176  0.690531  0.000000  1
  P  P11  1  0.309380  0.825510  0.000000  1
  P  P12  1  0.167855  0.480605  0.000000  1
  P  P13  1  0.483870  0.174490  0.000000  1
  P  P14  1  0.687251  0.519395  0.000000  1
  P  P15  1  0.825645  0.309469  0.000000  1
  P  P16  1  0.999129  0.174757  0.500000  1
  P  P17  1  0.824372  0.825243  0.500000  1
  P  P18  1  0.181218  0.000000  0.500000  1
  Ir  Ir19  1  0.504106  0.866006  0.000000  1
  Ir  Ir20  1  0.123619  0.646285  0.000000  1
  Ir  Ir21  1  0.357836  0.500470  0.000000  1
  Ir  Ir22  1  0.477336  0.353715  0.000000  1
  Ir  Ir23  1  0.857367  0.499530  0.000000  1
  Ir  Ir24  1  0.638102  0.133994  0.000000  1
  Ir  Ir25  1  0.464848  0.000000  0.500000  1
  Ir  Ir26  1  0.996165  0.271594  0.000000  1
  Ir  Ir27  1  0.724572  0.728406  0.000000  1
  Ir  Ir28  1  0.286882  0.000000  0.000000  1
  Ir  Ir29  1  0.623676  0.810872  0.500000  1
  Ir  Ir30  1  0.208087  0.828968  0.500000  1
  Ir  Ir31  1  0.180603  0.364279  0.500000  1
  Ir  Ir32  1  0.379119  0.171032  0.500000  1
  Ir  Ir33  1  0.816325  0.635721  0.500000  1
  Ir  Ir34  1  0.812804  0.189128  0.500000  1
  Ir  Ir35  1  0.003037  0.000000  0.500000  1
