# generated using pymatgen
data_USn(PO5)2
_symmetry_space_group_name_H-M   'P 1'
_cell_length_a   5.69820980
_cell_length_b   5.34115791
_cell_length_c   7.72100642
_cell_angle_alpha   107.52746683
_cell_angle_beta   110.38165942
_cell_angle_gamma   94.38550988
_symmetry_Int_Tables_number   1
_chemical_formula_structural   USn(PO5)2
_chemical_formula_sum   'U1 Sn1 P2 O10'
_cell_volume   205.68188863
_cell_formula_units_Z   1
loop_
 _symmetry_equiv_pos_site_id
 _symmetry_equiv_pos_as_xyz
  1  'x, y, z'
loop_
 _atom_site_type_symbol
 _atom_site_label
 _atom_site_symmetry_multiplicity
 _atom_site_fract_x
 _atom_site_fract_y
 _atom_site_fract_z
 _atom_site_occupancy
  U  U0  1  0.000000  0.500000  0.000000  1
  Sn  Sn1  1  0.000000  0.500000  0.500000  1
  P  P2  1  0.333256  0.124439  0.736784  1
  P  P3  1  0.666744  0.875561  0.263216  1
  O  O4  1  0.179045  0.186035  0.871287  1
  O  O5  1  0.304498  0.819197  0.642125  1
  O  O6  1  0.932918  0.574413  0.761111  1
  O  O7  1  0.246569  0.253666  0.576719  1
  O  O8  1  0.753431  0.746334  0.423281  1
  O  O9  1  0.620519  0.239980  0.867606  1
  O  O10  1  0.379481  0.760020  0.132394  1
  O  O11  1  0.067082  0.425587  0.238889  1
  O  O12  1  0.695502  0.180803  0.357875  1
  O  O13  1  0.820955  0.813965  0.128713  1
