# generated using pymatgen
data_Ca13Yb7(GeBi2)4
_symmetry_space_group_name_H-M   'P 1'
_cell_length_a   8.12895666
_cell_length_b   9.55497207
_cell_length_c   12.99846499
_cell_angle_alpha   89.95045298
_cell_angle_beta   89.95939290
_cell_angle_gamma   90.02094815
_symmetry_Int_Tables_number   1
_chemical_formula_structural   Ca13Yb7(GeBi2)4
_chemical_formula_sum   'Ca13 Yb7 Ge4 Bi8'
_cell_volume   1009.61547377
_cell_formula_units_Z   1
loop_
 _symmetry_equiv_pos_site_id
 _symmetry_equiv_pos_as_xyz
  1  'x, y, z'
loop_
 _atom_site_type_symbol
 _atom_site_label
 _atom_site_symmetry_multiplicity
 _atom_site_fract_x
 _atom_site_fract_y
 _atom_site_fract_z
 _atom_site_occupancy
  Ca  Ca0  1  0.826934  0.527349  0.075768  1
  Ca  Ca1  1  0.829677  0.249930  0.783543  1
  Ca  Ca2  1  0.054759  0.750207  0.500827  1
  Ca  Ca3  1  0.355311  0.249577  0.696005  1
  Ca  Ca4  1  0.554352  0.248772  0.998999  1
  Ca  Ca5  1  0.855663  0.750138  0.803998  1
  Ca  Ca6  1  0.329147  0.750313  0.716420  1
  Ca  Ca7  1  0.670468  0.249693  0.283888  1
  Ca  Ca8  1  0.444622  0.750858  0.000630  1
  Ca  Ca9  1  0.945380  0.249782  0.499251  1
  Ca  Ca10  1  0.144468  0.249460  0.195861  1
  Ca  Ca11  1  0.170485  0.750397  0.216360  1
  Ca  Ca12  1  0.644486  0.750800  0.304366  1
  Yb  Yb13  1  0.170358  0.027274  0.924818  1
  Yb  Yb14  1  0.329517  0.473024  0.425332  1
  Yb  Yb15  1  0.670784  0.527014  0.575026  1
  Yb  Yb16  1  0.171374  0.472842  0.924563  1
  Yb  Yb17  1  0.829754  0.972541  0.074934  1
  Yb  Yb18  1  0.670566  0.972979  0.575001  1
  Yb  Yb19  1  0.329386  0.027090  0.425178  1
  Ge  Ge20  1  0.441000  0.750117  0.491747  1
  Ge  Ge21  1  0.559106  0.249992  0.508495  1
  Ge  Ge22  1  0.060015  0.750704  0.991310  1
  Ge  Ge23  1  0.942132  0.248847  0.007796  1
  Bi  Bi24  1  0.057339  0.007617  0.668624  1
  Bi  Bi25  1  0.942456  0.992273  0.331384  1
  Bi  Bi26  1  0.057781  0.492144  0.668497  1
  Bi  Bi27  1  0.557346  0.992142  0.830954  1
  Bi  Bi28  1  0.442726  0.008055  0.169124  1
  Bi  Bi29  1  0.442639  0.492496  0.168757  1
  Bi  Bi30  1  0.557123  0.507727  0.830917  1
  Bi  Bi31  1  0.942846  0.507846  0.331629  1
