# generated using pymatgen
data_Rb7LiTaTl2As5
_symmetry_space_group_name_H-M   'P 1'
_cell_length_a   8.83070325
_cell_length_b   9.65849713
_cell_length_c   14.73410152
_cell_angle_alpha   86.60352444
_cell_angle_beta   79.04300238
_cell_angle_gamma   87.11026236
_symmetry_Int_Tables_number   1
_chemical_formula_structural   Rb7LiTaTl2As5
_chemical_formula_sum   'Rb14 Li2 Ta2 Tl4 As10'
_cell_volume   1230.63125235
_cell_formula_units_Z   2
loop_
 _symmetry_equiv_pos_site_id
 _symmetry_equiv_pos_as_xyz
  1  'x, y, z'
loop_
 _atom_site_type_symbol
 _atom_site_label
 _atom_site_symmetry_multiplicity
 _atom_site_fract_x
 _atom_site_fract_y
 _atom_site_fract_z
 _atom_site_occupancy
  Rb  Rb0  1  0.854770  0.356864  0.653487  1
  Rb  Rb1  1  0.842499  0.799412  0.134216  1
  Rb  Rb2  1  0.239928  0.018325  0.469123  1
  Rb  Rb3  1  0.278053  0.262270  0.246036  1
  Rb  Rb4  1  0.737840  0.476237  0.970634  1
  Rb  Rb5  1  0.262160  0.523763  0.029366  1
  Rb  Rb6  1  0.641414  0.088286  0.875898  1
  Rb  Rb7  1  0.760072  0.981675  0.530877  1
  Rb  Rb8  1  0.721947  0.737730  0.753964  1
  Rb  Rb9  1  0.350728  0.349282  0.608702  1
  Rb  Rb10  1  0.145230  0.643136  0.346513  1
  Rb  Rb11  1  0.157501  0.200588  0.865784  1
  Rb  Rb12  1  0.358586  0.911714  0.124102  1
  Rb  Rb13  1  0.649272  0.650718  0.391298  1
  Li  Li14  1  0.081181  0.825941  0.820852  1
  Li  Li15  1  0.918819  0.174059  0.179148  1
  Ta  Ta16  1  0.340133  0.618106  0.778781  1
  Ta  Ta17  1  0.659867  0.381894  0.221219  1
  Tl  Tl18  1  0.360710  0.972595  0.698085  1
  Tl  Tl19  1  0.098341  0.721943  0.617155  1
  Tl  Tl20  1  0.901659  0.278057  0.382845  1
  Tl  Tl21  1  0.639290  0.027405  0.301915  1
  As  As22  1  0.936344  0.446085  0.207297  1
  As  As23  1  0.653992  0.174974  0.120533  1
  As  As24  1  0.063656  0.553915  0.792703  1
  As  As25  1  0.566249  0.295672  0.386912  1
  As  As26  1  0.433751  0.704328  0.613088  1
  As  As27  1  0.001836  0.011439  0.705144  1
  As  As28  1  0.498996  0.414070  0.815238  1
  As  As29  1  0.501004  0.585930  0.184762  1
  As  As30  1  0.346008  0.825026  0.879467  1
  As  As31  1  0.998164  0.988561  0.294856  1
