# generated using pymatgen
data_Nd17Pa3Ir16
_symmetry_space_group_name_H-M   'P 1'
_cell_length_a   7.62131881
_cell_length_b   7.68835114
_cell_length_c   14.87920988
_cell_angle_alpha   90.09661944
_cell_angle_beta   90.06522416
_cell_angle_gamma   89.89749093
_symmetry_Int_Tables_number   1
_chemical_formula_structural   Nd17Pa3Ir16
_chemical_formula_sum   'Nd17 Pa3 Ir16'
_cell_volume   871.84968786
_cell_formula_units_Z   1
loop_
 _symmetry_equiv_pos_site_id
 _symmetry_equiv_pos_as_xyz
  1  'x, y, z'
loop_
 _atom_site_type_symbol
 _atom_site_label
 _atom_site_symmetry_multiplicity
 _atom_site_fract_x
 _atom_site_fract_y
 _atom_site_fract_z
 _atom_site_occupancy
  Nd  Nd0  1  0.836952  0.664800  0.379188  1
  Nd  Nd1  1  0.338173  0.835227  0.378362  1
  Nd  Nd2  1  0.838375  0.664746  0.118851  1
  Nd  Nd3  1  0.660847  0.163649  0.880763  1
  Nd  Nd4  1  0.161255  0.334469  0.621211  1
  Nd  Nd5  1  0.513139  0.682298  0.592792  1
  Nd  Nd6  1  0.015581  0.815830  0.905592  1
  Nd  Nd7  1  0.486825  0.318803  0.095792  1
  Nd  Nd8  1  0.986307  0.189777  0.406467  1
  Nd  Nd9  1  0.487341  0.318162  0.408809  1
  Nd  Nd10  1  0.985602  0.178901  0.092364  1
  Nd  Nd11  1  0.511023  0.676783  0.909220  1
  Nd  Nd12  1  0.011487  0.821381  0.591696  1
  Nd  Nd13  1  0.819450  0.514749  0.749421  1
  Nd  Nd14  1  0.321190  0.983165  0.751133  1
  Nd  Nd15  1  0.171545  0.489180  0.250190  1
  Nd  Nd16  1  0.681976  0.010745  0.251308  1
  Pa  Pa17  1  0.659277  0.158049  0.625786  1
  Pa  Pa18  1  0.161002  0.339073  0.876747  1
  Pa  Pa19  1  0.337813  0.838093  0.122420  1
  Ir  Ir20  1  0.693482  0.973071  0.470756  1
  Ir  Ir21  1  0.201755  0.545728  0.030552  1
  Ir  Ir22  1  0.297202  0.049644  0.966808  1
  Ir  Ir23  1  0.798755  0.438128  0.542184  1
  Ir  Ir24  1  0.343710  0.033194  0.548173  1
  Ir  Ir25  1  0.852327  0.461170  0.951922  1
  Ir  Ir26  1  0.641652  0.959931  0.047405  1
  Ir  Ir27  1  0.169764  0.530202  0.455771  1
  Ir  Ir28  1  0.456127  0.368570  0.752386  1
  Ir  Ir29  1  0.960884  0.130790  0.753734  1
  Ir  Ir30  1  0.534006  0.624047  0.241597  1
  Ir  Ir31  1  0.058900  0.883693  0.236970  1
  Ir  Ir32  1  0.707607  0.881410  0.741812  1
  Ir  Ir33  1  0.204215  0.619779  0.758855  1
  Ir  Ir34  1  0.308607  0.132458  0.244334  1
  Ir  Ir35  1  0.785845  0.370305  0.248623  1
