# generated using pymatgen
data_TbSb5O13
_symmetry_space_group_name_H-M   'P 1'
_cell_length_a   7.43986400
_cell_length_b   7.35682576
_cell_length_c   10.30557041
_cell_angle_alpha   88.88673932
_cell_angle_beta   90.00000000
_cell_angle_gamma   90.00000000
_symmetry_Int_Tables_number   1
_chemical_formula_structural   TbSb5O13
_chemical_formula_sum   'Tb2 Sb10 O26'
_cell_volume   563.95638502
_cell_formula_units_Z   2
loop_
 _symmetry_equiv_pos_site_id
 _symmetry_equiv_pos_as_xyz
  1  'x, y, z'
loop_
 _atom_site_type_symbol
 _atom_site_label
 _atom_site_symmetry_multiplicity
 _atom_site_fract_x
 _atom_site_fract_y
 _atom_site_fract_z
 _atom_site_occupancy
  Tb  Tb0  1  0.500000  0.500000  0.000000  1
  Tb  Tb1  1  0.000000  0.500000  0.000000  1
  Sb  Sb2  1  0.250000  0.729185  0.729617  1
  Sb  Sb3  1  0.750000  0.270815  0.270383  1
  Sb  Sb4  1  0.500000  0.000000  0.000000  1
  Sb  Sb5  1  0.750000  0.757661  0.748812  1
  Sb  Sb6  1  0.250000  0.748551  0.252455  1
  Sb  Sb7  1  0.500000  0.500000  0.500000  1
  Sb  Sb8  1  0.000000  0.500000  0.500000  1
  Sb  Sb9  1  0.750000  0.251449  0.747545  1
  Sb  Sb10  1  0.250000  0.242339  0.251188  1
  Sb  Sb11  1  0.000000  0.000000  0.000000  1
  O  O12  1  0.447781  0.690810  0.372513  1
  O  O13  1  0.750000  0.455256  0.128781  1
  O  O14  1  0.250000  0.493797  0.160974  1
  O  O15  1  0.454272  0.309197  0.365965  1
  O  O16  1  0.557584  0.215111  0.884694  1
  O  O17  1  0.942416  0.215111  0.884694  1
  O  O18  1  0.447858  0.207351  0.120592  1
  O  O19  1  0.750000  0.000326  0.072390  1
  O  O20  1  0.250000  0.999674  0.927610  1
  O  O21  1  0.750000  0.003656  0.683027  1
  O  O22  1  0.552142  0.792649  0.879408  1
  O  O23  1  0.947858  0.792649  0.879408  1
  O  O24  1  0.442416  0.784889  0.115306  1
  O  O25  1  0.052219  0.690810  0.372513  1
  O  O26  1  0.545728  0.690803  0.634035  1
  O  O27  1  0.954272  0.690803  0.634035  1
  O  O28  1  0.250000  0.518445  0.580681  1
  O  O29  1  0.750000  0.506203  0.839026  1
  O  O30  1  0.750000  0.481555  0.419319  1
  O  O31  1  0.045728  0.309197  0.365965  1
  O  O32  1  0.552219  0.309190  0.627487  1
  O  O33  1  0.947781  0.309190  0.627487  1
  O  O34  1  0.052142  0.207351  0.120592  1
  O  O35  1  0.250000  0.996344  0.316973  1
  O  O36  1  0.057584  0.784889  0.115306  1
  O  O37  1  0.250000  0.544744  0.871219  1
