# generated using pymatgen
data_K8Ba4ZrSnAs8
_symmetry_space_group_name_H-M   'P 1'
_cell_length_a   10.63377733
_cell_length_b   10.66374434
_cell_length_c   8.13735080
_cell_angle_alpha   88.99057977
_cell_angle_beta   88.87286488
_cell_angle_gamma   119.96024295
_symmetry_Int_Tables_number   1
_chemical_formula_structural   K8Ba4ZrSnAs8
_chemical_formula_sum   'K8 Ba4 Zr1 Sn1 As8'
_cell_volume   798.88218124
_cell_formula_units_Z   1
loop_
 _symmetry_equiv_pos_site_id
 _symmetry_equiv_pos_as_xyz
  1  'x, y, z'
loop_
 _atom_site_type_symbol
 _atom_site_label
 _atom_site_symmetry_multiplicity
 _atom_site_fract_x
 _atom_site_fract_y
 _atom_site_fract_z
 _atom_site_occupancy
  K  K0  1  0.473674  0.943474  0.380640  1
  K  K1  1  0.943587  0.474537  0.882668  1
  K  K2  1  0.866587  0.725060  0.180011  1
  K  K3  1  0.273385  0.129054  0.228407  1
  K  K4  1  0.854876  0.138412  0.203657  1
  K  K5  1  0.131225  0.278114  0.732625  1
  K  K6  1  0.719098  0.863196  0.682675  1
  K  K7  1  0.139164  0.851877  0.706938  1
  Ba  Ba8  1  0.057255  0.530693  0.390949  1
  Ba  Ba9  1  0.477500  0.530350  0.378873  1
  Ba  Ba10  1  0.533616  0.063735  0.884454  1
  Ba  Ba11  1  0.535655  0.476300  0.877370  1
  Zr  Zr12  1  0.331922  0.664428  0.989022  1
  Sn  Sn13  1  0.662789  0.330229  0.494573  1
  As  As14  1  0.652793  0.333074  0.164356  1
  As  As15  1  0.332007  0.652080  0.663446  1
  As  As16  1  0.205652  0.399188  0.118308  1
  As  As17  1  0.605654  0.798827  0.079068  1
  As  As18  1  0.203435  0.803294  0.096067  1
  As  As19  1  0.802911  0.611647  0.581608  1
  As  As20  1  0.389386  0.200843  0.621297  1
  As  As21  1  0.807639  0.201401  0.598325  1
