# generated using pymatgen
data_Tm3HgP6N13
_symmetry_space_group_name_H-M   'P 1'
_cell_length_a   7.29608293
_cell_length_b   7.29608382
_cell_length_c   7.29608500
_cell_angle_alpha   108.94634266
_cell_angle_beta   108.94635337
_cell_angle_gamma   108.94634937
_symmetry_Int_Tables_number   1
_chemical_formula_structural   Tm3HgP6N13
_chemical_formula_sum   'Tm3 Hg1 P6 N13'
_cell_volume   304.65532427
_cell_formula_units_Z   1
loop_
 _symmetry_equiv_pos_site_id
 _symmetry_equiv_pos_as_xyz
  1  'x, y, z'
loop_
 _atom_site_type_symbol
 _atom_site_label
 _atom_site_symmetry_multiplicity
 _atom_site_fract_x
 _atom_site_fract_y
 _atom_site_fract_z
 _atom_site_occupancy
  Tm  Tm0  1  0.695694  0.002505  0.002505  1
  Tm  Tm1  1  0.002505  0.002505  0.695694  1
  Tm  Tm2  1  0.002505  0.695694  0.002505  1
  Hg  Hg3  1  0.247357  0.247357  0.247357  1
  P  P4  1  0.258871  0.761461  0.511421  1
  P  P5  1  0.761461  0.258871  0.511421  1
  P  P6  1  0.761461  0.511421  0.258871  1
  P  P7  1  0.258871  0.511421  0.761461  1
  P  P8  1  0.511421  0.761461  0.258871  1
  P  P9  1  0.511421  0.258871  0.761461  1
  N  N10  1  0.850432  0.850432  0.850432  1
  N  N11  1  0.744166  0.304552  0.304552  1
  N  N12  1  0.304552  0.744166  0.304552  1
  N  N13  1  0.288096  0.584580  0.584580  1
  N  N14  1  0.584580  0.584580  0.288096  1
  N  N15  1  0.421171  0.735675  0.006893  1
  N  N16  1  0.006893  0.735675  0.421171  1
  N  N17  1  0.584580  0.288096  0.584580  1
  N  N18  1  0.735675  0.006893  0.421171  1
  N  N19  1  0.421171  0.006893  0.735675  1
  N  N20  1  0.735675  0.421171  0.006893  1
  N  N21  1  0.304552  0.304552  0.744166  1
  N  N22  1  0.006893  0.421171  0.735675  1
