# generated using pymatgen
data_DyEr3Al17Ga7Pt9
_symmetry_space_group_name_H-M   'P 1'
_cell_length_a   7.52010093
_cell_length_b   7.52182126
_cell_length_c   13.21944221
_cell_angle_alpha   84.64808381
_cell_angle_beta   100.80042315
_cell_angle_gamma   119.91395566
_symmetry_Int_Tables_number   1
_chemical_formula_structural   DyEr3Al17Ga7Pt9
_chemical_formula_sum   'Dy1 Er3 Al17 Ga7 Pt9'
_cell_volume   636.65510364
_cell_formula_units_Z   1
loop_
 _symmetry_equiv_pos_site_id
 _symmetry_equiv_pos_as_xyz
  1  'x, y, z'
loop_
 _atom_site_type_symbol
 _atom_site_label
 _atom_site_symmetry_multiplicity
 _atom_site_fract_x
 _atom_site_fract_y
 _atom_site_fract_z
 _atom_site_occupancy
  Dy  Dy0  1  0.736141  0.002699  0.191301  1
  Er  Er1  1  0.262058  0.995908  0.807755  1
  Er  Er2  1  0.059179  0.665665  0.190479  1
  Er  Er3  1  0.940786  0.335551  0.809124  1
  Al  Al4  1  0.118828  0.335087  0.331666  1
  Al  Al5  1  0.601275  0.456269  0.815452  1
  Al  Al6  1  0.397674  0.542941  0.184529  1
  Al  Al7  1  0.230299  0.339433  0.669427  1
  Al  Al8  1  0.769931  0.660452  0.330944  1
  Al  Al9  1  0.853539  0.332439  0.558357  1
  Al  Al10  1  0.186190  0.999814  0.558396  1
  Al  Al11  1  0.813894  0.000724  0.440951  1
  Al  Al12  1  0.351980  0.000122  0.055453  1
  Al  Al13  1  0.647401  0.000277  0.944235  1
  Al  Al14  1  0.556227  0.994691  0.669834  1
  Al  Al15  1  0.443706  0.005052  0.330558  1
  Al  Al16  1  0.520703  0.668076  0.560340  1
  Al  Al17  1  0.480022  0.331867  0.439468  1
  Al  Al18  1  0.684618  0.667007  0.048774  1
  Al  Al19  1  0.314738  0.332458  0.951134  1
  Al  Al20  1  0.146190  0.667022  0.440609  1
  Ga  Ga21  1  0.803124  0.871456  0.815049  1
  Ga  Ga22  1  0.197069  0.130105  0.185239  1
  Ga  Ga23  1  0.982017  0.666084  0.939843  1
  Ga  Ga24  1  0.017914  0.334263  0.060722  1
  Ga  Ga25  1  0.400710  0.663163  0.816359  1
  Ga  Ga26  1  0.599627  0.336951  0.183642  1
  Ga  Ga27  1  0.883817  0.664710  0.671670  1
  Pt  Pt28  1  0.336196  0.674203  0.003105  1
  Pt  Pt29  1  0.543441  0.322170  0.637709  1
  Pt  Pt30  1  0.453446  0.674285  0.362248  1
  Pt  Pt31  1  0.888099  0.011688  0.636843  1
  Pt  Pt32  1  0.112001  0.991371  0.363026  1
  Pt  Pt33  1  0.663428  0.325773  0.996655  1
  Pt  Pt34  1  0.206960  0.666888  0.636332  1
  Pt  Pt35  1  0.796729  0.333238  0.362673  1
  Pt  Pt36  1  0.000046  0.000096  0.000099  1
