# generated using pymatgen
data_YbNp2Sn3IrRu2
_symmetry_space_group_name_H-M   'P 1'
_cell_length_a   7.22319097
_cell_length_b   7.51165327
_cell_length_c   4.00588200
_cell_angle_alpha   90.00000000
_cell_angle_beta   90.00000000
_cell_angle_gamma   118.88553780
_symmetry_Int_Tables_number   1
_chemical_formula_structural   YbNp2Sn3IrRu2
_chemical_formula_sum   'Yb1 Np2 Sn3 Ir1 Ru2'
_cell_volume   190.31009769
_cell_formula_units_Z   1
loop_
 _symmetry_equiv_pos_site_id
 _symmetry_equiv_pos_as_xyz
  1  'x, y, z'
loop_
 _atom_site_type_symbol
 _atom_site_label
 _atom_site_symmetry_multiplicity
 _atom_site_fract_x
 _atom_site_fract_y
 _atom_site_fract_z
 _atom_site_occupancy
  Yb  Yb0  1  0.411242  0.001230  0.500000  1
  Np  Np1  1  0.005729  0.415515  0.500000  1
  Np  Np2  1  0.586210  0.588229  0.500000  1
  Sn  Sn3  1  0.017855  0.761561  0.000000  1
  Sn  Sn4  1  0.252881  0.239048  0.000000  1
  Sn  Sn5  1  0.727465  0.998880  0.000000  1
  Ir  Ir6  1  0.693633  0.365937  0.000000  1
  Ru  Ru7  1  0.328516  0.630678  0.000000  1
  Ru  Ru8  1  0.976469  0.998921  0.500000  1
