# generated using pymatgen
data_La7ZnCuPd
_symmetry_space_group_name_H-M   'P 1'
_cell_length_a   3.89028100
_cell_length_b   12.61144774
_cell_length_c   12.61144757
_cell_angle_alpha   90.38824594
_cell_angle_beta   90.00000000
_cell_angle_gamma   90.00000000
_symmetry_Int_Tables_number   1
_chemical_formula_structural   La7ZnCuPd
_chemical_formula_sum   'La14 Zn2 Cu2 Pd2'
_cell_volume   618.72958773
_cell_formula_units_Z   2
loop_
 _symmetry_equiv_pos_site_id
 _symmetry_equiv_pos_as_xyz
  1  'x, y, z'
loop_
 _atom_site_type_symbol
 _atom_site_label
 _atom_site_symmetry_multiplicity
 _atom_site_fract_x
 _atom_site_fract_y
 _atom_site_fract_z
 _atom_site_occupancy
  La  La0  1  0.500000  0.000000  0.500000  1
  La  La1  1  0.500000  0.500000  0.000000  1
  La  La2  1  0.000000  0.322532  0.822532  1
  La  La3  1  0.000000  0.677468  0.177468  1
  La  La4  1  0.000000  0.177451  0.322549  1
  La  La5  1  0.000000  0.822549  0.677451  1
  La  La6  1  0.500000  0.557302  0.696992  1
  La  La7  1  0.500000  0.442698  0.303008  1
  La  La8  1  0.500000  0.944413  0.197093  1
  La  La9  1  0.500000  0.055587  0.802907  1
  La  La10  1  0.500000  0.697093  0.444413  1
  La  La11  1  0.500000  0.302907  0.555587  1
  La  La12  1  0.500000  0.196992  0.057302  1
  La  La13  1  0.500000  0.803008  0.942698  1
  Zn  Zn14  1  0.000000  0.500000  0.500000  1
  Zn  Zn15  1  0.000000  0.000000  0.000000  1
  Cu  Cu16  1  0.000000  0.130198  0.630198  1
  Cu  Cu17  1  0.000000  0.869802  0.369802  1
  Pd  Pd18  1  0.000000  0.369441  0.130559  1
  Pd  Pd19  1  0.000000  0.630559  0.869441  1
