# generated using pymatgen
data_ScNbCo4P3
_symmetry_space_group_name_H-M   'P 1'
_cell_length_a   11.98495459
_cell_length_b   11.98495470
_cell_length_c   3.61918500
_cell_angle_alpha   90.00000000
_cell_angle_beta   90.00000000
_cell_angle_gamma   119.94092422
_symmetry_Int_Tables_number   1
_chemical_formula_structural   ScNbCo4P3
_chemical_formula_sum   'Sc4 Nb4 Co16 P12'
_cell_volume   450.47679753
_cell_formula_units_Z   4
loop_
 _symmetry_equiv_pos_site_id
 _symmetry_equiv_pos_as_xyz
  1  'x, y, z'
loop_
 _atom_site_type_symbol
 _atom_site_label
 _atom_site_symmetry_multiplicity
 _atom_site_fract_x
 _atom_site_fract_y
 _atom_site_fract_z
 _atom_site_occupancy
  Sc  Sc0  1  0.821771  0.999165  0.500000  1
  Sc  Sc1  1  0.999165  0.821771  0.500000  1
  Sc  Sc2  1  0.333714  0.666775  0.000000  1
  Sc  Sc3  1  0.666775  0.333714  0.000000  1
  Nb  Nb4  1  0.181617  0.181617  0.500000  1
  Nb  Nb5  1  0.446838  0.000336  0.000000  1
  Nb  Nb6  1  0.000336  0.446838  0.000000  1
  Nb  Nb7  1  0.552206  0.552206  0.000000  1
  Co  Co8  1  0.278753  0.003078  0.500000  1
  Co  Co9  1  0.003078  0.278753  0.500000  1
  Co  Co10  1  0.721028  0.721028  0.500000  1
  Co  Co11  1  0.628362  0.804962  0.000000  1
  Co  Co12  1  0.195150  0.824107  0.000000  1
  Co  Co13  1  0.175688  0.368007  0.000000  1
  Co  Co14  1  0.368007  0.175688  0.000000  1
  Co  Co15  1  0.804962  0.628362  0.000000  1
  Co  Co16  1  0.824107  0.195150  0.000000  1
  Co  Co17  1  0.517970  0.871594  0.500000  1
  Co  Co18  1  0.128574  0.647087  0.500000  1
  Co  Co19  1  0.351055  0.478939  0.500000  1
  Co  Co20  1  0.478939  0.351055  0.500000  1
  Co  Co21  1  0.871594  0.517970  0.500000  1
  Co  Co22  1  0.647087  0.128574  0.500000  1
  Co  Co23  1  0.001952  0.001952  0.000000  1
  P  P24  1  0.174085  0.999530  0.000000  1
  P  P25  1  0.999530  0.174085  0.000000  1
  P  P26  1  0.826434  0.826434  0.000000  1
  P  P27  1  0.517147  0.687425  0.500000  1
  P  P28  1  0.312138  0.830061  0.500000  1
  P  P29  1  0.170904  0.483836  0.500000  1
  P  P30  1  0.483836  0.170904  0.500000  1
  P  P31  1  0.687425  0.517147  0.500000  1
  P  P32  1  0.830061  0.312138  0.500000  1
  P  P33  1  0.650247  0.999951  0.000000  1
  P  P34  1  0.999951  0.650247  0.000000  1
  P  P35  1  0.349517  0.349517  0.000000  1
