# generated using pymatgen
data_Tb3Dy(ThSe3)4
_symmetry_space_group_name_H-M   'P 1'
_cell_length_a   11.25356507
_cell_length_b   4.08829800
_cell_length_c   11.06707407
_cell_angle_alpha   90.00000000
_cell_angle_beta   90.01267019
_cell_angle_gamma   90.00000000
_symmetry_Int_Tables_number   1
_chemical_formula_structural   Tb3Dy(ThSe3)4
_chemical_formula_sum   'Tb3 Dy1 Th4 Se12'
_cell_volume   509.17312960
_cell_formula_units_Z   1
loop_
 _symmetry_equiv_pos_site_id
 _symmetry_equiv_pos_as_xyz
  1  'x, y, z'
loop_
 _atom_site_type_symbol
 _atom_site_label
 _atom_site_symmetry_multiplicity
 _atom_site_fract_x
 _atom_site_fract_y
 _atom_site_fract_z
 _atom_site_occupancy
  Tb  Tb0  1  0.482673  0.250000  0.186892  1
  Tb  Tb1  1  0.982696  0.250000  0.313094  1
  Tb  Tb2  1  0.517356  0.750000  0.813078  1
  Dy  Dy3  1  0.017210  0.750000  0.686919  1
  Th  Th4  1  0.698208  0.750000  0.497757  1
  Th  Th5  1  0.198031  0.750000  0.002223  1
  Th  Th6  1  0.301966  0.250000  0.502174  1
  Th  Th7  1  0.801907  0.250000  0.997693  1
  Se  Se8  1  0.547002  0.250000  0.626743  1
  Se  Se9  1  0.046850  0.250000  0.872388  1
  Se  Se10  1  0.452958  0.750000  0.373343  1
  Se  Se11  1  0.952997  0.750000  0.126597  1
  Se  Se12  1  0.616534  0.750000  0.055248  1
  Se  Se13  1  0.116191  0.750000  0.445343  1
  Se  Se14  1  0.383464  0.250000  0.944676  1
  Se  Se15  1  0.884073  0.250000  0.555758  1
  Se  Se16  1  0.724417  0.250000  0.295859  1
  Se  Se17  1  0.224339  0.250000  0.204335  1
  Se  Se18  1  0.275027  0.750000  0.704262  1
  Se  Se19  1  0.776099  0.750000  0.795618  1
