# generated using pymatgen
data_Li6La6Sb(WO8)3
_symmetry_space_group_name_H-M   'P 1'
_cell_length_a   11.07651671
_cell_length_b   11.07651675
_cell_length_c   12.80443608
_cell_angle_alpha   54.83663560
_cell_angle_beta   54.83663502
_cell_angle_gamma   70.62016412
_symmetry_Int_Tables_number   1
_chemical_formula_structural   Li6La6Sb(WO8)3
_chemical_formula_sum   'Li12 La12 Sb2 W6 O48'
_cell_volume   1049.92075290
_cell_formula_units_Z   2
loop_
 _symmetry_equiv_pos_site_id
 _symmetry_equiv_pos_as_xyz
  1  'x, y, z'
loop_
 _atom_site_type_symbol
 _atom_site_label
 _atom_site_symmetry_multiplicity
 _atom_site_fract_x
 _atom_site_fract_y
 _atom_site_fract_z
 _atom_site_occupancy
  Li  Li0  1  0.874319  0.374911  0.875670  1
  Li  Li1  1  0.874920  0.125080  0.250000  1
  Li  Li2  1  0.750305  0.749714  0.374559  1
  Li  Li3  1  0.624294  0.375706  0.750000  1
  Li  Li4  1  0.749714  0.750305  0.874559  1
  Li  Li5  1  0.625089  0.125681  0.624330  1
  Li  Li6  1  0.374911  0.874319  0.375670  1
  Li  Li7  1  0.249695  0.250286  0.625441  1
  Li  Li8  1  0.250286  0.249695  0.125441  1
  Li  Li9  1  0.375706  0.624294  0.250000  1
  Li  Li10  1  0.125080  0.874920  0.750000  1
  Li  Li11  1  0.125681  0.625089  0.124330  1
  La  La12  1  0.875104  0.124896  0.750000  1
  La  La13  1  0.749218  0.749785  0.625953  1
  La  La14  1  0.873874  0.375287  0.375063  1
  La  La15  1  0.375713  0.624287  0.750000  1
  La  La16  1  0.749785  0.749218  0.125953  1
  La  La17  1  0.624713  0.126126  0.124937  1
  La  La18  1  0.375287  0.873874  0.875063  1
  La  La19  1  0.250215  0.250782  0.874047  1
  La  La20  1  0.624287  0.375713  0.250000  1
  La  La21  1  0.126126  0.624713  0.624937  1
  La  La22  1  0.250782  0.250215  0.374047  1
  La  La23  1  0.124896  0.875104  0.250000  1
  Sb  Sb24  1  0.500000  0.500000  0.500000  1
  Sb  Sb25  1  0.500000  0.500000  0.000000  1
  W  W26  1  0.000000  0.500000  0.000000  1
  W  W27  1  0.500000  0.000000  0.500000  1
  W  W28  1  0.500000  0.000000  0.000000  1
  W  W29  1  0.000000  0.500000  0.500000  1
  W  W30  1  0.000000  0.000000  0.500000  1
  W  W31  1  0.000000  0.000000  0.000000  1
  O  O32  1  0.907110  0.808662  0.669926  1
  O  O33  1  0.979080  0.922908  0.906364  1
  O  O34  1  0.885636  0.170169  0.922241  1
  O  O35  1  0.923126  0.520918  0.670270  1
  O  O36  1  0.922908  0.979080  0.406364  1
  O  O37  1  0.907178  0.692040  0.422756  1
  O  O38  1  0.829973  0.384820  0.593238  1
  O  O39  1  0.579210  0.526367  0.801053  1
  O  O40  1  0.615180  0.170027  0.906762  1
  O  O41  1  0.692040  0.907178  0.922756  1
  O  O42  1  0.829831  0.114364  0.577759  1
  O  O43  1  0.670546  0.113876  0.309098  1
  O  O44  1  0.978681  0.577144  0.114491  1
  O  O45  1  0.808662  0.907110  0.169926  1
  O  O46  1  0.593796  0.809184  0.520194  1
  O  O47  1  0.699141  0.594050  0.379942  1
  O  O48  1  0.673007  0.380125  0.025406  1
  O  O49  1  0.886124  0.329454  0.190902  1
  O  O50  1  0.594050  0.699141  0.879942  1
  O  O51  1  0.473633  0.420790  0.698947  1
  O  O52  1  0.479082  0.076874  0.829730  1
  O  O53  1  0.619875  0.326993  0.474594  1
  O  O54  1  0.809184  0.593796  0.020194  1
  O  O55  1  0.422856  0.021319  0.385509  1
  O  O56  1  0.190816  0.406204  0.979806  1
  O  O57  1  0.577144  0.978681  0.614491  1
  O  O58  1  0.380125  0.673007  0.525406  1
  O  O59  1  0.520918  0.923126  0.170270  1
  O  O60  1  0.526367  0.579210  0.301053  1
  O  O61  1  0.405950  0.300859  0.120058  1
  O  O62  1  0.113876  0.670546  0.809098  1
  O  O63  1  0.326993  0.619875  0.974594  1
  O  O64  1  0.300859  0.405950  0.620058  1
  O  O65  1  0.406204  0.190816  0.479806  1
  O  O66  1  0.191338  0.092890  0.830074  1
  O  O67  1  0.021319  0.422856  0.885509  1
  O  O68  1  0.329454  0.886124  0.690902  1
  O  O69  1  0.170169  0.885636  0.422241  1
  O  O70  1  0.307960  0.092822  0.077244  1
  O  O71  1  0.384820  0.829973  0.093238  1
  O  O72  1  0.420790  0.473633  0.198947  1
  O  O73  1  0.170027  0.615180  0.406762  1
  O  O74  1  0.092822  0.307960  0.577244  1
  O  O75  1  0.077092  0.020920  0.593636  1
  O  O76  1  0.076874  0.479082  0.329730  1
  O  O77  1  0.114364  0.829831  0.077759  1
  O  O78  1  0.020920  0.077092  0.093636  1
  O  O79  1  0.092890  0.191338  0.330074  1
