# generated using pymatgen
data_Tb3Tm7Hg3Ru
_symmetry_space_group_name_H-M   'P 1'
_cell_length_a   9.49164000
_cell_length_b   9.49164055
_cell_length_c   9.63258000
_cell_angle_alpha   90.00000000
_cell_angle_beta   90.00000000
_cell_angle_gamma   119.99999808
_symmetry_Int_Tables_number   1
_chemical_formula_structural   Tb3Tm7Hg3Ru
_chemical_formula_sum   'Tb6 Tm14 Hg6 Ru2'
_cell_volume   751.54641187
_cell_formula_units_Z   2
loop_
 _symmetry_equiv_pos_site_id
 _symmetry_equiv_pos_as_xyz
  1  'x, y, z'
loop_
 _atom_site_type_symbol
 _atom_site_label
 _atom_site_symmetry_multiplicity
 _atom_site_fract_x
 _atom_site_fract_y
 _atom_site_fract_z
 _atom_site_occupancy
  Tb  Tb0  1  0.540360  0.459640  0.250000  1
  Tb  Tb1  1  0.540360  0.080722  0.250000  1
  Tb  Tb2  1  0.919278  0.459640  0.250000  1
  Tb  Tb3  1  0.459640  0.540360  0.750000  1
  Tb  Tb4  1  0.459640  0.919278  0.750000  1
  Tb  Tb5  1  0.080722  0.540360  0.750000  1
  Tm  Tm6  1  0.000000  0.000000  0.500000  1
  Tm  Tm7  1  0.000000  0.000000  0.000000  1
  Tm  Tm8  1  0.209521  0.790479  0.439992  1
  Tm  Tm9  1  0.209521  0.419044  0.439992  1
  Tm  Tm10  1  0.580956  0.790479  0.439992  1
  Tm  Tm11  1  0.790479  0.209521  0.560008  1
  Tm  Tm12  1  0.790479  0.580956  0.560008  1
  Tm  Tm13  1  0.419044  0.209521  0.560008  1
  Tm  Tm14  1  0.790479  0.209521  0.939992  1
  Tm  Tm15  1  0.790479  0.580956  0.939992  1
  Tm  Tm16  1  0.419044  0.209521  0.939992  1
  Tm  Tm17  1  0.209521  0.790479  0.060008  1
  Tm  Tm18  1  0.209521  0.419044  0.060008  1
  Tm  Tm19  1  0.580956  0.790479  0.060008  1
  Hg  Hg20  1  0.883295  0.116705  0.250000  1
  Hg  Hg21  1  0.883295  0.766592  0.250000  1
  Hg  Hg22  1  0.233408  0.116705  0.250000  1
  Hg  Hg23  1  0.116705  0.883295  0.750000  1
  Hg  Hg24  1  0.116705  0.233408  0.750000  1
  Hg  Hg25  1  0.766592  0.883295  0.750000  1
  Ru  Ru26  1  0.333333  0.666667  0.250000  1
  Ru  Ru27  1  0.666667  0.333333  0.750000  1
