# generated using pymatgen
data_WF16
_symmetry_space_group_name_H-M   'P 1'
_cell_length_a   5.23658900
_cell_length_b   8.10963308
_cell_length_c   8.10963200
_cell_angle_alpha   120.00000374
_cell_angle_beta   90.00000000
_cell_angle_gamma   90.00000000
_symmetry_Int_Tables_number   1
_chemical_formula_structural   WF16
_chemical_formula_sum   'W1 F16'
_cell_volume   298.25068979
_cell_formula_units_Z   1
loop_
 _symmetry_equiv_pos_site_id
 _symmetry_equiv_pos_as_xyz
  1  'x, y, z'
loop_
 _atom_site_type_symbol
 _atom_site_label
 _atom_site_symmetry_multiplicity
 _atom_site_fract_x
 _atom_site_fract_y
 _atom_site_fract_z
 _atom_site_occupancy
  W  W0  1  0.000000  0.000000  0.000000  1
  F  F1  1  0.064689  0.666667  0.333333  1
  F  F2  1  0.935311  0.333333  0.666667  1
  F  F3  1  0.609683  0.469844  0.939688  1
  F  F4  1  0.390317  0.530156  0.060312  1
  F  F5  1  0.609683  0.469844  0.530156  1
  F  F6  1  0.390317  0.530156  0.469844  1
  F  F7  1  0.609683  0.060312  0.530156  1
  F  F8  1  0.390317  0.939688  0.469844  1
  F  F9  1  0.792926  0.890796  0.781594  1
  F  F10  1  0.207074  0.109204  0.218406  1
  F  F11  1  0.792926  0.890796  0.109204  1
  F  F12  1  0.207074  0.109204  0.890796  1
  F  F13  1  0.792926  0.218406  0.109204  1
  F  F14  1  0.207074  0.781594  0.890796  1
  F  F15  1  0.792599  0.666667  0.333333  1
  F  F16  1  0.207401  0.333333  0.666667  1
