# generated using pymatgen
data_Lu8V11Si16Mo
_symmetry_space_group_name_H-M   'P 1'
_cell_length_a   6.60404400
_cell_length_b   6.79427103
_cell_length_c   12.78121700
_cell_angle_alpha   90.00000000
_cell_angle_beta   90.00000000
_cell_angle_gamma   90.06315191
_symmetry_Int_Tables_number   1
_chemical_formula_structural   Lu8V11Si16Mo
_chemical_formula_sum   'Lu8 V11 Si16 Mo1'
_cell_volume   573.48857495
_cell_formula_units_Z   1
loop_
 _symmetry_equiv_pos_site_id
 _symmetry_equiv_pos_as_xyz
  1  'x, y, z'
loop_
 _atom_site_type_symbol
 _atom_site_label
 _atom_site_symmetry_multiplicity
 _atom_site_fract_x
 _atom_site_fract_y
 _atom_site_fract_z
 _atom_site_occupancy
  Lu  Lu0  1  0.498798  0.330606  0.094226  1
  Lu  Lu1  1  0.998507  0.169611  0.405793  1
  Lu  Lu2  1  0.500884  0.669788  0.595075  1
  Lu  Lu3  1  0.001160  0.831088  0.904860  1
  Lu  Lu4  1  0.500884  0.669788  0.904925  1
  Lu  Lu5  1  0.001160  0.831088  0.595140  1
  Lu  Lu6  1  0.498798  0.330606  0.405774  1
  Lu  Lu7  1  0.998507  0.169611  0.094207  1
  V  V8  1  0.835271  0.329354  0.626349  1
  V  V9  1  0.335017  0.170781  0.873887  1
  V  V10  1  0.165438  0.669466  0.125964  1
  V  V11  1  0.664517  0.829830  0.374254  1
  V  V12  1  0.165438  0.669466  0.374036  1
  V  V13  1  0.664517  0.829830  0.125746  1
  V  V14  1  0.835271  0.329354  0.873651  1
  V  V15  1  0.335017  0.170781  0.626113  1
  V  V16  1  0.663217  0.011879  0.750000  1
  V  V17  1  0.162963  0.487633  0.750000  1
  V  V18  1  0.336641  0.988134  0.250000  1
  Si  Si19  1  0.661682  0.042555  0.544390  1
  Si  Si20  1  0.162174  0.457759  0.955575  1
  Si  Si21  1  0.338245  0.957577  0.043755  1
  Si  Si22  1  0.838142  0.543508  0.457852  1
  Si  Si23  1  0.338245  0.957577  0.456245  1
  Si  Si24  1  0.838142  0.543508  0.042148  1
  Si  Si25  1  0.661682  0.042555  0.955610  1
  Si  Si26  1  0.162174  0.457759  0.544425  1
  Si  Si27  1  0.537046  0.368186  0.750000  1
  Si  Si28  1  0.036821  0.131101  0.750000  1
  Si  Si29  1  0.461132  0.633011  0.250000  1
  Si  Si30  1  0.964754  0.871296  0.250000  1
  Si  Si31  1  0.801771  0.623741  0.750000  1
  Si  Si32  1  0.301816  0.876522  0.750000  1
  Si  Si33  1  0.201162  0.372848  0.250000  1
  Si  Si34  1  0.696729  0.122751  0.250000  1
  Mo  Mo35  1  0.836281  0.509052  0.250000  1
