# generated using pymatgen
data_Ho2MnFe6Co5P7
_symmetry_space_group_name_H-M   'P 1'
_cell_length_a   8.99082577
_cell_length_b   8.98740498
_cell_length_c   3.60500500
_cell_angle_alpha   90.00000000
_cell_angle_beta   90.00000000
_cell_angle_gamma   120.22290199
_symmetry_Int_Tables_number   1
_chemical_formula_structural   Ho2MnFe6Co5P7
_chemical_formula_sum   'Ho2 Mn1 Fe6 Co5 P7'
_cell_volume   251.70424242
_cell_formula_units_Z   1
loop_
 _symmetry_equiv_pos_site_id
 _symmetry_equiv_pos_as_xyz
  1  'x, y, z'
loop_
 _atom_site_type_symbol
 _atom_site_label
 _atom_site_symmetry_multiplicity
 _atom_site_fract_x
 _atom_site_fract_y
 _atom_site_fract_z
 _atom_site_occupancy
  Ho  Ho0  1  0.998459  0.000489  0.000000  1
  Ho  Ho1  1  0.332181  0.664956  0.500000  1
  Mn  Mn2  1  0.543690  0.106177  0.500000  1
  Fe  Fe3  1  0.098666  0.391805  0.000000  1
  Fe  Fe4  1  0.785561  0.180020  0.000000  1
  Fe  Fe5  1  0.391978  0.213463  0.000000  1
  Fe  Fe6  1  0.821666  0.609367  0.000000  1
  Fe  Fe7  1  0.565531  0.461575  0.500000  1
  Fe  Fe8  1  0.895304  0.436528  0.500000  1
  Co  Co9  1  0.294186  0.899823  0.000000  1
  Co  Co10  1  0.607202  0.705157  0.000000  1
  Co  Co11  1  0.718825  0.947921  0.500000  1
  Co  Co12  1  0.230467  0.280901  0.500000  1
  Co  Co13  1  0.051984  0.769580  0.500000  1
  P  P14  1  0.555086  0.922810  0.000000  1
  P  P15  1  0.370225  0.444773  0.000000  1
  P  P16  1  0.073021  0.625680  0.000000  1
  P  P17  1  0.956847  0.224293  0.500000  1
  P  P18  1  0.260722  0.044105  0.500000  1
  P  P19  1  0.780604  0.734236  0.500000  1
  P  P20  1  0.667794  0.336340  0.000000  1
