# generated using pymatgen
data_DyY3(FeC4)2
_symmetry_space_group_name_H-M   'P 1'
_cell_length_a   5.04212943
_cell_length_b   6.61217346
_cell_length_c   6.61690066
_cell_angle_alpha   68.88094657
_cell_angle_beta   67.60411771
_cell_angle_gamma   67.58724696
_symmetry_Int_Tables_number   1
_chemical_formula_structural   DyY3(FeC4)2
_chemical_formula_sum   'Dy1 Y3 Fe2 C8'
_cell_volume   182.49212960
_cell_formula_units_Z   1
loop_
 _symmetry_equiv_pos_site_id
 _symmetry_equiv_pos_as_xyz
  1  'x, y, z'
loop_
 _atom_site_type_symbol
 _atom_site_label
 _atom_site_symmetry_multiplicity
 _atom_site_fract_x
 _atom_site_fract_y
 _atom_site_fract_z
 _atom_site_occupancy
  Dy  Dy0  1  0.855785  0.487292  0.801139  1
  Y  Y1  1  0.644271  0.198487  0.512971  1
  Y  Y2  1  0.355784  0.801625  0.486808  1
  Y  Y3  1  0.144449  0.512501  0.198600  1
  Fe  Fe4  1  0.249856  0.000099  0.000166  1
  Fe  Fe5  1  0.749878  0.000099  0.000166  1
  C  C6  1  0.871510  0.791958  0.465021  1
  C  C7  1  0.128289  0.207685  0.535738  1
  C  C8  1  0.371207  0.465231  0.792354  1
  C  C9  1  0.629248  0.534745  0.206760  1
  C  C10  1  0.922115  0.913291  0.242478  1
  C  C11  1  0.077522  0.086962  0.757996  1
  C  C12  1  0.421985  0.242613  0.913416  1
  C  C13  1  0.578101  0.757412  0.086388  1
