# generated using pymatgen
data_Dy5Tc3P12(IrRh3)4
_symmetry_space_group_name_H-M   'P 1'
_cell_length_a   12.67047700
_cell_length_b   12.67047765
_cell_length_c   3.92920700
_cell_angle_alpha   90.00000000
_cell_angle_beta   90.00000000
_cell_angle_gamma   119.99999569
_symmetry_Int_Tables_number   1
_chemical_formula_structural   Dy5Tc3P12(IrRh3)4
_chemical_formula_sum   'Dy5 Tc3 P12 Ir4 Rh12'
_cell_volume   546.28781258
_cell_formula_units_Z   1
loop_
 _symmetry_equiv_pos_site_id
 _symmetry_equiv_pos_as_xyz
  1  'x, y, z'
loop_
 _atom_site_type_symbol
 _atom_site_label
 _atom_site_symmetry_multiplicity
 _atom_site_fract_x
 _atom_site_fract_y
 _atom_site_fract_z
 _atom_site_occupancy
  Dy  Dy0  1  0.333333  0.666667  0.500000  1
  Dy  Dy1  1  0.666667  0.333333  0.500000  1
  Dy  Dy2  1  0.000000  0.814770  0.000000  1
  Dy  Dy3  1  0.185230  0.185230  0.000000  1
  Dy  Dy4  1  0.814770  0.000000  0.000000  1
  Tc  Tc5  1  0.000000  0.451838  0.500000  1
  Tc  Tc6  1  0.548162  0.548162  0.500000  1
  Tc  Tc7  1  0.451838  0.000000  0.500000  1
  P  P8  1  0.000000  0.635964  0.500000  1
  P  P9  1  0.364036  0.364036  0.500000  1
  P  P10  1  0.635964  0.000000  0.500000  1
  P  P11  1  0.516421  0.682410  0.000000  1
  P  P12  1  0.317590  0.834011  0.000000  1
  P  P13  1  0.165989  0.483579  0.000000  1
  P  P14  1  0.483579  0.165989  0.000000  1
  P  P15  1  0.682410  0.516421  0.000000  1
  P  P16  1  0.834011  0.317590  0.000000  1
  P  P17  1  0.000000  0.177676  0.500000  1
  P  P18  1  0.822324  0.822324  0.500000  1
  P  P19  1  0.177676  0.000000  0.500000  1
  Ir  Ir20  1  0.000000  0.285805  0.000000  1
  Ir  Ir21  1  0.714195  0.714195  0.000000  1
  Ir  Ir22  1  0.285805  0.000000  0.000000  1
  Ir  Ir23  1  0.000000  0.000000  0.500000  1
  Rh  Rh24  1  0.512732  0.869551  0.000000  1
  Rh  Rh25  1  0.130449  0.643182  0.000000  1
  Rh  Rh26  1  0.356818  0.487268  0.000000  1
  Rh  Rh27  1  0.487268  0.356818  0.000000  1
  Rh  Rh28  1  0.869551  0.512732  0.000000  1
  Rh  Rh29  1  0.643182  0.130449  0.000000  1
  Rh  Rh30  1  0.625036  0.804232  0.500000  1
  Rh  Rh31  1  0.195768  0.820805  0.500000  1
  Rh  Rh32  1  0.179195  0.374964  0.500000  1
  Rh  Rh33  1  0.374964  0.179195  0.500000  1
  Rh  Rh34  1  0.804232  0.625036  0.500000  1
  Rh  Rh35  1  0.820805  0.195768  0.500000  1
