# generated using pymatgen
data_Hf18TiMnRe7Si
_symmetry_space_group_name_H-M   'P 1'
_cell_length_a   8.57575300
_cell_length_b   8.57575329
_cell_length_c   8.58646600
_cell_angle_alpha   90.00000000
_cell_angle_beta   90.00000000
_cell_angle_gamma   120.00000274
_symmetry_Int_Tables_number   1
_chemical_formula_structural   Hf18TiMnRe7Si
_chemical_formula_sum   'Hf18 Ti1 Mn1 Re7 Si1'
_cell_volume   546.87694727
_cell_formula_units_Z   1
loop_
 _symmetry_equiv_pos_site_id
 _symmetry_equiv_pos_as_xyz
  1  'x, y, z'
loop_
 _atom_site_type_symbol
 _atom_site_label
 _atom_site_symmetry_multiplicity
 _atom_site_fract_x
 _atom_site_fract_y
 _atom_site_fract_z
 _atom_site_occupancy
  Hf  Hf0  1  0.201032  0.798968  0.444349  1
  Hf  Hf1  1  0.201032  0.402065  0.444349  1
  Hf  Hf2  1  0.597935  0.798968  0.444349  1
  Hf  Hf3  1  0.805193  0.194807  0.548734  1
  Hf  Hf4  1  0.805193  0.610385  0.548734  1
  Hf  Hf5  1  0.389615  0.194807  0.548734  1
  Hf  Hf6  1  0.807699  0.192301  0.952170  1
  Hf  Hf7  1  0.807699  0.615397  0.952170  1
  Hf  Hf8  1  0.384603  0.192301  0.952170  1
  Hf  Hf9  1  0.203208  0.796792  0.057897  1
  Hf  Hf10  1  0.203208  0.406418  0.057897  1
  Hf  Hf11  1  0.593582  0.796792  0.057897  1
  Hf  Hf12  1  0.539559  0.460441  0.250186  1
  Hf  Hf13  1  0.539559  0.079117  0.250186  1
  Hf  Hf14  1  0.920883  0.460441  0.250186  1
  Hf  Hf15  1  0.461404  0.538596  0.750732  1
  Hf  Hf16  1  0.461404  0.922810  0.750732  1
  Hf  Hf17  1  0.077190  0.538596  0.750732  1
  Ti  Ti18  1  0.000000  0.000000  0.495153  1
  Mn  Mn19  1  0.333333  0.666667  0.252011  1
  Re  Re20  1  0.888234  0.111766  0.250021  1
  Re  Re21  1  0.888234  0.776466  0.250021  1
  Re  Re22  1  0.223534  0.111766  0.250021  1
  Re  Re23  1  0.111278  0.888722  0.746898  1
  Re  Re24  1  0.111278  0.222556  0.746898  1
  Re  Re25  1  0.777444  0.888722  0.746898  1
  Re  Re26  1  0.000000  0.000000  0.997682  1
  Si  Si27  1  0.666667  0.333333  0.752194  1
