# generated using pymatgen
data_Lu3Ni8Ir
_symmetry_space_group_name_H-M   'P 1'
_cell_length_a   4.91318373
_cell_length_b   4.91318390
_cell_length_c   8.72576557
_cell_angle_alpha   73.64826930
_cell_angle_beta   73.64827028
_cell_angle_gamma   60.00000713
_symmetry_Int_Tables_number   1
_chemical_formula_structural   Lu3Ni8Ir
_chemical_formula_sum   'Lu3 Ni8 Ir1'
_cell_volume   172.50687164
_cell_formula_units_Z   1
loop_
 _symmetry_equiv_pos_site_id
 _symmetry_equiv_pos_as_xyz
  1  'x, y, z'
loop_
 _atom_site_type_symbol
 _atom_site_label
 _atom_site_symmetry_multiplicity
 _atom_site_fract_x
 _atom_site_fract_y
 _atom_site_fract_z
 _atom_site_occupancy
  Lu  Lu0  1  0.138105  0.138105  0.585685  1
  Lu  Lu1  1  0.861895  0.861895  0.414315  1
  Lu  Lu2  1  0.000000  0.000000  0.000000  1
  Ni  Ni3  1  0.077360  0.582009  0.758623  1
  Ni  Ni4  1  0.582009  0.582009  0.758623  1
  Ni  Ni5  1  0.582009  0.077360  0.758623  1
  Ni  Ni6  1  0.922640  0.417991  0.241377  1
  Ni  Ni7  1  0.417991  0.417991  0.241377  1
  Ni  Ni8  1  0.417991  0.922640  0.241377  1
  Ni  Ni9  1  0.333387  0.333387  0.999839  1
  Ni  Ni10  1  0.666613  0.666613  0.000161  1
  Ir  Ir11  1  0.500000  0.500000  0.500000  1
