# generated using pymatgen
data_Zr6AlZn15Cu6SiPd
_symmetry_space_group_name_H-M   'P 1'
_cell_length_a   8.68528436
_cell_length_b   8.68528410
_cell_length_c   8.68528300
_cell_angle_alpha   60.00000038
_cell_angle_beta   60.00000138
_cell_angle_gamma   60.00000432
_symmetry_Int_Tables_number   1
_chemical_formula_structural   Zr6AlZn15Cu6SiPd
_chemical_formula_sum   'Zr6 Al1 Zn15 Cu6 Si1 Pd1'
_cell_volume   463.27308254
_cell_formula_units_Z   1
loop_
 _symmetry_equiv_pos_site_id
 _symmetry_equiv_pos_as_xyz
  1  'x, y, z'
loop_
 _atom_site_type_symbol
 _atom_site_label
 _atom_site_symmetry_multiplicity
 _atom_site_fract_x
 _atom_site_fract_y
 _atom_site_fract_z
 _atom_site_occupancy
  Zr  Zr0  1  0.708086  0.289230  0.289230  1
  Zr  Zr1  1  0.286916  0.713335  0.713335  1
  Zr  Zr2  1  0.289230  0.708086  0.289230  1
  Zr  Zr3  1  0.713335  0.286916  0.713335  1
  Zr  Zr4  1  0.289230  0.289230  0.708086  1
  Zr  Zr5  1  0.713335  0.713335  0.286916  1
  Al  Al6  1  0.123246  0.123246  0.123246  1
  Zn  Zn7  1  0.876373  0.876373  0.876373  1
  Zn  Zn8  1  0.123766  0.123766  0.628117  1
  Zn  Zn9  1  0.123766  0.628117  0.123766  1
  Zn  Zn10  1  0.875064  0.875064  0.373844  1
  Zn  Zn11  1  0.875064  0.373844  0.875064  1
  Zn  Zn12  1  0.628117  0.123766  0.123766  1
  Zn  Zn13  1  0.373844  0.875064  0.875064  1
  Zn  Zn14  1  0.335052  0.335052  0.335052  1
  Zn  Zn15  1  0.663465  0.663465  0.663465  1
  Zn  Zn16  1  0.337208  0.337208  0.988809  1
  Zn  Zn17  1  0.337208  0.988809  0.337208  1
  Zn  Zn18  1  0.663678  0.663678  0.009341  1
  Zn  Zn19  1  0.663678  0.009341  0.663678  1
  Zn  Zn20  1  0.988809  0.337208  0.337208  1
  Zn  Zn21  1  0.009341  0.663678  0.663678  1
  Cu  Cu22  1  0.497610  0.000663  0.000663  1
  Cu  Cu23  1  0.999820  0.499788  0.499788  1
  Cu  Cu24  1  0.000663  0.497610  0.000663  1
  Cu  Cu25  1  0.499788  0.999820  0.499788  1
  Cu  Cu26  1  0.000663  0.000663  0.497610  1
  Cu  Cu27  1  0.499788  0.499788  0.999820  1
  Si  Si28  1  0.501222  0.501222  0.501222  1
  Pd  Pd29  1  0.002631  0.002631  0.002631  1
