# generated using pymatgen
data_TaNbAu2C
_symmetry_space_group_name_H-M   'P 1'
_cell_length_a   3.16452001
_cell_length_b   3.16452196
_cell_length_c   9.19052800
_cell_angle_alpha   90.00194857
_cell_angle_beta   89.99824007
_cell_angle_gamma   119.99266361
_symmetry_Int_Tables_number   1
_chemical_formula_structural   TaNbAu2C
_chemical_formula_sum   'Ta1 Nb1 Au2 C1'
_cell_volume   79.71116459
_cell_formula_units_Z   1
loop_
 _symmetry_equiv_pos_site_id
 _symmetry_equiv_pos_as_xyz
  1  'x, y, z'
loop_
 _atom_site_type_symbol
 _atom_site_label
 _atom_site_symmetry_multiplicity
 _atom_site_fract_x
 _atom_site_fract_y
 _atom_site_fract_z
 _atom_site_occupancy
  Ta  Ta0  1  0.333326  0.666679  0.130999  1
  Nb  Nb1  1  0.666665  0.333332  0.870032  1
  Au  Au2  1  0.666672  0.333324  0.370974  1
  Au  Au3  1  0.333336  0.666666  0.625610  1
  C  C4  1  0.000000  0.000000  0.002385  1
