# generated using pymatgen
data_Ac16MgIn3Ru4
_symmetry_space_group_name_H-M   'P 1'
_cell_length_a   10.52729118
_cell_length_b   10.52472067
_cell_length_c   10.52472100
_cell_angle_alpha   59.99999581
_cell_angle_beta   60.00807277
_cell_angle_gamma   60.00807569
_symmetry_Int_Tables_number   1
_chemical_formula_structural   Ac16MgIn3Ru4
_chemical_formula_sum   'Ac16 Mg1 In3 Ru4'
_cell_volume   824.66162514
_cell_formula_units_Z   1
loop_
 _symmetry_equiv_pos_site_id
 _symmetry_equiv_pos_as_xyz
  1  'x, y, z'
loop_
 _atom_site_type_symbol
 _atom_site_label
 _atom_site_symmetry_multiplicity
 _atom_site_fract_x
 _atom_site_fract_y
 _atom_site_fract_z
 _atom_site_occupancy
  Ac  Ac0  1  0.594342  0.594606  0.594606  1
  Ac  Ac1  1  0.594342  0.594606  0.216445  1
  Ac  Ac2  1  0.594342  0.216445  0.594606  1
  Ac  Ac3  1  0.212491  0.595837  0.595837  1
  Ac  Ac4  1  0.058386  0.441142  0.441142  1
  Ac  Ac5  1  0.438378  0.061810  0.061810  1
  Ac  Ac6  1  0.438378  0.061810  0.438002  1
  Ac  Ac7  1  0.058386  0.441142  0.059330  1
  Ac  Ac8  1  0.438378  0.438002  0.061810  1
  Ac  Ac9  1  0.058386  0.059330  0.441142  1
  Ac  Ac10  1  0.191614  0.810291  0.810291  1
  Ac  Ac11  1  0.809644  0.190227  0.190227  1
  Ac  Ac12  1  0.809644  0.190227  0.809904  1
  Ac  Ac13  1  0.191614  0.810291  0.187805  1
  Ac  Ac14  1  0.809644  0.809904  0.190227  1
  Ac  Ac15  1  0.191614  0.187805  0.810291  1
  Mg  Mg16  1  0.531721  0.822759  0.822759  1
  In  In17  1  0.827833  0.828256  0.828256  1
  In  In18  1  0.827833  0.828256  0.515653  1
  In  In19  1  0.827833  0.515653  0.828256  1
  Ru  Ru20  1  0.386920  0.388505  0.388505  1
  Ru  Ru21  1  0.386920  0.388505  0.836068  1
  Ru  Ru22  1  0.386920  0.836068  0.388505  1
  Ru  Ru23  1  0.834432  0.388523  0.388523  1
