# generated using pymatgen
data_TbTm2LuSb10
_symmetry_space_group_name_H-M   'P 1'
_cell_length_a   4.20358400
_cell_length_b   13.14769472
_cell_length_c   14.53015200
_cell_angle_alpha   78.50415687
_cell_angle_beta   90.00000000
_cell_angle_gamma   90.00000000
_symmetry_Int_Tables_number   1
_chemical_formula_structural   TbTm2LuSb10
_chemical_formula_sum   'Tb2 Tm4 Lu2 Sb20'
_cell_volume   786.93455352
_cell_formula_units_Z   2
loop_
 _symmetry_equiv_pos_site_id
 _symmetry_equiv_pos_as_xyz
  1  'x, y, z'
loop_
 _atom_site_type_symbol
 _atom_site_label
 _atom_site_symmetry_multiplicity
 _atom_site_fract_x
 _atom_site_fract_y
 _atom_site_fract_z
 _atom_site_occupancy
  Tb  Tb0  1  0.250000  0.953786  0.358569  1
  Tb  Tb1  1  0.750000  0.046214  0.641431  1
  Tm  Tm2  1  0.250000  0.661348  0.856321  1
  Tm  Tm3  1  0.750000  0.338652  0.143679  1
  Tm  Tm4  1  0.250000  0.668212  0.576205  1
  Tm  Tm5  1  0.750000  0.331788  0.423795  1
  Lu  Lu6  1  0.250000  0.396118  0.770408  1
  Lu  Lu7  1  0.750000  0.603882  0.229592  1
  Sb  Sb8  1  0.250000  0.145413  0.778941  1
  Sb  Sb9  1  0.750000  0.854587  0.221059  1
  Sb  Sb10  1  0.250000  0.145741  0.482175  1
  Sb  Sb11  1  0.750000  0.854259  0.517825  1
  Sb  Sb12  1  0.250000  0.154093  0.169811  1
  Sb  Sb13  1  0.750000  0.845907  0.830189  1
  Sb  Sb14  1  0.250000  0.420790  0.975026  1
  Sb  Sb15  1  0.750000  0.579210  0.024974  1
  Sb  Sb16  1  0.750000  0.028859  0.910838  1
  Sb  Sb17  1  0.250000  0.971141  0.089162  1
  Sb  Sb18  1  0.750000  0.141271  0.321799  1
  Sb  Sb19  1  0.250000  0.858729  0.678201  1
  Sb  Sb20  1  0.750000  0.279555  0.936168  1
  Sb  Sb21  1  0.250000  0.720445  0.063832  1
  Sb  Sb22  1  0.750000  0.286228  0.653394  1
  Sb  Sb23  1  0.250000  0.713772  0.346606  1
  Sb  Sb24  1  0.750000  0.575893  0.734517  1
  Sb  Sb25  1  0.250000  0.424107  0.265483  1
  Sb  Sb26  1  0.750000  0.571382  0.446741  1
  Sb  Sb27  1  0.250000  0.428618  0.553259  1
