# generated using pymatgen
data_Tm12Co2TcRu
_symmetry_space_group_name_H-M   'P 1'
_cell_length_a   6.20736444
_cell_length_b   7.08968802
_cell_length_c   9.01833100
_cell_angle_alpha   90.00000000
_cell_angle_beta   90.00000000
_cell_angle_gamma   90.02543988
_symmetry_Int_Tables_number   1
_chemical_formula_structural   Tm12Co2TcRu
_chemical_formula_sum   'Tm12 Co2 Tc1 Ru1'
_cell_volume   396.88117238
_cell_formula_units_Z   1
loop_
 _symmetry_equiv_pos_site_id
 _symmetry_equiv_pos_as_xyz
  1  'x, y, z'
loop_
 _atom_site_type_symbol
 _atom_site_label
 _atom_site_symmetry_multiplicity
 _atom_site_fract_x
 _atom_site_fract_y
 _atom_site_fract_z
 _atom_site_occupancy
  Tm  Tm0  1  0.638704  0.037178  0.250000  1
  Tm  Tm1  1  0.370018  0.956400  0.750000  1
  Tm  Tm2  1  0.139699  0.460011  0.750000  1
  Tm  Tm3  1  0.876660  0.543559  0.250000  1
  Tm  Tm4  1  0.169723  0.173078  0.064467  1
  Tm  Tm5  1  0.824781  0.818109  0.934165  1
  Tm  Tm6  1  0.667368  0.327982  0.937649  1
  Tm  Tm7  1  0.824781  0.818109  0.565835  1
  Tm  Tm8  1  0.325041  0.681333  0.065539  1
  Tm  Tm9  1  0.169723  0.173078  0.435533  1
  Tm  Tm10  1  0.325041  0.681333  0.434461  1
  Tm  Tm11  1  0.667368  0.327982  0.562351  1
  Co  Co12  1  0.536881  0.615570  0.750000  1
  Co  Co13  1  0.036747  0.885817  0.250000  1
  Tc  Tc14  1  0.465876  0.388936  0.250000  1
  Ru  Ru15  1  0.961589  0.111525  0.750000  1
