# generated using pymatgen
data_Rb8Lu6BeBr20
_symmetry_space_group_name_H-M   'P 1'
_cell_length_a   12.26058022
_cell_length_b   12.26058041
_cell_length_c   12.26058000
_cell_angle_alpha   60.00000110
_cell_angle_beta   60.00000060
_cell_angle_gamma   59.99999934
_symmetry_Int_Tables_number   1
_chemical_formula_structural   Rb8Lu6BeBr20
_chemical_formula_sum   'Rb8 Lu6 Be1 Br20'
_cell_volume   1303.22101363
_cell_formula_units_Z   1
loop_
 _symmetry_equiv_pos_site_id
 _symmetry_equiv_pos_as_xyz
  1  'x, y, z'
loop_
 _atom_site_type_symbol
 _atom_site_label
 _atom_site_symmetry_multiplicity
 _atom_site_fract_x
 _atom_site_fract_y
 _atom_site_fract_z
 _atom_site_occupancy
  Rb  Rb0  1  0.358730  0.358730  0.358730  1
  Rb  Rb1  1  0.641270  0.641270  0.641270  1
  Rb  Rb2  1  0.358730  0.358730  0.923808  1
  Rb  Rb3  1  0.358730  0.923808  0.358730  1
  Rb  Rb4  1  0.641270  0.641270  0.076192  1
  Rb  Rb5  1  0.641270  0.076192  0.641270  1
  Rb  Rb6  1  0.923808  0.358730  0.358730  1
  Rb  Rb7  1  0.076192  0.641270  0.641270  1
  Lu  Lu8  1  0.848510  0.151490  0.151490  1
  Lu  Lu9  1  0.151490  0.848510  0.848510  1
  Lu  Lu10  1  0.151490  0.848510  0.151490  1
  Lu  Lu11  1  0.848510  0.151490  0.848510  1
  Lu  Lu12  1  0.151490  0.151490  0.848510  1
  Lu  Lu13  1  0.848510  0.848510  0.151490  1
  Be  Be14  1  0.000000  0.000000  0.000000  1
  Br  Br15  1  0.327215  0.000000  0.000000  1
  Br  Br16  1  0.672785  0.000000  0.000000  1
  Br  Br17  1  0.000000  0.327215  0.672785  1
  Br  Br18  1  0.000000  0.672785  0.327215  1
  Br  Br19  1  0.000000  0.327215  0.000000  1
  Br  Br20  1  0.672785  0.000000  0.327215  1
  Br  Br21  1  0.000000  0.672785  0.000000  1
  Br  Br22  1  0.327215  0.000000  0.672785  1
  Br  Br23  1  0.000000  0.000000  0.327215  1
  Br  Br24  1  0.000000  0.000000  0.672785  1
  Br  Br25  1  0.672785  0.327215  0.000000  1
  Br  Br26  1  0.327215  0.672785  0.000000  1
  Br  Br27  1  0.685181  0.314819  0.314819  1
  Br  Br28  1  0.314819  0.685181  0.685181  1
  Br  Br29  1  0.314819  0.685181  0.314819  1
  Br  Br30  1  0.685181  0.314819  0.685181  1
  Br  Br31  1  0.314819  0.314819  0.685181  1
  Br  Br32  1  0.685181  0.685181  0.314819  1
  Br  Br33  1  0.250000  0.250000  0.250000  1
  Br  Br34  1  0.750000  0.750000  0.750000  1
