# generated using pymatgen
data_Pr4Sm4Sc12Si15Au
_symmetry_space_group_name_H-M   'P 1'
_cell_length_a   7.24468364
_cell_length_b   7.48898041
_cell_length_c   14.25645518
_cell_angle_alpha   89.94330806
_cell_angle_beta   89.72667091
_cell_angle_gamma   90.21874844
_symmetry_Int_Tables_number   1
_chemical_formula_structural   Pr4Sm4Sc12Si15Au
_chemical_formula_sum   'Pr4 Sm4 Sc12 Si15 Au1'
_cell_volume   773.47333331
_cell_formula_units_Z   1
loop_
 _symmetry_equiv_pos_site_id
 _symmetry_equiv_pos_as_xyz
  1  'x, y, z'
loop_
 _atom_site_type_symbol
 _atom_site_label
 _atom_site_symmetry_multiplicity
 _atom_site_fract_x
 _atom_site_fract_y
 _atom_site_fract_z
 _atom_site_occupancy
  Pr  Pr0  1  0.012160  0.172716  0.098310  1
  Pr  Pr1  1  0.987354  0.828547  0.903395  1
  Pr  Pr2  1  0.487465  0.672823  0.903986  1
  Pr  Pr3  1  0.988713  0.830855  0.596404  1
  Sm  Sm4  1  0.512283  0.325684  0.098135  1
  Sm  Sm5  1  0.010359  0.174149  0.398564  1
  Sm  Sm6  1  0.511122  0.325480  0.399944  1
  Sm  Sm7  1  0.491113  0.675202  0.599577  1
  Sc  Sc8  1  0.161914  0.497844  0.750814  1
  Sc  Sc9  1  0.837972  0.500466  0.250972  1
  Sc  Sc10  1  0.339051  0.997745  0.249220  1
  Sc  Sc11  1  0.663846  0.999960  0.751119  1
  Sc  Sc12  1  0.339858  0.176125  0.625815  1
  Sc  Sc13  1  0.666781  0.823494  0.373565  1
  Sc  Sc14  1  0.168943  0.672466  0.373340  1
  Sc  Sc15  1  0.670871  0.824561  0.125758  1
  Sc  Sc16  1  0.826487  0.325976  0.624360  1
  Sc  Sc17  1  0.328987  0.175237  0.875653  1
  Sc  Sc18  1  0.829415  0.323373  0.875959  1
  Sc  Sc19  1  0.169667  0.675399  0.125526  1
  Si  Si20  1  0.036672  0.127525  0.750180  1
  Si  Si21  1  0.965795  0.876765  0.250590  1
  Si  Si22  1  0.465995  0.620558  0.248627  1
  Si  Si23  1  0.536804  0.378597  0.751550  1
  Si  Si24  1  0.287881  0.882298  0.749644  1
  Si  Si25  1  0.709717  0.121948  0.249894  1
  Si  Si26  1  0.214596  0.378118  0.249295  1
  Si  Si27  1  0.787601  0.618563  0.750978  1
  Si  Si28  1  0.837457  0.537181  0.457614  1
  Si  Si29  1  0.345203  0.962127  0.459627  1
  Si  Si30  1  0.846297  0.536217  0.040293  1
  Si  Si31  1  0.651752  0.038075  0.536935  1
  Si  Si32  1  0.150552  0.462396  0.961611  1
  Si  Si33  1  0.650749  0.039222  0.961561  1
  Si  Si34  1  0.348934  0.964500  0.040671  1
  Au  Au35  1  0.159632  0.457808  0.540514  1
