# generated using pymatgen
data_Y11Ho9CoBi8Os3
_symmetry_space_group_name_H-M   'P 1'
_cell_length_a   7.98137132
_cell_length_b   8.99939100
_cell_length_c   12.47871529
_cell_angle_alpha   90.00000000
_cell_angle_beta   89.79409537
_cell_angle_gamma   90.00000000
_symmetry_Int_Tables_number   1
_chemical_formula_structural   Y11Ho9CoBi8Os3
_chemical_formula_sum   'Y11 Ho9 Co1 Bi8 Os3'
_cell_volume   896.30890038
_cell_formula_units_Z   1
loop_
 _symmetry_equiv_pos_site_id
 _symmetry_equiv_pos_as_xyz
  1  'x, y, z'
loop_
 _atom_site_type_symbol
 _atom_site_label
 _atom_site_symmetry_multiplicity
 _atom_site_fract_x
 _atom_site_fract_y
 _atom_site_fract_z
 _atom_site_occupancy
  Y  Y0  1  0.344501  0.750000  0.703047  1
  Y  Y1  1  0.658313  0.250000  0.291379  1
  Y  Y2  1  0.841968  0.250000  0.790606  1
  Y  Y3  1  0.156318  0.750000  0.207240  1
  Y  Y4  1  0.877068  0.750000  0.804985  1
  Y  Y5  1  0.121825  0.250000  0.194507  1
  Y  Y6  1  0.376488  0.250000  0.693909  1
  Y  Y7  1  0.618947  0.750000  0.311205  1
  Y  Y8  1  0.055100  0.750000  0.496852  1
  Y  Y9  1  0.946195  0.250000  0.502839  1
  Y  Y10  1  0.442791  0.750000  0.995675  1
  Ho  Ho11  1  0.674419  0.541891  0.563668  1
  Ho  Ho12  1  0.326703  0.460453  0.437074  1
  Ho  Ho13  1  0.173623  0.457452  0.936451  1
  Ho  Ho14  1  0.326703  0.039547  0.437074  1
  Ho  Ho15  1  0.825124  0.542995  0.064068  1
  Ho  Ho16  1  0.674419  0.958109  0.563668  1
  Ho  Ho17  1  0.825124  0.957005  0.064068  1
  Ho  Ho18  1  0.173623  0.042548  0.936451  1
  Ho  Ho19  1  0.558574  0.250000  0.003481  1
  Co  Co20  1  0.430790  0.750000  0.491286  1
  Bi  Bi21  1  0.569484  0.508061  0.827537  1
  Bi  Bi22  1  0.430297  0.492221  0.172604  1
  Bi  Bi23  1  0.071103  0.492249  0.671786  1
  Bi  Bi24  1  0.430297  0.007779  0.172604  1
  Bi  Bi25  1  0.929813  0.508819  0.328491  1
  Bi  Bi26  1  0.569484  0.991939  0.827537  1
  Bi  Bi27  1  0.929813  0.991181  0.328491  1
  Bi  Bi28  1  0.071103  0.007751  0.671786  1
  Os  Os29  1  0.074008  0.750000  0.989124  1
  Os  Os30  1  0.923295  0.250000  0.010520  1
  Os  Os31  1  0.572694  0.250000  0.509990  1
