# generated using pymatgen
data_LiDy12Y7(Cd3Ru)2
_symmetry_space_group_name_H-M   'P 1'
_cell_length_a   9.56221800
_cell_length_b   9.56221739
_cell_length_c   9.74145300
_cell_angle_alpha   90.00000000
_cell_angle_beta   90.00000000
_cell_angle_gamma   120.00000211
_symmetry_Int_Tables_number   1
_chemical_formula_structural   LiDy12Y7(Cd3Ru)2
_chemical_formula_sum   'Li1 Dy12 Y7 Cd6 Ru2'
_cell_volume   771.38575634
_cell_formula_units_Z   1
loop_
 _symmetry_equiv_pos_site_id
 _symmetry_equiv_pos_as_xyz
  1  'x, y, z'
loop_
 _atom_site_type_symbol
 _atom_site_label
 _atom_site_symmetry_multiplicity
 _atom_site_fract_x
 _atom_site_fract_y
 _atom_site_fract_z
 _atom_site_occupancy
  Li  Li0  1  0.000000  0.000000  0.500000  1
  Dy  Dy1  1  0.208601  0.791399  0.440150  1
  Dy  Dy2  1  0.208601  0.417202  0.440150  1
  Dy  Dy3  1  0.582798  0.791399  0.440150  1
  Dy  Dy4  1  0.791399  0.208601  0.559850  1
  Dy  Dy5  1  0.791399  0.582798  0.559850  1
  Dy  Dy6  1  0.417202  0.208601  0.559850  1
  Dy  Dy7  1  0.789207  0.210793  0.941079  1
  Dy  Dy8  1  0.789207  0.578413  0.941079  1
  Dy  Dy9  1  0.421587  0.210793  0.941079  1
  Dy  Dy10  1  0.210793  0.789207  0.058921  1
  Dy  Dy11  1  0.210793  0.421587  0.058921  1
  Dy  Dy12  1  0.578413  0.789207  0.058921  1
  Y  Y13  1  0.000000  0.000000  0.000000  1
  Y  Y14  1  0.541392  0.458608  0.252169  1
  Y  Y15  1  0.541392  0.082783  0.252169  1
  Y  Y16  1  0.917217  0.458608  0.252169  1
  Y  Y17  1  0.458608  0.541392  0.747831  1
  Y  Y18  1  0.458608  0.917217  0.747831  1
  Y  Y19  1  0.082783  0.541392  0.747831  1
  Cd  Cd20  1  0.888452  0.111548  0.258840  1
  Cd  Cd21  1  0.888452  0.776906  0.258840  1
  Cd  Cd22  1  0.223094  0.111548  0.258840  1
  Cd  Cd23  1  0.111548  0.888452  0.741160  1
  Cd  Cd24  1  0.111548  0.223094  0.741160  1
  Cd  Cd25  1  0.776906  0.888452  0.741160  1
  Ru  Ru26  1  0.333333  0.666667  0.249936  1
  Ru  Ru27  1  0.666667  0.333333  0.750064  1
