# generated using pymatgen
data_TbYMn2Ge2C
_symmetry_space_group_name_H-M   'P 1'
_cell_length_a   5.69993091
_cell_length_b   5.69993067
_cell_length_c   6.98368502
_cell_angle_alpha   123.70571469
_cell_angle_beta   123.70570981
_cell_angle_gamma   39.40942984
_symmetry_Int_Tables_number   1
_chemical_formula_structural   TbYMn2Ge2C
_chemical_formula_sum   'Tb1 Y1 Mn2 Ge2 C1'
_cell_volume   116.36146746
_cell_formula_units_Z   1
loop_
 _symmetry_equiv_pos_site_id
 _symmetry_equiv_pos_as_xyz
  1  'x, y, z'
loop_
 _atom_site_type_symbol
 _atom_site_label
 _atom_site_symmetry_multiplicity
 _atom_site_fract_x
 _atom_site_fract_y
 _atom_site_fract_z
 _atom_site_occupancy
  Tb  Tb0  1  0.564583  0.564583  0.290566  1
  Y  Y1  1  0.435385  0.435385  0.709426  1
  Mn  Mn2  1  0.196543  0.196543  0.077210  1
  Mn  Mn3  1  0.803455  0.803455  0.922768  1
  Ge  Ge4  1  0.846379  0.846379  0.308379  1
  Ge  Ge5  1  0.153654  0.153654  0.691666  1
  C  C6  1  0.000002  0.000002  0.999986  1
