# generated using pymatgen
data_TbDy6Er13Sn16
_symmetry_space_group_name_H-M   'P 1'
_cell_length_a   7.99950898
_cell_length_b   8.13198432
_cell_length_c   15.37358101
_cell_angle_alpha   90.01779709
_cell_angle_beta   90.09517634
_cell_angle_gamma   89.95217903
_symmetry_Int_Tables_number   1
_chemical_formula_structural   TbDy6Er13Sn16
_chemical_formula_sum   'Tb1 Dy6 Er13 Sn16'
_cell_volume   1000.07859514
_cell_formula_units_Z   1
loop_
 _symmetry_equiv_pos_site_id
 _symmetry_equiv_pos_as_xyz
  1  'x, y, z'
loop_
 _atom_site_type_symbol
 _atom_site_label
 _atom_site_symmetry_multiplicity
 _atom_site_fract_x
 _atom_site_fract_y
 _atom_site_fract_z
 _atom_site_occupancy
  Tb  Tb0  1  0.020437  0.179263  0.597244  1
  Dy  Dy1  1  0.479716  0.679025  0.403283  1
  Dy  Dy2  1  0.979317  0.820794  0.096887  1
  Dy  Dy3  1  0.479363  0.678849  0.096839  1
  Dy  Dy4  1  0.979735  0.820838  0.403352  1
  Dy  Dy5  1  0.520063  0.321173  0.596889  1
  Dy  Dy6  1  0.020645  0.179329  0.902913  1
  Er  Er7  1  0.367139  0.837422  0.877161  1
  Er  Er8  1  0.866426  0.662737  0.622892  1
  Er  Er9  1  0.633105  0.162639  0.377328  1
  Er  Er10  1  0.132701  0.337565  0.122414  1
  Er  Er11  1  0.632602  0.162501  0.122504  1
  Er  Er12  1  0.133266  0.337292  0.377370  1
  Er  Er13  1  0.366817  0.837556  0.623035  1
  Er  Er14  1  0.867360  0.662598  0.877238  1
  Er  Er15  1  0.521623  0.321313  0.902582  1
  Er  Er16  1  0.198323  0.503519  0.750158  1
  Er  Er17  1  0.698165  0.996475  0.750152  1
  Er  Er18  1  0.801714  0.496009  0.249897  1
  Er  Er19  1  0.301850  0.003664  0.250077  1
  Sn  Sn20  1  0.293780  0.037597  0.041485  1
  Sn  Sn21  1  0.794376  0.462027  0.458552  1
  Sn  Sn22  1  0.705557  0.962252  0.541575  1
  Sn  Sn23  1  0.207234  0.536817  0.958051  1
  Sn  Sn24  1  0.705754  0.962683  0.958330  1
  Sn  Sn25  1  0.205148  0.538423  0.541560  1
  Sn  Sn26  1  0.294321  0.037891  0.458643  1
  Sn  Sn27  1  0.793188  0.461746  0.041064  1
  Sn  Sn28  1  0.564245  0.619217  0.750150  1
  Sn  Sn29  1  0.064223  0.880367  0.749956  1
  Sn  Sn30  1  0.435569  0.380411  0.249782  1
  Sn  Sn31  1  0.935676  0.119632  0.249810  1
  Sn  Sn32  1  0.331016  0.148844  0.750467  1
  Sn  Sn33  1  0.829921  0.351769  0.750111  1
  Sn  Sn34  1  0.669887  0.851309  0.250096  1
  Sn  Sn35  1  0.169738  0.648452  0.250151  1
