# generated using pymatgen
data_Y17Ho2Er(CoBi2)4
_symmetry_space_group_name_H-M   'P 1'
_cell_length_a   8.03690407
_cell_length_b   8.91724810
_cell_length_c   12.43344646
_cell_angle_alpha   90.01269513
_cell_angle_beta   90.00973182
_cell_angle_gamma   89.99912819
_symmetry_Int_Tables_number   1
_chemical_formula_structural   Y17Ho2Er(CoBi2)4
_chemical_formula_sum   'Y17 Ho2 Er1 Co4 Bi8'
_cell_volume   891.06861284
_cell_formula_units_Z   1
loop_
 _symmetry_equiv_pos_site_id
 _symmetry_equiv_pos_as_xyz
  1  'x, y, z'
loop_
 _atom_site_type_symbol
 _atom_site_label
 _atom_site_symmetry_multiplicity
 _atom_site_fract_x
 _atom_site_fract_y
 _atom_site_fract_z
 _atom_site_occupancy
  Y  Y0  1  0.347735  0.750732  0.700167  1
  Y  Y1  1  0.652846  0.249636  0.299462  1
  Y  Y2  1  0.847590  0.249064  0.799621  1
  Y  Y3  1  0.152417  0.750859  0.200234  1
  Y  Y4  1  0.882321  0.751021  0.809406  1
  Y  Y5  1  0.117771  0.249187  0.190370  1
  Y  Y6  1  0.382845  0.249418  0.690755  1
  Y  Y7  1  0.618047  0.750492  0.309640  1
  Y  Y8  1  0.676358  0.536872  0.564053  1
  Y  Y9  1  0.323971  0.464035  0.436373  1
  Y  Y10  1  0.176318  0.463471  0.936312  1
  Y  Y11  1  0.323691  0.035899  0.436189  1
  Y  Y12  1  0.823763  0.536628  0.063591  1
  Y  Y13  1  0.046701  0.750928  0.498307  1
  Y  Y14  1  0.949929  0.248782  0.502296  1
  Y  Y15  1  0.548578  0.248130  0.002051  1
  Y  Y16  1  0.451447  0.751940  0.997909  1
  Ho  Ho17  1  0.825706  0.963641  0.062946  1
  Ho  Ho18  1  0.174406  0.036507  0.936893  1
  Er  Er19  1  0.673406  0.963180  0.562987  1
  Co  Co20  1  0.063086  0.752376  0.991709  1
  Co  Co21  1  0.936851  0.247705  0.008249  1
  Co  Co22  1  0.565165  0.248372  0.508684  1
  Co  Co23  1  0.437856  0.751051  0.491947  1
  Bi  Bi24  1  0.572415  0.508755  0.827303  1
  Bi  Bi25  1  0.427790  0.491468  0.172849  1
  Bi  Bi26  1  0.072475  0.491239  0.673171  1
  Bi  Bi27  1  0.428153  0.008679  0.173637  1
  Bi  Bi28  1  0.928006  0.508668  0.326856  1
  Bi  Bi29  1  0.572311  0.991276  0.826298  1
  Bi  Bi30  1  0.927549  0.991222  0.326373  1
  Bi  Bi31  1  0.072496  0.008765  0.673365  1
