# generated using pymatgen
data_Dy18TlBi9O10
_symmetry_space_group_name_H-M   'P 1'
_cell_length_a   10.01485141
_cell_length_b   10.01935596
_cell_length_c   8.98290100
_cell_angle_alpha   90.03360196
_cell_angle_beta   89.98356333
_cell_angle_gamma   89.97148572
_symmetry_Int_Tables_number   1
_chemical_formula_structural   Dy18TlBi9O10
_chemical_formula_sum   'Dy18 Tl1 Bi9 O10'
_cell_volume   901.36519325
_cell_formula_units_Z   1
loop_
 _symmetry_equiv_pos_site_id
 _symmetry_equiv_pos_as_xyz
  1  'x, y, z'
loop_
 _atom_site_type_symbol
 _atom_site_label
 _atom_site_symmetry_multiplicity
 _atom_site_fract_x
 _atom_site_fract_y
 _atom_site_fract_z
 _atom_site_occupancy
  Dy  Dy0  1  0.502418  0.991289  0.681156  1
  Dy  Dy1  1  0.793710  0.105664  0.334648  1
  Dy  Dy2  1  0.275834  0.082253  0.000636  1
  Dy  Dy3  1  0.583090  0.224720  0.000734  1
  Dy  Dy4  1  0.206525  0.894806  0.334947  1
  Dy  Dy5  1  0.605676  0.706290  0.342153  1
  Dy  Dy6  1  0.300673  0.606862  0.666433  1
  Dy  Dy7  1  0.419728  0.772538  0.997529  1
  Dy  Dy8  1  0.225066  0.416376  0.996014  1
  Dy  Dy9  1  0.887271  0.791447  0.666107  1
  Dy  Dy10  1  0.999783  0.500043  0.319542  1
  Dy  Dy11  1  0.084185  0.725458  0.997296  1
  Dy  Dy12  1  0.915861  0.275435  0.996508  1
  Dy  Dy13  1  0.770027  0.585620  0.992745  1
  Dy  Dy14  1  0.724537  0.915821  0.999534  1
  Dy  Dy15  1  0.394693  0.293432  0.335253  1
  Dy  Dy16  1  0.703467  0.402026  0.666197  1
  Dy  Dy17  1  0.105197  0.206287  0.665437  1
  Tl  Tl18  1  0.595711  0.695143  0.698066  1
  Bi  Bi19  1  0.906009  0.806288  0.303794  1
  Bi  Bi20  1  0.694370  0.404406  0.302662  1
  Bi  Bi21  1  0.002923  0.500839  0.680262  1
  Bi  Bi22  1  0.304657  0.594381  0.302838  1
  Bi  Bi23  1  0.805773  0.097556  0.695483  1
  Bi  Bi24  1  0.405651  0.303668  0.696492  1
  Bi  Bi25  1  0.191408  0.904064  0.695876  1
  Bi  Bi26  1  0.094981  0.194288  0.305213  1
  Bi  Bi27  1  0.499541  0.001429  0.318930  1
  O  O28  1  0.226607  0.879609  0.083689  1
  O  O29  1  0.272909  0.619676  0.916161  1
  O  O30  1  0.120403  0.225478  0.916651  1
  O  O31  1  0.881536  0.774997  0.917803  1
  O  O32  1  0.726502  0.378174  0.916035  1
  O  O33  1  0.497835  0.003431  0.938074  1
  O  O34  1  0.773964  0.119954  0.083350  1
  O  O35  1  0.001281  0.498462  0.063022  1
  O  O36  1  0.379762  0.274847  0.084437  1
  O  O37  1  0.620438  0.726939  0.088293  1
