# generated using pymatgen
data_DyY4Bi2As
_symmetry_space_group_name_H-M   'P 1'
_cell_length_a   8.08046951
_cell_length_b   9.14315964
_cell_length_c   12.18866740
_cell_angle_alpha   89.97562309
_cell_angle_beta   89.96541399
_cell_angle_gamma   90.00302652
_symmetry_Int_Tables_number   1
_chemical_formula_structural   DyY4Bi2As
_chemical_formula_sum   'Dy4 Y16 Bi8 As4'
_cell_volume   900.51096520
_cell_formula_units_Z   4
loop_
 _symmetry_equiv_pos_site_id
 _symmetry_equiv_pos_as_xyz
  1  'x, y, z'
loop_
 _atom_site_type_symbol
 _atom_site_label
 _atom_site_symmetry_multiplicity
 _atom_site_fract_x
 _atom_site_fract_y
 _atom_site_fract_z
 _atom_site_occupancy
  Dy  Dy0  1  0.815094  0.053886  0.064605  1
  Dy  Dy1  1  0.685091  0.446613  0.564937  1
  Dy  Dy2  1  0.815604  0.446245  0.064417  1
  Dy  Dy3  1  0.184790  0.553763  0.935691  1
  Y  Y4  1  0.848039  0.749772  0.789195  1
  Y  Y5  1  0.151623  0.250108  0.210649  1
  Y  Y6  1  0.348036  0.250128  0.710888  1
  Y  Y7  1  0.652362  0.749966  0.288896  1
  Y  Y8  1  0.368369  0.749888  0.705103  1
  Y  Y9  1  0.632070  0.250067  0.294652  1
  Y  Y10  1  0.868125  0.250200  0.794897  1
  Y  Y11  1  0.131500  0.749877  0.204851  1
  Y  Y12  1  0.961847  0.749698  0.500992  1
  Y  Y13  1  0.037142  0.250407  0.499250  1
  Y  Y14  1  0.463100  0.250438  0.999287  1
  Y  Y15  1  0.537772  0.749628  0.000927  1
  Y  Y16  1  0.685050  0.052358  0.565078  1
  Y  Y17  1  0.314540  0.947624  0.435124  1
  Y  Y18  1  0.184859  0.947192  0.935624  1
  Y  Y19  1  0.314990  0.552233  0.435213  1
  Bi  Bi20  1  0.576187  0.490964  0.827109  1
  Bi  Bi21  1  0.423834  0.509188  0.172901  1
  Bi  Bi22  1  0.076339  0.509177  0.672914  1
  Bi  Bi23  1  0.423985  0.990854  0.172830  1
  Bi  Bi24  1  0.923614  0.490934  0.327227  1
  Bi  Bi25  1  0.576058  0.009053  0.827361  1
  Bi  Bi26  1  0.923890  0.009035  0.327291  1
  Bi  Bi27  1  0.076138  0.990811  0.672747  1
  As  As28  1  0.580223  0.749700  0.516624  1
  As  As29  1  0.419912  0.249873  0.483011  1
  As  As30  1  0.081352  0.250162  0.982475  1
  As  As31  1  0.918464  0.750159  0.017235  1
