# generated using pymatgen
data_Gd4CdPt3Pb2
_symmetry_space_group_name_H-M   'P 1'
_cell_length_a   8.26243000
_cell_length_b   8.26243034
_cell_length_c   3.64836900
_cell_angle_alpha   90.00000000
_cell_angle_beta   90.00000000
_cell_angle_gamma   89.18819315
_symmetry_Int_Tables_number   1
_chemical_formula_structural   Gd4CdPt3Pb2
_chemical_formula_sum   'Gd4 Cd1 Pt3 Pb2'
_cell_volume   249.04095129
_cell_formula_units_Z   1
loop_
 _symmetry_equiv_pos_site_id
 _symmetry_equiv_pos_as_xyz
  1  'x, y, z'
loop_
 _atom_site_type_symbol
 _atom_site_label
 _atom_site_symmetry_multiplicity
 _atom_site_fract_x
 _atom_site_fract_y
 _atom_site_fract_z
 _atom_site_occupancy
  Gd  Gd0  1  0.327136  0.827136  0.500000  1
  Gd  Gd1  1  0.642687  0.142687  0.500000  1
  Gd  Gd2  1  0.199407  0.342026  0.500000  1
  Gd  Gd3  1  0.842026  0.699407  0.500000  1
  Cd  Cd4  1  0.872763  0.372763  0.000000  1
  Pt  Pt5  1  0.619166  0.865750  0.000000  1
  Pt  Pt6  1  0.365750  0.119166  0.000000  1
  Pt  Pt7  1  0.118331  0.618331  0.000000  1
  Pb  Pb8  1  0.507928  0.504807  0.000000  1
  Pb  Pb9  1  0.004807  0.007928  0.000000  1
