# generated using pymatgen
data_Yb3Ru8PbO24
_symmetry_space_group_name_H-M   'P 1'
_cell_length_a   5.29992541
_cell_length_b   7.33608300
_cell_length_c   10.96399603
_cell_angle_alpha   90.00000000
_cell_angle_beta   90.27750025
_cell_angle_gamma   90.00000000
_symmetry_Int_Tables_number   1
_chemical_formula_structural   Yb3Ru8PbO24
_chemical_formula_sum   'Yb3 Ru8 Pb1 O24'
_cell_volume   426.28276053
_cell_formula_units_Z   1
loop_
 _symmetry_equiv_pos_site_id
 _symmetry_equiv_pos_as_xyz
  1  'x, y, z'
loop_
 _atom_site_type_symbol
 _atom_site_label
 _atom_site_symmetry_multiplicity
 _atom_site_fract_x
 _atom_site_fract_y
 _atom_site_fract_z
 _atom_site_occupancy
  Yb  Yb0  1  0.546376  0.250000  0.047623  1
  Yb  Yb1  1  0.045686  0.750000  0.453303  1
  Yb  Yb2  1  0.955482  0.250000  0.545030  1
  Ru  Ru3  1  0.060816  0.497255  0.142305  1
  Ru  Ru4  1  0.060816  0.002745  0.142305  1
  Ru  Ru5  1  0.563330  0.000062  0.360287  1
  Ru  Ru6  1  0.563330  0.499938  0.360287  1
  Ru  Ru7  1  0.437673  0.500249  0.638686  1
  Ru  Ru8  1  0.437673  0.999751  0.638686  1
  Ru  Ru9  1  0.943291  0.004015  0.858693  1
  Ru  Ru10  1  0.943291  0.495985  0.858693  1
  Pb  Pb11  1  0.457643  0.750000  0.961249  1
  O  O12  1  0.773422  0.534604  0.022463  1
  O  O13  1  0.773422  0.965396  0.022463  1
  O  O14  1  0.170361  0.750000  0.127715  1
  O  O15  1  0.932320  0.250000  0.151730  1
  O  O16  1  0.373254  0.067050  0.216455  1
  O  O17  1  0.373254  0.432950  0.216455  1
  O  O18  1  0.873656  0.932725  0.285120  1
  O  O19  1  0.873656  0.567275  0.285120  1
  O  O20  1  0.439059  0.750000  0.353659  1
  O  O21  1  0.674005  0.250000  0.376345  1
  O  O22  1  0.271313  0.040568  0.476595  1
  O  O23  1  0.271313  0.459432  0.476595  1
  O  O24  1  0.727220  0.542856  0.522381  1
  O  O25  1  0.727220  0.957144  0.522381  1
  O  O26  1  0.319199  0.750000  0.625043  1
  O  O27  1  0.560029  0.250000  0.642049  1
  O  O28  1  0.130165  0.070339  0.715567  1
  O  O29  1  0.130165  0.429661  0.715567  1
  O  O30  1  0.636693  0.562307  0.777744  1
  O  O31  1  0.636693  0.937693  0.777744  1
  O  O32  1  0.051197  0.750000  0.853566  1
  O  O33  1  0.814351  0.250000  0.874072  1
  O  O34  1  0.226316  0.048024  0.978010  1
  O  O35  1  0.226316  0.451976  0.978010  1
