# generated using pymatgen
data_La4ErPb4
_symmetry_space_group_name_H-M   'P 1'
_cell_length_a   8.51329400
_cell_length_b   8.61249100
_cell_length_c   16.41128900
_cell_angle_alpha   90.00000000
_cell_angle_beta   90.00000000
_cell_angle_gamma   90.00000000
_symmetry_Int_Tables_number   1
_chemical_formula_structural   La4ErPb4
_chemical_formula_sum   'La16 Er4 Pb16'
_cell_volume   1203.28667149
_cell_formula_units_Z   4
loop_
 _symmetry_equiv_pos_site_id
 _symmetry_equiv_pos_as_xyz
  1  'x, y, z'
loop_
 _atom_site_type_symbol
 _atom_site_label
 _atom_site_symmetry_multiplicity
 _atom_site_fract_x
 _atom_site_fract_y
 _atom_site_fract_z
 _atom_site_occupancy
  La  La0  1  0.879341  0.658671  0.117835  1
  La  La1  1  0.379341  0.841329  0.382165  1
  La  La2  1  0.620659  0.158671  0.882165  1
  La  La3  1  0.120659  0.341329  0.617835  1
  La  La4  1  0.120659  0.341329  0.882165  1
  La  La5  1  0.620659  0.158671  0.617835  1
  La  La6  1  0.379341  0.841329  0.117835  1
  La  La7  1  0.879341  0.658671  0.382165  1
  La  La8  1  0.029289  0.179645  0.100519  1
  La  La9  1  0.529289  0.320355  0.399481  1
  La  La10  1  0.470711  0.679645  0.899481  1
  La  La11  1  0.970711  0.820355  0.600519  1
  La  La12  1  0.970711  0.820355  0.899481  1
  La  La13  1  0.470711  0.679645  0.600519  1
  La  La14  1  0.529289  0.320355  0.100519  1
  La  La15  1  0.029289  0.179645  0.399481  1
  Er  Er16  1  0.711891  0.996974  0.250000  1
  Er  Er17  1  0.211891  0.503026  0.250000  1
  Er  Er18  1  0.788109  0.496974  0.750000  1
  Er  Er19  1  0.288109  0.003026  0.750000  1
  Pb  Pb20  1  0.073188  0.877485  0.250000  1
  Pb  Pb21  1  0.573188  0.622515  0.250000  1
  Pb  Pb22  1  0.426812  0.377485  0.750000  1
  Pb  Pb23  1  0.926812  0.122515  0.750000  1
  Pb  Pb24  1  0.837672  0.350106  0.250000  1
  Pb  Pb25  1  0.337672  0.149894  0.250000  1
  Pb  Pb26  1  0.662328  0.850106  0.750000  1
  Pb  Pb27  1  0.162328  0.649894  0.750000  1
  Pb  Pb28  1  0.779863  0.469333  0.953939  1
  Pb  Pb29  1  0.279863  0.030667  0.546061  1
  Pb  Pb30  1  0.720137  0.969333  0.046061  1
  Pb  Pb31  1  0.220137  0.530667  0.453939  1
  Pb  Pb32  1  0.220137  0.530667  0.046061  1
  Pb  Pb33  1  0.720137  0.969333  0.453939  1
  Pb  Pb34  1  0.279863  0.030667  0.953939  1
  Pb  Pb35  1  0.779863  0.469333  0.546061  1
