# generated using pymatgen
data_Sr2Lu3Si12Ir19
_symmetry_space_group_name_H-M   'P 1'
_cell_length_a   12.87138600
_cell_length_b   12.87138714
_cell_length_c   3.99708400
_cell_angle_alpha   90.00000000
_cell_angle_beta   90.00000000
_cell_angle_gamma   120.00000220
_symmetry_Int_Tables_number   1
_chemical_formula_structural   Sr2Lu3Si12Ir19
_chemical_formula_sum   'Sr2 Lu3 Si12 Ir19'
_cell_volume   573.48830375
_cell_formula_units_Z   1
loop_
 _symmetry_equiv_pos_site_id
 _symmetry_equiv_pos_as_xyz
  1  'x, y, z'
loop_
 _atom_site_type_symbol
 _atom_site_label
 _atom_site_symmetry_multiplicity
 _atom_site_fract_x
 _atom_site_fract_y
 _atom_site_fract_z
 _atom_site_occupancy
  Sr  Sr0  1  0.333333  0.666667  0.000000  1
  Sr  Sr1  1  0.666667  0.333333  0.000000  1
  Lu  Lu2  1  0.000000  0.817031  0.500000  1
  Lu  Lu3  1  0.182969  0.182969  0.500000  1
  Lu  Lu4  1  0.817031  0.000000  0.500000  1
  Si  Si5  1  0.000000  0.179647  0.000000  1
  Si  Si6  1  0.820353  0.820353  0.000000  1
  Si  Si7  1  0.179647  0.000000  0.000000  1
  Si  Si8  1  0.522260  0.686238  0.500000  1
  Si  Si9  1  0.313762  0.836022  0.500000  1
  Si  Si10  1  0.163978  0.477740  0.500000  1
  Si  Si11  1  0.477740  0.163978  0.500000  1
  Si  Si12  1  0.686238  0.522260  0.500000  1
  Si  Si13  1  0.836022  0.313762  0.500000  1
  Si  Si14  1  0.000000  0.631496  0.000000  1
  Si  Si15  1  0.368504  0.368504  0.000000  1
  Si  Si16  1  0.631496  0.000000  0.000000  1
  Ir  Ir17  1  0.000000  0.279569  0.500000  1
  Ir  Ir18  1  0.720431  0.720431  0.500000  1
  Ir  Ir19  1  0.279569  0.000000  0.500000  1
  Ir  Ir20  1  0.627848  0.809685  0.000000  1
  Ir  Ir21  1  0.190315  0.818163  0.000000  1
  Ir  Ir22  1  0.181837  0.372152  0.000000  1
  Ir  Ir23  1  0.372152  0.181837  0.000000  1
  Ir  Ir24  1  0.809685  0.627848  0.000000  1
  Ir  Ir25  1  0.818163  0.190315  0.000000  1
  Ir  Ir26  1  0.515949  0.874863  0.500000  1
  Ir  Ir27  1  0.125137  0.641087  0.500000  1
  Ir  Ir28  1  0.358913  0.484051  0.500000  1
  Ir  Ir29  1  0.484051  0.358913  0.500000  1
  Ir  Ir30  1  0.874863  0.515949  0.500000  1
  Ir  Ir31  1  0.641087  0.125137  0.500000  1
  Ir  Ir32  1  0.000000  0.000000  0.000000  1
  Ir  Ir33  1  0.000000  0.446574  0.000000  1
  Ir  Ir34  1  0.553426  0.553426  0.000000  1
  Ir  Ir35  1  0.446574  0.000000  0.000000  1
