# generated using pymatgen
data_Li2Yb3GaGe3
_symmetry_space_group_name_H-M   'P 1'
_cell_length_a   7.17563406
_cell_length_b   7.17563501
_cell_length_c   4.31084600
_cell_angle_alpha   90.00000000
_cell_angle_beta   90.00000000
_cell_angle_gamma   121.17942785
_symmetry_Int_Tables_number   1
_chemical_formula_structural   Li2Yb3GaGe3
_chemical_formula_sum   'Li2 Yb3 Ga1 Ge3'
_cell_volume   189.90160293
_cell_formula_units_Z   1
loop_
 _symmetry_equiv_pos_site_id
 _symmetry_equiv_pos_as_xyz
  1  'x, y, z'
loop_
 _atom_site_type_symbol
 _atom_site_label
 _atom_site_symmetry_multiplicity
 _atom_site_fract_x
 _atom_site_fract_y
 _atom_site_fract_z
 _atom_site_occupancy
  Li  Li0  1  0.233971  0.995432  0.500000  1
  Li  Li1  1  0.995432  0.233971  0.500000  1
  Yb  Yb2  1  0.007082  0.574639  0.000000  1
  Yb  Yb3  1  0.432231  0.432231  0.000000  1
  Yb  Yb4  1  0.574639  0.007082  0.000000  1
  Ga  Ga5  1  0.754557  0.754557  0.500000  1
  Ge  Ge6  1  0.342575  0.670143  0.500000  1
  Ge  Ge7  1  0.670143  0.342575  0.500000  1
  Ge  Ge8  1  0.989370  0.989370  0.000000  1
