# generated using pymatgen
data_Pr16AgHg3Pt4
_symmetry_space_group_name_H-M   'P 1'
_cell_length_a   10.05048362
_cell_length_b   10.08154527
_cell_length_c   10.08154600
_cell_angle_alpha   59.99999761
_cell_angle_beta   59.89770982
_cell_angle_gamma   59.89770636
_symmetry_Int_Tables_number   1
_chemical_formula_structural   Pr16AgHg3Pt4
_chemical_formula_sum   'Pr16 Ag1 Hg3 Pt4'
_cell_volume   721.19545497
_cell_formula_units_Z   1
loop_
 _symmetry_equiv_pos_site_id
 _symmetry_equiv_pos_as_xyz
  1  'x, y, z'
loop_
 _atom_site_type_symbol
 _atom_site_label
 _atom_site_symmetry_multiplicity
 _atom_site_fract_x
 _atom_site_fract_y
 _atom_site_fract_z
 _atom_site_occupancy
  Pr  Pr0  1  0.351028  0.352034  0.352034  1
  Pr  Pr1  1  0.351028  0.352034  0.944903  1
  Pr  Pr2  1  0.351028  0.944903  0.352034  1
  Pr  Pr3  1  0.944704  0.351765  0.351765  1
  Pr  Pr4  1  0.807755  0.192046  0.192046  1
  Pr  Pr5  1  0.189598  0.809194  0.809194  1
  Pr  Pr6  1  0.189598  0.809194  0.192013  1
  Pr  Pr7  1  0.807755  0.192046  0.808153  1
  Pr  Pr8  1  0.189598  0.192013  0.809194  1
  Pr  Pr9  1  0.807755  0.808153  0.192046  1
  Pr  Pr10  1  0.939054  0.564270  0.564270  1
  Pr  Pr11  1  0.565454  0.935684  0.935684  1
  Pr  Pr12  1  0.565454  0.935684  0.563176  1
  Pr  Pr13  1  0.939054  0.564270  0.932405  1
  Pr  Pr14  1  0.565454  0.563176  0.935684  1
  Pr  Pr15  1  0.939054  0.932405  0.564270  1
  Ag  Ag16  1  0.256115  0.581295  0.581295  1
  Hg  Hg17  1  0.580768  0.585202  0.585202  1
  Hg  Hg18  1  0.580768  0.585202  0.248827  1
  Hg  Hg19  1  0.580768  0.248827  0.585202  1
  Pt  Pt20  1  0.142555  0.142988  0.142988  1
  Pt  Pt21  1  0.142555  0.142988  0.571468  1
  Pt  Pt22  1  0.142555  0.571468  0.142988  1
  Pt  Pt23  1  0.570544  0.143152  0.143152  1
