# generated using pymatgen
data_MgNb2GeRu4
_symmetry_space_group_name_H-M   'P 1'
_cell_length_a   4.43340200
_cell_length_b   6.23041500
_cell_length_c   13.22579400
_cell_angle_alpha   90.00000000
_cell_angle_beta   90.00015552
_cell_angle_gamma   90.00000000
_symmetry_Int_Tables_number   1
_chemical_formula_structural   MgNb2GeRu4
_chemical_formula_sum   'Mg3 Nb6 Ge3 Ru12'
_cell_volume   365.32201322
_cell_formula_units_Z   3
loop_
 _symmetry_equiv_pos_site_id
 _symmetry_equiv_pos_as_xyz
  1  'x, y, z'
loop_
 _atom_site_type_symbol
 _atom_site_label
 _atom_site_symmetry_multiplicity
 _atom_site_fract_x
 _atom_site_fract_y
 _atom_site_fract_z
 _atom_site_occupancy
  Mg  Mg0  1  0.999996  0.500000  0.000274  1
  Mg  Mg1  1  0.500009  0.000000  0.166686  1
  Mg  Mg2  1  0.000005  0.500000  0.333022  1
  Nb  Nb3  1  0.000001  0.000000  0.002835  1
  Nb  Nb4  1  0.500024  0.500000  0.166656  1
  Nb  Nb5  1  0.000020  0.000000  0.330498  1
  Nb  Nb6  1  0.500002  0.500000  0.497602  1
  Nb  Nb7  1  0.999981  0.000000  0.666671  1
  Nb  Nb8  1  0.499981  0.500000  0.835742  1
  Ge  Ge9  1  0.500000  0.000000  0.498577  1
  Ge  Ge10  1  0.999986  0.500000  0.666669  1
  Ge  Ge11  1  0.499970  0.000000  0.834741  1
  Ru  Ru12  1  0.500000  0.248082  0.995469  1
  Ru  Ru13  1  0.500000  0.751918  0.995469  1
  Ru  Ru14  1  0.000026  0.249216  0.166654  1
  Ru  Ru15  1  0.000026  0.750784  0.166654  1
  Ru  Ru16  1  0.500019  0.248090  0.337858  1
  Ru  Ru17  1  0.500019  0.751911  0.337858  1
  Ru  Ru18  1  0.000003  0.250046  0.504654  1
  Ru  Ru19  1  0.000003  0.749953  0.504654  1
  Ru  Ru20  1  0.499979  0.247672  0.666681  1
  Ru  Ru21  1  0.499979  0.752329  0.666681  1
  Ru  Ru22  1  0.999984  0.250040  0.828698  1
  Ru  Ru23  1  0.999984  0.749960  0.828698  1
