# generated using pymatgen
data_Y7ErTa5Ti7Si16
_symmetry_space_group_name_H-M   'P 1'
_cell_length_a   7.05138884
_cell_length_b   7.04126753
_cell_length_c   12.97267722
_cell_angle_alpha   90.03613861
_cell_angle_beta   90.05964802
_cell_angle_gamma   89.98352645
_symmetry_Int_Tables_number   1
_chemical_formula_structural   Y7ErTa5Ti7Si16
_chemical_formula_sum   'Y7 Er1 Ta5 Ti7 Si16'
_cell_volume   644.10219941
_cell_formula_units_Z   1
loop_
 _symmetry_equiv_pos_site_id
 _symmetry_equiv_pos_as_xyz
  1  'x, y, z'
loop_
 _atom_site_type_symbol
 _atom_site_label
 _atom_site_symmetry_multiplicity
 _atom_site_fract_x
 _atom_site_fract_y
 _atom_site_fract_z
 _atom_site_occupancy
  Y  Y0  1  0.341032  0.002205  0.466608  1
  Y  Y1  1  0.497686  0.840691  0.717290  1
  Y  Y2  1  0.502366  0.159077  0.216643  1
  Y  Y3  1  0.840734  0.497472  0.282920  1
  Y  Y4  1  0.159529  0.503020  0.783068  1
  Y  Y5  1  0.658618  0.997268  0.967017  1
  Y  Y6  1  0.001957  0.340852  0.533120  1
  Er  Er7  1  0.998837  0.659439  0.033258  1
  Ta  Ta8  1  0.325348  0.325739  0.999821  1
  Ta  Ta9  1  0.172908  0.826575  0.249815  1
  Ta  Ta10  1  0.827463  0.173102  0.750581  1
  Ta  Ta11  1  0.673785  0.673597  0.499842  1
  Ta  Ta12  1  0.152325  0.009400  0.876146  1
  Ti  Ti13  1  0.490952  0.652608  0.125140  1
  Ti  Ti14  1  0.508931  0.347227  0.626160  1
  Ti  Ti15  1  0.653160  0.491165  0.874338  1
  Ti  Ti16  1  0.347375  0.509034  0.374206  1
  Ti  Ti17  1  0.847382  0.990579  0.375640  1
  Ti  Ti18  1  0.008782  0.151524  0.123991  1
  Ti  Ti19  1  0.991020  0.846918  0.624467  1
  Si  Si20  1  0.202396  0.130653  0.684075  1
  Si  Si21  1  0.369330  0.701775  0.934539  1
  Si  Si22  1  0.630090  0.298318  0.434647  1
  Si  Si23  1  0.702564  0.370662  0.065756  1
  Si  Si24  1  0.298448  0.629922  0.565195  1
  Si  Si25  1  0.798916  0.869138  0.184133  1
  Si  Si26  1  0.130157  0.201551  0.314979  1
  Si  Si27  1  0.867727  0.796977  0.816003  1
  Si  Si28  1  0.292363  0.951924  0.065155  1
  Si  Si29  1  0.547167  0.791631  0.313980  1
  Si  Si30  1  0.454059  0.209236  0.813859  1
  Si  Si31  1  0.792480  0.546706  0.685712  1
  Si  Si32  1  0.207400  0.453195  0.185446  1
  Si  Si33  1  0.708169  0.047040  0.564258  1
  Si  Si34  1  0.951527  0.295533  0.936378  1
  Si  Si35  1  0.047020  0.708250  0.435820  1
