# generated using pymatgen
data_La2Co7P6
_symmetry_space_group_name_H-M   'P 1'
_cell_length_a   10.55914400
_cell_length_b   10.55914400
_cell_length_c   3.84801700
_cell_angle_alpha   90.00000000
_cell_angle_beta   90.00000000
_cell_angle_gamma   90.00000000
_symmetry_Int_Tables_number   1
_chemical_formula_structural   La2Co7P6
_chemical_formula_sum   'La4 Co14 P12'
_cell_volume   429.03666413
_cell_formula_units_Z   2
loop_
 _symmetry_equiv_pos_site_id
 _symmetry_equiv_pos_as_xyz
  1  'x, y, z'
loop_
 _atom_site_type_symbol
 _atom_site_label
 _atom_site_symmetry_multiplicity
 _atom_site_fract_x
 _atom_site_fract_y
 _atom_site_fract_z
 _atom_site_occupancy
  La  La0  1  0.153424  0.653424  0.749131  1
  La  La1  1  0.346576  0.153424  0.250869  1
  La  La2  1  0.653424  0.846576  0.250869  1
  La  La3  1  0.846576  0.346576  0.749131  1
  Co  Co4  1  0.545907  0.280622  0.762883  1
  Co  Co5  1  0.045907  0.219378  0.237117  1
  Co  Co6  1  0.719378  0.545907  0.237117  1
  Co  Co7  1  0.280622  0.454093  0.237117  1
  Co  Co8  1  0.342574  0.842574  0.267539  1
  Co  Co9  1  0.842574  0.657426  0.732461  1
  Co  Co10  1  0.954093  0.780622  0.237117  1
  Co  Co11  1  0.219378  0.954093  0.762883  1
  Co  Co12  1  0.780622  0.045907  0.762883  1
  Co  Co13  1  0.000000  0.000000  0.000000  1
  Co  Co14  1  0.157426  0.342574  0.732461  1
  Co  Co15  1  0.454093  0.719378  0.762883  1
  Co  Co16  1  0.500000  0.500000  0.000000  1
  Co  Co17  1  0.657426  0.157426  0.267539  1
  P  P18  1  0.862711  0.117454  0.275006  1
  P  P19  1  0.362711  0.382546  0.724994  1
  P  P20  1  0.578774  0.078774  0.766829  1
  P  P21  1  0.637289  0.617454  0.724994  1
  P  P22  1  0.617454  0.362711  0.275006  1
  P  P23  1  0.078774  0.421226  0.233171  1
  P  P24  1  0.382546  0.637289  0.275006  1
  P  P25  1  0.921226  0.578774  0.233171  1
  P  P26  1  0.117454  0.137289  0.724994  1
  P  P27  1  0.421226  0.921226  0.766829  1
  P  P28  1  0.137289  0.882546  0.275006  1
  P  P29  1  0.882546  0.862711  0.724994  1
