# generated using pymatgen
data_Pr10AsPb6S
_symmetry_space_group_name_H-M   'P 1'
_cell_length_a   9.59287800
_cell_length_b   9.59287746
_cell_length_c   7.08281900
_cell_angle_alpha   90.00000000
_cell_angle_beta   90.00000000
_cell_angle_gamma   119.99999496
_symmetry_Int_Tables_number   1
_chemical_formula_structural   Pr10AsPb6S
_chemical_formula_sum   'Pr10 As1 Pb6 S1'
_cell_volume   564.46187697
_cell_formula_units_Z   1
loop_
 _symmetry_equiv_pos_site_id
 _symmetry_equiv_pos_as_xyz
  1  'x, y, z'
loop_
 _atom_site_type_symbol
 _atom_site_label
 _atom_site_symmetry_multiplicity
 _atom_site_fract_x
 _atom_site_fract_y
 _atom_site_fract_z
 _atom_site_occupancy
  Pr  Pr0  1  0.757290  0.757290  0.745301  1
  Pr  Pr1  1  0.242710  0.000000  0.745301  1
  Pr  Pr2  1  0.000000  0.242710  0.745301  1
  Pr  Pr3  1  0.242710  0.242710  0.254699  1
  Pr  Pr4  1  0.757290  0.000000  0.254699  1
  Pr  Pr5  1  0.000000  0.757290  0.254699  1
  Pr  Pr6  1  0.666667  0.333333  0.000000  1
  Pr  Pr7  1  0.333333  0.666667  0.000000  1
  Pr  Pr8  1  0.333333  0.666667  0.500000  1
  Pr  Pr9  1  0.666667  0.333333  0.500000  1
  As  As10  1  0.000000  0.000000  0.000000  1
  Pb  Pb11  1  0.397450  0.397450  0.749552  1
  Pb  Pb12  1  0.602550  0.000000  0.749552  1
  Pb  Pb13  1  0.000000  0.602550  0.749552  1
  Pb  Pb14  1  0.602550  0.602550  0.250448  1
  Pb  Pb15  1  0.397450  0.000000  0.250448  1
  Pb  Pb16  1  0.000000  0.397450  0.250448  1
  S  S17  1  0.000000  0.000000  0.500000  1
