# generated using pymatgen
data_Dy3Ho5(FeB6)4
_symmetry_space_group_name_H-M   'P 1'
_cell_length_a   3.55148800
_cell_length_b   9.09109900
_cell_length_c   11.45413700
_cell_angle_alpha   89.99695415
_cell_angle_beta   90.00000000
_cell_angle_gamma   90.00000000
_symmetry_Int_Tables_number   1
_chemical_formula_structural   Dy3Ho5(FeB6)4
_chemical_formula_sum   'Dy3 Ho5 Fe4 B24'
_cell_volume   369.81890787
_cell_formula_units_Z   1
loop_
 _symmetry_equiv_pos_site_id
 _symmetry_equiv_pos_as_xyz
  1  'x, y, z'
loop_
 _atom_site_type_symbol
 _atom_site_label
 _atom_site_symmetry_multiplicity
 _atom_site_fract_x
 _atom_site_fract_y
 _atom_site_fract_z
 _atom_site_occupancy
  Dy  Dy0  1  0.000000  0.824342  0.085714  1
  Dy  Dy1  1  0.000000  0.175660  0.914277  1
  Dy  Dy2  1  0.000000  0.324367  0.414351  1
  Ho  Ho3  1  0.000000  0.675745  0.585595  1
  Ho  Ho4  1  0.000000  0.443132  0.129400  1
  Ho  Ho5  1  0.000000  0.556866  0.870539  1
  Ho  Ho6  1  0.000000  0.943084  0.370714  1
  Ho  Ho7  1  0.000000  0.056820  0.629340  1
  Fe  Fe8  1  0.000000  0.138550  0.179461  1
  Fe  Fe9  1  0.000000  0.861351  0.820450  1
  Fe  Fe10  1  0.000000  0.638534  0.320732  1
  Fe  Fe11  1  0.000000  0.361650  0.679336  1
  B  B12  1  0.500000  0.054323  0.068184  1
  B  B13  1  0.500000  0.945621  0.931784  1
  B  B14  1  0.500000  0.554401  0.432063  1
  B  B15  1  0.500000  0.445929  0.568147  1
  B  B16  1  0.500000  0.246391  0.081486  1
  B  B17  1  0.500000  0.753599  0.918434  1
  B  B18  1  0.500000  0.746321  0.418770  1
  B  B19  1  0.500000  0.253713  0.581528  1
  B  B20  1  0.500000  0.289102  0.233493  1
  B  B21  1  0.500000  0.710735  0.766302  1
  B  B22  1  0.500000  0.789119  0.266642  1
  B  B23  1  0.500000  0.210906  0.733438  1
  B  B24  1  0.500000  0.132257  0.314023  1
  B  B25  1  0.500000  0.867501  0.685843  1
  B  B26  1  0.500000  0.632287  0.186012  1
  B  B27  1  0.500000  0.367813  0.813940  1
  B  B28  1  0.500000  0.486177  0.288289  1
  B  B29  1  0.500000  0.514188  0.711656  1
  B  B30  1  0.500000  0.986101  0.211818  1
  B  B31  1  0.500000  0.013777  0.788157  1
  B  B32  1  0.500000  0.109438  0.469992  1
  B  B33  1  0.500000  0.890156  0.530143  1
  B  B34  1  0.500000  0.609348  0.029985  1
  B  B35  1  0.500000  0.390696  0.969963  1
