# generated using pymatgen
data_K2Mo(OF2)2
_symmetry_space_group_name_H-M   'P 1'
_cell_length_a   7.70622126
_cell_length_b   7.70622215
_cell_length_c   7.00622600
_cell_angle_alpha   90.00000000
_cell_angle_beta   90.00000000
_cell_angle_gamma   134.22149489
_symmetry_Int_Tables_number   1
_chemical_formula_structural   K2Mo(OF2)2
_chemical_formula_sum   'K4 Mo2 O4 F8'
_cell_volume   298.17666091
_cell_formula_units_Z   2
loop_
 _symmetry_equiv_pos_site_id
 _symmetry_equiv_pos_as_xyz
  1  'x, y, z'
loop_
 _atom_site_type_symbol
 _atom_site_label
 _atom_site_symmetry_multiplicity
 _atom_site_fract_x
 _atom_site_fract_y
 _atom_site_fract_z
 _atom_site_occupancy
  K  K0  1  0.447442  0.558020  0.250000  1
  K  K1  1  0.558020  0.447442  0.750000  1
  K  K2  1  0.760115  0.224097  0.250000  1
  K  K3  1  0.224097  0.760115  0.750000  1
  Mo  Mo4  1  0.118815  0.886058  0.250000  1
  Mo  Mo5  1  0.886058  0.118815  0.750000  1
  O  O6  1  0.070149  0.307048  0.942871  1
  O  O7  1  0.307048  0.070149  0.057129  1
  O  O8  1  0.307048  0.070149  0.442871  1
  O  O9  1  0.070149  0.307048  0.557129  1
  F  F10  1  0.931904  0.968625  0.250000  1
  F  F11  1  0.968625  0.931904  0.750000  1
  F  F12  1  0.853494  0.606046  0.065593  1
  F  F13  1  0.606046  0.853494  0.934407  1
  F  F14  1  0.606046  0.853494  0.565593  1
  F  F15  1  0.853494  0.606046  0.434407  1
  F  F16  1  0.219975  0.708474  0.250000  1
  F  F17  1  0.708474  0.219975  0.750000  1
