# generated using pymatgen
data_Th2Be3SiRh6
_symmetry_space_group_name_H-M   'P 1'
_cell_length_a   6.52301349
_cell_length_b   6.55463875
_cell_length_c   6.52301376
_cell_angle_alpha   130.11477431
_cell_angle_beta   115.29756889
_cell_angle_gamma   85.73305795
_symmetry_Int_Tables_number   1
_chemical_formula_structural   Th2Be3SiRh6
_chemical_formula_sum   'Th2 Be3 Si1 Rh6'
_cell_volume   184.51242773
_cell_formula_units_Z   1
loop_
 _symmetry_equiv_pos_site_id
 _symmetry_equiv_pos_as_xyz
  1  'x, y, z'
loop_
 _atom_site_type_symbol
 _atom_site_label
 _atom_site_symmetry_multiplicity
 _atom_site_fract_x
 _atom_site_fract_y
 _atom_site_fract_z
 _atom_site_occupancy
  Th  Th0  1  0.241368  0.953521  0.712153  1
  Th  Th1  1  0.758539  0.049066  0.290527  1
  Be  Be2  1  0.081061  0.291322  0.210261  1
  Be  Be3  1  0.913156  0.701751  0.788595  1
  Be  Be4  1  0.424666  0.635610  0.210944  1
  Si  Si5  1  0.581461  0.370513  0.789051  1
  Rh  Rh6  1  0.494586  0.500285  0.492465  1
  Rh  Rh7  1  0.007820  0.500285  0.005698  1
  Rh  Rh8  1  0.264618  0.996775  0.263537  1
  Rh  Rh9  1  0.733238  0.996775  0.732158  1
  Rh  Rh10  1  0.223897  0.502048  0.726458  1
  Rh  Rh11  1  0.775590  0.502048  0.278150  1
