# generated using pymatgen
data_Ta2GaCo2As
_symmetry_space_group_name_H-M   'P 1'
_cell_length_a   7.00715605
_cell_length_b   7.00710091
_cell_length_c   5.70753700
_cell_angle_alpha   114.03324131
_cell_angle_beta   114.03284583
_cell_angle_gamma   109.66697771
_symmetry_Int_Tables_number   1
_chemical_formula_structural   Ta2GaCo2As
_chemical_formula_sum   'Ta4 Ga2 Co4 As2'
_cell_volume   186.59844207
_cell_formula_units_Z   2
loop_
 _symmetry_equiv_pos_site_id
 _symmetry_equiv_pos_as_xyz
  1  'x, y, z'
loop_
 _atom_site_type_symbol
 _atom_site_label
 _atom_site_symmetry_multiplicity
 _atom_site_fract_x
 _atom_site_fract_y
 _atom_site_fract_z
 _atom_site_occupancy
  Ta  Ta0  1  0.754357  0.245633  0.000016  1
  Ta  Ta1  1  0.245639  0.754365  0.999978  1
  Ta  Ta2  1  0.495609  0.504336  0.499961  1
  Ta  Ta3  1  0.004362  0.995675  0.500016  1
  Ga  Ga4  1  0.000005  0.000019  0.000030  1
  Ga  Ga5  1  0.250013  0.749976  0.500015  1
  Co  Co6  1  0.385881  0.135884  0.010890  1
  Co  Co7  1  0.625006  0.875008  0.489110  1
  Co  Co8  1  0.125002  0.375005  0.510900  1
  Co  Co9  1  0.864126  0.614129  0.989136  1
  As  As10  1  0.499959  0.499957  0.999948  1
  As  As11  1  0.750040  0.250017  0.499999  1
