# generated using pymatgen
data_Tb8In4Ag3Pd5
_symmetry_space_group_name_H-M   'P 1'
_cell_length_a   7.85766510
_cell_length_b   7.87189452
_cell_length_c   7.45563400
_cell_angle_alpha   89.93552681
_cell_angle_beta   89.99093641
_cell_angle_gamma   90.36476281
_symmetry_Int_Tables_number   1
_chemical_formula_structural   Tb8In4Ag3Pd5
_chemical_formula_sum   'Tb8 In4 Ag3 Pd5'
_cell_volume   461.15644112
_cell_formula_units_Z   1
loop_
 _symmetry_equiv_pos_site_id
 _symmetry_equiv_pos_as_xyz
  1  'x, y, z'
loop_
 _atom_site_type_symbol
 _atom_site_label
 _atom_site_symmetry_multiplicity
 _atom_site_fract_x
 _atom_site_fract_y
 _atom_site_fract_z
 _atom_site_occupancy
  Tb  Tb0  1  0.156126  0.178854  0.005785  1
  Tb  Tb1  1  0.815725  0.833734  0.999785  1
  Tb  Tb2  1  0.678582  0.329044  0.495926  1
  Tb  Tb3  1  0.347224  0.664045  0.495435  1
  Tb  Tb4  1  0.685279  0.323339  0.003969  1
  Tb  Tb5  1  0.338069  0.673835  0.003864  1
  Tb  Tb6  1  0.808340  0.826164  0.500139  1
  Tb  Tb7  1  0.166181  0.187707  0.494456  1
  In  In8  1  0.497523  0.005662  0.249134  1
  In  In9  1  0.499411  0.998792  0.749888  1
  In  In10  1  0.002194  0.502477  0.249834  1
  In  In11  1  0.996887  0.502470  0.749352  1
  Ag  Ag12  1  0.377515  0.368540  0.759954  1
  Ag  Ag13  1  0.124621  0.870360  0.261261  1
  Ag  Ag14  1  0.126771  0.872095  0.739277  1
  Pd  Pd15  1  0.374125  0.369346  0.241550  1
  Pd  Pd16  1  0.627958  0.623002  0.757563  1
  Pd  Pd17  1  0.630512  0.623162  0.242325  1
  Pd  Pd18  1  0.873619  0.124862  0.742592  1
  Pd  Pd19  1  0.873336  0.122508  0.257907  1
