# generated using pymatgen
data_Er12Co4OsPb
_symmetry_space_group_name_H-M   'P 1'
_cell_length_a   8.22631352
_cell_length_b   8.22631295
_cell_length_c   8.22631290
_cell_angle_alpha   110.54099857
_cell_angle_beta   111.62669529
_cell_angle_gamma   106.29390977
_symmetry_Int_Tables_number   1
_chemical_formula_structural   Er12Co4OsPb
_chemical_formula_sum   'Er12 Co4 Os1 Pb1'
_cell_volume   427.52029136
_cell_formula_units_Z   1
loop_
 _symmetry_equiv_pos_site_id
 _symmetry_equiv_pos_as_xyz
  1  'x, y, z'
loop_
 _atom_site_type_symbol
 _atom_site_label
 _atom_site_symmetry_multiplicity
 _atom_site_fract_x
 _atom_site_fract_y
 _atom_site_fract_z
 _atom_site_occupancy
  Er  Er0  1  0.281473  0.181863  0.463335  1
  Er  Er1  1  0.718527  0.818137  0.536665  1
  Er  Er2  1  0.281473  0.818137  0.099610  1
  Er  Er3  1  0.718527  0.181863  0.900390  1
  Er  Er4  1  0.619792  0.312459  0.307332  1
  Er  Er5  1  0.380208  0.687541  0.692668  1
  Er  Er6  1  0.005129  0.312459  0.692668  1
  Er  Er7  1  0.994871  0.687541  0.307332  1
  Er  Er8  1  0.216985  0.412301  0.195316  1
  Er  Er9  1  0.783015  0.587699  0.804684  1
  Er  Er10  1  0.216985  0.021670  0.804684  1
  Er  Er11  1  0.783015  0.978330  0.195316  1
  Co  Co12  1  0.000000  0.377497  0.377497  1
  Co  Co13  1  0.000000  0.622503  0.622503  1
  Co  Co14  1  0.388660  0.888660  0.500000  1
  Co  Co15  1  0.611340  0.111340  0.500000  1
  Os  Os16  1  0.000000  0.000000  0.000000  1
  Pb  Pb17  1  0.500000  0.500000  0.000000  1
