# generated using pymatgen
data_Ho10Ga3Bi2Rh
_symmetry_space_group_name_H-M   'P 1'
_cell_length_a   8.57874336
_cell_length_b   8.57874400
_cell_length_c   8.71415800
_cell_angle_alpha   124.72502221
_cell_angle_beta   124.72502516
_cell_angle_gamma   80.95208552
_symmetry_Int_Tables_number   1
_chemical_formula_structural   Ho10Ga3Bi2Rh
_chemical_formula_sum   'Ho10 Ga3 Bi2 Rh1'
_cell_volume   419.73274172
_cell_formula_units_Z   1
loop_
 _symmetry_equiv_pos_site_id
 _symmetry_equiv_pos_as_xyz
  1  'x, y, z'
loop_
 _atom_site_type_symbol
 _atom_site_label
 _atom_site_symmetry_multiplicity
 _atom_site_fract_x
 _atom_site_fract_y
 _atom_site_fract_z
 _atom_site_occupancy
  Ho  Ho0  1  0.996313  0.998255  0.994568  1
  Ho  Ho1  1  0.501745  0.503687  0.005432  1
  Ho  Ho2  1  0.781995  0.298475  0.797814  1
  Ho  Ho3  1  0.201525  0.718005  0.202186  1
  Ho  Ho4  1  0.484180  0.000661  0.202186  1
  Ho  Ho5  1  0.304825  0.461660  0.500000  1
  Ho  Ho6  1  0.038340  0.195175  0.500000  1
  Ho  Ho7  1  0.499339  0.015820  0.797814  1
  Ho  Ho8  1  0.707625  0.514769  0.500000  1
  Ho  Ho9  1  0.985231  0.792375  0.500000  1
  Ga  Ga10  1  0.144899  0.645090  0.789990  1
  Ga  Ga11  1  0.854910  0.355101  0.210010  1
  Ga  Ga12  1  0.635937  0.864063  0.500000  1
  Bi  Bi13  1  0.243913  0.256087  0.000000  1
  Bi  Bi14  1  0.743913  0.756087  0.000000  1
  Rh  Rh15  1  0.375309  0.124691  0.500000  1
