# generated using pymatgen
data_VGaIr3S8
_symmetry_space_group_name_H-M   'P 1'
_cell_length_a   6.78461687
_cell_length_b   6.78461715
_cell_length_c   6.78461652
_cell_angle_alpha   64.14196015
_cell_angle_beta   64.14195628
_cell_angle_gamma   64.14195352
_symmetry_Int_Tables_number   1
_chemical_formula_structural   VGaIr3S8
_chemical_formula_sum   'V1 Ga1 Ir3 S8'
_cell_volume   240.95230318
_cell_formula_units_Z   1
loop_
 _symmetry_equiv_pos_site_id
 _symmetry_equiv_pos_as_xyz
  1  'x, y, z'
loop_
 _atom_site_type_symbol
 _atom_site_label
 _atom_site_symmetry_multiplicity
 _atom_site_fract_x
 _atom_site_fract_y
 _atom_site_fract_z
 _atom_site_occupancy
  V  V0  1  0.409214  0.409214  0.409214  1
  Ga  Ga1  1  0.981835  0.981835  0.981835  1
  Ir  Ir2  1  0.861179  0.373520  0.373520  1
  Ir  Ir3  1  0.373520  0.861179  0.373520  1
  Ir  Ir4  1  0.373520  0.373520  0.861179  1
  S  S5  1  0.129881  0.129881  0.129881  1
  S  S6  1  0.574270  0.146969  0.146969  1
  S  S7  1  0.146969  0.574270  0.146969  1
  S  S8  1  0.146969  0.146969  0.574270  1
  S  S9  1  0.613070  0.613070  0.613070  1
  S  S10  1  0.131249  0.629162  0.629162  1
  S  S11  1  0.629162  0.131249  0.629162  1
  S  S12  1  0.629162  0.629162  0.131249  1
