# generated using pymatgen
data_TbHo2(Co3P2)3
_symmetry_space_group_name_H-M   'P 1'
_cell_length_a   3.69593300
_cell_length_b   10.50849400
_cell_length_c   12.16939000
_cell_angle_alpha   90.00000000
_cell_angle_beta   90.00000000
_cell_angle_gamma   90.00000000
_symmetry_Int_Tables_number   1
_chemical_formula_structural   TbHo2(Co3P2)3
_chemical_formula_sum   'Tb2 Ho4 Co18 P12'
_cell_volume   472.64316272
_cell_formula_units_Z   2
loop_
 _symmetry_equiv_pos_site_id
 _symmetry_equiv_pos_as_xyz
  1  'x, y, z'
loop_
 _atom_site_type_symbol
 _atom_site_label
 _atom_site_symmetry_multiplicity
 _atom_site_fract_x
 _atom_site_fract_y
 _atom_site_fract_z
 _atom_site_occupancy
  Tb  Tb0  1  0.000000  0.500000  0.522579  1
  Tb  Tb1  1  0.500000  0.000000  0.477421  1
  Ho  Ho2  1  0.500000  0.817071  0.205663  1
  Ho  Ho3  1  0.500000  0.182929  0.205663  1
  Ho  Ho4  1  0.000000  0.682929  0.794337  1
  Ho  Ho5  1  0.000000  0.317071  0.794337  1
  Co  Co6  1  0.000000  0.500000  0.985945  1
  Co  Co7  1  0.500000  0.000000  0.014055  1
  Co  Co8  1  0.500000  0.296987  0.430353  1
  Co  Co9  1  0.500000  0.703013  0.430353  1
  Co  Co10  1  0.000000  0.203013  0.569647  1
  Co  Co11  1  0.000000  0.796987  0.569647  1
  Co  Co12  1  0.500000  0.879274  0.710025  1
  Co  Co13  1  0.500000  0.120726  0.710025  1
  Co  Co14  1  0.000000  0.620726  0.289975  1
  Co  Co15  1  0.000000  0.379274  0.289975  1
  Co  Co16  1  0.500000  0.333265  0.994645  1
  Co  Co17  1  0.500000  0.666735  0.994645  1
  Co  Co18  1  0.000000  0.166735  0.005355  1
  Co  Co19  1  0.000000  0.833265  0.005355  1
  Co  Co20  1  0.500000  0.500000  0.158878  1
  Co  Co21  1  0.000000  0.000000  0.841122  1
  Co  Co22  1  0.500000  0.500000  0.703977  1
  Co  Co23  1  0.000000  0.000000  0.296023  1
  P  P24  1  0.500000  0.310043  0.616535  1
  P  P25  1  0.500000  0.689957  0.616535  1
  P  P26  1  0.000000  0.189957  0.383465  1
  P  P27  1  0.000000  0.810043  0.383465  1
  P  P28  1  0.500000  0.500000  0.882651  1
  P  P29  1  0.000000  0.000000  0.117349  1
  P  P30  1  0.500000  0.847313  0.893113  1
  P  P31  1  0.500000  0.152687  0.893113  1
  P  P32  1  0.000000  0.652687  0.106887  1
  P  P33  1  0.000000  0.347313  0.106887  1
  P  P34  1  0.500000  0.500000  0.343520  1
  P  P35  1  0.000000  0.000000  0.656480  1
