# generated using pymatgen
data_CeDy7(TcB6)4
_symmetry_space_group_name_H-M   'P 1'
_cell_length_a   3.70368500
_cell_length_b   9.16939313
_cell_length_c   11.55353801
_cell_angle_alpha   90.05010782
_cell_angle_beta   90.00000000
_cell_angle_gamma   90.00000000
_symmetry_Int_Tables_number   1
_chemical_formula_structural   CeDy7(TcB6)4
_chemical_formula_sum   'Ce1 Dy7 Tc4 B24'
_cell_volume   392.36428367
_cell_formula_units_Z   1
loop_
 _symmetry_equiv_pos_site_id
 _symmetry_equiv_pos_as_xyz
  1  'x, y, z'
loop_
 _atom_site_type_symbol
 _atom_site_label
 _atom_site_symmetry_multiplicity
 _atom_site_fract_x
 _atom_site_fract_y
 _atom_site_fract_z
 _atom_site_occupancy
  Ce  Ce0  1  0.000000  0.323425  0.414185  1
  Dy  Dy1  1  0.000000  0.677022  0.586567  1
  Dy  Dy2  1  0.000000  0.823645  0.085319  1
  Dy  Dy3  1  0.000000  0.175900  0.914127  1
  Dy  Dy4  1  0.000000  0.941919  0.369134  1
  Dy  Dy5  1  0.000000  0.057317  0.631192  1
  Dy  Dy6  1  0.000000  0.442427  0.129930  1
  Dy  Dy7  1  0.000000  0.557926  0.869538  1
  Tc  Tc8  1  0.000000  0.637504  0.320978  1
  Tc  Tc9  1  0.000000  0.362136  0.678673  1
  Tc  Tc10  1  0.000000  0.138748  0.179670  1
  Tc  Tc11  1  0.000000  0.861898  0.820775  1
  B  B12  1  0.500000  0.553575  0.432303  1
  B  B13  1  0.500000  0.446388  0.567812  1
  B  B14  1  0.500000  0.053154  0.066997  1
  B  B15  1  0.500000  0.946849  0.932896  1
  B  B16  1  0.500000  0.748690  0.418190  1
  B  B17  1  0.500000  0.251861  0.582627  1
  B  B18  1  0.500000  0.248097  0.081120  1
  B  B19  1  0.500000  0.751576  0.918377  1
  B  B20  1  0.500000  0.791135  0.265268  1
  B  B21  1  0.500000  0.209077  0.735211  1
  B  B22  1  0.500000  0.290510  0.234055  1
  B  B23  1  0.500000  0.708789  0.765340  1
  B  B24  1  0.500000  0.631144  0.185296  1
  B  B25  1  0.500000  0.369667  0.814367  1
  B  B26  1  0.500000  0.130562  0.313705  1
  B  B27  1  0.500000  0.869235  0.686117  1
  B  B28  1  0.500000  0.982298  0.211375  1
  B  B29  1  0.500000  0.017509  0.788553  1
  B  B30  1  0.500000  0.483453  0.287795  1
  B  B31  1  0.500000  0.517875  0.712366  1
  B  B32  1  0.500000  0.601394  0.028075  1
  B  B33  1  0.500000  0.398947  0.971447  1
  B  B34  1  0.500000  0.100174  0.472010  1
  B  B35  1  0.500000  0.898173  0.528607  1
