# generated using pymatgen
data_Er8Ta11Si16Pd
_symmetry_space_group_name_H-M   'P 1'
_cell_length_a   7.02125067
_cell_length_b   7.02125139
_cell_length_c   12.90590877
_cell_angle_alpha   90.24022213
_cell_angle_beta   89.75977550
_cell_angle_gamma   89.75346752
_symmetry_Int_Tables_number   1
_chemical_formula_structural   Er8Ta11Si16Pd
_chemical_formula_sum   'Er8 Ta11 Si16 Pd1'
_cell_volume   636.21793015
_cell_formula_units_Z   1
loop_
 _symmetry_equiv_pos_site_id
 _symmetry_equiv_pos_as_xyz
  1  'x, y, z'
loop_
 _atom_site_type_symbol
 _atom_site_label
 _atom_site_symmetry_multiplicity
 _atom_site_fract_x
 _atom_site_fract_y
 _atom_site_fract_z
 _atom_site_occupancy
  Er  Er0  1  0.340864  0.001248  0.467511  1
  Er  Er1  1  0.495483  0.842520  0.718195  1
  Er  Er2  1  0.503063  0.157904  0.216400  1
  Er  Er3  1  0.842520  0.495483  0.281805  1
  Er  Er4  1  0.157904  0.503063  0.783600  1
  Er  Er5  1  0.656754  0.002560  0.967938  1
  Er  Er6  1  0.001248  0.340864  0.532489  1
  Er  Er7  1  0.002560  0.656754  0.032062  1
  Ta  Ta8  1  0.173024  0.826149  0.248496  1
  Ta  Ta9  1  0.826149  0.173024  0.751504  1
  Ta  Ta10  1  0.670118  0.670118  0.500000  1
  Ta  Ta11  1  0.149595  0.007483  0.875598  1
  Ta  Ta12  1  0.497357  0.654195  0.121785  1
  Ta  Ta13  1  0.503114  0.348380  0.623411  1
  Ta  Ta14  1  0.654195  0.497357  0.878215  1
  Ta  Ta15  1  0.348380  0.503114  0.376589  1
  Ta  Ta16  1  0.848798  0.991486  0.373959  1
  Ta  Ta17  1  0.007483  0.149595  0.124402  1
  Ta  Ta18  1  0.991486  0.848798  0.626041  1
  Si  Si19  1  0.201978  0.136940  0.682623  1
  Si  Si20  1  0.369509  0.715071  0.929200  1
  Si  Si21  1  0.635710  0.293048  0.430383  1
  Si  Si22  1  0.715071  0.369509  0.070800  1
  Si  Si23  1  0.293048  0.635710  0.569617  1
  Si  Si24  1  0.796932  0.864180  0.180973  1
  Si  Si25  1  0.136940  0.201978  0.317377  1
  Si  Si26  1  0.864180  0.796932  0.819027  1
  Si  Si27  1  0.292236  0.948036  0.062846  1
  Si  Si28  1  0.544847  0.793371  0.312741  1
  Si  Si29  1  0.451874  0.208407  0.813597  1
  Si  Si30  1  0.793371  0.544847  0.687259  1
  Si  Si31  1  0.208407  0.451874  0.186403  1
  Si  Si32  1  0.703034  0.045067  0.563938  1
  Si  Si33  1  0.948036  0.292236  0.937154  1
  Si  Si34  1  0.045067  0.703034  0.436062  1
  Pd  Pd35  1  0.329668  0.329668  0.000000  1
