# generated using pymatgen
data_Tm20Ir3Ru5Rh4
_symmetry_space_group_name_H-M   'P 1'
_cell_length_a   10.68832146
_cell_length_b   10.68832137
_cell_length_c   6.33332901
_cell_angle_alpha   89.98629079
_cell_angle_beta   89.98629221
_cell_angle_gamma   90.06224848
_symmetry_Int_Tables_number   1
_chemical_formula_structural   Tm20Ir3Ru5Rh4
_chemical_formula_sum   'Tm20 Ir3 Ru5 Rh4'
_cell_volume   723.52039697
_cell_formula_units_Z   1
loop_
 _symmetry_equiv_pos_site_id
 _symmetry_equiv_pos_as_xyz
  1  'x, y, z'
loop_
 _atom_site_type_symbol
 _atom_site_label
 _atom_site_symmetry_multiplicity
 _atom_site_fract_x
 _atom_site_fract_y
 _atom_site_fract_z
 _atom_site_occupancy
  Tm  Tm0  1  0.294075  0.085728  0.375377  1
  Tm  Tm1  1  0.293233  0.913713  0.877293  1
  Tm  Tm2  1  0.706978  0.086632  0.877283  1
  Tm  Tm3  1  0.706560  0.914384  0.374346  1
  Tm  Tm4  1  0.586288  0.793958  0.877456  1
  Tm  Tm5  1  0.586830  0.206200  0.375496  1
  Tm  Tm6  1  0.414003  0.794004  0.375396  1
  Tm  Tm7  1  0.413574  0.206018  0.876721  1
  Tm  Tm8  1  0.206042  0.413712  0.622544  1
  Tm  Tm9  1  0.205996  0.585997  0.124604  1
  Tm  Tm10  1  0.793800  0.413170  0.124504  1
  Tm  Tm11  1  0.793982  0.586426  0.623279  1
  Tm  Tm12  1  0.914272  0.705925  0.124623  1
  Tm  Tm13  1  0.913368  0.293022  0.622717  1
  Tm  Tm14  1  0.086287  0.706767  0.622707  1
  Tm  Tm15  1  0.085616  0.293440  0.125654  1
  Tm  Tm16  1  0.999549  0.000991  0.498849  1
  Tm  Tm17  1  0.999009  0.000451  0.001151  1
  Tm  Tm18  1  0.500129  0.500120  0.000548  1
  Tm  Tm19  1  0.499880  0.499871  0.499452  1
  Ir  Ir20  1  0.152923  0.847077  0.250000  1
  Ir  Ir21  1  0.652817  0.652478  0.249760  1
  Ir  Ir22  1  0.347522  0.347183  0.250240  1
  Ru  Ru23  1  0.847711  0.152289  0.250000  1
  Ru  Ru24  1  0.500201  0.000291  0.122474  1
  Ru  Ru25  1  0.499958  0.000003  0.623404  1
  Ru  Ru26  1  0.999997  0.500042  0.876596  1
  Ru  Ru27  1  0.999709  0.499799  0.377526  1
  Rh  Rh28  1  0.846880  0.846591  0.749862  1
  Rh  Rh29  1  0.153409  0.153120  0.750138  1
  Rh  Rh30  1  0.652010  0.347990  0.750000  1
  Rh  Rh31  1  0.347394  0.652606  0.750000  1
