# generated using pymatgen
data_EuDy3(Ga2Ag)4
_symmetry_space_group_name_H-M   'P 1'
_cell_length_a   4.39075500
_cell_length_b   7.04418582
_cell_length_c   10.35631156
_cell_angle_alpha   90.53770125
_cell_angle_beta   90.00000000
_cell_angle_gamma   90.00000000
_symmetry_Int_Tables_number   1
_chemical_formula_structural   EuDy3(Ga2Ag)4
_chemical_formula_sum   'Eu1 Dy3 Ga8 Ag4'
_cell_volume   320.29930115
_cell_formula_units_Z   1
loop_
 _symmetry_equiv_pos_site_id
 _symmetry_equiv_pos_as_xyz
  1  'x, y, z'
loop_
 _atom_site_type_symbol
 _atom_site_label
 _atom_site_symmetry_multiplicity
 _atom_site_fract_x
 _atom_site_fract_y
 _atom_site_fract_z
 _atom_site_occupancy
  Eu  Eu0  1  0.250000  0.279347  0.674421  1
  Dy  Dy1  1  0.250000  0.780849  0.828145  1
  Dy  Dy2  1  0.750000  0.220707  0.172718  1
  Dy  Dy3  1  0.750000  0.720232  0.326708  1
  Ga  Ga4  1  0.250000  0.925381  0.155010  1
  Ga  Ga5  1  0.750000  0.070126  0.849254  1
  Ga  Ga6  1  0.750000  0.577787  0.652357  1
  Ga  Ga7  1  0.250000  0.427921  0.343851  1
  Ga  Ga8  1  0.250000  0.706246  0.535000  1
  Ga  Ga9  1  0.750000  0.298929  0.462123  1
  Ga  Ga10  1  0.750000  0.796737  0.037361  1
  Ga  Ga11  1  0.250000  0.197333  0.967125  1
  Ag  Ag12  1  0.250000  0.543220  0.096113  1
  Ag  Ag13  1  0.750000  0.457413  0.905374  1
  Ag  Ag14  1  0.750000  0.954456  0.594650  1
  Ag  Ag15  1  0.250000  0.043316  0.399792  1
