# generated using pymatgen
data_Hf3Zr3Zn22SiPd
_symmetry_space_group_name_H-M   'P 1'
_cell_length_a   8.74965668
_cell_length_b   8.75229205
_cell_length_c   8.75540840
_cell_angle_alpha   59.96831801
_cell_angle_beta   59.99818045
_cell_angle_gamma   60.03351356
_symmetry_Int_Tables_number   1
_chemical_formula_structural   Hf3Zr3Zn22SiPd
_chemical_formula_sum   'Hf3 Zr3 Zn22 Si1 Pd1'
_cell_volume   474.10439519
_cell_formula_units_Z   1
loop_
 _symmetry_equiv_pos_site_id
 _symmetry_equiv_pos_as_xyz
  1  'x, y, z'
loop_
 _atom_site_type_symbol
 _atom_site_label
 _atom_site_symmetry_multiplicity
 _atom_site_fract_x
 _atom_site_fract_y
 _atom_site_fract_z
 _atom_site_occupancy
  Hf  Hf0  1  0.710839  0.289161  0.288793  1
  Hf  Hf1  1  0.288793  0.711207  0.710839  1
  Hf  Hf2  1  0.288714  0.711286  0.288714  1
  Zr  Zr3  1  0.711137  0.288863  0.711137  1
  Zr  Zr4  1  0.288333  0.288702  0.711298  1
  Zr  Zr5  1  0.711298  0.711667  0.288333  1
  Zn  Zn6  1  0.121957  0.121745  0.123412  1
  Zn  Zn7  1  0.878620  0.876971  0.877127  1
  Zn  Zn8  1  0.123029  0.121380  0.632719  1
  Zn  Zn9  1  0.123412  0.632886  0.121957  1
  Zn  Zn10  1  0.878255  0.878043  0.367114  1
  Zn  Zn11  1  0.877127  0.367281  0.878620  1
  Zn  Zn12  1  0.632719  0.122873  0.123029  1
  Zn  Zn13  1  0.367114  0.876588  0.878255  1
  Zn  Zn14  1  0.499486  0.999724  0.000276  1
  Zn  Zn15  1  0.000276  0.500514  0.499486  1
  Zn  Zn16  1  0.999804  0.500196  0.999804  1
  Zn  Zn17  1  0.499804  0.000196  0.499804  1
  Zn  Zn18  1  0.000317  0.999683  0.499503  1
  Zn  Zn19  1  0.499503  0.500497  0.000317  1
  Zn  Zn20  1  0.338172  0.338027  0.336782  1
  Zn  Zn21  1  0.661857  0.663114  0.663220  1
  Zn  Zn22  1  0.336886  0.338143  0.988190  1
  Zn  Zn23  1  0.336782  0.987020  0.338172  1
  Zn  Zn24  1  0.661973  0.661828  0.012980  1
  Zn  Zn25  1  0.663220  0.011810  0.661857  1
  Zn  Zn26  1  0.988190  0.336780  0.336886  1
  Zn  Zn27  1  0.012980  0.663218  0.661973  1
  Si  Si28  1  0.499328  0.500672  0.499328  1
  Pd  Pd29  1  0.000073  0.999927  0.000073  1
