# generated using pymatgen
data_Ho4Tc5Ir2Ru
_symmetry_space_group_name_H-M   'P 1'
_cell_length_a   5.25351510
_cell_length_b   5.17124353
_cell_length_c   9.21978100
_cell_angle_alpha   90.00000000
_cell_angle_beta   90.00000000
_cell_angle_gamma   119.03910220
_symmetry_Int_Tables_number   1
_chemical_formula_structural   Ho4Tc5Ir2Ru
_chemical_formula_sum   'Ho4 Tc5 Ir2 Ru1'
_cell_volume   218.98804971
_cell_formula_units_Z   1
loop_
 _symmetry_equiv_pos_site_id
 _symmetry_equiv_pos_as_xyz
  1  'x, y, z'
loop_
 _atom_site_type_symbol
 _atom_site_label
 _atom_site_symmetry_multiplicity
 _atom_site_fract_x
 _atom_site_fract_y
 _atom_site_fract_z
 _atom_site_occupancy
  Ho  Ho0  1  0.667962  0.333635  0.564549  1
  Ho  Ho1  1  0.330022  0.665115  0.433994  1
  Ho  Ho2  1  0.330022  0.665115  0.066006  1
  Ho  Ho3  1  0.667962  0.333635  0.935451  1
  Tc  Tc4  1  0.170255  0.340574  0.750000  1
  Tc  Tc5  1  0.170543  0.829803  0.750000  1
  Tc  Tc6  1  0.661533  0.831398  0.750000  1
  Tc  Tc7  1  0.835620  0.663584  0.250000  1
  Tc  Tc8  1  0.835133  0.172536  0.250000  1
  Ir  Ir9  1  0.991717  0.995540  0.498538  1
  Ir  Ir10  1  0.991717  0.995540  0.001462  1
  Ru  Ru11  1  0.347515  0.173526  0.250000  1
