# generated using pymatgen
data_Tb2Y2Al4OsPd3
_symmetry_space_group_name_H-M   'P 1'
_cell_length_a   4.37160800
_cell_length_b   6.93577613
_cell_length_c   7.89197303
_cell_angle_alpha   90.00606296
_cell_angle_beta   90.00000000
_cell_angle_gamma   90.00000000
_symmetry_Int_Tables_number   1
_chemical_formula_structural   Tb2Y2Al4OsPd3
_chemical_formula_sum   'Tb2 Y2 Al4 Os1 Pd3'
_cell_volume   239.28852293
_cell_formula_units_Z   1
loop_
 _symmetry_equiv_pos_site_id
 _symmetry_equiv_pos_as_xyz
  1  'x, y, z'
loop_
 _atom_site_type_symbol
 _atom_site_label
 _atom_site_symmetry_multiplicity
 _atom_site_fract_x
 _atom_site_fract_y
 _atom_site_fract_z
 _atom_site_occupancy
  Tb  Tb0  1  0.750000  0.980734  0.678676  1
  Tb  Tb1  1  0.750000  0.464761  0.814889  1
  Y  Y2  1  0.250000  0.034311  0.321398  1
  Y  Y3  1  0.250000  0.529853  0.181195  1
  Al  Al4  1  0.250000  0.146338  0.935338  1
  Al  Al5  1  0.250000  0.638676  0.562176  1
  Al  Al6  1  0.750000  0.855576  0.061338  1
  Al  Al7  1  0.750000  0.353297  0.441647  1
  Os  Os8  1  0.250000  0.269407  0.621190  1
  Pd  Pd9  1  0.250000  0.775292  0.882434  1
  Pd  Pd10  1  0.750000  0.726154  0.379322  1
  Pd  Pd11  1  0.750000  0.225599  0.120398  1
