# generated using pymatgen
data_Eu2ErNbO6
_symmetry_space_group_name_H-M   'P 1'
_cell_length_a   5.75354928
_cell_length_b   5.93347400
_cell_length_c   8.23212804
_cell_angle_alpha   90.00067033
_cell_angle_beta   89.75691575
_cell_angle_gamma   89.99753012
_symmetry_Int_Tables_number   1
_chemical_formula_structural   Eu2ErNbO6
_chemical_formula_sum   'Eu4 Er2 Nb2 O12'
_cell_volume   281.03026241
_cell_formula_units_Z   2
loop_
 _symmetry_equiv_pos_site_id
 _symmetry_equiv_pos_as_xyz
  1  'x, y, z'
loop_
 _atom_site_type_symbol
 _atom_site_label
 _atom_site_symmetry_multiplicity
 _atom_site_fract_x
 _atom_site_fract_y
 _atom_site_fract_z
 _atom_site_occupancy
  Eu  Eu0  1  0.985483  0.947920  0.250881  1
  Eu  Eu1  1  0.514513  0.447899  0.249114  1
  Eu  Eu2  1  0.014510  0.052092  0.749114  1
  Eu  Eu3  1  0.485471  0.552103  0.750888  1
  Er  Er4  1  0.499991  0.000016  0.999981  1
  Er  Er5  1  0.000010  0.499999  0.500023  1
  Nb  Nb6  1  0.500010  0.000046  0.499968  1
  Nb  Nb7  1  0.999990  0.500000  0.000021  1
  O  O8  1  0.309820  0.283677  0.555682  1
  O  O9  1  0.190206  0.783675  0.944310  1
  O  O10  1  0.690186  0.716313  0.444361  1
  O  O11  1  0.809839  0.216306  0.055659  1
  O  O12  1  0.285915  0.305976  0.949586  1
  O  O13  1  0.214088  0.805963  0.550418  1
  O  O14  1  0.714088  0.694035  0.050356  1
  O  O15  1  0.785929  0.194005  0.449629  1
  O  O16  1  0.099776  0.533912  0.237867  1
  O  O17  1  0.400177  0.033901  0.262139  1
  O  O18  1  0.900147  0.466079  0.762098  1
  O  O19  1  0.599851  0.966087  0.737903  1
