# generated using pymatgen
data_ZrUInIrRu
_symmetry_space_group_name_H-M   'P 1'
_cell_length_a   7.57833959
_cell_length_b   7.57833928
_cell_length_c   3.46557700
_cell_angle_alpha   90.00000000
_cell_angle_beta   90.00000000
_cell_angle_gamma   84.38131856
_symmetry_Int_Tables_number   1
_chemical_formula_structural   ZrUInIrRu
_chemical_formula_sum   'Zr2 U2 In2 Ir2 Ru2'
_cell_volume   198.07610012
_cell_formula_units_Z   2
loop_
 _symmetry_equiv_pos_site_id
 _symmetry_equiv_pos_as_xyz
  1  'x, y, z'
loop_
 _atom_site_type_symbol
 _atom_site_label
 _atom_site_symmetry_multiplicity
 _atom_site_fract_x
 _atom_site_fract_y
 _atom_site_fract_z
 _atom_site_occupancy
  Zr  Zr0  1  0.678978  0.178978  0.500000  1
  Zr  Zr1  1  0.321022  0.821022  0.500000  1
  U  U2  1  0.181186  0.318814  0.500000  1
  U  U3  1  0.818814  0.681186  0.500000  1
  In  In4  1  0.500000  0.500000  0.000000  1
  In  In5  1  0.000000  0.000000  0.000000  1
  Ir  Ir6  1  0.124472  0.624472  0.000000  1
  Ir  Ir7  1  0.875528  0.375528  0.000000  1
  Ru  Ru8  1  0.642580  0.857420  0.000000  1
  Ru  Ru9  1  0.357420  0.142580  0.000000  1
