# generated using pymatgen
data_Lu8V10ReSi16Mo
_symmetry_space_group_name_H-M   'P 1'
_cell_length_a   6.59491539
_cell_length_b   6.79375994
_cell_length_c   12.76779700
_cell_angle_alpha   90.00000000
_cell_angle_beta   90.00000000
_cell_angle_gamma   90.02351577
_symmetry_Int_Tables_number   1
_chemical_formula_structural   Lu8V10ReSi16Mo
_chemical_formula_sum   'Lu8 V10 Re1 Si16 Mo1'
_cell_volume   572.05180150
_cell_formula_units_Z   1
loop_
 _symmetry_equiv_pos_site_id
 _symmetry_equiv_pos_as_xyz
  1  'x, y, z'
loop_
 _atom_site_type_symbol
 _atom_site_label
 _atom_site_symmetry_multiplicity
 _atom_site_fract_x
 _atom_site_fract_y
 _atom_site_fract_z
 _atom_site_occupancy
  Lu  Lu0  1  0.498623  0.330503  0.094558  1
  Lu  Lu1  1  0.998656  0.169671  0.405654  1
  Lu  Lu2  1  0.501420  0.669595  0.594827  1
  Lu  Lu3  1  0.002187  0.830590  0.905095  1
  Lu  Lu4  1  0.501420  0.669595  0.905173  1
  Lu  Lu5  1  0.002187  0.830590  0.594905  1
  Lu  Lu6  1  0.498623  0.330503  0.405442  1
  Lu  Lu7  1  0.998656  0.169671  0.094346  1
  V  V8  1  0.835518  0.331310  0.626202  1
  V  V9  1  0.333493  0.169389  0.873780  1
  V  V10  1  0.164908  0.669384  0.125976  1
  V  V11  1  0.664261  0.830209  0.374896  1
  V  V12  1  0.164908  0.669384  0.374024  1
  V  V13  1  0.664261  0.830209  0.125104  1
  V  V14  1  0.835518  0.331310  0.873798  1
  V  V15  1  0.333493  0.169389  0.626220  1
  V  V16  1  0.163278  0.488986  0.750000  1
  V  V17  1  0.336396  0.988045  0.250000  1
  Re  Re18  1  0.664880  0.007439  0.750000  1
  Si  Si19  1  0.662299  0.044492  0.543924  1
  Si  Si20  1  0.162350  0.457536  0.955781  1
  Si  Si21  1  0.337287  0.957095  0.043802  1
  Si  Si22  1  0.837567  0.544183  0.457584  1
  Si  Si23  1  0.337287  0.957095  0.456198  1
  Si  Si24  1  0.837567  0.544183  0.042416  1
  Si  Si25  1  0.662299  0.044492  0.956076  1
  Si  Si26  1  0.162350  0.457536  0.544219  1
  Si  Si27  1  0.536579  0.368616  0.750000  1
  Si  Si28  1  0.036797  0.132663  0.750000  1
  Si  Si29  1  0.461050  0.632541  0.250000  1
  Si  Si30  1  0.964098  0.871155  0.250000  1
  Si  Si31  1  0.804483  0.623718  0.750000  1
  Si  Si32  1  0.302396  0.875125  0.750000  1
  Si  Si33  1  0.200860  0.372905  0.250000  1
  Si  Si34  1  0.696116  0.122309  0.250000  1
  Mo  Mo35  1  0.835930  0.508588  0.250000  1
