# generated using pymatgen
data_NaTbY5RuI12
_symmetry_space_group_name_H-M   'P 1'
_cell_length_a   9.80710263
_cell_length_b   9.80839740
_cell_length_c   9.81011909
_cell_angle_alpha   106.93380389
_cell_angle_beta   106.94564042
_cell_angle_gamma   106.93310232
_symmetry_Int_Tables_number   1
_chemical_formula_structural   NaTbY5RuI12
_chemical_formula_sum   'Na1 Tb1 Y5 Ru1 I12'
_cell_volume   787.22026243
_cell_formula_units_Z   1
loop_
 _symmetry_equiv_pos_site_id
 _symmetry_equiv_pos_as_xyz
  1  'x, y, z'
loop_
 _atom_site_type_symbol
 _atom_site_label
 _atom_site_symmetry_multiplicity
 _atom_site_fract_x
 _atom_site_fract_y
 _atom_site_fract_z
 _atom_site_occupancy
  Na  Na0  1  0.499998  0.500009  0.500008  1
  Tb  Tb1  1  0.302416  0.030035  0.100790  1
  Y  Y2  1  0.899109  0.697366  0.969875  1
  Y  Y3  1  0.969865  0.899137  0.697374  1
  Y  Y4  1  0.697350  0.969885  0.899144  1
  Y  Y5  1  0.100843  0.302629  0.030111  1
  Y  Y6  1  0.030065  0.100864  0.302607  1
  Ru  Ru7  1  0.000252  0.000020  0.000074  1
  I  I8  1  0.626425  0.856897  0.548316  1
  I  I9  1  0.548313  0.626427  0.856892  1
  I  I10  1  0.856888  0.548315  0.626422  1
  I  I11  1  0.373596  0.143157  0.451836  1
  I  I12  1  0.451715  0.373670  0.143107  1
  I  I13  1  0.143106  0.451692  0.373575  1
  I  I14  1  0.683672  0.074529  0.223558  1
  I  I15  1  0.223502  0.683475  0.074504  1
  I  I16  1  0.074512  0.223534  0.683551  1
  I  I17  1  0.316432  0.925442  0.776325  1
  I  I18  1  0.776463  0.316453  0.925481  1
  I  I19  1  0.925478  0.776463  0.316449  1
