# generated using pymatgen
data_Tb3Cd5Rh
_symmetry_space_group_name_H-M   'P 1'
_cell_length_a   8.11775900
_cell_length_b   8.11775880
_cell_length_c   3.78235800
_cell_angle_alpha   90.00000000
_cell_angle_beta   90.00000000
_cell_angle_gamma   120.00000488
_symmetry_Int_Tables_number   1
_chemical_formula_structural   Tb3Cd5Rh
_chemical_formula_sum   'Tb3 Cd5 Rh1'
_cell_volume   215.85670328
_cell_formula_units_Z   1
loop_
 _symmetry_equiv_pos_site_id
 _symmetry_equiv_pos_as_xyz
  1  'x, y, z'
loop_
 _atom_site_type_symbol
 _atom_site_label
 _atom_site_symmetry_multiplicity
 _atom_site_fract_x
 _atom_site_fract_y
 _atom_site_fract_z
 _atom_site_occupancy
  Tb  Tb0  1  0.614484  0.040877  0.000000  1
  Tb  Tb1  1  0.959123  0.573608  0.000000  1
  Tb  Tb2  1  0.426392  0.385516  0.000000  1
  Cd  Cd3  1  0.275022  0.996001  0.500000  1
  Cd  Cd4  1  0.003999  0.279021  0.500000  1
  Cd  Cd5  1  0.720979  0.724978  0.500000  1
  Cd  Cd6  1  0.333333  0.666667  0.500000  1
  Cd  Cd7  1  0.000000  0.000000  0.000000  1
  Rh  Rh8  1  0.666667  0.333333  0.500000  1
