# generated using pymatgen
data_CaLa4Yb3Zn8
_symmetry_space_group_name_H-M   'P 1'
_cell_length_a   7.38692562
_cell_length_b   5.24009500
_cell_length_c   10.49269960
_cell_angle_alpha   90.00000000
_cell_angle_beta   90.01664510
_cell_angle_gamma   90.00000000
_symmetry_Int_Tables_number   1
_chemical_formula_structural   CaLa4Yb3Zn8
_chemical_formula_sum   'Ca1 La4 Yb3 Zn8'
_cell_volume   406.15341380
_cell_formula_units_Z   1
loop_
 _symmetry_equiv_pos_site_id
 _symmetry_equiv_pos_as_xyz
  1  'x, y, z'
loop_
 _atom_site_type_symbol
 _atom_site_label
 _atom_site_symmetry_multiplicity
 _atom_site_fract_x
 _atom_site_fract_y
 _atom_site_fract_z
 _atom_site_occupancy
  Ca  Ca0  1  0.250135  0.750000  0.876158  1
  La  La1  1  0.249694  0.250000  0.124748  1
  La  La2  1  0.749631  0.750000  0.375946  1
  La  La3  1  0.250359  0.250000  0.623514  1
  La  La4  1  0.750308  0.750000  0.875832  1
  Yb  Yb5  1  0.749882  0.250000  0.123851  1
  Yb  Yb6  1  0.249811  0.750000  0.376100  1
  Yb  Yb7  1  0.750188  0.250000  0.623894  1
  Zn  Zn8  1  0.499715  0.750000  0.127593  1
  Zn  Zn9  1  0.999690  0.750000  0.127650  1
  Zn  Zn10  1  0.499871  0.250000  0.372335  1
  Zn  Zn11  1  0.999629  0.250000  0.372397  1
  Zn  Zn12  1  0.000097  0.750000  0.627358  1
  Zn  Zn13  1  0.500397  0.750000  0.627421  1
  Zn  Zn14  1  0.999397  0.250000  0.872575  1
  Zn  Zn15  1  0.501194  0.250000  0.872628  1
