# generated using pymatgen
data_Dy3Er5Re(TcB8)3
_symmetry_space_group_name_H-M   'P 1'
_cell_length_a   3.66797400
_cell_length_b   9.13477089
_cell_length_c   11.51564601
_cell_angle_alpha   90.02252172
_cell_angle_beta   90.00000000
_cell_angle_gamma   90.00000000
_symmetry_Int_Tables_number   1
_chemical_formula_structural   Dy3Er5Re(TcB8)3
_chemical_formula_sum   'Dy3 Er5 Re1 Tc3 B24'
_cell_volume   385.84438131
_cell_formula_units_Z   1
loop_
 _symmetry_equiv_pos_site_id
 _symmetry_equiv_pos_as_xyz
  1  'x, y, z'
loop_
 _atom_site_type_symbol
 _atom_site_label
 _atom_site_symmetry_multiplicity
 _atom_site_fract_x
 _atom_site_fract_y
 _atom_site_fract_z
 _atom_site_occupancy
  Dy  Dy0  1  0.000000  0.323743  0.414103  1
  Dy  Dy1  1  0.000000  0.676454  0.585933  1
  Dy  Dy2  1  0.000000  0.823672  0.085978  1
  Er  Er3  1  0.000000  0.176486  0.914242  1
  Er  Er4  1  0.000000  0.942861  0.369110  1
  Er  Er5  1  0.000000  0.057801  0.630014  1
  Er  Er6  1  0.000000  0.442654  0.130599  1
  Er  Er7  1  0.000000  0.556115  0.869789  1
  Re  Re8  1  0.000000  0.861534  0.820496  1
  Tc  Tc9  1  0.000000  0.639093  0.320095  1
  Tc  Tc10  1  0.000000  0.360706  0.680183  1
  Tc  Tc11  1  0.000000  0.139089  0.179494  1
  B  B12  1  0.500000  0.553599  0.432736  1
  B  B13  1  0.500000  0.446450  0.567443  1
  B  B14  1  0.500000  0.053757  0.066948  1
  B  B15  1  0.500000  0.947082  0.932981  1
  B  B16  1  0.500000  0.749613  0.418348  1
  B  B17  1  0.500000  0.250628  0.581743  1
  B  B18  1  0.500000  0.249436  0.081040  1
  B  B19  1  0.500000  0.750243  0.918509  1
  B  B20  1  0.500000  0.792160  0.265161  1
  B  B21  1  0.500000  0.207611  0.735084  1
  B  B22  1  0.500000  0.292099  0.234639  1
  B  B23  1  0.500000  0.707595  0.765360  1
  B  B24  1  0.500000  0.630367  0.185306  1
  B  B25  1  0.500000  0.368980  0.815040  1
  B  B26  1  0.500000  0.130512  0.314559  1
  B  B27  1  0.500000  0.869878  0.685302  1
  B  B28  1  0.500000  0.982290  0.211771  1
  B  B29  1  0.500000  0.018677  0.788124  1
  B  B30  1  0.500000  0.482089  0.287982  1
  B  B31  1  0.500000  0.517617  0.712221  1
  B  B32  1  0.500000  0.598982  0.027709  1
  B  B33  1  0.500000  0.399847  0.972322  1
  B  B34  1  0.500000  0.099258  0.472120  1
  B  B35  1  0.500000  0.901022  0.527517  1
