# generated using pymatgen
data_YZr2Al6ZnAg2
_symmetry_space_group_name_H-M   'P 1'
_cell_length_a   9.12248057
_cell_length_b   9.12248195
_cell_length_c   9.12248075
_cell_angle_alpha   34.47933291
_cell_angle_beta   34.47931983
_cell_angle_gamma   34.47931984
_symmetry_Int_Tables_number   1
_chemical_formula_structural   YZr2Al6ZnAg2
_chemical_formula_sum   'Y1 Zr2 Al6 Zn1 Ag2'
_cell_volume   217.04430849
_cell_formula_units_Z   1
loop_
 _symmetry_equiv_pos_site_id
 _symmetry_equiv_pos_as_xyz
  1  'x, y, z'
loop_
 _atom_site_type_symbol
 _atom_site_label
 _atom_site_symmetry_multiplicity
 _atom_site_fract_x
 _atom_site_fract_y
 _atom_site_fract_z
 _atom_site_occupancy
  Y  Y0  1  0.000000  0.000000  0.000000  1
  Zr  Zr1  1  0.856287  0.856287  0.856287  1
  Zr  Zr2  1  0.143713  0.143713  0.143713  1
  Al  Al3  1  0.409425  0.409425  0.918152  1
  Al  Al4  1  0.918152  0.409425  0.409425  1
  Al  Al5  1  0.409425  0.918152  0.409425  1
  Al  Al6  1  0.590575  0.081848  0.590575  1
  Al  Al7  1  0.081848  0.590575  0.590575  1
  Al  Al8  1  0.590575  0.590575  0.081848  1
  Zn  Zn9  1  0.500000  0.500000  0.500000  1
  Ag  Ag10  1  0.665337  0.665337  0.665337  1
  Ag  Ag11  1  0.334663  0.334663  0.334663  1
