# generated using pymatgen
data_Lu12AlSi4Hg
_symmetry_space_group_name_H-M   'P 1'
_cell_length_a   8.19393645
_cell_length_b   8.19393458
_cell_length_c   8.19393600
_cell_angle_alpha   111.03894879
_cell_angle_beta   111.52832258
_cell_angle_gamma   105.90460180
_symmetry_Int_Tables_number   1
_chemical_formula_structural   Lu12AlSi4Hg
_chemical_formula_sum   'Lu12 Al1 Si4 Hg1'
_cell_volume   422.27310061
_cell_formula_units_Z   1
loop_
 _symmetry_equiv_pos_site_id
 _symmetry_equiv_pos_as_xyz
  1  'x, y, z'
loop_
 _atom_site_type_symbol
 _atom_site_label
 _atom_site_symmetry_multiplicity
 _atom_site_fract_x
 _atom_site_fract_y
 _atom_site_fract_z
 _atom_site_occupancy
  Lu  Lu0  1  0.950901  0.254337  0.696564  1
  Lu  Lu1  1  0.049099  0.745663  0.303436  1
  Lu  Lu2  1  0.677759  0.881470  0.203710  1
  Lu  Lu3  1  0.322241  0.525952  0.203710  1
  Lu  Lu4  1  0.322241  0.118530  0.796290  1
  Lu  Lu5  1  0.677759  0.474048  0.796290  1
  Lu  Lu6  1  0.557773  0.254337  0.303436  1
  Lu  Lu7  1  0.442227  0.745663  0.696564  1
  Lu  Lu8  1  0.179234  0.769439  0.948672  1
  Lu  Lu9  1  0.820766  0.769439  0.590206  1
  Lu  Lu10  1  0.179234  0.230561  0.409794  1
  Lu  Lu11  1  0.820766  0.230561  0.051328  1
  Al  Al12  1  0.000000  0.500000  0.500000  1
  Si  Si13  1  0.119567  0.119567  0.000000  1
  Si  Si14  1  0.880433  0.880433  0.000000  1
  Si  Si15  1  0.641581  0.500000  0.141581  1
  Si  Si16  1  0.358419  0.500000  0.858419  1
  Hg  Hg17  1  0.500000  0.000000  0.500000  1
