# generated using pymatgen
data_Er2TmIn3AgRh2
_symmetry_space_group_name_H-M   'P 1'
_cell_length_a   7.76313894
_cell_length_b   7.76621225
_cell_length_c   3.77732900
_cell_angle_alpha   90.00000000
_cell_angle_beta   90.00000000
_cell_angle_gamma   120.04316804
_symmetry_Int_Tables_number   1
_chemical_formula_structural   Er2TmIn3AgRh2
_chemical_formula_sum   'Er2 Tm1 In3 Ag1 Rh2'
_cell_volume   197.13919606
_cell_formula_units_Z   1
loop_
 _symmetry_equiv_pos_site_id
 _symmetry_equiv_pos_as_xyz
  1  'x, y, z'
loop_
 _atom_site_type_symbol
 _atom_site_label
 _atom_site_symmetry_multiplicity
 _atom_site_fract_x
 _atom_site_fract_y
 _atom_site_fract_z
 _atom_site_occupancy
  Er  Er0  1  0.971664  0.382316  0.500000  1
  Er  Er1  1  0.617560  0.588978  0.500000  1
  Tm  Tm2  1  0.410703  0.029263  0.500000  1
  In  In3  1  0.259367  0.264047  0.000000  1
  In  In4  1  0.005134  0.740740  0.000000  1
  In  In5  1  0.735499  0.995046  0.000000  1
  Ag  Ag6  1  0.333532  0.667157  0.000000  1
  Rh  Rh7  1  0.000598  0.999978  0.500000  1
  Rh  Rh8  1  0.665943  0.332475  0.000000  1
