# generated using pymatgen
data_Sm2U6AlS17
_symmetry_space_group_name_H-M   'P 1'
_cell_length_a   7.78952579
_cell_length_b   7.78952476
_cell_length_c   10.40064600
_cell_angle_alpha   80.23766410
_cell_angle_beta   80.23765793
_cell_angle_gamma   65.15117747
_symmetry_Int_Tables_number   1
_chemical_formula_structural   Sm2U6AlS17
_chemical_formula_sum   'Sm2 U6 Al1 S17'
_cell_volume   560.93904872
_cell_formula_units_Z   1
loop_
 _symmetry_equiv_pos_site_id
 _symmetry_equiv_pos_as_xyz
  1  'x, y, z'
loop_
 _atom_site_type_symbol
 _atom_site_label
 _atom_site_symmetry_multiplicity
 _atom_site_fract_x
 _atom_site_fract_y
 _atom_site_fract_z
 _atom_site_occupancy
  Sm  Sm0  1  0.816351  0.308215  0.298358  1
  Sm  Sm1  1  0.308215  0.816351  0.298358  1
  U  U2  1  0.178848  0.695343  0.701742  1
  U  U3  1  0.695343  0.178848  0.701742  1
  U  U4  1  0.201659  0.201659  0.542887  1
  U  U5  1  0.794776  0.794776  0.455915  1
  U  U6  1  0.677988  0.677988  0.983060  1
  U  U7  1  0.320770  0.320770  0.017265  1
  Al  Al8  1  0.001159  0.001159  0.002806  1
  S  S9  1  0.820542  0.432876  0.542715  1
  S  S10  1  0.432876  0.820542  0.542715  1
  S  S11  1  0.173516  0.566374  0.470467  1
  S  S12  1  0.566374  0.173516  0.470467  1
  S  S13  1  0.949321  0.323973  0.020911  1
  S  S14  1  0.323973  0.949321  0.020911  1
  S  S15  1  0.055860  0.679490  0.968376  1
  S  S16  1  0.679490  0.055860  0.968376  1
  S  S17  1  0.219607  0.219607  0.279428  1
  S  S18  1  0.784733  0.784733  0.721993  1
  S  S19  1  0.054203  0.054203  0.774581  1
  S  S20  1  0.944199  0.944199  0.227725  1
  S  S21  1  0.300258  0.300258  0.755417  1
  S  S22  1  0.705066  0.705066  0.239328  1
  S  S23  1  0.519089  0.519089  0.827791  1
  S  S24  1  0.479787  0.479787  0.157455  1
  S  S25  1  0.995998  0.995998  0.509210  1
