# generated using pymatgen
data_Dy5Er11CdHg3Ir4
_symmetry_space_group_name_H-M   'P 1'
_cell_length_a   9.55697886
_cell_length_b   9.55462289
_cell_length_c   9.55462343
_cell_angle_alpha   59.93998980
_cell_angle_beta   59.93590392
_cell_angle_gamma   59.93590840
_symmetry_Int_Tables_number   1
_chemical_formula_structural   Dy5Er11CdHg3Ir4
_chemical_formula_sum   'Dy5 Er11 Cd1 Hg3 Ir4'
_cell_volume   616.04774057
_cell_formula_units_Z   1
loop_
 _symmetry_equiv_pos_site_id
 _symmetry_equiv_pos_as_xyz
  1  'x, y, z'
loop_
 _atom_site_type_symbol
 _atom_site_label
 _atom_site_symmetry_multiplicity
 _atom_site_fract_x
 _atom_site_fract_y
 _atom_site_fract_z
 _atom_site_occupancy
  Dy  Dy0  1  0.810492  0.188904  0.188904  1
  Dy  Dy1  1  0.811300  0.189084  0.811487  1
  Dy  Dy2  1  0.187836  0.811053  0.189064  1
  Dy  Dy3  1  0.811300  0.811487  0.189084  1
  Dy  Dy4  1  0.187836  0.189064  0.811053  1
  Er  Er5  1  0.599670  0.599402  0.599402  1
  Er  Er6  1  0.600663  0.600408  0.200305  1
  Er  Er7  1  0.600663  0.200305  0.600408  1
  Er  Er8  1  0.197456  0.601379  0.601379  1
  Er  Er9  1  0.059367  0.439870  0.439870  1
  Er  Er10  1  0.437639  0.060876  0.060876  1
  Er  Er11  1  0.438623  0.060081  0.439767  1
  Er  Er12  1  0.060076  0.439014  0.060051  1
  Er  Er13  1  0.438623  0.439767  0.060081  1
  Er  Er14  1  0.060076  0.060051  0.439014  1
  Er  Er15  1  0.188430  0.811231  0.811231  1
  Cd  Cd16  1  0.509434  0.829988  0.829988  1
  Hg  Hg17  1  0.833733  0.834878  0.834878  1
  Hg  Hg18  1  0.833517  0.835337  0.495839  1
  Hg  Hg19  1  0.833517  0.495839  0.835337  1
  Ir  Ir20  1  0.391577  0.392234  0.392234  1
  Ir  Ir21  1  0.391842  0.393096  0.824249  1
  Ir  Ir22  1  0.391842  0.824249  0.393096  1
  Ir  Ir23  1  0.824490  0.392403  0.392403  1
