# generated using pymatgen
data_Sr6TaRh4O15
_symmetry_space_group_name_H-M   'P 1'
_cell_length_a   7.18938389
_cell_length_b   7.18938378
_cell_length_c   7.18938423
_cell_angle_alpha   85.29145482
_cell_angle_beta   85.29144912
_cell_angle_gamma   85.29146072
_symmetry_Int_Tables_number   1
_chemical_formula_structural   Sr6TaRh4O15
_chemical_formula_sum   'Sr6 Ta1 Rh4 O15'
_cell_volume   368.03192217
_cell_formula_units_Z   1
loop_
 _symmetry_equiv_pos_site_id
 _symmetry_equiv_pos_as_xyz
  1  'x, y, z'
loop_
 _atom_site_type_symbol
 _atom_site_label
 _atom_site_symmetry_multiplicity
 _atom_site_fract_x
 _atom_site_fract_y
 _atom_site_fract_z
 _atom_site_occupancy
  Sr  Sr0  1  0.319791  0.680209  0.000000  1
  Sr  Sr1  1  0.680209  0.000000  0.319791  1
  Sr  Sr2  1  0.000000  0.319791  0.680209  1
  Sr  Sr3  1  0.133855  0.866145  0.500000  1
  Sr  Sr4  1  0.866145  0.500000  0.133855  1
  Sr  Sr5  1  0.500000  0.133855  0.866145  1
  Ta  Ta6  1  0.500000  0.500000  0.500000  1
  Rh  Rh7  1  0.902617  0.902617  0.902617  1
  Rh  Rh8  1  0.097383  0.097383  0.097383  1
  Rh  Rh9  1  0.702046  0.702046  0.702046  1
  Rh  Rh10  1  0.297954  0.297954  0.297954  1
  O  O11  1  0.258789  0.570170  0.375850  1
  O  O12  1  0.375850  0.258789  0.570170  1
  O  O13  1  0.570170  0.375850  0.258789  1
  O  O14  1  0.741211  0.624150  0.429830  1
  O  O15  1  0.429830  0.741211  0.624150  1
  O  O16  1  0.624150  0.429830  0.741211  1
  O  O17  1  0.000000  0.836104  0.163896  1
  O  O18  1  0.163896  0.000000  0.836104  1
  O  O19  1  0.836104  0.163896  0.000000  1
  O  O20  1  0.352654  0.027189  0.209463  1
  O  O21  1  0.209463  0.352654  0.027189  1
  O  O22  1  0.790537  0.972811  0.647346  1
  O  O23  1  0.972811  0.647346  0.790537  1
  O  O24  1  0.647346  0.790537  0.972811  1
  O  O25  1  0.027189  0.209463  0.352654  1
