# generated using pymatgen
data_Li2AcLaSi2Pb
_symmetry_space_group_name_H-M   'P 1'
_cell_length_a   10.14802512
_cell_length_b   10.14802329
_cell_length_c   7.05351300
_cell_angle_alpha   90.00000000
_cell_angle_beta   90.00000000
_cell_angle_gamma   152.92989657
_symmetry_Int_Tables_number   1
_chemical_formula_structural   Li2AcLaSi2Pb
_chemical_formula_sum   'Li4 Ac2 La2 Si4 Pb2'
_cell_volume   330.56474334
_cell_formula_units_Z   2
loop_
 _symmetry_equiv_pos_site_id
 _symmetry_equiv_pos_as_xyz
  1  'x, y, z'
loop_
 _atom_site_type_symbol
 _atom_site_label
 _atom_site_symmetry_multiplicity
 _atom_site_fract_x
 _atom_site_fract_y
 _atom_site_fract_z
 _atom_site_occupancy
  Li  Li0  1  0.180964  0.819036  0.058918  1
  Li  Li1  1  0.180964  0.819036  0.441082  1
  Li  Li2  1  0.819036  0.180964  0.941082  1
  Li  Li3  1  0.819036  0.180964  0.558918  1
  Ac  Ac4  1  0.347986  0.652014  0.250000  1
  Ac  Ac5  1  0.652014  0.347986  0.750000  1
  La  La6  1  0.546559  0.453441  0.250000  1
  La  La7  1  0.453441  0.546559  0.750000  1
  Si  Si8  1  0.054358  0.945642  0.923913  1
  Si  Si9  1  0.945642  0.054358  0.076087  1
  Si  Si10  1  0.945642  0.054358  0.423913  1
  Si  Si11  1  0.054358  0.945642  0.576087  1
  Pb  Pb12  1  0.716407  0.283593  0.250000  1
  Pb  Pb13  1  0.283593  0.716407  0.750000  1
