# generated using pymatgen
data_Ce2MnIr3
_symmetry_space_group_name_H-M   'P 1'
_cell_length_a   5.19670570
_cell_length_b   5.19670571
_cell_length_c   5.19670455
_cell_angle_alpha   64.33689388
_cell_angle_beta   64.33689237
_cell_angle_gamma   64.33688985
_symmetry_Int_Tables_number   1
_chemical_formula_structural   Ce2MnIr3
_chemical_formula_sum   'Ce2 Mn1 Ir3'
_cell_volume   108.68788253
_cell_formula_units_Z   1
loop_
 _symmetry_equiv_pos_site_id
 _symmetry_equiv_pos_as_xyz
  1  'x, y, z'
loop_
 _atom_site_type_symbol
 _atom_site_label
 _atom_site_symmetry_multiplicity
 _atom_site_fract_x
 _atom_site_fract_y
 _atom_site_fract_z
 _atom_site_occupancy
  Ce  Ce0  1  0.624186  0.624186  0.624186  1
  Ce  Ce1  1  0.375814  0.375814  0.375814  1
  Mn  Mn2  1  0.000000  0.000000  0.000000  1
  Ir  Ir3  1  0.000000  0.500000  0.000000  1
  Ir  Ir4  1  0.500000  0.000000  0.000000  1
  Ir  Ir5  1  0.000000  0.000000  0.500000  1
