# generated using pymatgen
data_CaYbNi2F10
_symmetry_space_group_name_H-M   'P 1'
_cell_length_a   5.49559043
_cell_length_b   5.49558967
_cell_length_c   7.62042034
_cell_angle_alpha   70.01737718
_cell_angle_beta   70.01737754
_cell_angle_gamma   71.23170111
_symmetry_Int_Tables_number   1
_chemical_formula_structural   CaYbNi2F10
_chemical_formula_sum   'Ca1 Yb1 Ni2 F10'
_cell_volume   197.72185426
_cell_formula_units_Z   1
loop_
 _symmetry_equiv_pos_site_id
 _symmetry_equiv_pos_as_xyz
  1  'x, y, z'
loop_
 _atom_site_type_symbol
 _atom_site_label
 _atom_site_symmetry_multiplicity
 _atom_site_fract_x
 _atom_site_fract_y
 _atom_site_fract_z
 _atom_site_occupancy
  Ca  Ca0  1  0.452837  0.547163  0.750000  1
  Yb  Yb1  1  0.550351  0.449649  0.250000  1
  Ni  Ni2  1  0.002024  0.001237  0.497724  1
  Ni  Ni3  1  0.998763  0.997976  0.002276  1
  F  F4  1  0.083249  0.916751  0.750000  1
  F  F5  1  0.912480  0.087520  0.250000  1
  F  F6  1  0.211767  0.240468  0.887137  1
  F  F7  1  0.759532  0.788233  0.612863  1
  F  F8  1  0.713443  0.305821  0.526726  1
  F  F9  1  0.694179  0.286557  0.973274  1
  F  F10  1  0.287634  0.696877  0.463137  1
  F  F11  1  0.303123  0.712366  0.036863  1
  F  F12  1  0.245211  0.214592  0.384719  1
  F  F13  1  0.785408  0.754789  0.115281  1
