# generated using pymatgen
data_Pa5SiS4
_symmetry_space_group_name_H-M   'P 1'
_cell_length_a   6.81532587
_cell_length_b   6.81532608
_cell_length_c   6.81532618
_cell_angle_alpha   99.62063771
_cell_angle_beta   99.62063568
_cell_angle_gamma   131.74005959
_symmetry_Int_Tables_number   1
_chemical_formula_structural   Pa5SiS4
_chemical_formula_sum   'Pa5 Si1 S4'
_cell_volume   215.57062979
_cell_formula_units_Z   1
loop_
 _symmetry_equiv_pos_site_id
 _symmetry_equiv_pos_as_xyz
  1  'x, y, z'
loop_
 _atom_site_type_symbol
 _atom_site_label
 _atom_site_symmetry_multiplicity
 _atom_site_fract_x
 _atom_site_fract_y
 _atom_site_fract_z
 _atom_site_occupancy
  Pa  Pa0  1  0.398758  0.804635  0.203392  1
  Pa  Pa1  1  0.000000  0.000000  0.000000  1
  Pa  Pa2  1  0.601242  0.195365  0.796608  1
  Pa  Pa3  1  0.195365  0.398758  0.594123  1
  Pa  Pa4  1  0.804635  0.601242  0.405877  1
  Si  Si5  1  0.500000  0.500000  0.000000  1
  S  S6  1  0.102930  0.701200  0.804129  1
  S  S7  1  0.701200  0.897070  0.598271  1
  S  S8  1  0.298800  0.102930  0.401729  1
  S  S9  1  0.897070  0.298800  0.195871  1
