# generated using pymatgen
data_Y12Ga8Ir5Rh3
_symmetry_space_group_name_H-M   'P 1'
_cell_length_a   5.60151009
_cell_length_b   7.80789638
_cell_length_c   13.66580282
_cell_angle_alpha   89.96704788
_cell_angle_beta   90.02250923
_cell_angle_gamma   90.32831235
_symmetry_Int_Tables_number   1
_chemical_formula_structural   Y12Ga8Ir5Rh3
_chemical_formula_sum   'Y12 Ga8 Ir5 Rh3'
_cell_volume   597.67773722
_cell_formula_units_Z   1
loop_
 _symmetry_equiv_pos_site_id
 _symmetry_equiv_pos_as_xyz
  1  'x, y, z'
loop_
 _atom_site_type_symbol
 _atom_site_label
 _atom_site_symmetry_multiplicity
 _atom_site_fract_x
 _atom_site_fract_y
 _atom_site_fract_z
 _atom_site_occupancy
  Y  Y0  1  0.625212  0.261318  0.251407  1
  Y  Y1  1  0.374069  0.740335  0.749773  1
  Y  Y2  1  0.373710  0.765247  0.250980  1
  Y  Y3  1  0.628255  0.232771  0.750069  1
  Y  Y4  1  0.153836  0.397933  0.097297  1
  Y  Y5  1  0.846316  0.602052  0.902577  1
  Y  Y6  1  0.845950  0.602755  0.597391  1
  Y  Y7  1  0.848472  0.898225  0.402525  1
  Y  Y8  1  0.151934  0.399220  0.402355  1
  Y  Y9  1  0.150594  0.099346  0.597695  1
  Y  Y10  1  0.150162  0.099656  0.902260  1
  Y  Y11  1  0.849953  0.900732  0.097958  1
  Ga  Ga12  1  0.122091  0.108816  0.249910  1
  Ga  Ga13  1  0.878180  0.890103  0.750101  1
  Ga  Ga14  1  0.875719  0.607699  0.249059  1
  Ga  Ga15  1  0.126044  0.391833  0.749806  1
  Ga  Ga16  1  0.644439  0.250767  0.999096  1
  Ga  Ga17  1  0.355228  0.749057  0.001293  1
  Ga  Ga18  1  0.356456  0.749431  0.499121  1
  Ga  Ga19  1  0.643517  0.250853  0.500501  1
  Ir  Ir20  1  0.357919  0.040040  0.094188  1
  Ir  Ir21  1  0.641732  0.959756  0.905780  1
  Ir  Ir22  1  0.641691  0.961566  0.594655  1
  Ir  Ir23  1  0.644046  0.536860  0.405149  1
  Ir  Ir24  1  0.356337  0.040096  0.405619  1
  Rh  Rh25  1  0.358429  0.463333  0.593828  1
  Rh  Rh26  1  0.358083  0.463880  0.905808  1
  Rh  Rh27  1  0.641626  0.536321  0.093799  1
