# generated using pymatgen
data_PaCuGeH
_symmetry_space_group_name_H-M   'P 1'
_cell_length_a   4.09812600
_cell_length_b   4.09811581
_cell_length_c   8.25690000
_cell_angle_alpha   90.00000297
_cell_angle_beta   89.99949036
_cell_angle_gamma   60.00031050
_symmetry_Int_Tables_number   1
_chemical_formula_structural   PaCuGeH
_chemical_formula_sum   'Pa2 Cu2 Ge2 H2'
_cell_volume   120.09323646
_cell_formula_units_Z   2
loop_
 _symmetry_equiv_pos_site_id
 _symmetry_equiv_pos_as_xyz
  1  'x, y, z'
loop_
 _atom_site_type_symbol
 _atom_site_label
 _atom_site_symmetry_multiplicity
 _atom_site_fract_x
 _atom_site_fract_y
 _atom_site_fract_z
 _atom_site_occupancy
  Pa  Pa0  1  0.000000  0.000000  0.500000  1
  Pa  Pa1  1  0.000000  0.000000  0.000000  1
  Cu  Cu2  1  0.333332  0.333334  0.752086  1
  Cu  Cu3  1  0.666668  0.666666  0.247914  1
  Ge  Ge4  1  0.333334  0.333333  0.277921  1
  Ge  Ge5  1  0.666666  0.666667  0.722079  1
  H  H6  1  0.333338  0.333331  0.963424  1
  H  H7  1  0.666662  0.666669  0.036576  1
