# generated using pymatgen
data_Ca2CdGaPt2
_symmetry_space_group_name_H-M   'P 1'
_cell_length_a   4.38616400
_cell_length_b   7.29511711
_cell_length_c   8.14429838
_cell_angle_alpha   87.16461248
_cell_angle_beta   90.00000000
_cell_angle_gamma   90.00000000
_symmetry_Int_Tables_number   1
_chemical_formula_structural   Ca2CdGaPt2
_chemical_formula_sum   'Ca4 Cd2 Ga2 Pt4'
_cell_volume   260.27880887
_cell_formula_units_Z   2
loop_
 _symmetry_equiv_pos_site_id
 _symmetry_equiv_pos_as_xyz
  1  'x, y, z'
loop_
 _atom_site_type_symbol
 _atom_site_label
 _atom_site_symmetry_multiplicity
 _atom_site_fract_x
 _atom_site_fract_y
 _atom_site_fract_z
 _atom_site_occupancy
  Ca  Ca0  1  0.750000  0.976380  0.677910  1
  Ca  Ca1  1  0.250000  0.023620  0.322090  1
  Ca  Ca2  1  0.750000  0.477056  0.810757  1
  Ca  Ca3  1  0.250000  0.522944  0.189243  1
  Cd  Cd4  1  0.750000  0.849373  0.071200  1
  Cd  Cd5  1  0.250000  0.150627  0.928800  1
  Ga  Ga6  1  0.750000  0.343592  0.433129  1
  Ga  Ga7  1  0.250000  0.656408  0.566871  1
  Pt  Pt8  1  0.750000  0.708373  0.407280  1
  Pt  Pt9  1  0.250000  0.291627  0.592720  1
  Pt  Pt10  1  0.750000  0.239453  0.137528  1
  Pt  Pt11  1  0.250000  0.760547  0.862472  1
