# generated using pymatgen
data_Y5Ho15Si15Pt
_symmetry_space_group_name_H-M   'P 1'
_cell_length_a   7.37320292
_cell_length_b   7.70861015
_cell_length_c   14.56959762
_cell_angle_alpha   89.97185493
_cell_angle_beta   90.01807632
_cell_angle_gamma   90.01738424
_symmetry_Int_Tables_number   1
_chemical_formula_structural   Y5Ho15Si15Pt
_chemical_formula_sum   'Y5 Ho15 Si15 Pt1'
_cell_volume   828.09418098
_cell_formula_units_Z   1
loop_
 _symmetry_equiv_pos_site_id
 _symmetry_equiv_pos_as_xyz
  1  'x, y, z'
loop_
 _atom_site_type_symbol
 _atom_site_label
 _atom_site_symmetry_multiplicity
 _atom_site_fract_x
 _atom_site_fract_y
 _atom_site_fract_z
 _atom_site_occupancy
  Y  Y0  1  0.973514  0.182138  0.402597  1
  Y  Y1  1  0.473881  0.316527  0.402628  1
  Y  Y2  1  0.973735  0.182026  0.097080  1
  Y  Y3  1  0.524182  0.681349  0.906619  1
  Y  Y4  1  0.026298  0.818137  0.595163  1
  Ho  Ho5  1  0.678925  0.179654  0.623462  1
  Ho  Ho6  1  0.187592  0.324007  0.876349  1
  Ho  Ho7  1  0.317954  0.820034  0.123443  1
  Ho  Ho8  1  0.816971  0.677352  0.375990  1
  Ho  Ho9  1  0.318302  0.819896  0.376578  1
  Ho  Ho10  1  0.817126  0.677687  0.123477  1
  Ho  Ho11  1  0.678899  0.179726  0.876966  1
  Ho  Ho12  1  0.187764  0.324188  0.623618  1
  Ho  Ho13  1  0.524468  0.680716  0.594599  1
  Ho  Ho14  1  0.027245  0.817379  0.904112  1
  Ho  Ho15  1  0.472922  0.315729  0.097791  1
  Ho  Ho16  1  0.843842  0.509493  0.750120  1
  Ho  Ho17  1  0.355936  0.984524  0.749996  1
  Ho  Ho18  1  0.148515  0.486302  0.249857  1
  Ho  Ho19  1  0.648713  0.012399  0.249850  1
  Si  Si20  1  0.647516  0.969851  0.459727  1
  Si  Si21  1  0.147905  0.529056  0.039844  1
  Si  Si22  1  0.350177  0.027515  0.960762  1
  Si  Si23  1  0.851838  0.471648  0.539774  1
  Si  Si24  1  0.351723  0.026533  0.539769  1
  Si  Si25  1  0.853506  0.471840  0.959947  1
  Si  Si26  1  0.646420  0.971505  0.040900  1
  Si  Si27  1  0.146626  0.529039  0.459875  1
  Si  Si28  1  0.980233  0.103866  0.750316  1
  Si  Si29  1  0.520805  0.604226  0.249702  1
  Si  Si30  1  0.020893  0.893011  0.249817  1
  Si  Si31  1  0.740791  0.876009  0.749989  1
  Si  Si32  1  0.228085  0.632306  0.750378  1
  Si  Si33  1  0.268177  0.127541  0.249585  1
  Si  Si34  1  0.767129  0.372045  0.249596  1
  Pt  Pt35  1  0.481388  0.404747  0.749725  1
