# generated using pymatgen
data_Sr2Li14Rh3
_symmetry_space_group_name_H-M   'P 1'
_cell_length_a   7.06809610
_cell_length_b   7.06809509
_cell_length_c   7.06809600
_cell_angle_alpha   82.96119723
_cell_angle_beta   97.03877726
_cell_angle_gamma   97.03880148
_symmetry_Int_Tables_number   1
_chemical_formula_structural   Sr2Li14Rh3
_chemical_formula_sum   'Sr2 Li14 Rh3'
_cell_volume   345.72678551
_cell_formula_units_Z   1
loop_
 _symmetry_equiv_pos_site_id
 _symmetry_equiv_pos_as_xyz
  1  'x, y, z'
loop_
 _atom_site_type_symbol
 _atom_site_label
 _atom_site_symmetry_multiplicity
 _atom_site_fract_x
 _atom_site_fract_y
 _atom_site_fract_z
 _atom_site_occupancy
  Sr  Sr0  1  0.678240  0.321759  0.321760  1
  Sr  Sr1  1  0.321759  0.678240  0.678240  1
  Li  Li2  1  0.283009  0.283009  0.000000  1
  Li  Li3  1  0.716991  0.716991  0.000000  1
  Li  Li4  1  0.900674  0.099324  0.099325  1
  Li  Li5  1  0.336819  0.663182  0.135647  1
  Li  Li6  1  0.000000  0.716991  0.283008  1
  Li  Li7  1  0.283009  0.000000  0.283009  1
  Li  Li8  1  0.663182  0.864353  0.336817  1
  Li  Li9  1  0.135647  0.336818  0.336819  1
  Li  Li10  1  0.864353  0.663182  0.663181  1
  Li  Li11  1  0.336818  0.135646  0.663182  1
  Li  Li12  1  0.000000  0.283009  0.716990  1
  Li  Li13  1  0.716991  0.000000  0.716991  1
  Li  Li14  1  0.663182  0.336818  0.864353  1
  Li  Li15  1  0.099324  0.900676  0.900675  1
  Rh  Rh16  1  0.500000  0.000000  0.000000  1
  Rh  Rh17  1  0.000000  0.499999  0.000000  1
  Rh  Rh18  1  0.000000  0.000000  0.500000  1
