# generated using pymatgen
data_Tm4Cd2PdPt3
_symmetry_space_group_name_H-M   'P 1'
_cell_length_a   7.75407961
_cell_length_b   7.75407961
_cell_length_c   3.59382800
_cell_angle_alpha   90.00000000
_cell_angle_beta   90.00000000
_cell_angle_gamma   89.95467517
_symmetry_Int_Tables_number   1
_chemical_formula_structural   Tm4Cd2PdPt3
_chemical_formula_sum   'Tm4 Cd2 Pd1 Pt3'
_cell_volume   216.08153822
_cell_formula_units_Z   1
loop_
 _symmetry_equiv_pos_site_id
 _symmetry_equiv_pos_as_xyz
  1  'x, y, z'
loop_
 _atom_site_type_symbol
 _atom_site_label
 _atom_site_symmetry_multiplicity
 _atom_site_fract_x
 _atom_site_fract_y
 _atom_site_fract_z
 _atom_site_occupancy
  Tm  Tm0  1  0.670850  0.165249  0.500000  1
  Tm  Tm1  1  0.334751  0.829150  0.500000  1
  Tm  Tm2  1  0.163263  0.336737  0.500000  1
  Tm  Tm3  1  0.832036  0.667964  0.500000  1
  Cd  Cd4  1  0.002271  0.999602  0.000000  1
  Cd  Cd5  1  0.500398  0.497729  0.000000  1
  Pd  Pd6  1  0.366803  0.133197  0.000000  1
  Pt  Pt7  1  0.132243  0.632096  0.000000  1
  Pt  Pt8  1  0.867904  0.367757  0.000000  1
  Pt  Pt9  1  0.629481  0.870519  0.000000  1
