# generated using pymatgen
data_RbSc2(CoH6)2
_symmetry_space_group_name_H-M   'P 1'
_cell_length_a   4.56940200
_cell_length_b   4.56940318
_cell_length_c   8.88317300
_cell_angle_alpha   90.00000000
_cell_angle_beta   90.00000000
_cell_angle_gamma   120.00000592
_symmetry_Int_Tables_number   1
_chemical_formula_structural   RbSc2(CoH6)2
_chemical_formula_sum   'Rb1 Sc2 Co2 H12'
_cell_volume   160.62663937
_cell_formula_units_Z   1
loop_
 _symmetry_equiv_pos_site_id
 _symmetry_equiv_pos_as_xyz
  1  'x, y, z'
loop_
 _atom_site_type_symbol
 _atom_site_label
 _atom_site_symmetry_multiplicity
 _atom_site_fract_x
 _atom_site_fract_y
 _atom_site_fract_z
 _atom_site_occupancy
  Rb  Rb0  1  0.000000  0.000000  0.000000  1
  Sc  Sc1  1  0.666667  0.333333  0.379198  1
  Sc  Sc2  1  0.333333  0.666667  0.620802  1
  Co  Co3  1  0.666667  0.333333  0.692243  1
  Co  Co4  1  0.333333  0.666667  0.307757  1
  H  H5  1  0.168891  0.831109  0.403734  1
  H  H6  1  0.662219  0.831109  0.403734  1
  H  H7  1  0.168891  0.337781  0.403734  1
  H  H8  1  0.831109  0.168891  0.596266  1
  H  H9  1  0.337781  0.168891  0.596266  1
  H  H10  1  0.831109  0.662219  0.596266  1
  H  H11  1  0.509136  0.018270  0.796934  1
  H  H12  1  0.509136  0.490864  0.796934  1
  H  H13  1  0.981730  0.490864  0.796934  1
  H  H14  1  0.490864  0.981730  0.203066  1
  H  H15  1  0.490864  0.509136  0.203066  1
  H  H16  1  0.018270  0.509136  0.203066  1
