# generated using pymatgen
data_CaDy3Ir4F28
_symmetry_space_group_name_H-M   'P 1'
_cell_length_a   5.57995698
_cell_length_b   8.92945112
_cell_length_c   12.02971373
_cell_angle_alpha   62.73279703
_cell_angle_beta   90.04857528
_cell_angle_gamma   89.90764073
_symmetry_Int_Tables_number   1
_chemical_formula_structural   CaDy3Ir4F28
_chemical_formula_sum   'Ca1 Dy3 Ir4 F28'
_cell_volume   532.78575358
_cell_formula_units_Z   1
loop_
 _symmetry_equiv_pos_site_id
 _symmetry_equiv_pos_as_xyz
  1  'x, y, z'
loop_
 _atom_site_type_symbol
 _atom_site_label
 _atom_site_symmetry_multiplicity
 _atom_site_fract_x
 _atom_site_fract_y
 _atom_site_fract_z
 _atom_site_occupancy
  Ca  Ca0  1  0.762818  0.820767  0.764324  1
  Dy  Dy1  1  0.264518  0.182773  0.734929  1
  Dy  Dy2  1  0.238717  0.186130  0.235053  1
  Dy  Dy3  1  0.739219  0.814615  0.265701  1
  Ir  Ir4  1  0.757789  0.271952  0.956968  1
  Ir  Ir5  1  0.257134  0.725344  0.542806  1
  Ir  Ir6  1  0.240303  0.724531  0.046763  1
  Ir  Ir7  1  0.741464  0.275713  0.453607  1
  F  F8  1  0.432769  0.700666  0.923618  1
  F  F9  1  0.937406  0.297995  0.579326  1
  F  F10  1  0.558961  0.291411  0.084450  1
  F  F11  1  0.059267  0.705712  0.415144  1
  F  F12  1  0.444905  0.282224  0.540423  1
  F  F13  1  0.947815  0.715617  0.963846  1
  F  F14  1  0.554564  0.721387  0.454696  1
  F  F15  1  0.054818  0.275811  0.046122  1
  F  F16  1  0.769914  0.512150  0.862639  1
  F  F17  1  0.270003  0.480189  0.638675  1
  F  F18  1  0.230066  0.478341  0.143638  1
  F  F19  1  0.728433  0.520389  0.358725  1
  F  F20  1  0.755645  0.027503  0.051806  1
  F  F21  1  0.255891  0.971402  0.447792  1
  F  F22  1  0.241913  0.969297  0.953622  1
  F  F23  1  0.745282  0.035418  0.542135  1
  F  F24  1  0.969450  0.725645  0.631162  1
  F  F25  1  0.466391  0.271226  0.865912  1
  F  F26  1  0.031520  0.272678  0.361048  1
  F  F27  1  0.530228  0.729407  0.138820  1
  F  F28  1  0.047602  0.746476  0.175617  1
  F  F29  1  0.548001  0.255703  0.324143  1
  F  F30  1  0.953594  0.252227  0.828700  1
  F  F31  1  0.448395  0.742788  0.669925  1
  F  F32  1  0.417846  0.970930  0.232168  1
  F  F33  1  0.917682  0.028675  0.267727  1
  F  F34  1  0.585300  0.040778  0.768982  1
  F  F35  1  0.094375  0.976128  0.728986  1
