# generated using pymatgen
data_Y3Er9Co4BiOs
_symmetry_space_group_name_H-M   'P 1'
_cell_length_a   8.28487464
_cell_length_b   8.28487374
_cell_length_c   8.27441064
_cell_angle_alpha   110.50511343
_cell_angle_beta   111.25727414
_cell_angle_gamma   106.74142497
_symmetry_Int_Tables_number   1
_chemical_formula_structural   Y3Er9Co4BiOs
_chemical_formula_sum   'Y3 Er9 Co4 Bi1 Os1'
_cell_volume   436.14188674
_cell_formula_units_Z   1
loop_
 _symmetry_equiv_pos_site_id
 _symmetry_equiv_pos_as_xyz
  1  'x, y, z'
loop_
 _atom_site_type_symbol
 _atom_site_label
 _atom_site_symmetry_multiplicity
 _atom_site_fract_x
 _atom_site_fract_y
 _atom_site_fract_z
 _atom_site_occupancy
  Y  Y0  1  0.282862  0.183337  0.466200  1
  Y  Y1  1  0.717402  0.817081  0.534484  1
  Y  Y2  1  0.283342  0.816972  0.100313  1
  Er  Er3  1  0.718226  0.180971  0.899195  1
  Er  Er4  1  0.621927  0.311471  0.309142  1
  Er  Er5  1  0.378655  0.688770  0.690281  1
  Er  Er6  1  0.001512  0.311626  0.690281  1
  Er  Er7  1  0.997669  0.687215  0.309142  1
  Er  Er8  1  0.212210  0.408491  0.195298  1
  Er  Er9  1  0.786753  0.589823  0.803874  1
  Er  Er10  1  0.214049  0.017122  0.803874  1
  Er  Er11  1  0.786807  0.983087  0.195298  1
  Co  Co12  1  0.999508  0.375678  0.375186  1
  Co  Co13  1  0.999631  0.624220  0.623851  1
  Co  Co14  1  0.389634  0.890751  0.502866  1
  Co  Co15  1  0.612114  0.113232  0.502866  1
  Bi  Bi16  1  0.499719  0.500312  0.000031  1
  Os  Os17  1  0.997979  0.999841  0.997820  1
