# generated using pymatgen
data_Li2Lu3AgPb3
_symmetry_space_group_name_H-M   'P 1'
_cell_length_a   7.30271300
_cell_length_b   7.27262185
_cell_length_c   4.60001000
_cell_angle_alpha   90.00000000
_cell_angle_beta   90.00000000
_cell_angle_gamma   120.13696058
_symmetry_Int_Tables_number   1
_chemical_formula_structural   Li2Lu3AgPb3
_chemical_formula_sum   'Li2 Lu3 Ag1 Pb3'
_cell_volume   211.28254452
_cell_formula_units_Z   1
loop_
 _symmetry_equiv_pos_site_id
 _symmetry_equiv_pos_as_xyz
  1  'x, y, z'
loop_
 _atom_site_type_symbol
 _atom_site_label
 _atom_site_symmetry_multiplicity
 _atom_site_fract_x
 _atom_site_fract_y
 _atom_site_fract_z
 _atom_site_occupancy
  Li  Li0  1  0.771331  0.767912  0.000000  1
  Li  Li1  1  0.003419  0.232088  0.000000  1
  Lu  Lu2  1  0.548539  0.000000  0.500000  1
  Lu  Lu3  1  0.435226  0.430925  0.500000  1
  Lu  Lu4  1  0.004301  0.569075  0.500000  1
  Ag  Ag5  1  0.237016  0.000000  0.000000  1
  Pb  Pb6  1  0.984075  0.000000  0.500000  1
  Pb  Pb7  1  0.336445  0.656796  0.000000  1
  Pb  Pb8  1  0.679650  0.343204  0.000000  1
