# generated using pymatgen
data_Ca8Mg3Hg3Au20
_symmetry_space_group_name_H-M   'P 1'
_cell_length_a   8.59978070
_cell_length_b   8.59978139
_cell_length_c   10.21806300
_cell_angle_alpha   90.10949109
_cell_angle_beta   89.89050890
_cell_angle_gamma   107.95975170
_symmetry_Int_Tables_number   1
_chemical_formula_structural   Ca8Mg3Hg3Au20
_chemical_formula_sum   'Ca8 Mg3 Hg3 Au20'
_cell_volume   718.86524035
_cell_formula_units_Z   1
loop_
 _symmetry_equiv_pos_site_id
 _symmetry_equiv_pos_as_xyz
  1  'x, y, z'
loop_
 _atom_site_type_symbol
 _atom_site_label
 _atom_site_symmetry_multiplicity
 _atom_site_fract_x
 _atom_site_fract_y
 _atom_site_fract_z
 _atom_site_occupancy
  Ca  Ca0  1  0.702019  0.306125  0.994941  1
  Ca  Ca1  1  0.299383  0.695614  0.996531  1
  Ca  Ca2  1  0.806125  0.202019  0.505059  1
  Ca  Ca3  1  0.195614  0.799383  0.503469  1
  Ca  Ca4  1  0.301151  0.306564  0.200497  1
  Ca  Ca5  1  0.696853  0.697628  0.801417  1
  Ca  Ca6  1  0.197628  0.196853  0.698583  1
  Ca  Ca7  1  0.806564  0.801151  0.299503  1
  Mg  Mg8  1  0.520801  0.020801  0.250000  1
  Mg  Mg9  1  0.003436  0.002628  0.006251  1
  Mg  Mg10  1  0.502628  0.503436  0.493749  1
  Hg  Hg11  1  0.022852  0.522852  0.250000  1
  Hg  Hg12  1  0.977595  0.477595  0.750000  1
  Hg  Hg13  1  0.474558  0.974558  0.750000  1
  Au  Au14  1  0.097292  0.097191  0.401698  1
  Au  Au15  1  0.899005  0.900893  0.596322  1
  Au  Au16  1  0.400893  0.399005  0.903678  1
  Au  Au17  1  0.597191  0.597292  0.098302  1
  Au  Au18  1  0.875387  0.163355  0.207271  1
  Au  Au19  1  0.106013  0.837891  0.800282  1
  Au  Au20  1  0.602395  0.334903  0.699016  1
  Au  Au21  1  0.663355  0.375387  0.292729  1
  Au  Au22  1  0.392344  0.678272  0.293022  1
  Au  Au23  1  0.337891  0.606013  0.699718  1
  Au  Au24  1  0.834903  0.102395  0.800984  1
  Au  Au25  1  0.178272  0.892344  0.206978  1
  Au  Au26  1  0.931449  0.664569  0.021886  1
  Au  Au27  1  0.067311  0.336595  0.982135  1
  Au  Au28  1  0.567959  0.851455  0.510203  1
  Au  Au29  1  0.164569  0.431449  0.478114  1
  Au  Au30  1  0.433888  0.154629  0.473202  1
  Au  Au31  1  0.836595  0.567311  0.517865  1
  Au  Au32  1  0.351455  0.067959  0.989797  1
  Au  Au33  1  0.654629  0.933888  0.026798  1
