# generated using pymatgen
data_Zr6Be14AlCo8
_symmetry_space_group_name_H-M   'P 1'
_cell_length_a   7.86129956
_cell_length_b   7.86129958
_cell_length_c   7.86130000
_cell_angle_alpha   59.99999824
_cell_angle_beta   59.99999815
_cell_angle_gamma   59.99999642
_symmetry_Int_Tables_number   1
_chemical_formula_structural   Zr6Be14AlCo8
_chemical_formula_sum   'Zr6 Be14 Al1 Co8'
_cell_volume   343.53266705
_cell_formula_units_Z   1
loop_
 _symmetry_equiv_pos_site_id
 _symmetry_equiv_pos_as_xyz
  1  'x, y, z'
loop_
 _atom_site_type_symbol
 _atom_site_label
 _atom_site_symmetry_multiplicity
 _atom_site_fract_x
 _atom_site_fract_y
 _atom_site_fract_z
 _atom_site_occupancy
  Zr  Zr0  1  0.714895  0.285105  0.285105  1
  Zr  Zr1  1  0.285105  0.714895  0.714895  1
  Zr  Zr2  1  0.285105  0.714895  0.285105  1
  Zr  Zr3  1  0.714895  0.285105  0.714895  1
  Zr  Zr4  1  0.285105  0.285105  0.714895  1
  Zr  Zr5  1  0.714895  0.714895  0.285105  1
  Be  Be6  1  0.321425  0.321425  0.321425  1
  Be  Be7  1  0.678575  0.678575  0.678575  1
  Be  Be8  1  0.321425  0.321425  0.035723  1
  Be  Be9  1  0.321425  0.035723  0.321425  1
  Be  Be10  1  0.678575  0.678575  0.964277  1
  Be  Be11  1  0.678575  0.964277  0.678575  1
  Be  Be12  1  0.035723  0.321425  0.321425  1
  Be  Be13  1  0.964277  0.678575  0.678575  1
  Be  Be14  1  0.500000  0.000000  0.000000  1
  Be  Be15  1  0.000000  0.500000  0.500000  1
  Be  Be16  1  0.000000  0.500000  0.000000  1
  Be  Be17  1  0.500000  0.000000  0.500000  1
  Be  Be18  1  0.000000  0.000000  0.500000  1
  Be  Be19  1  0.500000  0.500000  0.000000  1
  Al  Al20  1  0.000000  0.000000  0.000000  1
  Co  Co21  1  0.128143  0.128143  0.128143  1
  Co  Co22  1  0.871857  0.871857  0.871857  1
  Co  Co23  1  0.128143  0.128143  0.615573  1
  Co  Co24  1  0.128143  0.615573  0.128143  1
  Co  Co25  1  0.871857  0.871857  0.384427  1
  Co  Co26  1  0.871857  0.384427  0.871857  1
  Co  Co27  1  0.615573  0.128143  0.128143  1
  Co  Co28  1  0.384427  0.871857  0.871857  1
