# generated using pymatgen
data_Tm5P12Ir13Ru6
_symmetry_space_group_name_H-M   'P 1'
_cell_length_a   12.59415313
_cell_length_b   12.58766586
_cell_length_c   3.96052500
_cell_angle_alpha   90.00000000
_cell_angle_beta   90.00000000
_cell_angle_gamma   119.69503054
_symmetry_Int_Tables_number   1
_chemical_formula_structural   Tm5P12Ir13Ru6
_chemical_formula_sum   'Tm5 P12 Ir13 Ru6'
_cell_volume   545.41113427
_cell_formula_units_Z   1
loop_
 _symmetry_equiv_pos_site_id
 _symmetry_equiv_pos_as_xyz
  1  'x, y, z'
loop_
 _atom_site_type_symbol
 _atom_site_label
 _atom_site_symmetry_multiplicity
 _atom_site_fract_x
 _atom_site_fract_y
 _atom_site_fract_z
 _atom_site_occupancy
  Tm  Tm0  1  0.668222  0.333755  0.000000  1
  Tm  Tm1  1  0.332799  0.665179  0.000000  1
  Tm  Tm2  1  0.817508  0.001668  0.500000  1
  Tm  Tm3  1  0.182164  0.183531  0.500000  1
  Tm  Tm4  1  0.999307  0.816526  0.500000  1
  P  P5  1  0.645054  0.004562  0.000000  1
  P  P6  1  0.362658  0.362337  0.000000  1
  P  P7  1  0.999465  0.637271  0.000000  1
  P  P8  1  0.688090  0.519209  0.500000  1
  P  P9  1  0.829829  0.308631  0.500000  1
  P  P10  1  0.309257  0.828430  0.500000  1
  P  P11  1  0.518878  0.686502  0.500000  1
  P  P12  1  0.180952  0.000802  0.000000  1
  P  P13  1  0.819931  0.820770  0.000000  1
  P  P14  1  0.997299  0.180262  0.000000  1
  P  P15  1  0.481333  0.170879  0.500000  1
  P  P16  1  0.168107  0.480740  0.500000  1
  Ir  Ir17  1  0.625770  0.808753  0.000000  1
  Ir  Ir18  1  0.182273  0.374528  0.000000  1
  Ir  Ir19  1  0.376494  0.182225  0.000000  1
  Ir  Ir20  1  0.193240  0.817815  0.000000  1
  Ir  Ir21  1  0.806109  0.624746  0.000000  1
  Ir  Ir22  1  0.867209  0.505524  0.500000  1
  Ir  Ir23  1  0.493070  0.362705  0.500000  1
  Ir  Ir24  1  0.637232  0.129937  0.500000  1
  Ir  Ir25  1  0.129770  0.638218  0.500000  1
  Ir  Ir26  1  0.359987  0.492465  0.500000  1
  Ir  Ir27  1  0.503694  0.864051  0.500000  1
  Ir  Ir28  1  0.000398  0.000032  0.000000  1
  Ir  Ir29  1  0.458095  0.997315  0.000000  1
  Ru  Ru30  1  0.713997  0.714326  0.500000  1
  Ru  Ru31  1  0.001729  0.287833  0.500000  1
  Ru  Ru32  1  0.543926  0.546700  0.000000  1
  Ru  Ru33  1  0.000936  0.454683  0.000000  1
  Ru  Ru34  1  0.819224  0.196894  0.000000  1
  Ru  Ru35  1  0.285994  0.000200  0.500000  1
