# generated using pymatgen
data_HoCuNi3Au
_symmetry_space_group_name_H-M   'P 1'
_cell_length_a   4.94850968
_cell_length_b   4.94850937
_cell_length_c   4.94826500
_cell_angle_alpha   59.99835989
_cell_angle_beta   59.99836523
_cell_angle_gamma   60.00000420
_symmetry_Int_Tables_number   1
_chemical_formula_structural   HoCuNi3Au
_chemical_formula_sum   'Ho1 Cu1 Ni3 Au1'
_cell_volume   85.67932524
_cell_formula_units_Z   1
loop_
 _symmetry_equiv_pos_site_id
 _symmetry_equiv_pos_as_xyz
  1  'x, y, z'
loop_
 _atom_site_type_symbol
 _atom_site_label
 _atom_site_symmetry_multiplicity
 _atom_site_fract_x
 _atom_site_fract_y
 _atom_site_fract_z
 _atom_site_occupancy
  Ho  Ho0  1  0.000439  0.000439  0.998683  1
  Cu  Cu1  1  0.624427  0.624427  0.126720  1
  Ni  Ni2  1  0.624383  0.126509  0.624725  1
  Ni  Ni3  1  0.126509  0.624383  0.624725  1
  Ni  Ni4  1  0.624383  0.624383  0.624725  1
  Au  Au5  1  0.249859  0.249859  0.250423  1
