# generated using pymatgen
data_Nd2Lu3HgPb3
_symmetry_space_group_name_H-M   'P 1'
_cell_length_a   7.97249200
_cell_length_b   8.45152300
_cell_length_c   15.73835500
_cell_angle_alpha   90.00000000
_cell_angle_beta   90.00000000
_cell_angle_gamma   90.00000000
_symmetry_Int_Tables_number   1
_chemical_formula_structural   Nd2Lu3HgPb3
_chemical_formula_sum   'Nd8 Lu12 Hg4 Pb12'
_cell_volume   1060.44563061
_cell_formula_units_Z   4
loop_
 _symmetry_equiv_pos_site_id
 _symmetry_equiv_pos_as_xyz
  1  'x, y, z'
loop_
 _atom_site_type_symbol
 _atom_site_label
 _atom_site_symmetry_multiplicity
 _atom_site_fract_x
 _atom_site_fract_y
 _atom_site_fract_z
 _atom_site_occupancy
  Nd  Nd0  1  0.489097  0.683215  0.593461  1
  Nd  Nd1  1  0.989097  0.816785  0.906539  1
  Nd  Nd2  1  0.510903  0.316785  0.093461  1
  Nd  Nd3  1  0.010903  0.183215  0.406539  1
  Nd  Nd4  1  0.510903  0.316785  0.406539  1
  Nd  Nd5  1  0.010903  0.183215  0.093461  1
  Nd  Nd6  1  0.489097  0.683215  0.906539  1
  Nd  Nd7  1  0.989097  0.816785  0.593461  1
  Lu  Lu8  1  0.653170  0.165726  0.627187  1
  Lu  Lu9  1  0.153170  0.334274  0.872813  1
  Lu  Lu10  1  0.346830  0.834274  0.127187  1
  Lu  Lu11  1  0.846830  0.665726  0.372813  1
  Lu  Lu12  1  0.346830  0.834274  0.372813  1
  Lu  Lu13  1  0.846830  0.665726  0.127187  1
  Lu  Lu14  1  0.653170  0.165726  0.872813  1
  Lu  Lu15  1  0.153170  0.334274  0.627187  1
  Lu  Lu16  1  0.805857  0.495537  0.750000  1
  Lu  Lu17  1  0.305857  0.004463  0.750000  1
  Lu  Lu18  1  0.194143  0.504463  0.250000  1
  Lu  Lu19  1  0.694143  0.995537  0.250000  1
  Hg  Hg20  1  0.452788  0.371876  0.750000  1
  Hg  Hg21  1  0.952788  0.128124  0.750000  1
  Hg  Hg22  1  0.547212  0.628124  0.250000  1
  Hg  Hg23  1  0.047212  0.871876  0.250000  1
  Pb  Pb24  1  0.692922  0.960802  0.458579  1
  Pb  Pb25  1  0.192922  0.539198  0.041421  1
  Pb  Pb26  1  0.307078  0.039198  0.958579  1
  Pb  Pb27  1  0.807078  0.460802  0.541421  1
  Pb  Pb28  1  0.307078  0.039198  0.541421  1
  Pb  Pb29  1  0.807078  0.460802  0.958579  1
  Pb  Pb30  1  0.692922  0.960802  0.041421  1
  Pb  Pb31  1  0.192922  0.539198  0.458579  1
  Pb  Pb32  1  0.686508  0.859384  0.750000  1
  Pb  Pb33  1  0.186508  0.640616  0.750000  1
  Pb  Pb34  1  0.313492  0.140616  0.250000  1
  Pb  Pb35  1  0.813492  0.359384  0.250000  1
