# generated using pymatgen
data_Yb4ErTm3(B6Os)4
_symmetry_space_group_name_H-M   'P 1'
_cell_length_a   3.62436100
_cell_length_b   9.11749800
_cell_length_c   11.50302200
_cell_angle_alpha   89.99929444
_cell_angle_beta   90.00000000
_cell_angle_gamma   90.00000000
_symmetry_Int_Tables_number   1
_chemical_formula_structural   Yb4ErTm3(B6Os)4
_chemical_formula_sum   'Yb4 Er1 Tm3 B24 Os4'
_cell_volume   380.11856023
_cell_formula_units_Z   1
loop_
 _symmetry_equiv_pos_site_id
 _symmetry_equiv_pos_as_xyz
  1  'x, y, z'
loop_
 _atom_site_type_symbol
 _atom_site_label
 _atom_site_symmetry_multiplicity
 _atom_site_fract_x
 _atom_site_fract_y
 _atom_site_fract_z
 _atom_site_occupancy
  Yb  Yb0  1  0.000000  0.324272  0.414760  1
  Yb  Yb1  1  0.000000  0.675692  0.585291  1
  Yb  Yb2  1  0.000000  0.824217  0.085190  1
  Yb  Yb3  1  0.000000  0.175783  0.914713  1
  Er  Er4  1  0.000000  0.942383  0.367989  1
  Tm  Tm5  1  0.000000  0.057845  0.632461  1
  Tm  Tm6  1  0.000000  0.442244  0.132106  1
  Tm  Tm7  1  0.000000  0.557763  0.867770  1
  B  B8  1  0.500000  0.553559  0.433012  1
  B  B9  1  0.500000  0.446202  0.567061  1
  B  B10  1  0.500000  0.053791  0.066880  1
  B  B11  1  0.500000  0.946241  0.932951  1
  B  B12  1  0.500000  0.748493  0.417332  1
  B  B13  1  0.500000  0.251069  0.582659  1
  B  B14  1  0.500000  0.249065  0.082523  1
  B  B15  1  0.500000  0.751035  0.917379  1
  B  B16  1  0.500000  0.791151  0.264255  1
  B  B17  1  0.500000  0.208553  0.735695  1
  B  B18  1  0.500000  0.291690  0.235591  1
  B  B19  1  0.500000  0.708493  0.764353  1
  B  B20  1  0.500000  0.630573  0.185354  1
  B  B21  1  0.500000  0.369291  0.814557  1
  B  B22  1  0.500000  0.131016  0.314320  1
  B  B23  1  0.500000  0.869264  0.685511  1
  B  B24  1  0.500000  0.982971  0.211060  1
  B  B25  1  0.500000  0.017233  0.788746  1
  B  B26  1  0.500000  0.482594  0.288637  1
  B  B27  1  0.500000  0.517265  0.711300  1
  B  B28  1  0.500000  0.596019  0.026436  1
  B  B29  1  0.500000  0.403995  0.973499  1
  B  B30  1  0.500000  0.096479  0.473850  1
  B  B31  1  0.500000  0.903909  0.526923  1
  Os  Os32  1  0.000000  0.638987  0.319798  1
  Os  Os33  1  0.000000  0.360655  0.680273  1
  Os  Os34  1  0.000000  0.139655  0.179895  1
  Os  Os35  1  0.000000  0.860551  0.819873  1
