# generated using pymatgen
data_Ho5Er(Tm3Os2)2
_symmetry_space_group_name_H-M   'P 1'
_cell_length_a   7.37257700
_cell_length_b   8.93430549
_cell_length_c   6.26601711
_cell_angle_alpha   89.91063537
_cell_angle_beta   89.94552505
_cell_angle_gamma   89.99366920
_symmetry_Int_Tables_number   1
_chemical_formula_structural   Ho5Er(Tm3Os2)2
_chemical_formula_sum   'Ho5 Er1 Tm6 Os4'
_cell_volume   412.73468276
_cell_formula_units_Z   1
loop_
 _symmetry_equiv_pos_site_id
 _symmetry_equiv_pos_as_xyz
  1  'x, y, z'
loop_
 _atom_site_type_symbol
 _atom_site_label
 _atom_site_symmetry_multiplicity
 _atom_site_fract_x
 _atom_site_fract_y
 _atom_site_fract_z
 _atom_site_occupancy
  Ho  Ho0  1  0.039952  0.250326  0.630506  1
  Ho  Ho1  1  0.959765  0.749671  0.369864  1
  Ho  Ho2  1  0.460065  0.749669  0.130231  1
  Ho  Ho3  1  0.540233  0.250224  0.869478  1
  Ho  Ho4  1  0.174924  0.062694  0.167089  1
  Er  Er5  1  0.825026  0.936977  0.832715  1
  Tm  Tm6  1  0.325569  0.936915  0.666846  1
  Tm  Tm7  1  0.825383  0.562805  0.832997  1
  Tm  Tm8  1  0.674555  0.062903  0.333253  1
  Tm  Tm9  1  0.174522  0.437570  0.166981  1
  Tm  Tm10  1  0.674627  0.437144  0.333094  1
  Tm  Tm11  1  0.325435  0.562843  0.666935  1
  Os  Os12  1  0.383287  0.250390  0.459984  1
  Os  Os13  1  0.617071  0.750031  0.540501  1
  Os  Os14  1  0.117128  0.749424  0.959088  1
  Os  Os15  1  0.882458  0.250412  0.040437  1
