# generated using pymatgen
data_Li14TaNbAs8
_symmetry_space_group_name_H-M   'P 1'
_cell_length_a   7.43325341
_cell_length_b   7.43325424
_cell_length_c   12.14311144
_cell_angle_alpha   65.84193432
_cell_angle_beta   65.84194215
_cell_angle_gamma   48.74806726
_symmetry_Int_Tables_number   1
_chemical_formula_structural   Li14TaNbAs8
_chemical_formula_sum   'Li14 Ta1 Nb1 As8'
_cell_volume   450.64730627
_cell_formula_units_Z   1
loop_
 _symmetry_equiv_pos_site_id
 _symmetry_equiv_pos_as_xyz
  1  'x, y, z'
loop_
 _atom_site_type_symbol
 _atom_site_label
 _atom_site_symmetry_multiplicity
 _atom_site_fract_x
 _atom_site_fract_y
 _atom_site_fract_z
 _atom_site_occupancy
  Li  Li0  1  0.516550  0.984133  0.876015  1
  Li  Li1  1  0.755936  0.244064  0.750000  1
  Li  Li2  1  0.007333  0.474811  0.878113  1
  Li  Li3  1  0.015867  0.483450  0.623985  1
  Li  Li4  1  0.250319  0.749496  0.492539  1
  Li  Li5  1  0.525189  0.992667  0.621887  1
  Li  Li6  1  0.474912  0.007313  0.378135  1
  Li  Li7  1  0.749688  0.250504  0.507462  1
  Li  Li8  1  0.984028  0.516587  0.376092  1
  Li  Li9  1  0.250504  0.749681  0.007461  1
  Li  Li10  1  0.992687  0.525088  0.121865  1
  Li  Li11  1  0.483413  0.015972  0.123908  1
  Li  Li12  1  0.244069  0.755931  0.250000  1
  Li  Li13  1  0.749496  0.250312  0.992538  1
  Ta  Ta14  1  0.256490  0.743510  0.750000  1
  Nb  Nb15  1  0.743554  0.256446  0.250000  1
  As  As16  1  0.367216  0.392168  0.928294  1
  As  As17  1  0.905958  0.853319  0.691793  1
  As  As18  1  0.146681  0.094042  0.808207  1
  As  As19  1  0.391235  0.367451  0.428796  1
  As  As20  1  0.607832  0.632784  0.571706  1
  As  As21  1  0.853521  0.905026  0.191636  1
  As  As22  1  0.094974  0.146479  0.308364  1
  As  As23  1  0.632549  0.608765  0.071204  1
