# generated using pymatgen
data_Ba14YSb11
_symmetry_space_group_name_H-M   'P 1'
_cell_length_a   18.40572001
_cell_length_b   18.40571999
_cell_length_c   18.40572000
_cell_angle_alpha   117.88730924
_cell_angle_beta   117.88730920
_cell_angle_gamma   93.69997815
_symmetry_Int_Tables_number   1
_chemical_formula_structural   Ba14YSb11
_chemical_formula_sum   'Ba56 Y4 Sb44'
_cell_volume   4539.58965907
_cell_formula_units_Z   4
loop_
 _symmetry_equiv_pos_site_id
 _symmetry_equiv_pos_as_xyz
  1  'x, y, z'
loop_
 _atom_site_type_symbol
 _atom_site_label
 _atom_site_symmetry_multiplicity
 _atom_site_fract_x
 _atom_site_fract_y
 _atom_site_fract_z
 _atom_site_occupancy
  Ba  Ba0  1  0.625949  0.287884  0.977684  1
  Ba  Ba1  1  0.898264  0.060203  0.522316  1
  Ba  Ba2  1  0.129764  0.497750  0.721603  1
  Ba  Ba3  1  0.658164  0.526149  0.778398  1
  Ba  Ba4  1  0.398264  0.875949  0.838063  1
  Ba  Ba5  1  0.810200  0.787884  0.661935  1
  Ba  Ba6  1  0.037887  0.560203  0.161939  1
  Ba  Ba7  1  0.125948  0.148266  0.338061  1
  Ba  Ba8  1  0.893708  0.739909  0.895557  1
  Ba  Ba9  1  0.158160  0.379760  0.132013  1
  Ba  Ba10  1  0.248144  0.594352  0.604441  1
  Ba  Ba11  1  0.276147  0.997750  0.367986  1
  Ba  Ba12  1  0.760092  0.606296  0.104444  1
  Ba  Ba13  1  0.310205  0.648266  0.022318  1
  Ba  Ba14  1  0.905650  0.251850  0.395558  1
  Ba  Ba15  1  0.247751  0.026149  0.867985  1
  Ba  Ba16  1  0.979780  0.875000  0.604780  1
  Ba  Ba17  1  0.537886  0.375949  0.477684  1
  Ba  Ba18  1  0.629760  0.908159  0.632012  1
  Ba  Ba19  1  0.625000  0.020220  0.895220  1
  Ba  Ba20  1  0.489910  0.094352  0.346207  1
  Ba  Ba21  1  0.393708  0.498150  0.153800  1
  Ba  Ba22  1  0.625000  0.520220  0.395220  1
  Ba  Ba23  1  0.479781  0.875000  0.104781  1
  Ba  Ba24  1  0.748148  0.143704  0.653796  1
  Ba  Ba25  1  0.002253  0.370240  0.278400  1
  Ba  Ba26  1  0.776147  0.408159  0.278399  1
  Ba  Ba27  1  0.344352  0.239909  0.846201  1
  Ba  Ba28  1  0.405648  0.010091  0.653799  1
  Ba  Ba29  1  0.973853  0.841841  0.221601  1
  Ba  Ba30  1  0.747747  0.879760  0.221600  1
  Ba  Ba31  1  0.001852  0.106296  0.846204  1
  Ba  Ba32  1  0.270219  0.375000  0.395219  1
  Ba  Ba33  1  0.125000  0.729780  0.104780  1
  Ba  Ba34  1  0.356292  0.751850  0.346200  1
  Ba  Ba35  1  0.260090  0.155648  0.153793  1
  Ba  Ba36  1  0.125000  0.229780  0.604780  1
  Ba  Ba37  1  0.120240  0.341841  0.867988  1
  Ba  Ba38  1  0.212114  0.874051  0.022316  1
  Ba  Ba39  1  0.770220  0.375000  0.895220  1
  Ba  Ba40  1  0.502249  0.223851  0.632015  1
  Ba  Ba41  1  0.844350  0.998150  0.104442  1
  Ba  Ba42  1  0.439795  0.601734  0.477682  1
  Ba  Ba43  1  0.989908  0.643704  0.395556  1
  Ba  Ba44  1  0.473853  0.252250  0.132014  1
  Ba  Ba45  1  0.501856  0.655648  0.895559  1
  Ba  Ba46  1  0.591840  0.870240  0.367987  1
  Ba  Ba47  1  0.856292  0.510091  0.604443  1
  Ba  Ba48  1  0.624052  0.101734  0.161939  1
  Ba  Ba49  1  0.712113  0.689797  0.338061  1
  Ba  Ba50  1  0.939800  0.462116  0.838065  1
  Ba  Ba51  1  0.351736  0.374051  0.661937  1
  Ba  Ba52  1  0.091836  0.723851  0.721602  1
  Ba  Ba53  1  0.620236  0.752250  0.778397  1
  Ba  Ba54  1  0.851736  0.189797  0.977684  1
  Ba  Ba55  1  0.124051  0.962116  0.522316  1
  Y  Y56  1  0.249999  0.749994  0.500000  1
  Y  Y57  1  0.749994  0.249994  0.499995  1
  Y  Y58  1  0.500001  0.500006  0.000000  1
  Y  Y59  1  0.000006  0.000006  0.000005  1
  Sb  Sb60  1  0.853948  0.446550  0.143117  1
  Sb  Sb61  1  0.960829  0.053438  0.356884  1
  Sb  Sb62  1  0.196554  0.553438  0.092609  1
  Sb  Sb63  1  0.353948  0.210831  0.407399  1
  Sb  Sb64  1  0.189501  0.550261  0.367756  1
  Sb  Sb65  1  0.071749  0.932503  0.132246  1
  Sb  Sb66  1  0.300255  0.432503  0.860753  1
  Sb  Sb67  1  0.689503  0.321749  0.639247  1
  Sb  Sb68  1  0.571749  0.439499  0.139243  1
  Sb  Sb69  1  0.682506  0.050261  0.360760  1
  Sb  Sb70  1  0.369900  0.869901  0.239802  1
  Sb  Sb71  1  0.250000  0.249999  0.999999  1
  Sb  Sb72  1  0.119901  0.119901  0.739802  1
  Sb  Sb73  1  0.460829  0.103945  0.907391  1
  Sb  Sb74  1  0.803434  0.946550  0.592602  1
  Sb  Sb75  1  0.182502  0.821749  0.632245  1
  Sb  Sb76  1  0.800257  0.939499  0.867751  1
  Sb  Sb77  1  0.619900  0.880099  0.999999  1
  Sb  Sb78  1  0.869900  0.630099  0.500000  1
  Sb  Sb79  1  0.053446  0.646055  0.856884  1
  Sb  Sb80  1  0.446569  0.539169  0.643118  1
  Sb  Sb81  1  0.750000  0.749999  0.999999  1
  Sb  Sb82  1  0.000000  0.500001  0.500001  1
  Sb  Sb83  1  0.303431  0.710831  0.856882  1
  Sb  Sb84  1  0.696554  0.603945  0.643116  1
  Sb  Sb85  1  0.880100  0.619901  0.000000  1
  Sb  Sb86  1  0.130100  0.369901  0.500001  1
  Sb  Sb87  1  0.949743  0.310501  0.632249  1
  Sb  Sb88  1  0.567498  0.428251  0.867755  1
  Sb  Sb89  1  0.946566  0.303450  0.907398  1
  Sb  Sb90  1  0.289171  0.146055  0.592609  1
  Sb  Sb91  1  0.630099  0.130099  0.760198  1
  Sb  Sb92  1  0.500000  0.000001  0.500001  1
  Sb  Sb93  1  0.380100  0.380099  0.260198  1
  Sb  Sb94  1  0.067494  0.199739  0.139240  1
  Sb  Sb95  1  0.178251  0.810501  0.360757  1
  Sb  Sb96  1  0.060497  0.928251  0.860753  1
  Sb  Sb97  1  0.449745  0.817497  0.639247  1
  Sb  Sb98  1  0.678251  0.317497  0.367754  1
  Sb  Sb99  1  0.560499  0.699739  0.132244  1
  Sb  Sb100  1  0.396052  0.039169  0.092601  1
  Sb  Sb101  1  0.553446  0.696562  0.407391  1
  Sb  Sb102  1  0.789171  0.196562  0.143116  1
  Sb  Sb103  1  0.896052  0.803450  0.356883  1
