# generated using pymatgen
data_Sm6Ge(P3Rh5)4
_symmetry_space_group_name_H-M   'P 1'
_cell_length_a   13.52202400
_cell_length_b   13.52202324
_cell_length_c   3.92695600
_cell_angle_alpha   90.00000000
_cell_angle_beta   90.00000000
_cell_angle_gamma   119.99999695
_symmetry_Int_Tables_number   1
_chemical_formula_structural   Sm6Ge(P3Rh5)4
_chemical_formula_sum   'Sm6 Ge1 P12 Rh20'
_cell_volume   621.82769506
_cell_formula_units_Z   1
loop_
 _symmetry_equiv_pos_site_id
 _symmetry_equiv_pos_as_xyz
  1  'x, y, z'
loop_
 _atom_site_type_symbol
 _atom_site_label
 _atom_site_symmetry_multiplicity
 _atom_site_fract_x
 _atom_site_fract_y
 _atom_site_fract_z
 _atom_site_occupancy
  Sm  Sm0  1  0.531421  0.717724  0.249121  1
  Sm  Sm1  1  0.282276  0.813698  0.249121  1
  Sm  Sm2  1  0.186302  0.468579  0.249121  1
  Sm  Sm3  1  0.468579  0.282276  0.750879  1
  Sm  Sm4  1  0.717724  0.186302  0.750879  1
  Sm  Sm5  1  0.813698  0.531421  0.750879  1
  Ge  Ge6  1  0.000000  0.000000  0.000000  1
  P  P7  1  0.524724  0.137118  0.250177  1
  P  P8  1  0.862882  0.387606  0.250177  1
  P  P9  1  0.612394  0.475276  0.250177  1
  P  P10  1  0.948685  0.719204  0.251376  1
  P  P11  1  0.280796  0.229481  0.251376  1
  P  P12  1  0.770519  0.051315  0.251376  1
  P  P13  1  0.387606  0.524724  0.749823  1
  P  P14  1  0.475276  0.862882  0.749823  1
  P  P15  1  0.137118  0.612394  0.749823  1
  P  P16  1  0.719204  0.770519  0.748624  1
  P  P17  1  0.229481  0.948685  0.748624  1
  P  P18  1  0.051315  0.280796  0.748624  1
  Rh  Rh19  1  0.333333  0.666667  0.752569  1
  Rh  Rh20  1  0.920997  0.250916  0.251659  1
  Rh  Rh21  1  0.749084  0.670081  0.251659  1
  Rh  Rh22  1  0.329919  0.079003  0.251659  1
  Rh  Rh23  1  0.442705  0.026842  0.750769  1
  Rh  Rh24  1  0.973158  0.415863  0.750769  1
  Rh  Rh25  1  0.584137  0.557295  0.750769  1
  Rh  Rh26  1  0.666667  0.333333  0.247431  1
  Rh  Rh27  1  0.095137  0.196208  0.252285  1
  Rh  Rh28  1  0.803792  0.898929  0.252285  1
  Rh  Rh29  1  0.101071  0.904863  0.252285  1
  Rh  Rh30  1  0.026842  0.584137  0.249231  1
  Rh  Rh31  1  0.415863  0.442705  0.249231  1
  Rh  Rh32  1  0.557295  0.973158  0.249231  1
  Rh  Rh33  1  0.670081  0.920997  0.748341  1
  Rh  Rh34  1  0.079003  0.749084  0.748341  1
  Rh  Rh35  1  0.250916  0.329919  0.748341  1
  Rh  Rh36  1  0.904863  0.803792  0.747715  1
  Rh  Rh37  1  0.196208  0.101071  0.747715  1
  Rh  Rh38  1  0.898929  0.095137  0.747715  1
