# generated using pymatgen
data_Y3LuThIr3
_symmetry_space_group_name_H-M   'P 1'
_cell_length_a   11.08106700
_cell_length_b   10.92184900
_cell_length_c   6.32497800
_cell_angle_alpha   90.00000000
_cell_angle_beta   90.00000000
_cell_angle_gamma   90.00000000
_symmetry_Int_Tables_number   1
_chemical_formula_structural   Y3LuThIr3
_chemical_formula_sum   'Y12 Lu4 Th4 Ir12'
_cell_volume   765.48514630
_cell_formula_units_Z   4
loop_
 _symmetry_equiv_pos_site_id
 _symmetry_equiv_pos_as_xyz
  1  'x, y, z'
loop_
 _atom_site_type_symbol
 _atom_site_label
 _atom_site_symmetry_multiplicity
 _atom_site_fract_x
 _atom_site_fract_y
 _atom_site_fract_z
 _atom_site_occupancy
  Y  Y0  1  0.588017  0.782825  0.879526  1
  Y  Y1  1  0.588017  0.217175  0.379526  1
  Y  Y2  1  0.411983  0.782825  0.379526  1
  Y  Y3  1  0.411983  0.217175  0.879526  1
  Y  Y4  1  0.207857  0.413919  0.619994  1
  Y  Y5  1  0.207857  0.586081  0.119994  1
  Y  Y6  1  0.792143  0.413919  0.119994  1
  Y  Y7  1  0.792143  0.586081  0.619994  1
  Y  Y8  1  0.915604  0.708855  0.115369  1
  Y  Y9  1  0.915604  0.291145  0.615369  1
  Y  Y10  1  0.084396  0.708855  0.615369  1
  Y  Y11  1  0.084396  0.291145  0.115369  1
  Lu  Lu12  1  0.000000  0.000000  0.497601  1
  Lu  Lu13  1  0.000000  0.000000  0.997601  1
  Lu  Lu14  1  0.500000  0.500000  0.015133  1
  Lu  Lu15  1  0.500000  0.500000  0.515133  1
  Th  Th16  1  0.292436  0.092985  0.379794  1
  Th  Th17  1  0.292436  0.907015  0.879794  1
  Th  Th18  1  0.707564  0.092985  0.879794  1
  Th  Th19  1  0.707564  0.907015  0.379794  1
  Ir  Ir20  1  0.846865  0.147611  0.243911  1
  Ir  Ir21  1  0.846865  0.852389  0.743911  1
  Ir  Ir22  1  0.153135  0.147611  0.743911  1
  Ir  Ir23  1  0.153135  0.852389  0.243911  1
  Ir  Ir24  1  0.650867  0.348884  0.759894  1
  Ir  Ir25  1  0.650867  0.651116  0.259894  1
  Ir  Ir26  1  0.349133  0.348884  0.259894  1
  Ir  Ir27  1  0.349133  0.651116  0.759894  1
  Ir  Ir28  1  0.500000  0.000000  0.118429  1
  Ir  Ir29  1  0.500000  0.000000  0.618429  1
  Ir  Ir30  1  0.000000  0.500000  0.871861  1
  Ir  Ir31  1  0.000000  0.500000  0.371861  1
