# generated using pymatgen
data_Li2NpOF5
_symmetry_space_group_name_H-M   'P 1'
_cell_length_a   5.17754472
_cell_length_b   5.17754556
_cell_length_c   4.88401427
_cell_angle_alpha   89.52778420
_cell_angle_beta   89.52778111
_cell_angle_gamma   121.46101138
_symmetry_Int_Tables_number   1
_chemical_formula_structural   Li2NpOF5
_chemical_formula_sum   'Li2 Np1 O1 F5'
_cell_volume   111.66311744
_cell_formula_units_Z   1
loop_
 _symmetry_equiv_pos_site_id
 _symmetry_equiv_pos_as_xyz
  1  'x, y, z'
loop_
 _atom_site_type_symbol
 _atom_site_label
 _atom_site_symmetry_multiplicity
 _atom_site_fract_x
 _atom_site_fract_y
 _atom_site_fract_z
 _atom_site_occupancy
  Li  Li0  1  0.669735  0.320539  0.506777  1
  Li  Li1  1  0.320539  0.669735  0.506777  1
  Np  Np2  1  0.013290  0.013290  0.991668  1
  O  O3  1  0.305376  0.305376  0.754904  1
  F  F4  1  0.681160  0.681160  0.255679  1
  F  F5  1  0.992350  0.657106  0.728524  1
  F  F6  1  0.350091  0.010330  0.263569  1
  F  F7  1  0.010330  0.350091  0.263569  1
  F  F8  1  0.657106  0.992350  0.728524  1
