# generated using pymatgen
data_SrCaTaN3
_symmetry_space_group_name_H-M   'P 1'
_cell_length_a   6.24494333
_cell_length_b   6.37467524
_cell_length_c   12.40943807
_cell_angle_alpha   89.36101987
_cell_angle_beta   88.66211135
_cell_angle_gamma   123.18295815
_symmetry_Int_Tables_number   1
_chemical_formula_structural   SrCaTaN3
_chemical_formula_sum   'Sr4 Ca4 Ta4 N12'
_cell_volume   413.17136282
_cell_formula_units_Z   4
loop_
 _symmetry_equiv_pos_site_id
 _symmetry_equiv_pos_as_xyz
  1  'x, y, z'
loop_
 _atom_site_type_symbol
 _atom_site_label
 _atom_site_symmetry_multiplicity
 _atom_site_fract_x
 _atom_site_fract_y
 _atom_site_fract_z
 _atom_site_occupancy
  Sr  Sr0  1  0.045624  0.456149  0.856056  1
  Sr  Sr1  1  0.522714  0.930469  0.638156  1
  Sr  Sr2  1  0.481581  0.065912  0.362346  1
  Sr  Sr3  1  0.638325  0.876932  0.078089  1
  Ca  Ca4  1  0.962626  0.576557  0.126448  1
  Ca  Ca5  1  0.180660  0.413917  0.429228  1
  Ca  Ca6  1  0.386948  0.160937  0.926044  1
  Ca  Ca7  1  0.819499  0.579429  0.574414  1
  Ta  Ta8  1  0.799050  0.774059  0.341102  1
  Ta  Ta9  1  0.256735  0.254855  0.165278  1
  Ta  Ta10  1  0.207638  0.214581  0.660973  1
  Ta  Ta11  1  0.738128  0.749602  0.834949  1
  N  N12  1  0.455014  0.459943  0.763039  1
  N  N13  1  0.565556  0.531321  0.233886  1
  N  N14  1  0.044322  0.876156  0.735391  1
  N  N15  1  0.966077  0.117482  0.272314  1
  N  N16  1  0.990775  0.326242  0.616882  1
  N  N17  1  0.638962  0.982375  0.870609  1
  N  N18  1  0.017887  0.670647  0.390865  1
  N  N19  1  0.322838  0.006425  0.117273  1
  N  N20  1  0.791774  0.612293  0.961552  1
  N  N21  1  0.605226  0.776255  0.461507  1
  N  N22  1  0.165675  0.375674  0.044199  1
  N  N23  1  0.396366  0.211789  0.539399  1
