# generated using pymatgen
data_Ho6Er3LuPb6
_symmetry_space_group_name_H-M   'P 1'
_cell_length_a   6.56365800
_cell_length_b   9.01876567
_cell_length_c   9.01859600
_cell_angle_alpha   120.00084725
_cell_angle_beta   90.00037668
_cell_angle_gamma   89.99826816
_symmetry_Int_Tables_number   1
_chemical_formula_structural   Ho6Er3LuPb6
_chemical_formula_sum   'Ho6 Er3 Lu1 Pb6'
_cell_volume   462.33726929
_cell_formula_units_Z   1
loop_
 _symmetry_equiv_pos_site_id
 _symmetry_equiv_pos_as_xyz
  1  'x, y, z'
loop_
 _atom_site_type_symbol
 _atom_site_label
 _atom_site_symmetry_multiplicity
 _atom_site_fract_x
 _atom_site_fract_y
 _atom_site_fract_z
 _atom_site_occupancy
  Ho  Ho0  1  0.750149  0.237334  0.999887  1
  Ho  Ho1  1  0.750160  0.762591  0.762681  1
  Ho  Ho2  1  0.750140  0.000146  0.237440  1
  Ho  Ho3  1  0.249856  0.762585  0.999905  1
  Ho  Ho4  1  0.249846  0.237293  0.237441  1
  Ho  Ho5  1  0.249847  0.000081  0.762679  1
  Er  Er6  1  0.499980  0.333337  0.666690  1
  Er  Er7  1  0.499993  0.666606  0.333297  1
  Er  Er8  1  0.999981  0.666651  0.333305  1
  Lu  Lu9  1  0.999989  0.333360  0.666701  1
  Pb  Pb10  1  0.750611  0.604635  0.999349  1
  Pb  Pb11  1  0.750611  0.394715  0.395367  1
  Pb  Pb12  1  0.750663  0.000655  0.605232  1
  Pb  Pb13  1  0.249416  0.394737  0.999345  1
  Pb  Pb14  1  0.249360  0.604619  0.605280  1
  Pb  Pb15  1  0.249398  0.000657  0.395402  1
