# generated using pymatgen
data_Tb8Cd3InAu8
_symmetry_space_group_name_H-M   'P 1'
_cell_length_a   8.01847900
_cell_length_b   8.01847900
_cell_length_c   7.46024700
_cell_angle_alpha   90.00000000
_cell_angle_beta   90.00000000
_cell_angle_gamma   90.00000000
_symmetry_Int_Tables_number   1
_chemical_formula_structural   Tb8Cd3InAu8
_chemical_formula_sum   'Tb8 Cd3 In1 Au8'
_cell_volume   479.66408195
_cell_formula_units_Z   1
loop_
 _symmetry_equiv_pos_site_id
 _symmetry_equiv_pos_as_xyz
  1  'x, y, z'
loop_
 _atom_site_type_symbol
 _atom_site_label
 _atom_site_symmetry_multiplicity
 _atom_site_fract_x
 _atom_site_fract_y
 _atom_site_fract_z
 _atom_site_occupancy
  Tb  Tb0  1  0.834545  0.163006  0.500010  1
  Tb  Tb1  1  0.165455  0.836994  0.500010  1
  Tb  Tb2  1  0.336994  0.334545  0.999990  1
  Tb  Tb3  1  0.663006  0.665455  0.999990  1
  Tb  Tb4  1  0.678899  0.681755  0.500505  1
  Tb  Tb5  1  0.321101  0.318245  0.500505  1
  Tb  Tb6  1  0.181756  0.821101  0.999495  1
  Tb  Tb7  1  0.818245  0.178900  0.999495  1
  Cd  Cd8  1  0.500000  0.000000  0.250000  1
  Cd  Cd9  1  0.000000  0.500000  0.750000  1
  Cd  Cd10  1  0.500000  0.000000  0.750000  1
  In  In11  1  0.000000  0.500000  0.250000  1
  Au  Au12  1  0.627519  0.371590  0.265607  1
  Au  Au13  1  0.372481  0.628410  0.265607  1
  Au  Au14  1  0.127806  0.128354  0.765674  1
  Au  Au15  1  0.872194  0.871646  0.765674  1
  Au  Au16  1  0.371646  0.627806  0.734326  1
  Au  Au17  1  0.628354  0.372194  0.734326  1
  Au  Au18  1  0.871590  0.872481  0.234393  1
  Au  Au19  1  0.128410  0.127519  0.234393  1
