# generated using pymatgen
data_Dy6Al24Fe4CuRuPt2
_symmetry_space_group_name_H-M   'P 1'
_cell_length_a   8.78282619
_cell_length_b   8.75759917
_cell_length_c   9.42981000
_cell_angle_alpha   89.98549548
_cell_angle_beta   90.04880317
_cell_angle_gamma   119.80772486
_symmetry_Int_Tables_number   1
_chemical_formula_structural   Dy6Al24Fe4CuRuPt2
_chemical_formula_sum   'Dy6 Al24 Fe4 Cu1 Ru1 Pt2'
_cell_volume   629.34812910
_cell_formula_units_Z   1
loop_
 _symmetry_equiv_pos_site_id
 _symmetry_equiv_pos_as_xyz
  1  'x, y, z'
loop_
 _atom_site_type_symbol
 _atom_site_label
 _atom_site_symmetry_multiplicity
 _atom_site_fract_x
 _atom_site_fract_y
 _atom_site_fract_z
 _atom_site_occupancy
  Dy  Dy0  1  0.192410  0.805579  0.250078  1
  Dy  Dy1  1  0.190915  0.386521  0.246572  1
  Dy  Dy2  1  0.614672  0.808531  0.249697  1
  Dy  Dy3  1  0.807590  0.194421  0.749922  1
  Dy  Dy4  1  0.809085  0.613479  0.753428  1
  Dy  Dy5  1  0.385328  0.191469  0.750303  1
  Al  Al6  1  0.563926  0.436458  0.247893  1
  Al  Al7  1  0.561338  0.121816  0.241343  1
  Al  Al8  1  0.880629  0.439994  0.254397  1
  Al  Al9  1  0.436074  0.563542  0.752107  1
  Al  Al10  1  0.438662  0.878184  0.758657  1
  Al  Al11  1  0.119371  0.560006  0.745603  1
  Al  Al12  1  0.316517  0.158413  0.422094  1
  Al  Al13  1  0.846540  0.167382  0.422340  1
  Al  Al14  1  0.847536  0.680390  0.424099  1
  Al  Al15  1  0.683483  0.841587  0.577906  1
  Al  Al16  1  0.153460  0.832618  0.577660  1
  Al  Al17  1  0.152464  0.319610  0.575901  1
  Al  Al18  1  0.680134  0.848573  0.924686  1
  Al  Al19  1  0.163431  0.840415  0.923660  1
  Al  Al20  1  0.154636  0.320039  0.922487  1
  Al  Al21  1  0.319866  0.151427  0.075314  1
  Al  Al22  1  0.836569  0.159585  0.076340  1
  Al  Al23  1  0.845364  0.679961  0.077513  1
  Al  Al24  1  0.679711  0.339667  0.522133  1
  Al  Al25  1  0.320289  0.660333  0.477867  1
  Al  Al26  1  0.334378  0.675708  0.022024  1
  Al  Al27  1  0.665622  0.324292  0.977976  1
  Al  Al28  1  0.997541  0.000323  0.249796  1
  Al  Al29  1  0.002459  0.999677  0.750204  1
  Fe  Fe30  1  0.000000  0.000000  0.500000  1
  Fe  Fe31  1  0.000000  0.000000  0.000000  1
  Fe  Fe32  1  0.000000  0.500000  0.500000  1
  Fe  Fe33  1  0.500000  0.000000  0.000000  1
  Cu  Cu34  1  0.500000  0.500000  0.000000  1
  Ru  Ru35  1  0.000000  0.500000  0.000000  1
  Pt  Pt36  1  0.500000  0.500000  0.500000  1
  Pt  Pt37  1  0.500000  0.000000  0.500000  1
