# generated using pymatgen
data_Yb8Cu(Si4Au)3
_symmetry_space_group_name_H-M   'P 1'
_cell_length_a   8.21049700
_cell_length_b   8.21049727
_cell_length_c   8.32554500
_cell_angle_alpha   90.00000000
_cell_angle_beta   90.00000000
_cell_angle_gamma   120.00000295
_symmetry_Int_Tables_number   1
_chemical_formula_structural   Yb8Cu(Si4Au)3
_chemical_formula_sum   'Yb8 Cu1 Si12 Au3'
_cell_volume   486.05140064
_cell_formula_units_Z   1
loop_
 _symmetry_equiv_pos_site_id
 _symmetry_equiv_pos_as_xyz
  1  'x, y, z'
loop_
 _atom_site_type_symbol
 _atom_site_label
 _atom_site_symmetry_multiplicity
 _atom_site_fract_x
 _atom_site_fract_y
 _atom_site_fract_z
 _atom_site_occupancy
  Yb  Yb0  1  0.500092  0.499908  0.751178  1
  Yb  Yb1  1  0.500922  0.499078  0.248932  1
  Yb  Yb2  1  0.999816  0.499908  0.751178  1
  Yb  Yb3  1  0.998155  0.499078  0.248932  1
  Yb  Yb4  1  0.500092  0.000184  0.751178  1
  Yb  Yb5  1  0.500922  0.001845  0.248932  1
  Yb  Yb6  1  0.000000  0.000000  0.751976  1
  Yb  Yb7  1  0.000000  0.000000  0.248059  1
  Cu  Cu8  1  0.666667  0.333333  0.998020  1
  Si  Si9  1  0.832413  0.167587  0.000223  1
  Si  Si10  1  0.161385  0.838615  0.999631  1
  Si  Si11  1  0.335175  0.167587  0.000223  1
  Si  Si12  1  0.162199  0.837801  0.500345  1
  Si  Si13  1  0.677232  0.838615  0.999631  1
  Si  Si14  1  0.837944  0.162056  0.499764  1
  Si  Si15  1  0.832413  0.664825  0.000223  1
  Si  Si16  1  0.675602  0.837801  0.500345  1
  Si  Si17  1  0.161385  0.322768  0.999631  1
  Si  Si18  1  0.324110  0.162056  0.499764  1
  Si  Si19  1  0.162199  0.324398  0.500345  1
  Si  Si20  1  0.837944  0.675890  0.499764  1
  Au  Au21  1  0.333333  0.666667  0.001596  1
  Au  Au22  1  0.333333  0.666667  0.498499  1
  Au  Au23  1  0.666667  0.333333  0.501634  1
