# generated using pymatgen
data_Sc3Ta(VP)4
_symmetry_space_group_name_H-M   'P 1'
_cell_length_a   3.45887200
_cell_length_b   6.58608212
_cell_length_c   7.82661282
_cell_angle_alpha   89.50263274
_cell_angle_beta   90.00000000
_cell_angle_gamma   90.00000000
_symmetry_Int_Tables_number   1
_chemical_formula_structural   Sc3Ta(VP)4
_chemical_formula_sum   'Sc3 Ta1 V4 P4'
_cell_volume   178.28677075
_cell_formula_units_Z   1
loop_
 _symmetry_equiv_pos_site_id
 _symmetry_equiv_pos_as_xyz
  1  'x, y, z'
loop_
 _atom_site_type_symbol
 _atom_site_label
 _atom_site_symmetry_multiplicity
 _atom_site_fract_x
 _atom_site_fract_y
 _atom_site_fract_z
 _atom_site_occupancy
  Sc  Sc0  1  0.250000  0.541127  0.169090  1
  Sc  Sc1  1  0.750000  0.459173  0.833873  1
  Sc  Sc2  1  0.750000  0.961168  0.662896  1
  Ta  Ta3  1  0.250000  0.039543  0.331855  1
  V  V4  1  0.250000  0.630764  0.554651  1
  V  V5  1  0.750000  0.365784  0.440618  1
  V  V6  1  0.750000  0.874169  0.059660  1
  V  V7  1  0.250000  0.124412  0.947554  1
  P  P8  1  0.250000  0.762047  0.860993  1
  P  P9  1  0.750000  0.237764  0.140557  1
  P  P10  1  0.750000  0.742113  0.360869  1
  P  P11  1  0.250000  0.261935  0.637385  1
