# generated using pymatgen
data_Er9TmIrPt5
_symmetry_space_group_name_H-M   'P 1'
_cell_length_a   10.96007500
_cell_length_b   10.96536200
_cell_length_c   6.36724200
_cell_angle_alpha   90.00000000
_cell_angle_beta   90.00000000
_cell_angle_gamma   90.00000000
_symmetry_Int_Tables_number   1
_chemical_formula_structural   Er9TmIrPt5
_chemical_formula_sum   'Er18 Tm2 Ir2 Pt10'
_cell_volume   765.22272008
_cell_formula_units_Z   2
loop_
 _symmetry_equiv_pos_site_id
 _symmetry_equiv_pos_as_xyz
  1  'x, y, z'
loop_
 _atom_site_type_symbol
 _atom_site_label
 _atom_site_symmetry_multiplicity
 _atom_site_fract_x
 _atom_site_fract_y
 _atom_site_fract_z
 _atom_site_occupancy
  Er  Er0  1  0.291905  0.087960  0.376484  1
  Er  Er1  1  0.291905  0.912040  0.876484  1
  Er  Er2  1  0.708095  0.087960  0.876484  1
  Er  Er3  1  0.708095  0.912040  0.376484  1
  Er  Er4  1  0.587972  0.792130  0.876323  1
  Er  Er5  1  0.587972  0.207870  0.376323  1
  Er  Er6  1  0.412028  0.792130  0.376323  1
  Er  Er7  1  0.412028  0.207870  0.876323  1
  Er  Er8  1  0.205395  0.412686  0.624267  1
  Er  Er9  1  0.205395  0.587314  0.124267  1
  Er  Er10  1  0.794605  0.412686  0.124267  1
  Er  Er11  1  0.794605  0.587314  0.624267  1
  Er  Er12  1  0.912741  0.705770  0.124149  1
  Er  Er13  1  0.912741  0.294230  0.624149  1
  Er  Er14  1  0.087259  0.705770  0.624149  1
  Er  Er15  1  0.087259  0.294230  0.124149  1
  Er  Er16  1  0.500000  0.500000  0.000747  1
  Er  Er17  1  0.500000  0.500000  0.500747  1
  Tm  Tm18  1  0.000000  0.000000  0.500843  1
  Tm  Tm19  1  0.000000  0.000000  0.000843  1
  Ir  Ir20  1  0.000000  0.500000  0.879755  1
  Ir  Ir21  1  0.000000  0.500000  0.379755  1
  Pt  Pt22  1  0.846239  0.152502  0.249892  1
  Pt  Pt23  1  0.846239  0.847498  0.749892  1
  Pt  Pt24  1  0.153761  0.152502  0.749892  1
  Pt  Pt25  1  0.153761  0.847498  0.249892  1
  Pt  Pt26  1  0.653051  0.345721  0.749827  1
  Pt  Pt27  1  0.653051  0.654279  0.249827  1
  Pt  Pt28  1  0.346949  0.345721  0.249827  1
  Pt  Pt29  1  0.346949  0.654279  0.749827  1
  Pt  Pt30  1  0.500000  0.000000  0.116767  1
  Pt  Pt31  1  0.500000  0.000000  0.616767  1
