# generated using pymatgen
data_Tb20CdSi9Hg2
_symmetry_space_group_name_H-M   'P 1'
_cell_length_a   7.53984300
_cell_length_b   7.53984300
_cell_length_c   14.74633200
_cell_angle_alpha   90.00000000
_cell_angle_beta   90.00000000
_cell_angle_gamma   90.00000000
_symmetry_Int_Tables_number   1
_chemical_formula_structural   Tb20CdSi9Hg2
_chemical_formula_sum   'Tb20 Cd1 Si9 Hg2'
_cell_volume   838.31765587
_cell_formula_units_Z   1
loop_
 _symmetry_equiv_pos_site_id
 _symmetry_equiv_pos_as_xyz
  1  'x, y, z'
loop_
 _atom_site_type_symbol
 _atom_site_label
 _atom_site_symmetry_multiplicity
 _atom_site_fract_x
 _atom_site_fract_y
 _atom_site_fract_z
 _atom_site_occupancy
  Tb  Tb0  1  0.686842  0.164733  0.110470  1
  Tb  Tb1  1  0.176652  0.671990  0.611718  1
  Tb  Tb2  1  0.313158  0.835267  0.110470  1
  Tb  Tb3  1  0.823348  0.328010  0.611718  1
  Tb  Tb4  1  0.835267  0.686842  0.110470  1
  Tb  Tb5  1  0.328010  0.176652  0.611718  1
  Tb  Tb6  1  0.164733  0.313158  0.110470  1
  Tb  Tb7  1  0.671990  0.823348  0.611718  1
  Tb  Tb8  1  0.835267  0.313158  0.889530  1
  Tb  Tb9  1  0.328010  0.823348  0.388282  1
  Tb  Tb10  1  0.164733  0.686842  0.889530  1
  Tb  Tb11  1  0.671990  0.176652  0.388282  1
  Tb  Tb12  1  0.686842  0.835267  0.889530  1
  Tb  Tb13  1  0.176652  0.328010  0.388282  1
  Tb  Tb14  1  0.313158  0.164733  0.889530  1
  Tb  Tb15  1  0.823348  0.671990  0.388282  1
  Tb  Tb16  1  0.500000  0.500000  0.762389  1
  Tb  Tb17  1  0.000000  0.000000  0.260624  1
  Tb  Tb18  1  0.000000  0.000000  0.739376  1
  Tb  Tb19  1  0.500000  0.500000  0.237611  1
  Cd  Cd20  1  0.500000  0.500000  0.000000  1
  Si  Si21  1  0.620326  0.121777  0.751611  1
  Si  Si22  1  0.121777  0.620326  0.248389  1
  Si  Si23  1  0.878223  0.379674  0.248389  1
  Si  Si24  1  0.379674  0.878223  0.751611  1
  Si  Si25  1  0.878223  0.620326  0.751611  1
  Si  Si26  1  0.379674  0.121777  0.248389  1
  Si  Si27  1  0.121777  0.379674  0.751611  1
  Si  Si28  1  0.620326  0.878223  0.248389  1
  Si  Si29  1  0.000000  0.000000  0.000000  1
  Hg  Hg30  1  0.500000  0.500000  0.500000  1
  Hg  Hg31  1  0.000000  0.000000  0.500000  1
