# generated using pymatgen
data_Pu4Te3O4
_symmetry_space_group_name_H-M   'P 1'
_cell_length_a   3.97625342
_cell_length_b   3.97625404
_cell_length_c   13.89499000
_cell_angle_alpha   98.22623682
_cell_angle_beta   98.22623810
_cell_angle_gamma   89.99999752
_symmetry_Int_Tables_number   1
_chemical_formula_structural   Pu4Te3O4
_chemical_formula_sum   'Pu4 Te3 O4'
_cell_volume   215.14347129
_cell_formula_units_Z   1
loop_
 _symmetry_equiv_pos_site_id
 _symmetry_equiv_pos_as_xyz
  1  'x, y, z'
loop_
 _atom_site_type_symbol
 _atom_site_label
 _atom_site_symmetry_multiplicity
 _atom_site_fract_x
 _atom_site_fract_y
 _atom_site_fract_z
 _atom_site_occupancy
  Pu  Pu0  1  0.571462  0.571462  0.142924  1
  Pu  Pu1  1  0.159359  0.159359  0.318719  1
  Pu  Pu2  1  0.840639  0.840639  0.681281  1
  Pu  Pu3  1  0.428537  0.428537  0.857075  1
  Te  Te4  1  0.000000  0.000000  0.000000  1
  Te  Te5  1  0.714498  0.714498  0.428997  1
  Te  Te6  1  0.285501  0.285501  0.571003  1
  O  O7  1  0.611911  0.111912  0.223824  1
  O  O8  1  0.111912  0.611911  0.223824  1
  O  O9  1  0.888087  0.388088  0.776177  1
  O  O10  1  0.388088  0.888087  0.776177  1
