# generated using pymatgen
data_LaPr2Th5(ReC2)4
_symmetry_space_group_name_H-M   'P 1'
_cell_length_a   5.39083100
_cell_length_b   6.67896301
_cell_length_c   10.23767751
_cell_angle_alpha   90.39843193
_cell_angle_beta   90.00000000
_cell_angle_gamma   90.00000000
_symmetry_Int_Tables_number   1
_chemical_formula_structural   LaPr2Th5(ReC2)4
_chemical_formula_sum   'La1 Pr2 Th5 Re4 C8'
_cell_volume   368.60031296
_cell_formula_units_Z   1
loop_
 _symmetry_equiv_pos_site_id
 _symmetry_equiv_pos_as_xyz
  1  'x, y, z'
loop_
 _atom_site_type_symbol
 _atom_site_label
 _atom_site_symmetry_multiplicity
 _atom_site_fract_x
 _atom_site_fract_y
 _atom_site_fract_z
 _atom_site_occupancy
  La  La0  1  0.750000  0.029009  0.715606  1
  Pr  Pr1  1  0.250000  0.303946  0.549573  1
  Pr  Pr2  1  0.250000  0.472642  0.218769  1
  Th  Th3  1  0.750000  0.523739  0.773753  1
  Th  Th4  1  0.250000  0.976532  0.276332  1
  Th  Th5  1  0.750000  0.690947  0.449365  1
  Th  Th6  1  0.250000  0.807359  0.951033  1
  Th  Th7  1  0.750000  0.192136  0.049995  1
  Re  Re8  1  0.250000  0.269732  0.862388  1
  Re  Re9  1  0.250000  0.767097  0.641631  1
  Re  Re10  1  0.750000  0.230468  0.361566  1
  Re  Re11  1  0.750000  0.729515  0.139207  1
  C  C12  1  0.250000  0.692550  0.454986  1
  C  C13  1  0.250000  0.529628  0.759684  1
  C  C14  1  0.750000  0.469519  0.244731  1
  C  C15  1  0.750000  0.820386  0.954469  1
  C  C16  1  0.250000  0.028508  0.747564  1
  C  C17  1  0.250000  0.161752  0.048692  1
  C  C18  1  0.750000  0.337015  0.543390  1
  C  C19  1  0.750000  0.967521  0.257268  1
