# generated using pymatgen
data_Sm2NiSnI2
_symmetry_space_group_name_H-M   'P 1'
_cell_length_a   4.39667600
_cell_length_b   4.39667491
_cell_length_c   11.45896800
_cell_angle_alpha   90.00000000
_cell_angle_beta   90.00000000
_cell_angle_gamma   119.99997813
_symmetry_Int_Tables_number   1
_chemical_formula_structural   Sm2NiSnI2
_chemical_formula_sum   'Sm2 Ni1 Sn1 I2'
_cell_volume   191.83376544
_cell_formula_units_Z   1
loop_
 _symmetry_equiv_pos_site_id
 _symmetry_equiv_pos_as_xyz
  1  'x, y, z'
loop_
 _atom_site_type_symbol
 _atom_site_label
 _atom_site_symmetry_multiplicity
 _atom_site_fract_x
 _atom_site_fract_y
 _atom_site_fract_z
 _atom_site_occupancy
  Sm  Sm0  1  0.000000  0.000000  0.165341  1
  Sm  Sm1  1  0.000000  0.000000  0.829885  1
  Ni  Ni2  1  0.333333  0.666667  0.011093  1
  Sn  Sn3  1  0.666667  0.333333  0.992043  1
  I  I4  1  0.333333  0.666667  0.656127  1
  I  I5  1  0.666667  0.333333  0.345512  1
