# generated using pymatgen
data_Ta5NbB4(Os4Ru)2
_symmetry_space_group_name_H-M   'P 1'
_cell_length_a   9.54540203
_cell_length_b   9.54540203
_cell_length_c   3.01233400
_cell_angle_alpha   90.00000000
_cell_angle_beta   90.00000000
_cell_angle_gamma   89.94663824
_symmetry_Int_Tables_number   1
_chemical_formula_structural   Ta5NbB4(Os4Ru)2
_chemical_formula_sum   'Ta5 Nb1 B4 Os8 Ru2'
_cell_volume   274.46778970
_cell_formula_units_Z   1
loop_
 _symmetry_equiv_pos_site_id
 _symmetry_equiv_pos_as_xyz
  1  'x, y, z'
loop_
 _atom_site_type_symbol
 _atom_site_label
 _atom_site_symmetry_multiplicity
 _atom_site_fract_x
 _atom_site_fract_y
 _atom_site_fract_z
 _atom_site_occupancy
  Ta  Ta0  1  0.823254  0.676773  0.000000  1
  Ta  Ta1  1  0.176773  0.323254  0.000000  1
  Ta  Ta2  1  0.323163  0.823163  0.000000  1
  Ta  Ta3  1  0.500013  0.499974  0.000000  1
  Ta  Ta4  1  0.999974  0.000013  0.000000  1
  Nb  Nb5  1  0.676640  0.176640  0.000000  1
  B  B6  1  0.620547  0.879378  0.000000  1
  B  B7  1  0.379378  0.120547  0.000000  1
  B  B8  1  0.120581  0.620581  0.000000  1
  B  B9  1  0.879487  0.379487  0.000000  1
  Os  Os10  1  0.570700  0.719263  0.500000  1
  Os  Os11  1  0.428798  0.280581  0.500000  1
  Os  Os12  1  0.070844  0.780602  0.500000  1
  Os  Os13  1  0.929552  0.219786  0.500000  1
  Os  Os14  1  0.280602  0.570844  0.500000  1
  Os  Os15  1  0.719786  0.429552  0.500000  1
  Os  Os16  1  0.219263  0.070700  0.500000  1
  Os  Os17  1  0.780581  0.928798  0.500000  1
  Ru  Ru18  1  0.499866  0.999866  0.500000  1
  Ru  Ru19  1  0.000199  0.500199  0.500000  1
