# generated using pymatgen
data_Tb3Y(HoB5)4
_symmetry_space_group_name_H-M   'P 1'
_cell_length_a   7.10585350
_cell_length_b   7.09466081
_cell_length_c   7.12573800
_cell_angle_alpha   76.58238077
_cell_angle_beta   89.92868115
_cell_angle_gamma   90.09558452
_symmetry_Int_Tables_number   1
_chemical_formula_structural   Tb3Y(HoB5)4
_chemical_formula_sum   'Tb3 Y1 Ho4 B20'
_cell_volume   349.42781794
_cell_formula_units_Z   1
loop_
 _symmetry_equiv_pos_site_id
 _symmetry_equiv_pos_as_xyz
  1  'x, y, z'
loop_
 _atom_site_type_symbol
 _atom_site_label
 _atom_site_symmetry_multiplicity
 _atom_site_fract_x
 _atom_site_fract_y
 _atom_site_fract_z
 _atom_site_occupancy
  Tb  Tb0  1  0.191864  0.230091  0.874839  1
  Tb  Tb1  1  0.307347  0.229919  0.374668  1
  Tb  Tb2  1  0.808224  0.770267  0.125390  1
  Y  Y3  1  0.692652  0.769345  0.625912  1
  Ho  Ho4  1  0.315195  0.755733  0.252355  1
  Ho  Ho5  1  0.814452  0.244318  0.247619  1
  Ho  Ho6  1  0.684875  0.244250  0.747325  1
  Ho  Ho7  1  0.185550  0.755661  0.752430  1
  B  B8  1  0.502713  0.313594  0.041475  1
  B  B9  1  0.002865  0.686463  0.458452  1
  B  B10  1  0.497615  0.686594  0.958074  1
  B  B11  1  0.996772  0.313324  0.541836  1
  B  B12  1  0.488708  0.926751  0.923709  1
  B  B13  1  0.987254  0.072760  0.576430  1
  B  B14  1  0.511484  0.073461  0.075070  1
  B  B15  1  0.011105  0.926690  0.424334  1
  B  B16  1  0.326377  0.496461  0.039933  1
  B  B17  1  0.826243  0.503537  0.460173  1
  B  B18  1  0.674039  0.503696  0.960149  1
  B  B19  1  0.173779  0.496401  0.539872  1
  B  B20  1  0.911032  0.498523  0.911098  1
  B  B21  1  0.410861  0.501401  0.589032  1
  B  B22  1  0.089312  0.501664  0.089019  1
  B  B23  1  0.589311  0.498899  0.410777  1
  B  B24  1  0.961800  0.496407  0.674514  1
  B  B25  1  0.461909  0.503574  0.825556  1
  B  B26  1  0.038306  0.503487  0.325690  1
  B  B27  1  0.538356  0.496727  0.174269  1
