# generated using pymatgen
data_Ta10AlSi4As
_symmetry_space_group_name_H-M   'P 1'
_cell_length_a   7.58746400
_cell_length_b   7.58746314
_cell_length_c   7.58746433
_cell_angle_alpha   128.27065115
_cell_angle_beta   128.27063934
_cell_angle_gamma   76.18700274
_symmetry_Int_Tables_number   1
_chemical_formula_structural   Ta10AlSi4As
_chemical_formula_sum   'Ta10 Al1 Si4 As1'
_cell_volume   261.69326937
_cell_formula_units_Z   1
loop_
 _symmetry_equiv_pos_site_id
 _symmetry_equiv_pos_as_xyz
  1  'x, y, z'
loop_
 _atom_site_type_symbol
 _atom_site_label
 _atom_site_symmetry_multiplicity
 _atom_site_fract_x
 _atom_site_fract_y
 _atom_site_fract_z
 _atom_site_occupancy
  Ta  Ta0  1  0.015361  0.187544  0.500016  1
  Ta  Ta1  1  0.687528  0.515345  0.499984  1
  Ta  Ta2  1  0.515345  0.015361  0.827817  1
  Ta  Ta3  1  0.187544  0.687528  0.172183  1
  Ta  Ta4  1  0.984655  0.812472  0.500016  1
  Ta  Ta5  1  0.312456  0.484639  0.499984  1
  Ta  Ta6  1  0.484639  0.984655  0.172183  1
  Ta  Ta7  1  0.812472  0.312456  0.827817  1
  Ta  Ta8  1  0.000822  0.000822  0.000000  1
  Ta  Ta9  1  0.499178  0.499178  0.000000  1
  Al  Al10  1  0.250000  0.250000  0.000000  1
  Si  Si11  1  0.369515  0.130485  0.500000  1
  Si  Si12  1  0.630485  0.869515  0.500000  1
  Si  Si13  1  0.869515  0.369515  0.239030  1
  Si  Si14  1  0.130485  0.630485  0.760970  1
  As  As15  1  0.750000  0.750000  0.000000  1
