# generated using pymatgen
data_Ca20Cd3Ga8Pb
_symmetry_space_group_name_H-M   'P 1'
_cell_length_a   8.12028500
_cell_length_b   8.12028500
_cell_length_c   14.79756300
_cell_angle_alpha   90.00000000
_cell_angle_beta   90.00000000
_cell_angle_gamma   90.00000000
_symmetry_Int_Tables_number   1
_chemical_formula_structural   Ca20Cd3Ga8Pb
_chemical_formula_sum   'Ca20 Cd3 Ga8 Pb1'
_cell_volume   975.73692811
_cell_formula_units_Z   1
loop_
 _symmetry_equiv_pos_site_id
 _symmetry_equiv_pos_as_xyz
  1  'x, y, z'
loop_
 _atom_site_type_symbol
 _atom_site_label
 _atom_site_symmetry_multiplicity
 _atom_site_fract_x
 _atom_site_fract_y
 _atom_site_fract_z
 _atom_site_occupancy
  Ca  Ca0  1  0.676464  0.167260  0.106803  1
  Ca  Ca1  1  0.170721  0.670823  0.609496  1
  Ca  Ca2  1  0.323536  0.832740  0.106803  1
  Ca  Ca3  1  0.829279  0.329177  0.609496  1
  Ca  Ca4  1  0.832740  0.676464  0.106803  1
  Ca  Ca5  1  0.329177  0.170721  0.609496  1
  Ca  Ca6  1  0.167260  0.323536  0.106803  1
  Ca  Ca7  1  0.670823  0.829279  0.609496  1
  Ca  Ca8  1  0.832740  0.323536  0.893197  1
  Ca  Ca9  1  0.329177  0.829279  0.390504  1
  Ca  Ca10  1  0.167260  0.676464  0.893197  1
  Ca  Ca11  1  0.670823  0.170721  0.390504  1
  Ca  Ca12  1  0.676464  0.832740  0.893197  1
  Ca  Ca13  1  0.170721  0.329177  0.390504  1
  Ca  Ca14  1  0.323536  0.167260  0.893197  1
  Ca  Ca15  1  0.829279  0.670823  0.390504  1
  Ca  Ca16  1  0.500000  0.500000  0.754176  1
  Ca  Ca17  1  0.000000  0.000000  0.248466  1
  Ca  Ca18  1  0.000000  0.000000  0.751534  1
  Ca  Ca19  1  0.500000  0.500000  0.245824  1
  Cd  Cd20  1  0.500000  0.500000  0.500000  1
  Cd  Cd21  1  0.500000  0.500000  0.000000  1
  Cd  Cd22  1  0.000000  0.000000  0.500000  1
  Ga  Ga23  1  0.612243  0.114679  0.751653  1
  Ga  Ga24  1  0.114679  0.612243  0.248347  1
  Ga  Ga25  1  0.885321  0.387757  0.248347  1
  Ga  Ga26  1  0.387757  0.885321  0.751653  1
  Ga  Ga27  1  0.885321  0.612243  0.751653  1
  Ga  Ga28  1  0.387757  0.114679  0.248347  1
  Ga  Ga29  1  0.114679  0.387757  0.751653  1
  Ga  Ga30  1  0.612243  0.885321  0.248347  1
  Pb  Pb31  1  0.000000  0.000000  0.000000  1
