# generated using pymatgen
data_Ca4Nd13Sm3Sn16
_symmetry_space_group_name_H-M   'P 1'
_cell_length_a   8.12636907
_cell_length_b   8.52501028
_cell_length_c   16.14401800
_cell_angle_alpha   90.03877962
_cell_angle_beta   89.99255457
_cell_angle_gamma   90.03201671
_symmetry_Int_Tables_number   1
_chemical_formula_structural   Ca4Nd13Sm3Sn16
_chemical_formula_sum   'Ca4 Nd13 Sm3 Sn16'
_cell_volume   1118.41482752
_cell_formula_units_Z   1
loop_
 _symmetry_equiv_pos_site_id
 _symmetry_equiv_pos_as_xyz
  1  'x, y, z'
loop_
 _atom_site_type_symbol
 _atom_site_label
 _atom_site_symmetry_multiplicity
 _atom_site_fract_x
 _atom_site_fract_y
 _atom_site_fract_z
 _atom_site_occupancy
  Ca  Ca0  1  0.163466  0.496189  0.749815  1
  Ca  Ca1  1  0.662992  0.005076  0.749857  1
  Ca  Ca2  1  0.836757  0.504321  0.250801  1
  Ca  Ca3  1  0.336894  0.993995  0.250374  1
  Nd  Nd4  1  0.165426  0.327257  0.124063  1
  Nd  Nd5  1  0.665898  0.171528  0.124715  1
  Nd  Nd6  1  0.165906  0.327211  0.375941  1
  Nd  Nd7  1  0.335245  0.828297  0.624753  1
  Nd  Nd8  1  0.835556  0.673276  0.874910  1
  Nd  Nd9  1  0.490742  0.317530  0.903833  1
  Nd  Nd10  1  0.991264  0.184493  0.596397  1
  Nd  Nd11  1  0.509657  0.683367  0.404258  1
  Nd  Nd12  1  0.008985  0.815546  0.096041  1
  Nd  Nd13  1  0.508839  0.681394  0.095893  1
  Nd  Nd14  1  0.008210  0.817762  0.404541  1
  Nd  Nd15  1  0.491829  0.318013  0.595793  1
  Nd  Nd16  1  0.990312  0.183376  0.903134  1
  Sm  Sm17  1  0.332415  0.829135  0.874771  1
  Sm  Sm18  1  0.833353  0.671519  0.624391  1
  Sm  Sm19  1  0.666715  0.170845  0.375862  1
  Sn  Sn20  1  0.325051  0.034673  0.036855  1
  Sn  Sn21  1  0.823235  0.462733  0.462889  1
  Sn  Sn22  1  0.678140  0.963289  0.537505  1
  Sn  Sn23  1  0.176958  0.538381  0.961889  1
  Sn  Sn24  1  0.671448  0.962551  0.961883  1
  Sn  Sn25  1  0.173317  0.538319  0.537731  1
  Sn  Sn26  1  0.327811  0.037320  0.462577  1
  Sn  Sn27  1  0.824054  0.462244  0.036710  1
  Sn  Sn28  1  0.531284  0.606546  0.749927  1
  Sn  Sn29  1  0.031054  0.895559  0.749520  1
  Sn  Sn30  1  0.469523  0.394030  0.250902  1
  Sn  Sn31  1  0.968112  0.103703  0.250991  1
  Sn  Sn32  1  0.292930  0.141110  0.749974  1
  Sn  Sn33  1  0.792435  0.360864  0.749697  1
  Sn  Sn34  1  0.706852  0.858944  0.250467  1
  Sn  Sn35  1  0.207337  0.639604  0.250341  1
