# generated using pymatgen
data_Tb10Os3Rh
_symmetry_space_group_name_H-M   'P 1'
_cell_length_a   6.45511668
_cell_length_b   7.34144187
_cell_length_c   8.49416566
_cell_angle_alpha   96.70855078
_cell_angle_beta   112.21461763
_cell_angle_gamma   89.99275361
_symmetry_Int_Tables_number   1
_chemical_formula_structural   Tb10Os3Rh
_chemical_formula_sum   'Tb10 Os3 Rh1'
_cell_volume   369.68235460
_cell_formula_units_Z   1
loop_
 _symmetry_equiv_pos_site_id
 _symmetry_equiv_pos_as_xyz
  1  'x, y, z'
loop_
 _atom_site_type_symbol
 _atom_site_label
 _atom_site_symmetry_multiplicity
 _atom_site_fract_x
 _atom_site_fract_y
 _atom_site_fract_z
 _atom_site_occupancy
  Tb  Tb0  1  0.973096  0.914481  0.181023  1
  Tb  Tb1  1  0.791594  0.583337  0.816397  1
  Tb  Tb2  1  0.020879  0.083385  0.811897  1
  Tb  Tb3  1  0.206404  0.417609  0.181340  1
  Tb  Tb4  1  0.648615  0.815116  0.438129  1
  Tb  Tb5  1  0.211606  0.683336  0.563026  1
  Tb  Tb6  1  0.351625  0.183919  0.566373  1
  Tb  Tb7  1  0.794255  0.319538  0.438715  1
  Tb  Tb8  1  0.422895  0.747542  0.998108  1
  Tb  Tb9  1  0.577143  0.251300  0.999554  1
  Os  Os10  1  0.823919  0.575276  0.218895  1
  Os  Os11  1  0.605669  0.926229  0.781636  1
  Os  Os12  1  0.175768  0.423988  0.782478  1
  Rh  Rh13  1  0.396532  0.074942  0.222428  1
