# generated using pymatgen
data_Tb5Pb3Br
_symmetry_space_group_name_H-M   'P 1'
_cell_length_a   9.33059800
_cell_length_b   9.33059845
_cell_length_c   6.71033600
_cell_angle_alpha   90.00000000
_cell_angle_beta   90.00000000
_cell_angle_gamma   119.99999131
_symmetry_Int_Tables_number   1
_chemical_formula_structural   Tb5Pb3Br
_chemical_formula_sum   'Tb10 Pb6 Br2'
_cell_volume   505.93405684
_cell_formula_units_Z   2
loop_
 _symmetry_equiv_pos_site_id
 _symmetry_equiv_pos_as_xyz
  1  'x, y, z'
loop_
 _atom_site_type_symbol
 _atom_site_label
 _atom_site_symmetry_multiplicity
 _atom_site_fract_x
 _atom_site_fract_y
 _atom_site_fract_z
 _atom_site_occupancy
  Tb  Tb0  1  0.267463  0.000000  0.250000  1
  Tb  Tb1  1  0.732537  0.000000  0.750000  1
  Tb  Tb2  1  0.000000  0.267463  0.250000  1
  Tb  Tb3  1  0.000000  0.732537  0.750000  1
  Tb  Tb4  1  0.732537  0.732537  0.250000  1
  Tb  Tb5  1  0.267463  0.267463  0.750000  1
  Tb  Tb6  1  0.333333  0.666667  0.000000  1
  Tb  Tb7  1  0.666667  0.333333  0.000000  1
  Tb  Tb8  1  0.666667  0.333333  0.500000  1
  Tb  Tb9  1  0.333333  0.666667  0.500000  1
  Pb  Pb10  1  0.612402  0.000000  0.250000  1
  Pb  Pb11  1  0.387598  0.000000  0.750000  1
  Pb  Pb12  1  0.000000  0.612402  0.250000  1
  Pb  Pb13  1  0.000000  0.387598  0.750000  1
  Pb  Pb14  1  0.387598  0.387598  0.250000  1
  Pb  Pb15  1  0.612402  0.612402  0.750000  1
  Br  Br16  1  0.000000  0.000000  0.000000  1
  Br  Br17  1  0.000000  0.000000  0.500000  1
