# generated using pymatgen
data_TbEr2Pa(InPd2)2
_symmetry_space_group_name_H-M   'P 1'
_cell_length_a   7.78315665
_cell_length_b   7.77376305
_cell_length_c   3.67050200
_cell_angle_alpha   90.00000000
_cell_angle_beta   90.00000000
_cell_angle_gamma   91.51050403
_symmetry_Int_Tables_number   1
_chemical_formula_structural   TbEr2Pa(InPd2)2
_chemical_formula_sum   'Tb1 Er2 Pa1 In2 Pd4'
_cell_volume   222.00440727
_cell_formula_units_Z   1
loop_
 _symmetry_equiv_pos_site_id
 _symmetry_equiv_pos_as_xyz
  1  'x, y, z'
loop_
 _atom_site_type_symbol
 _atom_site_label
 _atom_site_symmetry_multiplicity
 _atom_site_fract_x
 _atom_site_fract_y
 _atom_site_fract_z
 _atom_site_occupancy
  Tb  Tb0  1  0.825453  0.669780  0.500000  1
  Er  Er1  1  0.170002  0.325579  0.500000  1
  Er  Er2  1  0.674602  0.175315  0.500000  1
  Pa  Pa3  1  0.330418  0.830897  0.500000  1
  In  In4  1  0.996879  0.001460  0.000000  1
  In  In5  1  0.499588  0.495164  0.000000  1
  Pd  Pd6  1  0.368625  0.121484  0.000000  1
  Pd  Pd7  1  0.876296  0.373498  0.000000  1
  Pd  Pd8  1  0.138598  0.636079  0.000000  1
  Pd  Pd9  1  0.619538  0.870744  0.000000  1
