# generated using pymatgen
data_La4ZrSn15Ir8
_symmetry_space_group_name_H-M   'P 1'
_cell_length_a   4.57219000
_cell_length_b   7.30582244
_cell_length_c   18.64933077
_cell_angle_alpha   89.41332146
_cell_angle_beta   90.00000000
_cell_angle_gamma   90.00000000
_symmetry_Int_Tables_number   1
_chemical_formula_structural   La4ZrSn15Ir8
_chemical_formula_sum   'La4 Zr1 Sn15 Ir8'
_cell_volume   622.92228329
_cell_formula_units_Z   1
loop_
 _symmetry_equiv_pos_site_id
 _symmetry_equiv_pos_as_xyz
  1  'x, y, z'
loop_
 _atom_site_type_symbol
 _atom_site_label
 _atom_site_symmetry_multiplicity
 _atom_site_fract_x
 _atom_site_fract_y
 _atom_site_fract_z
 _atom_site_occupancy
  La  La0  1  0.250000  0.995179  0.857878  1
  La  La1  1  0.250000  0.504897  0.359615  1
  La  La2  1  0.750000  0.000669  0.141163  1
  La  La3  1  0.750000  0.497551  0.641818  1
  Zr  Zr4  1  0.250000  0.320802  0.183753  1
  Sn  Sn5  1  0.250000  0.196166  0.682205  1
  Sn  Sn6  1  0.750000  0.695908  0.818228  1
  Sn  Sn7  1  0.750000  0.808112  0.317840  1
  Sn  Sn8  1  0.250000  0.725635  0.194149  1
  Sn  Sn9  1  0.250000  0.778179  0.693487  1
  Sn  Sn10  1  0.750000  0.277733  0.805584  1
  Sn  Sn11  1  0.750000  0.222825  0.299792  1
  Sn  Sn12  1  0.250000  0.858463  0.033037  1
  Sn  Sn13  1  0.250000  0.634924  0.531444  1
  Sn  Sn14  1  0.750000  0.134717  0.968140  1
  Sn  Sn15  1  0.750000  0.363006  0.467191  1
  Sn  Sn16  1  0.250000  0.515850  0.932786  1
  Sn  Sn17  1  0.250000  0.982186  0.430920  1
  Sn  Sn18  1  0.750000  0.470369  0.071244  1
  Sn  Sn19  1  0.750000  0.018717  0.567106  1
  Ir  Ir20  1  0.250000  0.242590  0.038828  1
  Ir  Ir21  1  0.250000  0.248556  0.534161  1
  Ir  Ir22  1  0.750000  0.744669  0.966757  1
  Ir  Ir23  1  0.750000  0.749430  0.465561  1
  Ir  Ir24  1  0.250000  0.022186  0.281885  1
  Ir  Ir25  1  0.250000  0.482519  0.785741  1
  Ir  Ir26  1  0.750000  0.982807  0.713413  1
  Ir  Ir27  1  0.750000  0.525353  0.216277  1
