# generated using pymatgen
data_Lu13Th3(AlRu)4
_symmetry_space_group_name_H-M   'P 1'
_cell_length_a   9.35747728
_cell_length_b   9.37841866
_cell_length_c   9.37834500
_cell_angle_alpha   59.99912053
_cell_angle_beta   59.92348932
_cell_angle_gamma   59.92578384
_symmetry_Int_Tables_number   1
_chemical_formula_structural   Lu13Th3(AlRu)4
_chemical_formula_sum   'Lu13 Th3 Al4 Ru4'
_cell_volume   581.30100178
_cell_formula_units_Z   1
loop_
 _symmetry_equiv_pos_site_id
 _symmetry_equiv_pos_as_xyz
  1  'x, y, z'
loop_
 _atom_site_type_symbol
 _atom_site_label
 _atom_site_symmetry_multiplicity
 _atom_site_fract_x
 _atom_site_fract_y
 _atom_site_fract_z
 _atom_site_occupancy
  Lu  Lu0  1  0.185202  0.604937  0.604975  1
  Lu  Lu1  1  0.058886  0.443255  0.443251  1
  Lu  Lu2  1  0.439981  0.059213  0.059242  1
  Lu  Lu3  1  0.439966  0.059241  0.441553  1
  Lu  Lu4  1  0.058874  0.443257  0.054636  1
  Lu  Lu5  1  0.439977  0.441567  0.059242  1
  Lu  Lu6  1  0.058885  0.054633  0.443227  1
  Lu  Lu7  1  0.186901  0.812866  0.812855  1
  Lu  Lu8  1  0.815821  0.184494  0.184470  1
  Lu  Lu9  1  0.815846  0.184482  0.815193  1
  Lu  Lu10  1  0.186887  0.812857  0.187381  1
  Lu  Lu11  1  0.815829  0.815215  0.184469  1
  Lu  Lu12  1  0.186874  0.187379  0.812886  1
  Th  Th13  1  0.601009  0.601162  0.601181  1
  Th  Th14  1  0.601037  0.601171  0.196602  1
  Th  Th15  1  0.600997  0.196637  0.601199  1
  Al  Al16  1  0.831309  0.829145  0.829125  1
  Al  Al17  1  0.831291  0.829127  0.510450  1
  Al  Al18  1  0.831294  0.510423  0.829116  1
  Al  Al19  1  0.510781  0.829744  0.829712  1
  Ru  Ru20  1  0.392241  0.392259  0.392264  1
  Ru  Ru21  1  0.392231  0.392255  0.823265  1
  Ru  Ru22  1  0.392227  0.823226  0.392263  1
  Ru  Ru23  1  0.825655  0.391455  0.391444  1
