# generated using pymatgen
data_Hf3CuSi4Ni2Pd
_symmetry_space_group_name_H-M   'P 1'
_cell_length_a   7.54827995
_cell_length_b   7.41910312
_cell_length_c   7.41910297
_cell_angle_alpha   149.50199262
_cell_angle_beta   128.71605586
_cell_angle_gamma   60.69386036
_symmetry_Int_Tables_number   1
_chemical_formula_structural   Hf3CuSi4Ni2Pd
_chemical_formula_sum   'Hf3 Cu1 Si4 Ni2 Pd1'
_cell_volume   163.23661309
_cell_formula_units_Z   1
loop_
 _symmetry_equiv_pos_site_id
 _symmetry_equiv_pos_as_xyz
  1  'x, y, z'
loop_
 _atom_site_type_symbol
 _atom_site_label
 _atom_site_symmetry_multiplicity
 _atom_site_fract_x
 _atom_site_fract_y
 _atom_site_fract_z
 _atom_site_occupancy
  Hf  Hf0  1  0.891025  0.874906  0.016118  1
  Hf  Hf1  1  0.116531  0.125935  0.990595  1
  Hf  Hf2  1  0.502302  0.999147  0.503155  1
  Cu  Cu3  1  0.477200  0.673057  0.804143  1
  Si  Si4  1  0.817719  0.503860  0.313859  1
  Si  Si5  1  0.194350  0.500022  0.694327  1
  Si  Si6  1  0.259020  0.783270  0.475751  1
  Si  Si7  1  0.729935  0.213526  0.516409  1
  Ni  Ni8  1  0.863743  0.670792  0.192952  1
  Ni  Ni9  1  0.123188  0.327802  0.795387  1
  Pd  Pd10  1  0.524986  0.327683  0.197304  1
