# generated using pymatgen
data_MnNb7S12
_symmetry_space_group_name_H-M   'P 1'
_cell_length_a   5.81421400
_cell_length_b   5.81421484
_cell_length_c   12.64318100
_cell_angle_alpha   90.00000000
_cell_angle_beta   90.00000000
_cell_angle_gamma   119.99999521
_symmetry_Int_Tables_number   1
_chemical_formula_structural   MnNb7S12
_chemical_formula_sum   'Mn1 Nb7 S12'
_cell_volume   370.14262109
_cell_formula_units_Z   1
loop_
 _symmetry_equiv_pos_site_id
 _symmetry_equiv_pos_as_xyz
  1  'x, y, z'
loop_
 _atom_site_type_symbol
 _atom_site_label
 _atom_site_symmetry_multiplicity
 _atom_site_fract_x
 _atom_site_fract_y
 _atom_site_fract_z
 _atom_site_occupancy
  Mn  Mn0  1  0.333333  0.666667  0.250000  1
  Nb  Nb1  1  0.000000  0.000000  0.500691  1
  Nb  Nb2  1  0.000000  0.000000  0.999309  1
  Nb  Nb3  1  0.333333  0.666667  0.998527  1
  Nb  Nb4  1  0.666667  0.333333  0.000746  1
  Nb  Nb5  1  0.666667  0.333333  0.499254  1
  Nb  Nb6  1  0.333333  0.666667  0.501473  1
  Nb  Nb7  1  0.666667  0.333333  0.750000  1
  S  S8  1  0.332020  0.330762  0.375456  1
  S  S9  1  0.669238  0.001258  0.375456  1
  S  S10  1  0.998742  0.667980  0.375456  1
  S  S11  1  0.331920  0.333095  0.625512  1
  S  S12  1  0.001174  0.668080  0.625512  1
  S  S13  1  0.666905  0.998826  0.625512  1
  S  S14  1  0.666905  0.668080  0.874488  1
  S  S15  1  0.331920  0.998826  0.874488  1
  S  S16  1  0.001174  0.333095  0.874488  1
  S  S17  1  0.669238  0.667980  0.124544  1
  S  S18  1  0.998742  0.330762  0.124544  1
  S  S19  1  0.332020  0.001258  0.124544  1
