# generated using pymatgen
data_Tb6MnCo16MoP12
_symmetry_space_group_name_H-M   'P 1'
_cell_length_a   3.72441700
_cell_length_b   10.59766500
_cell_length_c   12.27412900
_cell_angle_alpha   90.00000000
_cell_angle_beta   90.00000000
_cell_angle_gamma   90.00000000
_symmetry_Int_Tables_number   1
_chemical_formula_structural   Tb6MnCo16MoP12
_chemical_formula_sum   'Tb6 Mn1 Co16 Mo1 P12'
_cell_volume   484.46138977
_cell_formula_units_Z   1
loop_
 _symmetry_equiv_pos_site_id
 _symmetry_equiv_pos_as_xyz
  1  'x, y, z'
loop_
 _atom_site_type_symbol
 _atom_site_label
 _atom_site_symmetry_multiplicity
 _atom_site_fract_x
 _atom_site_fract_y
 _atom_site_fract_z
 _atom_site_occupancy
  Tb  Tb0  1  0.000000  0.500000  0.524132  1
  Tb  Tb1  1  0.500000  0.000000  0.477724  1
  Tb  Tb2  1  0.500000  0.818495  0.205861  1
  Tb  Tb3  1  0.500000  0.181505  0.205861  1
  Tb  Tb4  1  0.000000  0.682135  0.795262  1
  Tb  Tb5  1  0.000000  0.317865  0.795262  1
  Mn  Mn6  1  0.000000  0.000000  0.840982  1
  Co  Co7  1  0.500000  0.500000  0.702023  1
  Co  Co8  1  0.000000  0.000000  0.297253  1
  Co  Co9  1  0.000000  0.500000  0.986225  1
  Co  Co10  1  0.500000  0.000000  0.013981  1
  Co  Co11  1  0.500000  0.331380  0.990273  1
  Co  Co12  1  0.500000  0.668620  0.990273  1
  Co  Co13  1  0.000000  0.165803  0.005716  1
  Co  Co14  1  0.000000  0.834197  0.005716  1
  Co  Co15  1  0.500000  0.295382  0.431913  1
  Co  Co16  1  0.500000  0.704618  0.431913  1
  Co  Co17  1  0.000000  0.203142  0.570037  1
  Co  Co18  1  0.000000  0.796858  0.570037  1
  Co  Co19  1  0.500000  0.879846  0.709143  1
  Co  Co20  1  0.500000  0.120154  0.709143  1
  Co  Co21  1  0.000000  0.621471  0.292728  1
  Co  Co22  1  0.000000  0.378529  0.292728  1
  Mo  Mo23  1  0.500000  0.500000  0.155685  1
  P  P24  1  0.500000  0.500000  0.881750  1
  P  P25  1  0.000000  0.000000  0.116933  1
  P  P26  1  0.500000  0.500000  0.348462  1
  P  P27  1  0.000000  0.000000  0.655837  1
  P  P28  1  0.500000  0.310078  0.616367  1
  P  P29  1  0.500000  0.689922  0.616367  1
  P  P30  1  0.000000  0.189261  0.384972  1
  P  P31  1  0.000000  0.810739  0.384972  1
  P  P32  1  0.500000  0.849262  0.892117  1
  P  P33  1  0.500000  0.150738  0.892117  1
  P  P34  1  0.000000  0.656446  0.105121  1
  P  P35  1  0.000000  0.343554  0.105121  1
