# generated using pymatgen
data_Sb12MoIrPt2
_symmetry_space_group_name_H-M   'P 1'
_cell_length_a   8.17490388
_cell_length_b   8.26637515
_cell_length_c   8.24459231
_cell_angle_alpha   109.63696595
_cell_angle_beta   109.32241610
_cell_angle_gamma   109.29628788
_symmetry_Int_Tables_number   1
_chemical_formula_structural   Sb12MoIrPt2
_chemical_formula_sum   'Sb12 Mo1 Ir1 Pt2'
_cell_volume   429.71984357
_cell_formula_units_Z   1
loop_
 _symmetry_equiv_pos_site_id
 _symmetry_equiv_pos_as_xyz
  1  'x, y, z'
loop_
 _atom_site_type_symbol
 _atom_site_label
 _atom_site_symmetry_multiplicity
 _atom_site_fract_x
 _atom_site_fract_y
 _atom_site_fract_z
 _atom_site_occupancy
  Sb  Sb0  1  0.848669  0.655994  0.502435  1
  Sb  Sb1  1  0.846239  0.339100  0.182429  1
  Sb  Sb2  1  0.153761  0.660900  0.817571  1
  Sb  Sb3  1  0.339633  0.494885  0.151385  1
  Sb  Sb4  1  0.151331  0.344006  0.497565  1
  Sb  Sb5  1  0.656376  0.811690  0.151692  1
  Sb  Sb6  1  0.187961  0.842441  0.337488  1
  Sb  Sb7  1  0.660367  0.505115  0.848615  1
  Sb  Sb8  1  0.812039  0.157559  0.662512  1
  Sb  Sb9  1  0.343624  0.188310  0.848308  1
  Sb  Sb10  1  0.504525  0.847723  0.659561  1
  Sb  Sb11  1  0.495475  0.152277  0.340439  1
  Mo  Mo12  1  0.500000  0.000000  0.000000  1
  Ir  Ir13  1  0.000000  0.500000  0.000000  1
  Pt  Pt14  1  0.000000  0.000000  0.500000  1
  Pt  Pt15  1  0.500000  0.500000  0.500000  1
