# generated using pymatgen
data_Pa3Co8ReP6
_symmetry_space_group_name_H-M   'P 1'
_cell_length_a   3.78836100
_cell_length_b   10.50809800
_cell_length_c   12.25221800
_cell_angle_alpha   90.00000000
_cell_angle_beta   90.00000000
_cell_angle_gamma   90.00000000
_symmetry_Int_Tables_number   1
_chemical_formula_structural   Pa3Co8ReP6
_chemical_formula_sum   'Pa6 Co16 Re2 P12'
_cell_volume   487.74203611
_cell_formula_units_Z   2
loop_
 _symmetry_equiv_pos_site_id
 _symmetry_equiv_pos_as_xyz
  1  'x, y, z'
loop_
 _atom_site_type_symbol
 _atom_site_label
 _atom_site_symmetry_multiplicity
 _atom_site_fract_x
 _atom_site_fract_y
 _atom_site_fract_z
 _atom_site_occupancy
  Pa  Pa0  1  0.000000  0.500000  0.526209  1
  Pa  Pa1  1  0.500000  0.000000  0.473791  1
  Pa  Pa2  1  0.500000  0.818677  0.207450  1
  Pa  Pa3  1  0.500000  0.181323  0.207450  1
  Pa  Pa4  1  0.000000  0.681323  0.792550  1
  Pa  Pa5  1  0.000000  0.318677  0.792550  1
  Co  Co6  1  0.500000  0.500000  0.699086  1
  Co  Co7  1  0.000000  0.000000  0.300914  1
  Co  Co8  1  0.000000  0.500000  0.983262  1
  Co  Co9  1  0.500000  0.000000  0.016738  1
  Co  Co10  1  0.500000  0.332108  0.988911  1
  Co  Co11  1  0.500000  0.667892  0.988911  1
  Co  Co12  1  0.000000  0.167892  0.011089  1
  Co  Co13  1  0.000000  0.832108  0.011089  1
  Co  Co14  1  0.500000  0.303202  0.429121  1
  Co  Co15  1  0.500000  0.696798  0.429121  1
  Co  Co16  1  0.000000  0.196798  0.570879  1
  Co  Co17  1  0.000000  0.803202  0.570879  1
  Co  Co18  1  0.500000  0.878854  0.713121  1
  Co  Co19  1  0.500000  0.121146  0.713121  1
  Co  Co20  1  0.000000  0.621146  0.286879  1
  Co  Co21  1  0.000000  0.378854  0.286879  1
  Re  Re22  1  0.500000  0.500000  0.153278  1
  Re  Re23  1  0.000000  0.000000  0.846722  1
  P  P24  1  0.500000  0.500000  0.880433  1
  P  P25  1  0.000000  0.000000  0.119567  1
  P  P26  1  0.500000  0.500000  0.344879  1
  P  P27  1  0.000000  0.000000  0.655121  1
  P  P28  1  0.500000  0.308110  0.613086  1
  P  P29  1  0.500000  0.691890  0.613086  1
  P  P30  1  0.000000  0.191890  0.386914  1
  P  P31  1  0.000000  0.808110  0.386914  1
  P  P32  1  0.500000  0.847639  0.896164  1
  P  P33  1  0.500000  0.152361  0.896164  1
  P  P34  1  0.000000  0.652361  0.103836  1
  P  P35  1  0.000000  0.347639  0.103836  1
