# generated using pymatgen
data_TaBeNb3B3Mo2
_symmetry_space_group_name_H-M   'P 1'
_cell_length_a   6.20777437
_cell_length_b   6.20777503
_cell_length_c   3.28632200
_cell_angle_alpha   90.00000000
_cell_angle_beta   90.00000000
_cell_angle_gamma   90.28162555
_symmetry_Int_Tables_number   1
_chemical_formula_structural   TaBeNb3B3Mo2
_chemical_formula_sum   'Ta1 Be1 Nb3 B3 Mo2'
_cell_volume   126.64170859
_cell_formula_units_Z   1
loop_
 _symmetry_equiv_pos_site_id
 _symmetry_equiv_pos_as_xyz
  1  'x, y, z'
loop_
 _atom_site_type_symbol
 _atom_site_label
 _atom_site_symmetry_multiplicity
 _atom_site_fract_x
 _atom_site_fract_y
 _atom_site_fract_z
 _atom_site_occupancy
  Ta  Ta0  1  0.679266  0.179266  0.500000  1
  Be  Be1  1  0.111312  0.611312  0.000000  1
  Nb  Nb2  1  0.327548  0.827548  0.500000  1
  Nb  Nb3  1  0.179107  0.314801  0.500000  1
  Nb  Nb4  1  0.814801  0.679107  0.500000  1
  B  B5  1  0.884709  0.384709  0.000000  1
  B  B6  1  0.609573  0.892990  0.000000  1
  B  B7  1  0.392990  0.109573  0.000000  1
  Mo  Mo8  1  0.997983  0.002712  0.000000  1
  Mo  Mo9  1  0.502712  0.497983  0.000000  1
