# generated using pymatgen
data_TbYFe2(CoO5)2
_symmetry_space_group_name_H-M   'P 1'
_cell_length_a   5.76853512
_cell_length_b   7.32144918
_cell_length_c   8.51644259
_cell_angle_alpha   90.06550031
_cell_angle_beta   90.02352234
_cell_angle_gamma   90.00174504
_symmetry_Int_Tables_number   1
_chemical_formula_structural   TbYFe2(CoO5)2
_chemical_formula_sum   'Tb2 Y2 Fe4 Co4 O20'
_cell_volume   359.68348375
_cell_formula_units_Z   2
loop_
 _symmetry_equiv_pos_site_id
 _symmetry_equiv_pos_as_xyz
  1  'x, y, z'
loop_
 _atom_site_type_symbol
 _atom_site_label
 _atom_site_symmetry_multiplicity
 _atom_site_fract_x
 _atom_site_fract_y
 _atom_site_fract_z
 _atom_site_occupancy
  Tb  Tb0  1  0.499990  0.364732  0.329810  1
  Tb  Tb1  1  0.500010  0.635268  0.670190  1
  Y  Y2  1  0.500072  0.135409  0.830032  1
  Y  Y3  1  0.499928  0.864591  0.169968  1
  Fe  Fe4  1  0.000000  0.110086  0.146269  1
  Fe  Fe5  1  0.000000  0.889914  0.853731  1
  Fe  Fe6  1  0.999982  0.389740  0.646306  1
  Fe  Fe7  1  0.000018  0.610260  0.353694  1
  Co  Co8  1  0.250075  0.999999  0.500002  1
  Co  Co9  1  0.749925  0.000001  0.499998  1
  Co  Co10  1  0.750034  0.500031  0.000036  1
  Co  Co11  1  0.249966  0.499969  0.999964  1
  O  O12  1  0.234024  0.999999  0.000013  1
  O  O13  1  0.765976  0.000001  0.999987  1
  O  O14  1  0.766345  0.499973  0.499996  1
  O  O15  1  0.233655  0.500027  0.500004  1
  O  O16  1  0.000038  0.352922  0.067673  1
  O  O17  1  0.999962  0.647078  0.932327  1
  O  O18  1  0.000022  0.147349  0.566949  1
  O  O19  1  0.999978  0.852651  0.433051  1
  O  O20  1  0.258677  0.103484  0.297375  1
  O  O21  1  0.741323  0.896516  0.702625  1
  O  O22  1  0.258628  0.896509  0.702568  1
  O  O23  1  0.741431  0.395618  0.797539  1
  O  O24  1  0.741372  0.103491  0.297432  1
  O  O25  1  0.258569  0.604382  0.202461  1
  O  O26  1  0.741546  0.604438  0.202393  1
  O  O27  1  0.258454  0.395562  0.797607  1
  O  O28  1  0.500073  0.342160  0.055345  1
  O  O29  1  0.499927  0.657840  0.944655  1
  O  O30  1  0.500027  0.157869  0.555791  1
  O  O31  1  0.499973  0.842131  0.444209  1
