# generated using pymatgen
data_Dy5Lu3P12(IrRh3)4
_symmetry_space_group_name_H-M   'P 1'
_cell_length_a   12.96149800
_cell_length_b   12.96149753
_cell_length_c   3.95911200
_cell_angle_alpha   90.00000000
_cell_angle_beta   90.00000000
_cell_angle_gamma   120.00000119
_symmetry_Int_Tables_number   1
_chemical_formula_structural   Dy5Lu3P12(IrRh3)4
_chemical_formula_sum   'Dy5 Lu3 P12 Ir4 Rh12'
_cell_volume   576.02163155
_cell_formula_units_Z   1
loop_
 _symmetry_equiv_pos_site_id
 _symmetry_equiv_pos_as_xyz
  1  'x, y, z'
loop_
 _atom_site_type_symbol
 _atom_site_label
 _atom_site_symmetry_multiplicity
 _atom_site_fract_x
 _atom_site_fract_y
 _atom_site_fract_z
 _atom_site_occupancy
  Dy  Dy0  1  0.333333  0.666667  0.500000  1
  Dy  Dy1  1  0.666667  0.333333  0.500000  1
  Dy  Dy2  1  0.000000  0.812451  0.000000  1
  Dy  Dy3  1  0.187549  0.187549  0.000000  1
  Dy  Dy4  1  0.812451  0.000000  0.000000  1
  Lu  Lu5  1  0.000000  0.445285  0.500000  1
  Lu  Lu6  1  0.554715  0.554715  0.500000  1
  Lu  Lu7  1  0.445285  0.000000  0.500000  1
  P  P8  1  0.000000  0.650440  0.500000  1
  P  P9  1  0.349560  0.349560  0.500000  1
  P  P10  1  0.650440  0.000000  0.500000  1
  P  P11  1  0.516966  0.688853  0.000000  1
  P  P12  1  0.311147  0.828114  0.000000  1
  P  P13  1  0.171886  0.483034  0.000000  1
  P  P14  1  0.483034  0.171886  0.000000  1
  P  P15  1  0.688853  0.516966  0.000000  1
  P  P16  1  0.828114  0.311147  0.000000  1
  P  P17  1  0.000000  0.176775  0.500000  1
  P  P18  1  0.823225  0.823225  0.500000  1
  P  P19  1  0.176775  0.000000  0.500000  1
  Ir  Ir20  1  0.000000  0.275012  0.000000  1
  Ir  Ir21  1  0.724988  0.724988  0.000000  1
  Ir  Ir22  1  0.275012  0.000000  0.000000  1
  Ir  Ir23  1  0.000000  0.000000  0.500000  1
  Rh  Rh24  1  0.513946  0.869920  0.000000  1
  Rh  Rh25  1  0.130080  0.644026  0.000000  1
  Rh  Rh26  1  0.355974  0.486054  0.000000  1
  Rh  Rh27  1  0.486054  0.355974  0.000000  1
  Rh  Rh28  1  0.869920  0.513946  0.000000  1
  Rh  Rh29  1  0.644026  0.130080  0.000000  1
  Rh  Rh30  1  0.627175  0.805561  0.500000  1
  Rh  Rh31  1  0.194439  0.821613  0.500000  1
  Rh  Rh32  1  0.178387  0.372825  0.500000  1
  Rh  Rh33  1  0.372825  0.178387  0.500000  1
  Rh  Rh34  1  0.805561  0.627175  0.500000  1
  Rh  Rh35  1  0.821613  0.194439  0.500000  1
