# generated using pymatgen
data_Gd3Cd2Pt2Pb
_symmetry_space_group_name_H-M   'P 1'
_cell_length_a   7.91120300
_cell_length_b   7.76779028
_cell_length_c   3.60994800
_cell_angle_alpha   90.00000000
_cell_angle_beta   90.00000000
_cell_angle_gamma   120.61264106
_symmetry_Int_Tables_number   1
_chemical_formula_structural   Gd3Cd2Pt2Pb
_chemical_formula_sum   'Gd3 Cd2 Pt2 Pb1'
_cell_volume   190.92258000
_cell_formula_units_Z   1
loop_
 _symmetry_equiv_pos_site_id
 _symmetry_equiv_pos_as_xyz
  1  'x, y, z'
loop_
 _atom_site_type_symbol
 _atom_site_label
 _atom_site_symmetry_multiplicity
 _atom_site_fract_x
 _atom_site_fract_y
 _atom_site_fract_z
 _atom_site_occupancy
  Gd  Gd0  1  0.574602  0.000000  0.500000  1
  Gd  Gd1  1  0.423942  0.418596  0.500000  1
  Gd  Gd2  1  0.005346  0.581404  0.500000  1
  Cd  Cd3  1  0.993616  0.226817  0.000000  1
  Cd  Cd4  1  0.766799  0.773182  0.000000  1
  Pt  Pt5  1  0.678181  0.341791  0.000000  1
  Pt  Pt6  1  0.336390  0.658209  0.000000  1
  Pb  Pb7  1  0.221125  0.000000  0.000000  1
