# generated using pymatgen
data_HfNb4Si3
_symmetry_space_group_name_H-M   'P 1'
_cell_length_a   7.65529077
_cell_length_b   7.70206512
_cell_length_c   7.70206446
_cell_angle_alpha   128.92837311
_cell_angle_beta   128.80175609
_cell_angle_gamma   75.36234834
_symmetry_Int_Tables_number   1
_chemical_formula_structural   HfNb4Si3
_chemical_formula_sum   'Hf2 Nb8 Si6'
_cell_volume   267.76346434
_cell_formula_units_Z   2
loop_
 _symmetry_equiv_pos_site_id
 _symmetry_equiv_pos_as_xyz
  1  'x, y, z'
loop_
 _atom_site_type_symbol
 _atom_site_label
 _atom_site_symmetry_multiplicity
 _atom_site_fract_x
 _atom_site_fract_y
 _atom_site_fract_z
 _atom_site_occupancy
  Hf  Hf0  1  0.010425  0.184223  0.499833  1
  Hf  Hf1  1  0.510425  0.010591  0.826201  1
  Nb  Nb2  1  0.183886  0.684099  0.162202  1
  Nb  Nb3  1  0.483889  0.982104  0.171795  1
  Nb  Nb4  1  0.683886  0.521683  0.499787  1
  Nb  Nb5  1  0.983889  0.812094  0.501785  1
  Nb  Nb6  1  0.316648  0.481120  0.499203  1
  Nb  Nb7  1  0.816648  0.317445  0.835528  1
  Nb  Nb8  1  0.503773  0.504446  0.001631  1
  Nb  Nb9  1  0.003773  0.002142  0.999327  1
  Si  Si10  1  0.130535  0.630323  0.758118  1
  Si  Si11  1  0.630535  0.872417  0.500212  1
  Si  Si12  1  0.371182  0.130296  0.499712  1
  Si  Si13  1  0.871182  0.371470  0.240886  1
  Si  Si14  1  0.749663  0.744012  0.998129  1
  Si  Si15  1  0.249663  0.251534  0.005651  1
