# generated using pymatgen
data_Ge2Mo12IrRh5N4
_symmetry_space_group_name_H-M   'P 1'
_cell_length_a   6.84898582
_cell_length_b   6.84323786
_cell_length_c   6.84332578
_cell_angle_alpha   89.26515088
_cell_angle_beta   90.03635806
_cell_angle_gamma   89.95781681
_symmetry_Int_Tables_number   1
_chemical_formula_structural   Ge2Mo12IrRh5N4
_chemical_formula_sum   'Ge2 Mo12 Ir1 Rh5 N4'
_cell_volume   320.71493890
_cell_formula_units_Z   1
loop_
 _symmetry_equiv_pos_site_id
 _symmetry_equiv_pos_as_xyz
  1  'x, y, z'
loop_
 _atom_site_type_symbol
 _atom_site_label
 _atom_site_symmetry_multiplicity
 _atom_site_fract_x
 _atom_site_fract_y
 _atom_site_fract_z
 _atom_site_occupancy
  Ge  Ge0  1  0.684965  0.176959  0.935012  1
  Ge  Ge1  1  0.185484  0.822898  0.065817  1
  Mo  Mo2  1  0.621048  0.044374  0.544799  1
  Mo  Mo3  1  0.120569  0.954451  0.455771  1
  Mo  Mo4  1  0.867283  0.538941  0.944244  1
  Mo  Mo5  1  0.367812  0.460694  0.055340  1
  Mo  Mo6  1  0.200807  0.623184  0.696483  1
  Mo  Mo7  1  0.299384  0.125476  0.785716  1
  Mo  Mo8  1  0.799609  0.875148  0.215327  1
  Mo  Mo9  1  0.701790  0.377601  0.303733  1
  Mo  Mo10  1  0.049105  0.210925  0.131442  1
  Mo  Mo11  1  0.961848  0.306420  0.620604  1
  Mo  Mo12  1  0.549293  0.789206  0.867930  1
  Mo  Mo13  1  0.462841  0.694313  0.379014  1
  Ir  Ir14  1  0.812729  0.686852  0.567617  1
  Rh  Rh15  1  0.311844  0.311656  0.432997  1
  Rh  Rh16  1  0.061371  0.570953  0.299603  1
  Rh  Rh17  1  0.436218  0.061775  0.173604  1
  Rh  Rh18  1  0.560871  0.428518  0.699352  1
  Rh  Rh19  1  0.936463  0.938876  0.826444  1
  N  N20  1  0.375208  0.872568  0.619482  1
  N  N21  1  0.875745  0.128164  0.380267  1
  N  N22  1  0.129035  0.375426  0.874615  1
  N  N23  1  0.628680  0.624622  0.124786  1
