# generated using pymatgen
data_HoLu15(ZnIn3)2
_symmetry_space_group_name_H-M   'P 1'
_cell_length_a   10.42488400
_cell_length_b   10.42488367
_cell_length_c   6.67316100
_cell_angle_alpha   90.00000000
_cell_angle_beta   90.00000000
_cell_angle_gamma   120.00000103
_symmetry_Int_Tables_number   1
_chemical_formula_structural   HoLu15(ZnIn3)2
_chemical_formula_sum   'Ho1 Lu15 Zn2 In6'
_cell_volume   628.06512539
_cell_formula_units_Z   1
loop_
 _symmetry_equiv_pos_site_id
 _symmetry_equiv_pos_as_xyz
  1  'x, y, z'
loop_
 _atom_site_type_symbol
 _atom_site_label
 _atom_site_symmetry_multiplicity
 _atom_site_fract_x
 _atom_site_fract_y
 _atom_site_fract_z
 _atom_site_occupancy
  Ho  Ho0  1  0.000000  0.000000  0.727480  1
  Lu  Lu1  1  0.173519  0.826481  0.490927  1
  Lu  Lu2  1  0.652962  0.826481  0.490927  1
  Lu  Lu3  1  0.173519  0.347038  0.490927  1
  Lu  Lu4  1  0.826333  0.173667  0.993542  1
  Lu  Lu5  1  0.347334  0.173667  0.993542  1
  Lu  Lu6  1  0.826333  0.652666  0.993542  1
  Lu  Lu7  1  0.333333  0.666667  0.860290  1
  Lu  Lu8  1  0.666667  0.333333  0.359722  1
  Lu  Lu9  1  0.480731  0.519269  0.208418  1
  Lu  Lu10  1  0.038538  0.519269  0.208418  1
  Lu  Lu11  1  0.480731  0.961462  0.208418  1
  Lu  Lu12  1  0.519050  0.480950  0.708626  1
  Lu  Lu13  1  0.961900  0.480950  0.708626  1
  Lu  Lu14  1  0.519050  0.038100  0.708626  1
  Lu  Lu15  1  0.000000  0.000000  0.227788  1
  Zn  Zn16  1  0.333333  0.666667  0.422252  1
  Zn  Zn17  1  0.666667  0.333333  0.920420  1
  In  In18  1  0.165407  0.834593  0.975593  1
  In  In19  1  0.669185  0.834593  0.975593  1
  In  In20  1  0.165407  0.330815  0.975593  1
  In  In21  1  0.834909  0.165091  0.474923  1
  In  In22  1  0.330183  0.165091  0.474923  1
  In  In23  1  0.834909  0.669817  0.474923  1
