# generated using pymatgen
data_Tb5Dy2RhI12
_symmetry_space_group_name_H-M   'P 1'
_cell_length_a   9.82158682
_cell_length_b   9.82227786
_cell_length_c   9.81960567
_cell_angle_alpha   106.94152099
_cell_angle_beta   106.93831829
_cell_angle_gamma   106.95495182
_symmetry_Int_Tables_number   1
_chemical_formula_structural   Tb5Dy2RhI12
_chemical_formula_sum   'Tb5 Dy2 Rh1 I12'
_cell_volume   790.10334501
_cell_formula_units_Z   1
loop_
 _symmetry_equiv_pos_site_id
 _symmetry_equiv_pos_as_xyz
  1  'x, y, z'
loop_
 _atom_site_type_symbol
 _atom_site_label
 _atom_site_symmetry_multiplicity
 _atom_site_fract_x
 _atom_site_fract_y
 _atom_site_fract_z
 _atom_site_occupancy
  Tb  Tb0  1  0.976793  0.703894  0.904916  1
  Tb  Tb1  1  0.703821  0.905151  0.976647  1
  Tb  Tb2  1  0.094850  0.023130  0.296174  1
  Tb  Tb3  1  0.023042  0.296021  0.094519  1
  Tb  Tb4  1  0.296025  0.094839  0.022895  1
  Dy  Dy5  1  0.499990  0.500017  0.499930  1
  Dy  Dy6  1  0.905609  0.976970  0.704897  1
  Rh  Rh7  1  0.000084  0.000003  0.000153  1
  I  I8  1  0.535577  0.836680  0.612112  1
  I  I9  1  0.836531  0.612610  0.535100  1
  I  I10  1  0.612197  0.535090  0.836554  1
  I  I11  1  0.464886  0.163417  0.387804  1
  I  I12  1  0.163392  0.387755  0.464893  1
  I  I13  1  0.387800  0.464917  0.163400  1
  I  I14  1  0.676314  0.224512  0.070697  1
  I  I15  1  0.223790  0.070500  0.676162  1
  I  I16  1  0.070715  0.676401  0.224509  1
  I  I17  1  0.323674  0.775497  0.929300  1
  I  I18  1  0.775700  0.929410  0.324157  1
  I  I19  1  0.929209  0.323187  0.775182  1
