# generated using pymatgen
data_Ho5ScTaCo16ReP12
_symmetry_space_group_name_H-M   'P 1'
_cell_length_a   12.13558900
_cell_length_b   12.13558935
_cell_length_c   3.70097800
_cell_angle_alpha   90.00000000
_cell_angle_beta   90.00000000
_cell_angle_gamma   119.92791844
_symmetry_Int_Tables_number   1
_chemical_formula_structural   Ho5ScTaCo16ReP12
_chemical_formula_sum   'Ho5 Sc1 Ta1 Co16 Re1 P12'
_cell_volume   472.37168272
_cell_formula_units_Z   1
loop_
 _symmetry_equiv_pos_site_id
 _symmetry_equiv_pos_as_xyz
  1  'x, y, z'
loop_
 _atom_site_type_symbol
 _atom_site_label
 _atom_site_symmetry_multiplicity
 _atom_site_fract_x
 _atom_site_fract_y
 _atom_site_fract_z
 _atom_site_occupancy
  Ho  Ho0  1  0.665395  0.333513  0.000000  1
  Ho  Ho1  1  0.333985  0.666775  0.000000  1
  Ho  Ho2  1  0.812637  0.812756  0.500000  1
  Ho  Ho3  1  0.182208  0.999521  0.500000  1
  Ho  Ho4  1  0.999355  0.182194  0.500000  1
  Sc  Sc5  1  0.000526  0.560241  0.000000  1
  Ta  Ta6  1  0.558982  0.001252  0.000000  1
  Co  Co7  1  0.875107  0.352913  0.500000  1
  Co  Co8  1  0.639491  0.516571  0.500000  1
  Co  Co9  1  0.482104  0.129174  0.500000  1
  Co  Co10  1  0.358222  0.877737  0.500000  1
  Co  Co11  1  0.516122  0.641712  0.500000  1
  Co  Co12  1  0.129725  0.479654  0.500000  1
  Co  Co13  1  0.804078  0.175638  0.000000  1
  Co  Co14  1  0.816790  0.622858  0.000000  1
  Co  Co15  1  0.374763  0.200428  0.000000  1
  Co  Co16  1  0.181392  0.807218  0.000000  1
  Co  Co17  1  0.623414  0.820529  0.000000  1
  Co  Co18  1  0.200426  0.372953  0.000000  1
  Co  Co19  1  0.282598  0.281896  0.500000  1
  Co  Co20  1  0.718814  0.998193  0.500000  1
  Co  Co21  1  0.999282  0.720776  0.500000  1
  Co  Co22  1  0.000060  0.999431  0.000000  1
  Re  Re23  1  0.446281  0.446832  0.000000  1
  P  P24  1  0.690864  0.169908  0.500000  1
  P  P25  1  0.828533  0.519191  0.500000  1
  P  P26  1  0.479055  0.315591  0.500000  1
  P  P27  1  0.171456  0.692332  0.500000  1
  P  P28  1  0.518787  0.830419  0.500000  1
  P  P29  1  0.314822  0.478777  0.500000  1
  P  P30  1  0.177525  0.177196  0.000000  1
  P  P31  1  0.821563  0.997596  0.000000  1
  P  P32  1  0.997865  0.820207  0.000000  1
  P  P33  1  0.637423  0.638123  0.000000  1
  P  P34  1  0.356577  0.004094  0.000000  1
  P  P35  1  0.003769  0.355801  0.000000  1
