# generated using pymatgen
data_SmDy4TmRh18
_symmetry_space_group_name_H-M   'P 1'
_cell_length_a   5.26991200
_cell_length_b   5.26991179
_cell_length_c   17.55225200
_cell_angle_alpha   90.00000000
_cell_angle_beta   90.00000000
_cell_angle_gamma   119.99998878
_symmetry_Int_Tables_number   1
_chemical_formula_structural   SmDy4TmRh18
_chemical_formula_sum   'Sm1 Dy4 Tm1 Rh18'
_cell_volume   422.15334533
_cell_formula_units_Z   1
loop_
 _symmetry_equiv_pos_site_id
 _symmetry_equiv_pos_as_xyz
  1  'x, y, z'
loop_
 _atom_site_type_symbol
 _atom_site_label
 _atom_site_symmetry_multiplicity
 _atom_site_fract_x
 _atom_site_fract_y
 _atom_site_fract_z
 _atom_site_occupancy
  Sm  Sm0  1  0.666667  0.333333  0.250001  1
  Dy  Dy1  1  0.333333  0.666667  0.958053  1
  Dy  Dy2  1  0.666667  0.333333  0.041373  1
  Dy  Dy3  1  0.666667  0.333333  0.458872  1
  Dy  Dy4  1  0.333333  0.666667  0.749856  1
  Tm  Tm5  1  0.333333  0.666667  0.542181  1
  Rh  Rh6  1  0.167365  0.832635  0.375067  1
  Rh  Rh7  1  0.167365  0.334732  0.375067  1
  Rh  Rh8  1  0.665268  0.832635  0.375067  1
  Rh  Rh9  1  0.832640  0.167360  0.625258  1
  Rh  Rh10  1  0.832640  0.665280  0.625258  1
  Rh  Rh11  1  0.334720  0.167360  0.625258  1
  Rh  Rh12  1  0.832690  0.167310  0.874366  1
  Rh  Rh13  1  0.832690  0.665380  0.874366  1
  Rh  Rh14  1  0.334620  0.167310  0.874366  1
  Rh  Rh15  1  0.167279  0.832721  0.125113  1
  Rh  Rh16  1  0.167279  0.334558  0.125113  1
  Rh  Rh17  1  0.665442  0.832721  0.125113  1
  Rh  Rh18  1  0.333333  0.666667  0.249980  1
  Rh  Rh19  1  0.666667  0.333333  0.750009  1
  Rh  Rh20  1  0.000000  0.000000  0.250082  1
  Rh  Rh21  1  0.000000  0.000000  0.750008  1
  Rh  Rh22  1  0.000000  0.000000  0.500374  1
  Rh  Rh23  1  0.000000  0.000000  0.999804  1
