# generated using pymatgen
data_LaTl(SO4)2
_symmetry_space_group_name_H-M   'P 1'
_cell_length_a   5.41656800
_cell_length_b   7.93227393
_cell_length_c   16.98549900
_cell_angle_alpha   92.02014058
_cell_angle_beta   90.00000000
_cell_angle_gamma   90.00000000
_symmetry_Int_Tables_number   1
_chemical_formula_structural   LaTl(SO4)2
_chemical_formula_sum   'La4 Tl4 S8 O32'
_cell_volume   729.34030479
_cell_formula_units_Z   4
loop_
 _symmetry_equiv_pos_site_id
 _symmetry_equiv_pos_as_xyz
  1  'x, y, z'
loop_
 _atom_site_type_symbol
 _atom_site_label
 _atom_site_symmetry_multiplicity
 _atom_site_fract_x
 _atom_site_fract_y
 _atom_site_fract_z
 _atom_site_occupancy
  La  La0  1  0.310440  0.866912  0.362744  1
  La  La1  1  0.810440  0.633088  0.137256  1
  La  La2  1  0.189560  0.366912  0.862744  1
  La  La3  1  0.689560  0.133088  0.637256  1
  Tl  Tl4  1  0.737784  0.857606  0.886744  1
  Tl  Tl5  1  0.237784  0.642394  0.613256  1
  Tl  Tl6  1  0.262216  0.142394  0.113256  1
  Tl  Tl7  1  0.762216  0.357606  0.386744  1
  S  S8  1  0.734623  0.467739  0.751987  1
  S  S9  1  0.242331  0.182047  0.518592  1
  S  S10  1  0.742331  0.317953  0.981408  1
  S  S11  1  0.234623  0.032261  0.748013  1
  S  S12  1  0.265377  0.532261  0.248013  1
  S  S13  1  0.257669  0.682047  0.018592  1
  S  S14  1  0.765377  0.967739  0.251987  1
  S  S15  1  0.757669  0.817953  0.481408  1
  O  O16  1  0.556477  0.693263  0.464369  1
  O  O17  1  0.711409  0.455248  0.664808  1
  O  O18  1  0.779943  0.855076  0.567506  1
  O  O19  1  0.495271  0.464751  0.211904  1
  O  O20  1  0.211409  0.044752  0.835192  1
  O  O21  1  0.951633  0.572224  0.776660  1
  O  O22  1  0.288591  0.544752  0.335192  1
  O  O23  1  0.692102  0.973660  0.438840  1
  O  O24  1  0.998185  0.748839  0.451930  1
  O  O25  1  0.220057  0.144924  0.432494  1
  O  O26  1  0.788591  0.955248  0.164808  1
  O  O27  1  0.192102  0.526340  0.061160  1
  O  O28  1  0.782991  0.290119  0.779348  1
  O  O29  1  0.279943  0.644924  0.932494  1
  O  O30  1  0.451633  0.927776  0.723340  1
  O  O31  1  0.217009  0.709881  0.220652  1
  O  O32  1  0.001815  0.251161  0.548070  1
  O  O33  1  0.943523  0.193263  0.964369  1
  O  O34  1  0.048367  0.427776  0.223340  1
  O  O35  1  0.307898  0.026340  0.561160  1
  O  O36  1  0.995271  0.035249  0.288096  1
  O  O37  1  0.282991  0.209881  0.720652  1
  O  O38  1  0.807898  0.473660  0.938840  1
  O  O39  1  0.443523  0.306737  0.535631  1
  O  O40  1  0.717009  0.790119  0.279348  1
  O  O41  1  0.504729  0.535249  0.788096  1
  O  O42  1  0.498185  0.751161  0.048070  1
  O  O43  1  0.056477  0.806737  0.035631  1
  O  O44  1  0.501815  0.248839  0.951930  1
  O  O45  1  0.004729  0.964751  0.711904  1
  O  O46  1  0.548367  0.072224  0.276660  1
  O  O47  1  0.720057  0.355076  0.067506  1
