# generated using pymatgen
data_DyEr11Tm8(CoBi2)4
_symmetry_space_group_name_H-M   'P 1'
_cell_length_a   7.89147296
_cell_length_b   8.82953400
_cell_length_c   12.33416800
_cell_angle_alpha   90.00000000
_cell_angle_beta   90.05089143
_cell_angle_gamma   90.00000000
_symmetry_Int_Tables_number   1
_chemical_formula_structural   DyEr11Tm8(CoBi2)4
_chemical_formula_sum   'Dy1 Er11 Tm8 Co4 Bi8'
_cell_volume   859.42017454
_cell_formula_units_Z   1
loop_
 _symmetry_equiv_pos_site_id
 _symmetry_equiv_pos_as_xyz
  1  'x, y, z'
loop_
 _atom_site_type_symbol
 _atom_site_label
 _atom_site_symmetry_multiplicity
 _atom_site_fract_x
 _atom_site_fract_y
 _atom_site_fract_z
 _atom_site_occupancy
  Dy  Dy0  1  0.655152  0.750000  0.699665  1
  Er  Er1  1  0.344897  0.250000  0.300852  1
  Er  Er2  1  0.154510  0.250000  0.801473  1
  Er  Er3  1  0.845240  0.750000  0.198897  1
  Er  Er4  1  0.120232  0.750000  0.814241  1
  Er  Er5  1  0.880345  0.250000  0.185726  1
  Er  Er6  1  0.619861  0.250000  0.685792  1
  Er  Er7  1  0.380362  0.750000  0.314169  1
  Er  Er8  1  0.552728  0.750000  0.997598  1
  Er  Er9  1  0.446689  0.250000  0.003057  1
  Er  Er10  1  0.052926  0.250000  0.502345  1
  Er  Er11  1  0.947535  0.750000  0.497145  1
  Tm  Tm12  1  0.827378  0.463351  0.936054  1
  Tm  Tm13  1  0.172577  0.536581  0.064085  1
  Tm  Tm14  1  0.327197  0.536032  0.563568  1
  Tm  Tm15  1  0.172577  0.963419  0.064085  1
  Tm  Tm16  1  0.672585  0.463205  0.435711  1
  Tm  Tm17  1  0.827378  0.036649  0.936054  1
  Tm  Tm18  1  0.672585  0.036795  0.435711  1
  Tm  Tm19  1  0.327197  0.963968  0.563568  1
  Co  Co20  1  0.937095  0.750000  0.993028  1
  Co  Co21  1  0.062619  0.250000  0.007135  1
  Co  Co22  1  0.437239  0.250000  0.506714  1
  Co  Co23  1  0.562650  0.750000  0.492862  1
  Bi  Bi24  1  0.934541  0.008368  0.673302  1
  Bi  Bi25  1  0.066234  0.992027  0.326380  1
  Bi  Bi26  1  0.432990  0.992693  0.826921  1
  Bi  Bi27  1  0.066234  0.507973  0.326380  1
  Bi  Bi28  1  0.566460  0.007989  0.173629  1
  Bi  Bi29  1  0.934541  0.491632  0.673302  1
  Bi  Bi30  1  0.566460  0.492011  0.173629  1
  Bi  Bi31  1  0.432990  0.507307  0.826921  1
