# generated using pymatgen
data_Ca9Gd(TaN5)2
_symmetry_space_group_name_H-M   'P 1'
_cell_length_a   6.96050357
_cell_length_b   6.92381144
_cell_length_c   8.92187601
_cell_angle_alpha   80.63101119
_cell_angle_beta   80.31488124
_cell_angle_gamma   59.72995041
_symmetry_Int_Tables_number   1
_chemical_formula_structural   Ca9Gd(TaN5)2
_chemical_formula_sum   'Ca9 Gd1 Ta2 N10'
_cell_volume   364.51890872
_cell_formula_units_Z   1
loop_
 _symmetry_equiv_pos_site_id
 _symmetry_equiv_pos_as_xyz
  1  'x, y, z'
loop_
 _atom_site_type_symbol
 _atom_site_label
 _atom_site_symmetry_multiplicity
 _atom_site_fract_x
 _atom_site_fract_y
 _atom_site_fract_z
 _atom_site_occupancy
  Ca  Ca0  1  0.869532  0.869531  0.828163  1
  Ca  Ca1  1  0.740989  0.742254  0.520899  1
  Ca  Ca2  1  0.754681  0.247978  0.503204  1
  Ca  Ca3  1  0.622410  0.139523  0.154951  1
  Ca  Ca4  1  0.364011  0.871465  0.838438  1
  Ca  Ca5  1  0.250089  0.756726  0.508659  1
  Ca  Ca6  1  0.244787  0.245068  0.488860  1
  Ca  Ca7  1  0.141611  0.140602  0.165579  1
  Ca  Ca8  1  0.135835  0.628759  0.153515  1
  Gd  Gd9  1  0.880123  0.347558  0.832714  1
  Ta  Ta10  1  0.631246  0.629394  0.221070  1
  Ta  Ta11  1  0.372680  0.366292  0.774162  1
  N  N12  1  0.914478  0.465713  0.320186  1
  N  N13  1  0.987084  0.015033  0.012008  1
  N  N14  1  0.683224  0.672538  0.998556  1
  N  N15  1  0.542740  0.531217  0.697223  1
  N  N16  1  0.465379  0.913819  0.323133  1
  N  N17  1  0.540448  0.083182  0.675469  1
  N  N18  1  0.462738  0.467213  0.301193  1
  N  N19  1  0.319402  0.317209  0.993700  1
  N  N20  1  0.053075  0.076771  0.653838  1
  N  N21  1  0.085727  0.534442  0.680282  1
