# generated using pymatgen
data_GaBi2Pt3O8
_symmetry_space_group_name_H-M   'P 1'
_cell_length_a   5.56357846
_cell_length_b   6.12798585
_cell_length_c   6.64812024
_cell_angle_alpha   115.31804923
_cell_angle_beta   97.13496705
_cell_angle_gamma   109.34411427
_symmetry_Int_Tables_number   1
_chemical_formula_structural   GaBi2Pt3O8
_chemical_formula_sum   'Ga1 Bi2 Pt3 O8'
_cell_volume   183.68873850
_cell_formula_units_Z   1
loop_
 _symmetry_equiv_pos_site_id
 _symmetry_equiv_pos_as_xyz
  1  'x, y, z'
loop_
 _atom_site_type_symbol
 _atom_site_label
 _atom_site_symmetry_multiplicity
 _atom_site_fract_x
 _atom_site_fract_y
 _atom_site_fract_z
 _atom_site_occupancy
  Ga  Ga0  1  0.500000  0.500000  0.000000  1
  Bi  Bi1  1  0.853198  0.249894  0.654205  1
  Bi  Bi2  1  0.146802  0.750106  0.345795  1
  Pt  Pt3  1  0.500000  0.500000  0.500000  1
  Pt  Pt4  1  0.500000  0.000000  0.000000  1
  Pt  Pt5  1  0.000000  0.000000  0.000000  1
  O  O6  1  0.642526  0.400358  0.224055  1
  O  O7  1  0.357474  0.599642  0.775945  1
  O  O8  1  0.873153  0.648925  0.995173  1
  O  O9  1  0.126847  0.351075  0.004827  1
  O  O10  1  0.523365  0.866761  0.236778  1
  O  O11  1  0.476635  0.133239  0.763222  1
  O  O12  1  0.840450  0.853635  0.648503  1
  O  O13  1  0.159550  0.146365  0.351497  1
