# generated using pymatgen
data_CaLa5PrOsBr12
_symmetry_space_group_name_H-M   'P 1'
_cell_length_a   9.87213759
_cell_length_b   9.69623738
_cell_length_c   9.68248366
_cell_angle_alpha   107.06136204
_cell_angle_beta   107.33393381
_cell_angle_gamma   106.91698742
_symmetry_Int_Tables_number   1
_chemical_formula_structural   CaLa5PrOsBr12
_chemical_formula_sum   'Ca1 La5 Pr1 Os1 Br12'
_cell_volume   769.66445741
_cell_formula_units_Z   1
loop_
 _symmetry_equiv_pos_site_id
 _symmetry_equiv_pos_as_xyz
  1  'x, y, z'
loop_
 _atom_site_type_symbol
 _atom_site_label
 _atom_site_symmetry_multiplicity
 _atom_site_fract_x
 _atom_site_fract_y
 _atom_site_fract_z
 _atom_site_occupancy
  Ca  Ca0  1  0.500007  0.500170  0.500367  1
  La  La1  1  0.324527  0.112484  0.025660  1
  La  La2  1  0.024763  0.310505  0.108292  1
  La  La3  1  0.106782  0.024937  0.311006  1
  La  La4  1  0.892328  0.974730  0.688502  1
  La  La5  1  0.974997  0.689512  0.891449  1
  Pr  Pr6  1  0.679177  0.887781  0.974013  1
  Os  Os7  1  0.000591  0.000130  0.999948  1
  Br  Br8  1  0.682453  0.212907  0.066818  1
  Br  Br9  1  0.377726  0.459880  0.171336  1
  Br  Br10  1  0.067029  0.680806  0.215732  1
  Br  Br11  1  0.783578  0.932431  0.316388  1
  Br  Br12  1  0.458201  0.171269  0.379306  1
  Br  Br13  1  0.174034  0.380319  0.461978  1
  Br  Br14  1  0.825336  0.619590  0.537844  1
  Br  Br15  1  0.541616  0.829558  0.623670  1
  Br  Br16  1  0.213998  0.066683  0.680695  1
  Br  Br17  1  0.932759  0.319244  0.784195  1
  Br  Br18  1  0.622177  0.542624  0.830434  1
  Br  Br19  1  0.317925  0.784445  0.932374  1
