# generated using pymatgen
data_CaY6CoI12
_symmetry_space_group_name_H-M   'P 1'
_cell_length_a   9.78841895
_cell_length_b   9.78841989
_cell_length_c   9.78841898
_cell_angle_alpha   107.01542705
_cell_angle_beta   107.01543160
_cell_angle_gamma   107.01543619
_symmetry_Int_Tables_number   1
_chemical_formula_structural   CaY6CoI12
_chemical_formula_sum   'Ca1 Y6 Co1 I12'
_cell_volume   780.72917871
_cell_formula_units_Z   1
loop_
 _symmetry_equiv_pos_site_id
 _symmetry_equiv_pos_as_xyz
  1  'x, y, z'
loop_
 _atom_site_type_symbol
 _atom_site_label
 _atom_site_symmetry_multiplicity
 _atom_site_fract_x
 _atom_site_fract_y
 _atom_site_fract_z
 _atom_site_occupancy
  Ca  Ca0  1  0.500000  0.500000  0.500000  1
  Y  Y1  1  0.022719  0.093672  0.291716  1
  Y  Y2  1  0.093672  0.291716  0.022719  1
  Y  Y3  1  0.291716  0.022719  0.093672  1
  Y  Y4  1  0.977281  0.906328  0.708284  1
  Y  Y5  1  0.906328  0.708284  0.977281  1
  Y  Y6  1  0.708284  0.977281  0.906328  1
  Co  Co7  1  0.000000  0.000000  0.000000  1
  I  I8  1  0.149536  0.456294  0.377916  1
  I  I9  1  0.456294  0.377916  0.149536  1
  I  I10  1  0.377916  0.149536  0.456294  1
  I  I11  1  0.850464  0.543706  0.622084  1
  I  I12  1  0.543706  0.622084  0.850464  1
  I  I13  1  0.622084  0.850464  0.543706  1
  I  I14  1  0.679232  0.072244  0.223728  1
  I  I15  1  0.072244  0.223728  0.679232  1
  I  I16  1  0.223728  0.679232  0.072244  1
  I  I17  1  0.320768  0.927756  0.776272  1
  I  I18  1  0.927756  0.776272  0.320768  1
  I  I19  1  0.776272  0.320768  0.927756  1
