# generated using pymatgen
data_LuAg6NO11
_symmetry_space_group_name_H-M   'P 1'
_cell_length_a   7.04449483
_cell_length_b   7.04449492
_cell_length_c   7.04449449
_cell_angle_alpha   61.90623082
_cell_angle_beta   61.90622965
_cell_angle_gamma   61.90622039
_symmetry_Int_Tables_number   1
_chemical_formula_structural   LuAg6NO11
_chemical_formula_sum   'Lu1 Ag6 N1 O11'
_cell_volume   257.73891669
_cell_formula_units_Z   1
loop_
 _symmetry_equiv_pos_site_id
 _symmetry_equiv_pos_as_xyz
  1  'x, y, z'
loop_
 _atom_site_type_symbol
 _atom_site_label
 _atom_site_symmetry_multiplicity
 _atom_site_fract_x
 _atom_site_fract_y
 _atom_site_fract_z
 _atom_site_occupancy
  Lu  Lu0  1  0.999069  0.999069  0.999069  1
  Ag  Ag1  1  0.497848  0.001222  0.001222  1
  Ag  Ag2  1  0.500247  0.500247  0.000150  1
  Ag  Ag3  1  0.500247  0.000150  0.500247  1
  Ag  Ag4  1  0.001222  0.001222  0.497848  1
  Ag  Ag5  1  0.000150  0.500247  0.500247  1
  Ag  Ag6  1  0.001222  0.497848  0.001222  1
  N  N7  1  0.500129  0.500129  0.500129  1
  O  O8  1  0.593186  0.140681  0.140681  1
  O  O9  1  0.140681  0.593186  0.140681  1
  O  O10  1  0.135835  0.135835  0.135835  1
  O  O11  1  0.140681  0.140681  0.593186  1
  O  O12  1  0.600823  0.600823  0.298581  1
  O  O13  1  0.600823  0.298581  0.600823  1
  O  O14  1  0.298581  0.600823  0.600823  1
  O  O15  1  0.860373  0.860373  0.404801  1
  O  O16  1  0.860373  0.404801  0.860373  1
  O  O17  1  0.863707  0.863707  0.863707  1
  O  O18  1  0.404801  0.860373  0.860373  1
