# generated using pymatgen
data_TbY3Ga20Pd11
_symmetry_space_group_name_H-M   'P 1'
_cell_length_a   4.18751548
_cell_length_b   11.01956844
_cell_length_c   13.69521786
_cell_angle_alpha   81.89798503
_cell_angle_beta   81.20144554
_cell_angle_gamma   79.04222733
_symmetry_Int_Tables_number   1
_chemical_formula_structural   TbY3Ga20Pd11
_chemical_formula_sum   'Tb1 Y3 Ga20 Pd11'
_cell_volume   609.04837612
_cell_formula_units_Z   1
loop_
 _symmetry_equiv_pos_site_id
 _symmetry_equiv_pos_as_xyz
  1  'x, y, z'
loop_
 _atom_site_type_symbol
 _atom_site_label
 _atom_site_symmetry_multiplicity
 _atom_site_fract_x
 _atom_site_fract_y
 _atom_site_fract_z
 _atom_site_occupancy
  Tb  Tb0  1  0.877283  0.910318  0.335001  1
  Y  Y1  1  0.122732  0.089848  0.664874  1
  Y  Y2  1  0.226842  0.366510  0.180217  1
  Y  Y3  1  0.773159  0.633515  0.819747  1
  Ga  Ga4  1  0.994069  0.924685  0.086579  1
  Ga  Ga5  1  0.005936  0.075346  0.913358  1
  Ga  Ga6  1  0.933169  0.328536  0.805669  1
  Ga  Ga7  1  0.066796  0.671421  0.194405  1
  Ga  Ga8  1  0.896739  0.660352  0.544671  1
  Ga  Ga9  1  0.103189  0.339786  0.455319  1
  Ga  Ga10  1  0.797549  0.397424  0.008073  1
  Ga  Ga11  1  0.202450  0.602531  0.991955  1
  Ga  Ga12  1  0.743265  0.214888  0.299184  1
  Ga  Ga13  1  0.256651  0.785214  0.700837  1
  Ga  Ga14  1  0.698070  0.100681  0.503506  1
  Ga  Ga15  1  0.302021  0.899050  0.496564  1
  Ga  Ga16  1  0.613300  0.473162  0.301050  1
  Ga  Ga17  1  0.386663  0.526906  0.698969  1
  Ga  Ga18  1  0.604191  0.794579  0.998131  1
  Ga  Ga19  1  0.395850  0.205362  0.001855  1
  Ga  Ga20  1  0.457583  0.713076  0.371938  1
  Ga  Ga21  1  0.542453  0.286839  0.628124  1
  Ga  Ga22  1  0.364440  0.063771  0.206215  1
  Ga  Ga23  1  0.635648  0.936228  0.793639  1
  Pd  Pd24  1  0.500070  0.499841  0.500024  1
  Pd  Pd25  1  0.971220  0.428724  0.628251  1
  Pd  Pd26  1  0.028698  0.571381  0.371828  1
  Pd  Pd27  1  0.863132  0.161826  0.110353  1
  Pd  Pd28  1  0.136849  0.838184  0.889718  1
  Pd  Pd29  1  0.759228  0.873185  0.607772  1
  Pd  Pd30  1  0.240671  0.126965  0.392242  1
  Pd  Pd31  1  0.653512  0.583042  0.109294  1
  Pd  Pd32  1  0.346510  0.416888  0.890720  1
  Pd  Pd33  1  0.495514  0.826852  0.181726  1
  Pd  Pd34  1  0.504547  0.173085  0.818190  1
