# generated using pymatgen
data_Zr2GaPdRh4
_symmetry_space_group_name_H-M   'P 1'
_cell_length_a   5.58636552
_cell_length_b   5.58636523
_cell_length_c   8.22142100
_cell_angle_alpha   90.00000000
_cell_angle_beta   90.00000000
_cell_angle_gamma   98.10644313
_symmetry_Int_Tables_number   1
_chemical_formula_structural   Zr2GaPdRh4
_chemical_formula_sum   'Zr4 Ga2 Pd2 Rh8'
_cell_volume   254.00612062
_cell_formula_units_Z   2
loop_
 _symmetry_equiv_pos_site_id
 _symmetry_equiv_pos_as_xyz
  1  'x, y, z'
loop_
 _atom_site_type_symbol
 _atom_site_label
 _atom_site_symmetry_multiplicity
 _atom_site_fract_x
 _atom_site_fract_y
 _atom_site_fract_z
 _atom_site_occupancy
  Zr  Zr0  1  0.772306  0.227694  0.500000  1
  Zr  Zr1  1  0.227694  0.772306  0.000000  1
  Zr  Zr2  1  0.227694  0.772306  0.500000  1
  Zr  Zr3  1  0.772306  0.227694  0.000000  1
  Ga  Ga4  1  0.502317  0.502317  0.750000  1
  Ga  Ga5  1  0.497683  0.497683  0.250000  1
  Pd  Pd6  1  0.000271  0.000271  0.250000  1
  Pd  Pd7  1  0.999729  0.999729  0.750000  1
  Rh  Rh8  1  0.720853  0.720853  0.000960  1
  Rh  Rh9  1  0.720853  0.720853  0.499040  1
  Rh  Rh10  1  0.279147  0.279147  0.999040  1
  Rh  Rh11  1  0.279147  0.279147  0.500960  1
  Rh  Rh12  1  0.500061  0.000252  0.750000  1
  Rh  Rh13  1  0.499939  0.999748  0.250000  1
  Rh  Rh14  1  0.000252  0.500061  0.750000  1
  Rh  Rh15  1  0.999748  0.499939  0.250000  1
