# generated using pymatgen
data_YbHoPa2(Ga3Ir)6
_symmetry_space_group_name_H-M   'P 1'
_cell_length_a   7.63269215
_cell_length_b   7.62786969
_cell_length_c   9.39025000
_cell_angle_alpha   90.00000000
_cell_angle_beta   90.00000000
_cell_angle_gamma   119.96682101
_symmetry_Int_Tables_number   1
_chemical_formula_structural   YbHoPa2(Ga3Ir)6
_chemical_formula_sum   'Yb1 Ho1 Pa2 Ga18 Ir6'
_cell_volume   473.62421640
_cell_formula_units_Z   1
loop_
 _symmetry_equiv_pos_site_id
 _symmetry_equiv_pos_as_xyz
  1  'x, y, z'
loop_
 _atom_site_type_symbol
 _atom_site_label
 _atom_site_symmetry_multiplicity
 _atom_site_fract_x
 _atom_site_fract_y
 _atom_site_fract_z
 _atom_site_occupancy
  Yb  Yb0  1  0.668437  0.996059  0.250000  1
  Ho  Ho1  1  0.332142  0.004556  0.750000  1
  Pa  Pa2  1  0.998506  0.668549  0.250000  1
  Pa  Pa3  1  0.001560  0.331088  0.750000  1
  Ga  Ga4  1  0.128732  0.128319  0.250000  1
  Ga  Ga5  1  0.870317  0.871301  0.750000  1
  Ga  Ga6  1  0.996849  0.329166  0.083463  1
  Ga  Ga7  1  0.001610  0.669493  0.917401  1
  Ga  Ga8  1  0.001610  0.669493  0.582599  1
  Ga  Ga9  1  0.339203  0.001596  0.419094  1
  Ga  Ga10  1  0.996849  0.329166  0.416537  1
  Ga  Ga11  1  0.661996  0.998138  0.579056  1
  Ga  Ga12  1  0.661996  0.998138  0.920944  1
  Ga  Ga13  1  0.339203  0.001596  0.080906  1
  Ga  Ga14  1  0.334506  0.331488  0.567044  1
  Ga  Ga15  1  0.665401  0.669732  0.431974  1
  Ga  Ga16  1  0.665401  0.669732  0.068026  1
  Ga  Ga17  1  0.334506  0.331488  0.932956  1
  Ga  Ga18  1  0.341458  0.546900  0.250000  1
  Ga  Ga19  1  0.659421  0.454054  0.750000  1
  Ga  Ga20  1  0.545089  0.338785  0.250000  1
  Ga  Ga21  1  0.455339  0.661394  0.750000  1
  Ir  Ir22  1  0.676101  0.332257  0.998826  1
  Ir  Ir23  1  0.322732  0.667576  0.999109  1
  Ir  Ir24  1  0.322732  0.667576  0.500891  1
  Ir  Ir25  1  0.676101  0.332257  0.501174  1
  Ir  Ir26  1  0.001101  0.000052  0.999018  1
  Ir  Ir27  1  0.001101  0.000052  0.500982  1
