# generated using pymatgen
data_Dy5Tm5(Tl2Bi)2
_symmetry_space_group_name_H-M   'P 1'
_cell_length_a   6.58754600
_cell_length_b   9.00247952
_cell_length_c   8.98228800
_cell_angle_alpha   119.83573241
_cell_angle_beta   89.99996521
_cell_angle_gamma   89.99985183
_symmetry_Int_Tables_number   1
_chemical_formula_structural   Dy5Tm5(Tl2Bi)2
_chemical_formula_sum   'Dy5 Tm5 Tl4 Bi2'
_cell_volume   462.08291076
_cell_formula_units_Z   1
loop_
 _symmetry_equiv_pos_site_id
 _symmetry_equiv_pos_as_xyz
  1  'x, y, z'
loop_
 _atom_site_type_symbol
 _atom_site_label
 _atom_site_symmetry_multiplicity
 _atom_site_fract_x
 _atom_site_fract_y
 _atom_site_fract_z
 _atom_site_occupancy
  Dy  Dy0  1  0.749998  0.229124  0.990662  1
  Dy  Dy1  1  0.749999  0.770487  0.760726  1
  Dy  Dy2  1  0.750000  0.999878  0.239248  1
  Dy  Dy3  1  0.250002  0.764340  0.000247  1
  Dy  Dy4  1  0.249999  0.235509  0.235714  1
  Tm  Tm5  1  0.492724  0.328783  0.667562  1
  Tm  Tm6  1  0.492856  0.671351  0.338748  1
  Tm  Tm7  1  0.007141  0.671348  0.338741  1
  Tm  Tm8  1  0.007277  0.328783  0.667569  1
  Tm  Tm9  1  0.249997  0.000070  0.762931  1
  Tl  Tl10  1  0.750010  0.000185  0.595933  1
  Tl  Tl11  1  0.250003  0.397161  0.002743  1
  Tl  Tl12  1  0.250000  0.602486  0.604890  1
  Tl  Tl13  1  0.249991  0.000165  0.398791  1
  Bi  Bi14  1  0.750001  0.603699  0.999464  1
  Bi  Bi15  1  0.750000  0.396628  0.396033  1
