# generated using pymatgen
data_Yb8Si16IrW11
_symmetry_space_group_name_H-M   'P 1'
_cell_length_a   6.73284630
_cell_length_b   6.89030877
_cell_length_c   12.94573600
_cell_angle_alpha   89.91653815
_cell_angle_beta   89.94326456
_cell_angle_gamma   90.19134679
_symmetry_Int_Tables_number   1
_chemical_formula_structural   Yb8Si16IrW11
_chemical_formula_sum   'Yb8 Si16 Ir1 W11'
_cell_volume   600.56640267
_cell_formula_units_Z   1
loop_
 _symmetry_equiv_pos_site_id
 _symmetry_equiv_pos_as_xyz
  1  'x, y, z'
loop_
 _atom_site_type_symbol
 _atom_site_label
 _atom_site_symmetry_multiplicity
 _atom_site_fract_x
 _atom_site_fract_y
 _atom_site_fract_z
 _atom_site_occupancy
  Yb  Yb0  1  0.996278  0.166522  0.090099  1
  Yb  Yb1  1  0.000636  0.831457  0.911015  1
  Yb  Yb2  1  0.503459  0.668574  0.910317  1
  Yb  Yb3  1  0.001078  0.833476  0.589386  1
  Yb  Yb4  1  0.498770  0.335231  0.091124  1
  Yb  Yb5  1  0.996617  0.164572  0.410335  1
  Yb  Yb6  1  0.497091  0.337181  0.410043  1
  Yb  Yb7  1  0.501585  0.668179  0.590399  1
  Si  Si8  1  0.033440  0.121010  0.750759  1
  Si  Si9  1  0.966802  0.874321  0.244738  1
  Si  Si10  1  0.465625  0.626700  0.250289  1
  Si  Si11  1  0.535077  0.380704  0.750970  1
  Si  Si12  1  0.296932  0.863922  0.750326  1
  Si  Si13  1  0.698934  0.136553  0.251772  1
  Si  Si14  1  0.196525  0.360143  0.251257  1
  Si  Si15  1  0.800479  0.636772  0.750031  1
  Si  Si16  1  0.159641  0.457394  0.544475  1
  Si  Si17  1  0.838989  0.541835  0.454045  1
  Si  Si18  1  0.341048  0.960409  0.453246  1
  Si  Si19  1  0.842070  0.542577  0.049297  1
  Si  Si20  1  0.661070  0.043603  0.543629  1
  Si  Si21  1  0.160705  0.453661  0.953749  1
  Si  Si22  1  0.660891  0.043452  0.956080  1
  Si  Si23  1  0.340031  0.956660  0.049040  1
  Ir  Ir24  1  0.175957  0.651235  0.118982  1
  W  W25  1  0.161066  0.489497  0.750347  1
  W  W26  1  0.837401  0.507282  0.250597  1
  W  W27  1  0.335031  0.993716  0.249370  1
  W  W28  1  0.659114  0.011444  0.750520  1
  W  W29  1  0.336476  0.168447  0.628224  1
  W  W30  1  0.667690  0.833158  0.373348  1
  W  W31  1  0.165362  0.667780  0.366748  1
  W  W32  1  0.664180  0.838384  0.128748  1
  W  W33  1  0.833954  0.333873  0.627808  1
  W  W34  1  0.334940  0.164375  0.874276  1
  W  W35  1  0.835054  0.335899  0.874614  1
