# generated using pymatgen
data_Yb3Ho(Si5Os3)2
_symmetry_space_group_name_H-M   'P 1'
_cell_length_a   8.26837483
_cell_length_b   8.26488001
_cell_length_c   5.65042083
_cell_angle_alpha   69.98625280
_cell_angle_beta   69.96487209
_cell_angle_gamma   95.17084642
_symmetry_Int_Tables_number   1
_chemical_formula_structural   Yb3Ho(Si5Os3)2
_chemical_formula_sum   'Yb3 Ho1 Si10 Os6'
_cell_volume   331.31926689
_cell_formula_units_Z   1
loop_
 _symmetry_equiv_pos_site_id
 _symmetry_equiv_pos_as_xyz
  1  'x, y, z'
loop_
 _atom_site_type_symbol
 _atom_site_label
 _atom_site_symmetry_multiplicity
 _atom_site_fract_x
 _atom_site_fract_y
 _atom_site_fract_z
 _atom_site_occupancy
  Yb  Yb0  1  0.402242  0.131451  0.733234  1
  Yb  Yb1  1  0.131483  0.400692  0.234189  1
  Yb  Yb2  1  0.598398  0.868870  0.265737  1
  Ho  Ho3  1  0.868669  0.599074  0.765994  1
  Si  Si4  1  0.074762  0.266352  0.831225  1
  Si  Si5  1  0.732775  0.926537  0.668193  1
  Si  Si6  1  0.925844  0.734341  0.168351  1
  Si  Si7  1  0.266153  0.073960  0.331348  1
  Si  Si8  1  0.209724  0.792363  0.750854  1
  Si  Si9  1  0.792758  0.209613  0.245759  1
  Si  Si10  1  0.498253  0.498359  0.750303  1
  Si  Si11  1  0.498285  0.498194  0.253368  1
  Si  Si12  1  0.792830  0.209546  0.751541  1
  Si  Si13  1  0.209288  0.791837  0.248015  1
  Os  Os14  1  0.259124  0.554441  0.593052  1
  Os  Os15  1  0.447650  0.737861  0.907711  1
  Os  Os16  1  0.741369  0.447462  0.406022  1
  Os  Os17  1  0.552573  0.261666  0.092592  1
  Os  Os18  1  0.997594  0.999994  0.750818  1
  Os  Os19  1  0.000226  0.997386  0.251695  1
