# generated using pymatgen
data_Mn3CoBi8(SO7)4
_symmetry_space_group_name_H-M   'P 1'
_cell_length_a   5.50360600
_cell_length_b   7.33732266
_cell_length_c   16.16832740
_cell_angle_alpha   89.26235265
_cell_angle_beta   90.00000000
_cell_angle_gamma   90.00000000
_symmetry_Int_Tables_number   1
_chemical_formula_structural   Mn3CoBi8(SO7)4
_chemical_formula_sum   'Mn3 Co1 Bi8 S4 O28'
_cell_volume   652.85097133
_cell_formula_units_Z   1
loop_
 _symmetry_equiv_pos_site_id
 _symmetry_equiv_pos_as_xyz
  1  'x, y, z'
loop_
 _atom_site_type_symbol
 _atom_site_label
 _atom_site_symmetry_multiplicity
 _atom_site_fract_x
 _atom_site_fract_y
 _atom_site_fract_z
 _atom_site_occupancy
  Mn  Mn0  1  0.250000  0.939106  0.674597  1
  Mn  Mn1  1  0.250000  0.053641  0.171481  1
  Mn  Mn2  1  0.750000  0.055395  0.327244  1
  Co  Co3  1  0.750000  0.951013  0.828770  1
  Bi  Bi4  1  0.750000  0.833393  0.519274  1
  Bi  Bi5  1  0.750000  0.224837  0.659033  1
  Bi  Bi6  1  0.250000  0.225863  0.840424  1
  Bi  Bi7  1  0.750000  0.770594  0.159395  1
  Bi  Bi8  1  0.750000  0.165171  0.016997  1
  Bi  Bi9  1  0.250000  0.771120  0.342826  1
  Bi  Bi10  1  0.250000  0.832211  0.981276  1
  Bi  Bi11  1  0.250000  0.165075  0.482250  1
  S  S12  1  0.250000  0.582723  0.607611  1
  S  S13  1  0.750000  0.413735  0.392714  1
  S  S14  1  0.250000  0.413208  0.106619  1
  S  S15  1  0.750000  0.596178  0.891257  1
  O  O16  1  0.031379  0.320012  0.144041  1
  O  O17  1  0.031630  0.675620  0.644272  1
  O  O18  1  0.750000  0.611751  0.369793  1
  O  O19  1  0.500115  0.910457  0.250297  1
  O  O20  1  0.468370  0.675620  0.644272  1
  O  O21  1  0.532444  0.693372  0.854772  1
  O  O22  1  0.991862  0.045505  0.581504  1
  O  O23  1  0.008805  0.952572  0.420363  1
  O  O24  1  0.508138  0.045505  0.581504  1
  O  O25  1  0.504066  0.082030  0.752068  1
  O  O26  1  0.491195  0.952572  0.420363  1
  O  O27  1  0.967556  0.693372  0.854772  1
  O  O28  1  0.995934  0.082030  0.752068  1
  O  O29  1  0.250000  0.605801  0.516179  1
  O  O30  1  0.508730  0.951579  0.079845  1
  O  O31  1  0.531513  0.321458  0.355716  1
  O  O32  1  0.750000  0.388681  0.484071  1
  O  O33  1  0.968487  0.321458  0.355716  1
  O  O34  1  0.250000  0.610664  0.128402  1
  O  O35  1  0.750000  0.613354  0.982745  1
  O  O36  1  0.750000  0.400420  0.867277  1
  O  O37  1  0.999885  0.910457  0.250297  1
  O  O38  1  0.468621  0.320012  0.144041  1
  O  O39  1  0.250000  0.390668  0.015339  1
  O  O40  1  0.991270  0.951579  0.079845  1
  O  O41  1  0.494347  0.047549  0.918608  1
  O  O42  1  0.005653  0.047549  0.918608  1
  O  O43  1  0.250000  0.385090  0.631456  1
