# generated using pymatgen
data_La6Nd4Sn5BiBr2
_symmetry_space_group_name_H-M   'P 1'
_cell_length_a   9.70116836
_cell_length_b   9.70116874
_cell_length_c   6.88548000
_cell_angle_alpha   90.00000000
_cell_angle_beta   90.00000000
_cell_angle_gamma   120.22293277
_symmetry_Int_Tables_number   1
_chemical_formula_structural   La6Nd4Sn5BiBr2
_chemical_formula_sum   'La6 Nd4 Sn5 Bi1 Br2'
_cell_volume   559.92899371
_cell_formula_units_Z   1
loop_
 _symmetry_equiv_pos_site_id
 _symmetry_equiv_pos_as_xyz
  1  'x, y, z'
loop_
 _atom_site_type_symbol
 _atom_site_label
 _atom_site_symmetry_multiplicity
 _atom_site_fract_x
 _atom_site_fract_y
 _atom_site_fract_z
 _atom_site_occupancy
  La  La0  1  0.729629  0.000044  0.750000  1
  La  La1  1  0.995362  0.269105  0.250000  1
  La  La2  1  0.732593  0.732593  0.250000  1
  La  La3  1  0.269105  0.995362  0.250000  1
  La  La4  1  0.269263  0.269263  0.750000  1
  La  La5  1  0.000044  0.729629  0.750000  1
  Nd  Nd6  1  0.332778  0.669078  0.501627  1
  Nd  Nd7  1  0.332778  0.669078  0.998373  1
  Nd  Nd8  1  0.669078  0.332778  0.501627  1
  Nd  Nd9  1  0.669078  0.332778  0.998373  1
  Sn  Sn10  1  0.386277  0.000618  0.750000  1
  Sn  Sn11  1  0.612741  0.999381  0.250000  1
  Sn  Sn12  1  0.999381  0.612741  0.250000  1
  Sn  Sn13  1  0.613868  0.613868  0.750000  1
  Sn  Sn14  1  0.000618  0.386277  0.750000  1
  Bi  Bi15  1  0.385557  0.385557  0.250000  1
  Br  Br16  1  0.000925  0.000925  0.499510  1
  Br  Br17  1  0.000925  0.000925  0.000490  1
