# generated using pymatgen
data_Pr5TaPtO12
_symmetry_space_group_name_H-M   'P 1'
_cell_length_a   7.16938794
_cell_length_b   7.16938833
_cell_length_c   7.76446567
_cell_angle_alpha   74.23269465
_cell_angle_beta   74.23269395
_cell_angle_gamma   50.11634420
_symmetry_Int_Tables_number   1
_chemical_formula_structural   Pr5TaPtO12
_chemical_formula_sum   'Pr5 Ta1 Pt1 O12'
_cell_volume   292.14199340
_cell_formula_units_Z   1
loop_
 _symmetry_equiv_pos_site_id
 _symmetry_equiv_pos_as_xyz
  1  'x, y, z'
loop_
 _atom_site_type_symbol
 _atom_site_label
 _atom_site_symmetry_multiplicity
 _atom_site_fract_x
 _atom_site_fract_y
 _atom_site_fract_z
 _atom_site_occupancy
  Pr  Pr0  1  0.294926  0.312546  0.358424  1
  Pr  Pr1  1  0.687454  0.705074  0.641576  1
  Pr  Pr2  1  0.686580  0.700140  0.166141  1
  Pr  Pr3  1  0.299860  0.313420  0.833859  1
  Pr  Pr4  1  0.999309  0.000691  0.500000  1
  Ta  Ta5  1  0.781661  0.218339  0.000000  1
  Pt  Pt6  1  0.251458  0.748542  0.000000  1
  O  O7  1  0.090315  0.598418  0.577525  1
  O  O8  1  0.000169  0.998878  0.185943  1
  O  O9  1  0.401582  0.909685  0.422475  1
  O  O10  1  0.507150  0.493235  0.171925  1
  O  O11  1  0.094450  0.575101  0.082099  1
  O  O12  1  0.898448  0.405731  0.425008  1
  O  O13  1  0.001122  0.999831  0.814057  1
  O  O14  1  0.594269  0.101551  0.574992  1
  O  O15  1  0.506765  0.492850  0.828075  1
  O  O16  1  0.582265  0.102682  0.079198  1
  O  O17  1  0.424899  0.905550  0.917901  1
  O  O18  1  0.897318  0.417735  0.920802  1
