# generated using pymatgen
data_Tm4Cu3PdPb2
_symmetry_space_group_name_H-M   'P 1'
_cell_length_a   7.70416900
_cell_length_b   7.70416900
_cell_length_c   3.57481800
_cell_angle_alpha   90.00000000
_cell_angle_beta   90.00000000
_cell_angle_gamma   89.99753092
_symmetry_Int_Tables_number   1
_chemical_formula_structural   Tm4Cu3PdPb2
_chemical_formula_sum   'Tm4 Cu3 Pd1 Pb2'
_cell_volume   212.18053386
_cell_formula_units_Z   1
loop_
 _symmetry_equiv_pos_site_id
 _symmetry_equiv_pos_as_xyz
  1  'x, y, z'
loop_
 _atom_site_type_symbol
 _atom_site_label
 _atom_site_symmetry_multiplicity
 _atom_site_fract_x
 _atom_site_fract_y
 _atom_site_fract_z
 _atom_site_occupancy
  Tm  Tm0  1  0.332112  0.832112  0.500000  1
  Tm  Tm1  1  0.667298  0.167298  0.500000  1
  Tm  Tm2  1  0.167939  0.332887  0.500000  1
  Tm  Tm3  1  0.832887  0.667939  0.500000  1
  Cu  Cu4  1  0.875523  0.375523  0.000000  1
  Cu  Cu5  1  0.619722  0.881007  0.000000  1
  Cu  Cu6  1  0.381007  0.119722  0.000000  1
  Pd  Pd7  1  0.121818  0.621818  0.000000  1
  Pb  Pb8  1  0.502427  0.499268  0.000000  1
  Pb  Pb9  1  0.999268  0.002427  0.000000  1
