# generated using pymatgen
data_La8TbLuIr4
_symmetry_space_group_name_H-M   'P 1'
_cell_length_a   6.71946893
_cell_length_b   7.30517971
_cell_length_c   9.14204900
_cell_angle_alpha   95.80385182
_cell_angle_beta   111.56173061
_cell_angle_gamma   90.00000352
_symmetry_Int_Tables_number   1
_chemical_formula_structural   La8TbLuIr4
_chemical_formula_sum   'La8 Tb1 Lu1 Ir4'
_cell_volume   414.87774747
_cell_formula_units_Z   1
loop_
 _symmetry_equiv_pos_site_id
 _symmetry_equiv_pos_as_xyz
  1  'x, y, z'
loop_
 _atom_site_type_symbol
 _atom_site_label
 _atom_site_symmetry_multiplicity
 _atom_site_fract_x
 _atom_site_fract_y
 _atom_site_fract_z
 _atom_site_occupancy
  La  La0  1  0.799270  0.083472  0.818266  1
  La  La1  1  0.981004  0.416528  0.181734  1
  La  La2  1  0.200601  0.916193  0.181513  1
  La  La3  1  0.019089  0.583807  0.818487  1
  La  La4  1  0.216551  0.184532  0.573742  1
  La  La5  1  0.642810  0.315468  0.426258  1
  La  La6  1  0.783301  0.815313  0.426016  1
  La  La7  1  0.357284  0.684687  0.573984  1
  Tb  Tb8  1  0.434416  0.250000  0.000000  1
  Lu  Lu9  1  0.564612  0.750000  0.000000  1
  Ir  Ir10  1  0.596368  0.427900  0.788638  1
  Ir  Ir11  1  0.807730  0.072100  0.211362  1
  Ir  Ir12  1  0.404191  0.575866  0.211415  1
  Ir  Ir13  1  0.192775  0.924134  0.788585  1
