# generated using pymatgen
data_Tl2V2As2O9
_symmetry_space_group_name_H-M   'P 1'
_cell_length_a   5.88347300
_cell_length_b   8.70303300
_cell_length_c   19.10946400
_cell_angle_alpha   90.00000000
_cell_angle_beta   90.00000000
_cell_angle_gamma   90.00000000
_symmetry_Int_Tables_number   1
_chemical_formula_structural   Tl2V2As2O9
_chemical_formula_sum   'Tl8 V8 As8 O36'
_cell_volume   978.48213499
_cell_formula_units_Z   4
loop_
 _symmetry_equiv_pos_site_id
 _symmetry_equiv_pos_as_xyz
  1  'x, y, z'
loop_
 _atom_site_type_symbol
 _atom_site_label
 _atom_site_symmetry_multiplicity
 _atom_site_fract_x
 _atom_site_fract_y
 _atom_site_fract_z
 _atom_site_occupancy
  Tl  Tl0  1  0.250000  0.894735  0.148883  1
  Tl  Tl1  1  0.250000  0.394735  0.351117  1
  Tl  Tl2  1  0.750000  0.105265  0.851117  1
  Tl  Tl3  1  0.750000  0.605265  0.648883  1
  Tl  Tl4  1  0.250000  0.981683  0.714985  1
  Tl  Tl5  1  0.250000  0.481683  0.785015  1
  Tl  Tl6  1  0.750000  0.018317  0.285015  1
  Tl  Tl7  1  0.750000  0.518317  0.214985  1
  V  V8  1  0.250000  0.284959  0.558016  1
  V  V9  1  0.250000  0.784959  0.941984  1
  V  V10  1  0.750000  0.715041  0.441984  1
  V  V11  1  0.750000  0.215041  0.058016  1
  V  V12  1  0.000000  0.000000  0.500000  1
  V  V13  1  0.500000  0.500000  0.000000  1
  V  V14  1  0.500000  0.000000  0.500000  1
  V  V15  1  0.000000  0.500000  0.000000  1
  As  As16  1  0.250000  0.814434  0.361484  1
  As  As17  1  0.250000  0.314434  0.138516  1
  As  As18  1  0.750000  0.185566  0.638516  1
  As  As19  1  0.750000  0.685566  0.861484  1
  As  As20  1  0.250000  0.681501  0.556813  1
  As  As21  1  0.250000  0.181501  0.943187  1
  As  As22  1  0.750000  0.318499  0.443187  1
  As  As23  1  0.750000  0.818499  0.056813  1
  O  O24  1  0.250000  0.057167  0.564464  1
  O  O25  1  0.250000  0.557167  0.935536  1
  O  O26  1  0.750000  0.942833  0.435536  1
  O  O27  1  0.750000  0.442833  0.064464  1
  O  O28  1  0.250000  0.959756  0.427400  1
  O  O29  1  0.250000  0.459756  0.072600  1
  O  O30  1  0.750000  0.040244  0.572600  1
  O  O31  1  0.750000  0.540244  0.927400  1
  O  O32  1  0.005174  0.767989  0.521873  1
  O  O33  1  0.494826  0.267989  0.978127  1
  O  O34  1  0.505174  0.232011  0.478127  1
  O  O35  1  0.994826  0.732011  0.021873  1
  O  O36  1  0.994826  0.232011  0.478127  1
  O  O37  1  0.505174  0.732011  0.021873  1
  O  O38  1  0.494826  0.767989  0.521873  1
  O  O39  1  0.005174  0.267989  0.978127  1
  O  O40  1  0.250000  0.497519  0.526265  1
  O  O41  1  0.250000  0.997519  0.973735  1
  O  O42  1  0.750000  0.502481  0.473735  1
  O  O43  1  0.750000  0.002481  0.026265  1
  O  O44  1  0.009878  0.700389  0.369165  1
  O  O45  1  0.490122  0.200389  0.130835  1
  O  O46  1  0.509878  0.299611  0.630835  1
  O  O47  1  0.990122  0.799611  0.869165  1
  O  O48  1  0.990122  0.299611  0.630835  1
  O  O49  1  0.509878  0.799611  0.869165  1
  O  O50  1  0.490122  0.700389  0.369165  1
  O  O51  1  0.009878  0.200389  0.130835  1
  O  O52  1  0.250000  0.700749  0.645167  1
  O  O53  1  0.250000  0.200749  0.854833  1
  O  O54  1  0.750000  0.299251  0.354833  1
  O  O55  1  0.750000  0.799251  0.145167  1
  O  O56  1  0.250000  0.914728  0.285427  1
  O  O57  1  0.250000  0.414728  0.214573  1
  O  O58  1  0.750000  0.085272  0.714573  1
  O  O59  1  0.750000  0.585272  0.785427  1
