# generated using pymatgen
data_SmGd7(IrO6)4
_symmetry_space_group_name_H-M   'P 1'
_cell_length_a   5.34699623
_cell_length_b   9.25017814
_cell_length_c   9.97222100
_cell_angle_alpha   90.48771676
_cell_angle_beta   89.91256142
_cell_angle_gamma   89.76095482
_symmetry_Int_Tables_number   1
_chemical_formula_structural   SmGd7(IrO6)4
_chemical_formula_sum   'Sm1 Gd7 Ir4 O24'
_cell_volume   493.20994469
_cell_formula_units_Z   1
loop_
 _symmetry_equiv_pos_site_id
 _symmetry_equiv_pos_as_xyz
  1  'x, y, z'
loop_
 _atom_site_type_symbol
 _atom_site_label
 _atom_site_symmetry_multiplicity
 _atom_site_fract_x
 _atom_site_fract_y
 _atom_site_fract_z
 _atom_site_occupancy
  Sm  Sm0  1  0.961820  0.780797  0.868098  1
  Gd  Gd1  1  0.520655  0.100575  0.965654  1
  Gd  Gd2  1  0.021769  0.398076  0.035307  1
  Gd  Gd3  1  0.476917  0.602221  0.535751  1
  Gd  Gd4  1  0.977797  0.899274  0.464315  1
  Gd  Gd5  1  0.539160  0.219952  0.368193  1
  Gd  Gd6  1  0.039094  0.282411  0.631124  1
  Gd  Gd7  1  0.462151  0.717411  0.132788  1
  Ir  Ir8  1  0.457148  0.998020  0.644817  1
  Ir  Ir9  1  0.956986  0.503527  0.354213  1
  Ir  Ir10  1  0.542383  0.494941  0.854291  1
  Ir  Ir11  1  0.044152  0.003294  0.146053  1
  O  O12  1  0.323863  0.134060  0.182091  1
  O  O13  1  0.824575  0.365066  0.818147  1
  O  O14  1  0.675536  0.633836  0.318776  1
  O  O15  1  0.178542  0.866696  0.679006  1
  O  O16  1  0.731400  0.114795  0.568755  1
  O  O17  1  0.233791  0.387791  0.431127  1
  O  O18  1  0.267151  0.611228  0.933022  1
  O  O19  1  0.768452  0.886431  0.069449  1
  O  O20  1  0.679448  0.641136  0.738063  1
  O  O21  1  0.185263  0.858857  0.262355  1
  O  O22  1  0.313434  0.142264  0.763039  1
  O  O23  1  0.815019  0.357804  0.236925  1
  O  O24  1  0.661489  0.943828  0.792505  1
  O  O25  1  0.162475  0.557850  0.206440  1
  O  O26  1  0.336325  0.442033  0.705902  1
  O  O27  1  0.836345  0.057565  0.294151  1
  O  O28  1  0.251090  0.090186  0.502157  1
  O  O29  1  0.752045  0.412102  0.497706  1
  O  O30  1  0.748553  0.587714  0.997689  1
  O  O31  1  0.253580  0.909470  0.003626  1
  O  O32  1  0.073658  0.655240  0.476010  1
  O  O33  1  0.576212  0.846533  0.522683  1
  O  O34  1  0.926222  0.152631  0.024156  1
  O  O35  1  0.425494  0.344389  0.975620  1
