# generated using pymatgen
data_LiYb2DyCd2Pb3
_symmetry_space_group_name_H-M   'P 1'
_cell_length_a   7.63877060
_cell_length_b   7.63877081
_cell_length_c   4.72873300
_cell_angle_alpha   90.00000000
_cell_angle_beta   90.00000000
_cell_angle_gamma   120.43789685
_symmetry_Int_Tables_number   1
_chemical_formula_structural   LiYb2DyCd2Pb3
_chemical_formula_sum   'Li1 Yb2 Dy1 Cd2 Pb3'
_cell_volume   237.89705690
_cell_formula_units_Z   1
loop_
 _symmetry_equiv_pos_site_id
 _symmetry_equiv_pos_as_xyz
  1  'x, y, z'
loop_
 _atom_site_type_symbol
 _atom_site_label
 _atom_site_symmetry_multiplicity
 _atom_site_fract_x
 _atom_site_fract_y
 _atom_site_fract_z
 _atom_site_occupancy
  Li  Li0  1  0.764886  0.764886  0.000000  1
  Yb  Yb1  1  0.565132  0.004729  0.500000  1
  Yb  Yb2  1  0.004729  0.565132  0.500000  1
  Dy  Dy3  1  0.423410  0.423410  0.500000  1
  Cd  Cd4  1  0.243979  0.999118  0.000000  1
  Cd  Cd5  1  0.999118  0.243979  0.000000  1
  Pb  Pb6  1  0.667701  0.351724  0.000000  1
  Pb  Pb7  1  0.351724  0.667701  0.000000  1
  Pb  Pb8  1  0.979320  0.979320  0.500000  1
