# generated using pymatgen
data_Nd2Al9Pd2Ru
_symmetry_space_group_name_H-M   'P 1'
_cell_length_a   7.67237461
_cell_length_b   7.67237486
_cell_length_c   9.62075814
_cell_angle_alpha   89.96040178
_cell_angle_beta   89.96040234
_cell_angle_gamma   119.52830554
_symmetry_Int_Tables_number   1
_chemical_formula_structural   Nd2Al9Pd2Ru
_chemical_formula_sum   'Nd4 Al18 Pd4 Ru2'
_cell_volume   492.76949973
_cell_formula_units_Z   2
loop_
 _symmetry_equiv_pos_site_id
 _symmetry_equiv_pos_as_xyz
  1  'x, y, z'
loop_
 _atom_site_type_symbol
 _atom_site_label
 _atom_site_symmetry_multiplicity
 _atom_site_fract_x
 _atom_site_fract_y
 _atom_site_fract_z
 _atom_site_occupancy
  Nd  Nd0  1  0.995757  0.670682  0.249769  1
  Nd  Nd1  1  0.004243  0.329318  0.750231  1
  Nd  Nd2  1  0.670682  0.995757  0.249769  1
  Nd  Nd3  1  0.329318  0.004243  0.750231  1
  Al  Al4  1  0.133259  0.133259  0.251990  1
  Al  Al5  1  0.866741  0.866741  0.748010  1
  Al  Al6  1  0.005244  0.334737  0.077282  1
  Al  Al7  1  0.994756  0.665263  0.922718  1
  Al  Al8  1  0.998187  0.658643  0.571199  1
  Al  Al9  1  0.341357  0.001813  0.428801  1
  Al  Al10  1  0.001813  0.341357  0.428801  1
  Al  Al11  1  0.658643  0.998187  0.571199  1
  Al  Al12  1  0.665263  0.994756  0.922718  1
  Al  Al13  1  0.334737  0.005244  0.077282  1
  Al  Al14  1  0.338168  0.338168  0.544190  1
  Al  Al15  1  0.661832  0.661832  0.455810  1
  Al  Al16  1  0.662422  0.662422  0.057564  1
  Al  Al17  1  0.337578  0.337578  0.942436  1
  Al  Al18  1  0.339211  0.546711  0.256463  1
  Al  Al19  1  0.660789  0.453289  0.743537  1
  Al  Al20  1  0.546711  0.339211  0.256463  1
  Al  Al21  1  0.453289  0.660789  0.743537  1
  Pd  Pd22  1  0.671495  0.328505  0.000000  1
  Pd  Pd23  1  0.328505  0.671495  0.000000  1
  Pd  Pd24  1  0.000000  0.000000  0.000000  1
  Pd  Pd25  1  0.000000  0.000000  0.500000  1
  Ru  Ru26  1  0.328308  0.671692  0.500000  1
  Ru  Ru27  1  0.671692  0.328308  0.500000  1
