# generated using pymatgen
data_Y3Er5(AlPt)2
_symmetry_space_group_name_H-M   'P 1'
_cell_length_a   9.54502291
_cell_length_b   9.54502360
_cell_length_c   9.54502200
_cell_angle_alpha   59.99999861
_cell_angle_beta   59.99999621
_cell_angle_gamma   59.99999787
_symmetry_Int_Tables_number   1
_chemical_formula_structural   Y3Er5(AlPt)2
_chemical_formula_sum   'Y6 Er10 Al4 Pt4'
_cell_volume   614.91614131
_cell_formula_units_Z   2
loop_
 _symmetry_equiv_pos_site_id
 _symmetry_equiv_pos_as_xyz
  1  'x, y, z'
loop_
 _atom_site_type_symbol
 _atom_site_label
 _atom_site_symmetry_multiplicity
 _atom_site_fract_x
 _atom_site_fract_y
 _atom_site_fract_z
 _atom_site_occupancy
  Y  Y0  1  0.937142  0.562858  0.562858  1
  Y  Y1  1  0.562858  0.937142  0.937142  1
  Y  Y2  1  0.562858  0.937142  0.562858  1
  Y  Y3  1  0.937142  0.562858  0.937142  1
  Y  Y4  1  0.562858  0.562858  0.937142  1
  Y  Y5  1  0.937142  0.937142  0.562858  1
  Er  Er6  1  0.353891  0.353891  0.353891  1
  Er  Er7  1  0.353891  0.353891  0.938327  1
  Er  Er8  1  0.353891  0.938327  0.353891  1
  Er  Er9  1  0.938327  0.353891  0.353891  1
  Er  Er10  1  0.808103  0.191897  0.191897  1
  Er  Er11  1  0.191897  0.808103  0.808103  1
  Er  Er12  1  0.191897  0.808103  0.191897  1
  Er  Er13  1  0.808103  0.191897  0.808103  1
  Er  Er14  1  0.191897  0.191897  0.808103  1
  Er  Er15  1  0.808103  0.808103  0.191897  1
  Al  Al16  1  0.577820  0.577820  0.577820  1
  Al  Al17  1  0.577820  0.577820  0.266539  1
  Al  Al18  1  0.577820  0.266539  0.577820  1
  Al  Al19  1  0.266539  0.577820  0.577820  1
  Pt  Pt20  1  0.143419  0.143419  0.143419  1
  Pt  Pt21  1  0.143419  0.143419  0.569744  1
  Pt  Pt22  1  0.143419  0.569744  0.143419  1
  Pt  Pt23  1  0.569744  0.143419  0.143419  1
