# generated using pymatgen
data_NdHo4In4IrPt
_symmetry_space_group_name_H-M   'P 1'
_cell_length_a   3.64739600
_cell_length_b   8.13945934
_cell_length_c   18.35141933
_cell_angle_alpha   89.93719302
_cell_angle_beta   90.00000000
_cell_angle_gamma   90.00000000
_symmetry_Int_Tables_number   1
_chemical_formula_structural   NdHo4In4IrPt
_chemical_formula_sum   'Nd2 Ho8 In8 Ir2 Pt2'
_cell_volume   544.81351667
_cell_formula_units_Z   2
loop_
 _symmetry_equiv_pos_site_id
 _symmetry_equiv_pos_as_xyz
  1  'x, y, z'
loop_
 _atom_site_type_symbol
 _atom_site_label
 _atom_site_symmetry_multiplicity
 _atom_site_fract_x
 _atom_site_fract_y
 _atom_site_fract_z
 _atom_site_occupancy
  Nd  Nd0  1  0.000000  0.000000  0.000000  1
  Nd  Nd1  1  0.000000  0.500000  0.500000  1
  Ho  Ho2  1  0.000000  0.117019  0.410923  1
  Ho  Ho3  1  0.000000  0.882981  0.589077  1
  Ho  Ho4  1  0.000000  0.380961  0.912466  1
  Ho  Ho5  1  0.000000  0.619039  0.087534  1
  Ho  Ho6  1  0.000000  0.234898  0.221530  1
  Ho  Ho7  1  0.000000  0.765102  0.778470  1
  Ho  Ho8  1  0.000000  0.248615  0.720432  1
  Ho  Ho9  1  0.000000  0.751385  0.279568  1
  In  In10  1  0.500000  0.423596  0.348301  1
  In  In11  1  0.500000  0.576404  0.651699  1
  In  In12  1  0.500000  0.074321  0.848506  1
  In  In13  1  0.500000  0.925679  0.151494  1
  In  In14  1  0.500000  0.299052  0.067639  1
  In  In15  1  0.500000  0.700948  0.932361  1
  In  In16  1  0.500000  0.201252  0.569248  1
  In  In17  1  0.500000  0.798748  0.430752  1
  Ir  Ir18  1  0.500000  0.020667  0.304157  1
  Ir  Ir19  1  0.500000  0.979333  0.695843  1
  Pt  Pt20  1  0.500000  0.479555  0.803583  1
  Pt  Pt21  1  0.500000  0.520445  0.196417  1
