# generated using pymatgen
data_Tb17Ho2LuSn16
_symmetry_space_group_name_H-M   'P 1'
_cell_length_a   8.05253912
_cell_length_b   8.21026025
_cell_length_c   15.52552500
_cell_angle_alpha   90.00000000
_cell_angle_beta   90.00000000
_cell_angle_gamma   89.93910515
_symmetry_Int_Tables_number   1
_chemical_formula_structural   Tb17Ho2LuSn16
_chemical_formula_sum   'Tb17 Ho2 Lu1 Sn16'
_cell_volume   1026.44531451
_cell_formula_units_Z   1
loop_
 _symmetry_equiv_pos_site_id
 _symmetry_equiv_pos_as_xyz
  1  'x, y, z'
loop_
 _atom_site_type_symbol
 _atom_site_label
 _atom_site_symmetry_multiplicity
 _atom_site_fract_x
 _atom_site_fract_y
 _atom_site_fract_z
 _atom_site_occupancy
  Tb  Tb0  1  0.367151  0.835511  0.878218  1
  Tb  Tb1  1  0.868235  0.663663  0.621795  1
  Tb  Tb2  1  0.632412  0.164123  0.378263  1
  Tb  Tb3  1  0.132390  0.335874  0.121406  1
  Tb  Tb4  1  0.632412  0.164123  0.121737  1
  Tb  Tb5  1  0.132390  0.335874  0.378594  1
  Tb  Tb6  1  0.367151  0.835511  0.621782  1
  Tb  Tb7  1  0.868235  0.663663  0.878205  1
  Tb  Tb8  1  0.519814  0.320255  0.902115  1
  Tb  Tb9  1  0.020417  0.180398  0.597843  1
  Tb  Tb10  1  0.479989  0.680052  0.402281  1
  Tb  Tb11  1  0.979833  0.819983  0.097892  1
  Tb  Tb12  1  0.479989  0.680052  0.097719  1
  Tb  Tb13  1  0.979833  0.819983  0.402108  1
  Tb  Tb14  1  0.519814  0.320255  0.597885  1
  Tb  Tb15  1  0.020417  0.180398  0.902157  1
  Tb  Tb16  1  0.698337  0.997989  0.750000  1
  Ho  Ho17  1  0.801264  0.497802  0.250000  1
  Ho  Ho18  1  0.301301  0.002266  0.250000  1
  Lu  Lu19  1  0.199046  0.502542  0.750000  1
  Sn  Sn20  1  0.292351  0.034620  0.041996  1
  Sn  Sn21  1  0.792249  0.465088  0.457985  1
  Sn  Sn22  1  0.707725  0.965270  0.542013  1
  Sn  Sn23  1  0.207663  0.534477  0.957081  1
  Sn  Sn24  1  0.707725  0.965270  0.957987  1
  Sn  Sn25  1  0.207663  0.534477  0.542919  1
  Sn  Sn26  1  0.292351  0.034620  0.458004  1
  Sn  Sn27  1  0.792249  0.465088  0.042015  1
  Sn  Sn28  1  0.563809  0.617757  0.750000  1
  Sn  Sn29  1  0.066127  0.880555  0.750000  1
  Sn  Sn30  1  0.434443  0.381369  0.250000  1
  Sn  Sn31  1  0.934867  0.118810  0.250000  1
  Sn  Sn32  1  0.327722  0.148274  0.750000  1
  Sn  Sn33  1  0.828882  0.354494  0.750000  1
  Sn  Sn34  1  0.671659  0.853343  0.250000  1
  Sn  Sn35  1  0.172091  0.646174  0.250000  1
