# generated using pymatgen
data_Sm3Ho5GaPd24
_symmetry_space_group_name_H-M   'P 1'
_cell_length_a   8.37758461
_cell_length_b   8.37758461
_cell_length_c   8.37426926
_cell_angle_alpha   90.04435483
_cell_angle_beta   89.95564517
_cell_angle_gamma   89.86310193
_symmetry_Int_Tables_number   1
_chemical_formula_structural   Sm3Ho5GaPd24
_chemical_formula_sum   'Sm3 Ho5 Ga1 Pd24'
_cell_volume   587.73704508
_cell_formula_units_Z   1
loop_
 _symmetry_equiv_pos_site_id
 _symmetry_equiv_pos_as_xyz
  1  'x, y, z'
loop_
 _atom_site_type_symbol
 _atom_site_label
 _atom_site_symmetry_multiplicity
 _atom_site_fract_x
 _atom_site_fract_y
 _atom_site_fract_z
 _atom_site_occupancy
  Sm  Sm0  1  0.251288  0.748712  0.252387  1
  Sm  Sm1  1  0.251412  0.748588  0.747881  1
  Sm  Sm2  1  0.748595  0.251405  0.251804  1
  Ho  Ho3  1  0.252404  0.251970  0.251230  1
  Ho  Ho4  1  0.747693  0.748401  0.748865  1
  Ho  Ho5  1  0.748030  0.747596  0.251230  1
  Ho  Ho6  1  0.748652  0.251348  0.747522  1
  Ho  Ho7  1  0.251599  0.252307  0.748865  1
  Ga  Ga8  1  0.000434  0.999566  0.000356  1
  Pd  Pd9  1  0.260077  0.497801  0.000018  1
  Pd  Pd10  1  0.739706  0.500144  0.997468  1
  Pd  Pd11  1  0.002446  0.260237  0.501339  1
  Pd  Pd12  1  0.499856  0.260294  0.997468  1
  Pd  Pd13  1  0.994881  0.739962  0.500569  1
  Pd  Pd14  1  0.502199  0.739923  0.000018  1
  Pd  Pd15  1  0.500539  0.999909  0.260006  1
  Pd  Pd16  1  0.260038  0.005119  0.500569  1
  Pd  Pd17  1  0.501283  0.002491  0.739714  1
  Pd  Pd18  1  0.739763  0.997554  0.501339  1
  Pd  Pd19  1  0.000091  0.499461  0.260006  1
  Pd  Pd20  1  0.997509  0.498717  0.739714  1
  Pd  Pd21  1  0.252706  0.496426  0.500285  1
  Pd  Pd22  1  0.747094  0.501257  0.501852  1
  Pd  Pd23  1  0.498743  0.252906  0.501852  1
  Pd  Pd24  1  0.503574  0.747294  0.500285  1
  Pd  Pd25  1  0.500234  0.499766  0.252702  1
  Pd  Pd26  1  0.501763  0.498237  0.747147  1
  Pd  Pd27  1  0.292109  0.003922  0.000075  1
  Pd  Pd28  1  0.709070  0.998029  0.998071  1
  Pd  Pd29  1  0.001971  0.290930  0.998071  1
  Pd  Pd30  1  0.996078  0.707891  0.000075  1
  Pd  Pd31  1  0.000063  0.999937  0.292265  1
  Pd  Pd32  1  0.998100  0.001900  0.708950  1
