# generated using pymatgen
data_NpBeH5
_symmetry_space_group_name_H-M   'P 1'
_cell_length_a   4.06409900
_cell_length_b   4.59585400
_cell_length_c   11.36181900
_cell_angle_alpha   90.00000000
_cell_angle_beta   90.00000000
_cell_angle_gamma   90.00000000
_symmetry_Int_Tables_number   1
_chemical_formula_structural   NpBeH5
_chemical_formula_sum   'Np4 Be4 H20'
_cell_volume   212.21611943
_cell_formula_units_Z   4
loop_
 _symmetry_equiv_pos_site_id
 _symmetry_equiv_pos_as_xyz
  1  'x, y, z'
loop_
 _atom_site_type_symbol
 _atom_site_label
 _atom_site_symmetry_multiplicity
 _atom_site_fract_x
 _atom_site_fract_y
 _atom_site_fract_z
 _atom_site_occupancy
  Np  Np0  1  0.316353  0.140779  0.657289  1
  Np  Np1  1  0.816353  0.359221  0.342711  1
  Np  Np2  1  0.183647  0.859221  0.157289  1
  Np  Np3  1  0.683647  0.640779  0.842711  1
  Be  Be4  1  0.297717  0.133571  0.920911  1
  Be  Be5  1  0.797717  0.366429  0.079089  1
  Be  Be6  1  0.202283  0.866429  0.420911  1
  Be  Be7  1  0.702283  0.633571  0.579089  1
  H  H8  1  0.539050  0.387296  0.510936  1
  H  H9  1  0.039050  0.112704  0.489064  1
  H  H10  1  0.960950  0.612704  0.010936  1
  H  H11  1  0.460950  0.887296  0.989064  1
  H  H12  1  0.183056  0.892118  0.824952  1
  H  H13  1  0.683056  0.607882  0.175048  1
  H  H14  1  0.316944  0.107882  0.324952  1
  H  H15  1  0.816944  0.392118  0.675048  1
  H  H16  1  0.191692  0.391685  0.834413  1
  H  H17  1  0.691692  0.108315  0.165587  1
  H  H18  1  0.308308  0.608315  0.334413  1
  H  H19  1  0.808308  0.891685  0.665587  1
  H  H20  1  0.616116  0.137857  0.828018  1
  H  H21  1  0.116116  0.362143  0.171982  1
  H  H22  1  0.883884  0.862143  0.328018  1
  H  H23  1  0.383884  0.637857  0.671982  1
  H  H24  1  0.997300  0.116543  0.004798  1
  H  H25  1  0.497300  0.383457  0.995202  1
  H  H26  1  0.502700  0.883457  0.504798  1
  H  H27  1  0.002700  0.616543  0.495202  1
