# generated using pymatgen
data_Te19As
_symmetry_space_group_name_H-M   'P 1'
_cell_length_a   7.96740280
_cell_length_b   8.94102754
_cell_length_c   10.12016500
_cell_angle_alpha   103.09486428
_cell_angle_beta   96.93454965
_cell_angle_gamma   107.31739481
_symmetry_Int_Tables_number   1
_chemical_formula_structural   Te19As
_chemical_formula_sum   'Te19 As1'
_cell_volume   656.48094483
_cell_formula_units_Z   1
loop_
 _symmetry_equiv_pos_site_id
 _symmetry_equiv_pos_as_xyz
  1  'x, y, z'
loop_
 _atom_site_type_symbol
 _atom_site_label
 _atom_site_symmetry_multiplicity
 _atom_site_fract_x
 _atom_site_fract_y
 _atom_site_fract_z
 _atom_site_occupancy
  Te  Te0  1  0.801264  0.582962  0.605372  1
  Te  Te1  1  0.608959  0.191102  0.198687  1
  Te  Te2  1  0.391041  0.808898  0.801313  1
  Te  Te3  1  0.595859  0.690468  0.197372  1
  Te  Te4  1  0.198736  0.417038  0.394628  1
  Te  Te5  1  0.404141  0.309532  0.802628  1
  Te  Te6  1  0.000000  0.000000  0.000000  1
  Te  Te7  1  0.193751  0.908352  0.393428  1
  Te  Te8  1  0.806249  0.091648  0.606572  1
  Te  Te9  1  0.713208  0.630727  0.909718  1
  Te  Te10  1  0.502149  0.253054  0.497239  1
  Te  Te11  1  0.716776  0.155167  0.910251  1
  Te  Te12  1  0.283224  0.844833  0.089749  1
  Te  Te13  1  0.497851  0.746946  0.502761  1
  Te  Te14  1  0.092755  0.464414  0.714296  1
  Te  Te15  1  0.286792  0.369273  0.090282  1
  Te  Te16  1  0.905967  0.041259  0.300396  1
  Te  Te17  1  0.094033  0.958741  0.699604  1
  Te  Te18  1  0.907245  0.535586  0.285704  1
  As  As19  1  0.000000  0.500000  0.000000  1
