# generated using pymatgen
data_Tb2TmMg3Ga2Hg
_symmetry_space_group_name_H-M   'P 1'
_cell_length_a   7.42136500
_cell_length_b   7.38869846
_cell_length_c   4.40734100
_cell_angle_alpha   90.00000000
_cell_angle_beta   90.00000000
_cell_angle_gamma   120.14635406
_symmetry_Int_Tables_number   1
_chemical_formula_structural   Tb2TmMg3Ga2Hg
_chemical_formula_sum   'Tb2 Tm1 Mg3 Ga2 Hg1'
_cell_volume   208.98573760
_cell_formula_units_Z   1
loop_
 _symmetry_equiv_pos_site_id
 _symmetry_equiv_pos_as_xyz
  1  'x, y, z'
loop_
 _atom_site_type_symbol
 _atom_site_label
 _atom_site_symmetry_multiplicity
 _atom_site_fract_x
 _atom_site_fract_y
 _atom_site_fract_z
 _atom_site_occupancy
  Tb  Tb0  1  0.000595  0.573126  0.000000  1
  Tb  Tb1  1  0.427469  0.426874  0.000000  1
  Tm  Tm2  1  0.573513  0.000000  0.000000  1
  Mg  Mg3  1  0.999398  0.249020  0.500000  1
  Mg  Mg4  1  0.750378  0.750980  0.500000  1
  Mg  Mg5  1  0.250155  0.000000  0.500000  1
  Ga  Ga6  1  0.666078  0.330893  0.500000  1
  Ga  Ga7  1  0.335184  0.669107  0.500000  1
  Hg  Hg8  1  0.997229  0.000000  0.000000  1
