# generated using pymatgen
data_Nd4Ga9GeIr6
_symmetry_space_group_name_H-M   'P 1'
_cell_length_a   8.62909437
_cell_length_b   8.68744962
_cell_length_c   8.68744940
_cell_angle_alpha   140.83361040
_cell_angle_beta   108.35992209
_cell_angle_gamma   84.90652149
_symmetry_Int_Tables_number   1
_chemical_formula_structural   Nd4Ga9GeIr6
_chemical_formula_sum   'Nd4 Ga9 Ge1 Ir6'
_cell_volume   377.02527035
_cell_formula_units_Z   1
loop_
 _symmetry_equiv_pos_site_id
 _symmetry_equiv_pos_as_xyz
  1  'x, y, z'
loop_
 _atom_site_type_symbol
 _atom_site_label
 _atom_site_symmetry_multiplicity
 _atom_site_fract_x
 _atom_site_fract_y
 _atom_site_fract_z
 _atom_site_occupancy
  Nd  Nd0  1  0.866508  0.636207  0.230301  1
  Nd  Nd1  1  0.134368  0.364518  0.769850  1
  Nd  Nd2  1  0.403687  0.135690  0.267997  1
  Nd  Nd3  1  0.591444  0.862514  0.728929  1
  Ga  Ga4  1  0.501447  0.751134  0.251801  1
  Ga  Ga5  1  0.501447  0.249646  0.750313  1
  Ga  Ga6  1  0.207608  0.958751  0.748958  1
  Ga  Ga7  1  0.791909  0.542514  0.750085  1
  Ga  Ga8  1  0.791909  0.041824  0.249395  1
  Ga  Ga9  1  0.207608  0.458650  0.248857  1
  Ga  Ga10  1  0.079126  0.907482  0.171645  1
  Ga  Ga11  1  0.919157  0.089171  0.829985  1
  Ga  Ga12  1  0.739183  0.409766  0.329417  1
  Ge  Ge13  1  0.260338  0.591352  0.668986  1
  Ir  Ir14  1  0.002926  0.750208  0.753143  1
  Ir  Ir15  1  0.002926  0.249783  0.252718  1
  Ir  Ir16  1  0.256937  0.852431  0.404507  1
  Ir  Ir17  1  0.745384  0.148847  0.596536  1
  Ir  Ir18  1  0.447692  0.352486  0.095207  1
  Ir  Ir19  1  0.548397  0.647027  0.901370  1
