# generated using pymatgen
data_Ca2NiSn2Pd
_symmetry_space_group_name_H-M   'P 1'
_cell_length_a   4.56178200
_cell_length_b   7.37135500
_cell_length_c   7.91354500
_cell_angle_alpha   90.00000000
_cell_angle_beta   90.00000000
_cell_angle_gamma   90.00000000
_symmetry_Int_Tables_number   1
_chemical_formula_structural   Ca2NiSn2Pd
_chemical_formula_sum   'Ca4 Ni2 Sn4 Pd2'
_cell_volume   266.10493612
_cell_formula_units_Z   2
loop_
 _symmetry_equiv_pos_site_id
 _symmetry_equiv_pos_as_xyz
  1  'x, y, z'
loop_
 _atom_site_type_symbol
 _atom_site_label
 _atom_site_symmetry_multiplicity
 _atom_site_fract_x
 _atom_site_fract_y
 _atom_site_fract_z
 _atom_site_occupancy
  Ca  Ca0  1  0.750000  0.482465  0.812025  1
  Ca  Ca1  1  0.250000  0.520064  0.184620  1
  Ca  Ca2  1  0.250000  0.020064  0.315380  1
  Ca  Ca3  1  0.750000  0.982465  0.687975  1
  Ni  Ni4  1  0.750000  0.199920  0.105220  1
  Ni  Ni5  1  0.750000  0.699920  0.394780  1
  Sn  Sn6  1  0.750000  0.334175  0.413650  1
  Sn  Sn7  1  0.250000  0.672758  0.562019  1
  Sn  Sn8  1  0.750000  0.834175  0.086350  1
  Sn  Sn9  1  0.250000  0.172758  0.937981  1
  Pd  Pd10  1  0.250000  0.790619  0.891989  1
  Pd  Pd11  1  0.250000  0.290619  0.608011  1
