# generated using pymatgen
data_TbY19(Cd3Ru)2
_symmetry_space_group_name_H-M   'P 1'
_cell_length_a   9.64816552
_cell_length_b   9.64816561
_cell_length_c   9.88411968
_cell_angle_alpha   90.03694527
_cell_angle_beta   89.96305755
_cell_angle_gamma   119.99226035
_symmetry_Int_Tables_number   1
_chemical_formula_structural   TbY19(Cd3Ru)2
_chemical_formula_sum   'Tb1 Y19 Cd6 Ru2'
_cell_volume   796.87805499
_cell_formula_units_Z   1
loop_
 _symmetry_equiv_pos_site_id
 _symmetry_equiv_pos_as_xyz
  1  'x, y, z'
loop_
 _atom_site_type_symbol
 _atom_site_label
 _atom_site_symmetry_multiplicity
 _atom_site_fract_x
 _atom_site_fract_y
 _atom_site_fract_z
 _atom_site_occupancy
  Tb  Tb0  1  0.210051  0.789949  0.439586  1
  Y  Y1  1  0.000021  0.999979  0.499960  1
  Y  Y2  1  0.999989  0.000011  0.000061  1
  Y  Y3  1  0.209762  0.419493  0.440089  1
  Y  Y4  1  0.580507  0.790238  0.440089  1
  Y  Y5  1  0.790186  0.209814  0.560002  1
  Y  Y6  1  0.790176  0.580311  0.560000  1
  Y  Y7  1  0.419689  0.209824  0.560000  1
  Y  Y8  1  0.790163  0.209837  0.939986  1
  Y  Y9  1  0.790179  0.580322  0.940011  1
  Y  Y10  1  0.419678  0.209821  0.940011  1
  Y  Y11  1  0.209770  0.790230  0.059920  1
  Y  Y12  1  0.209894  0.419666  0.059973  1
  Y  Y13  1  0.580334  0.790106  0.059973  1
  Y  Y14  1  0.541347  0.458653  0.250000  1
  Y  Y15  1  0.541389  0.082737  0.250006  1
  Y  Y16  1  0.917263  0.458611  0.250006  1
  Y  Y17  1  0.458636  0.541364  0.750013  1
  Y  Y18  1  0.458676  0.917266  0.749986  1
  Y  Y19  1  0.082734  0.541324  0.749986  1
  Cd  Cd20  1  0.885303  0.114697  0.250010  1
  Cd  Cd21  1  0.885259  0.770602  0.249950  1
  Cd  Cd22  1  0.229398  0.114741  0.249950  1
  Cd  Cd23  1  0.114677  0.885323  0.750100  1
  Cd  Cd24  1  0.114695  0.229435  0.750004  1
  Cd  Cd25  1  0.770565  0.885305  0.750004  1
  Ru  Ru26  1  0.333015  0.666985  0.250376  1
  Ru  Ru27  1  0.666644  0.333356  0.749950  1
