# generated using pymatgen
data_Nd2Lu3Sn4
_symmetry_space_group_name_H-M   'P 1'
_cell_length_a   7.99988700
_cell_length_b   8.21060700
_cell_length_c   15.40507600
_cell_angle_alpha   90.00000000
_cell_angle_beta   90.00000000
_cell_angle_gamma   90.00000000
_symmetry_Int_Tables_number   1
_chemical_formula_structural   Nd2Lu3Sn4
_chemical_formula_sum   'Nd8 Lu12 Sn16'
_cell_volume   1011.86590592
_cell_formula_units_Z   4
loop_
 _symmetry_equiv_pos_site_id
 _symmetry_equiv_pos_as_xyz
  1  'x, y, z'
loop_
 _atom_site_type_symbol
 _atom_site_label
 _atom_site_symmetry_multiplicity
 _atom_site_fract_x
 _atom_site_fract_y
 _atom_site_fract_z
 _atom_site_occupancy
  Nd  Nd0  1  0.509839  0.324917  0.904098  1
  Nd  Nd1  1  0.009839  0.175083  0.595902  1
  Nd  Nd2  1  0.490161  0.675083  0.404098  1
  Nd  Nd3  1  0.990161  0.824917  0.095902  1
  Nd  Nd4  1  0.490161  0.675083  0.095902  1
  Nd  Nd5  1  0.990161  0.824917  0.404098  1
  Nd  Nd6  1  0.509839  0.324917  0.595902  1
  Nd  Nd7  1  0.009839  0.175083  0.904098  1
  Lu  Lu8  1  0.348856  0.836681  0.875051  1
  Lu  Lu9  1  0.848856  0.663319  0.624949  1
  Lu  Lu10  1  0.651144  0.163319  0.375051  1
  Lu  Lu11  1  0.151144  0.336681  0.124949  1
  Lu  Lu12  1  0.651144  0.163319  0.124949  1
  Lu  Lu13  1  0.151144  0.336681  0.375051  1
  Lu  Lu14  1  0.348856  0.836681  0.624949  1
  Lu  Lu15  1  0.848856  0.663319  0.875051  1
  Lu  Lu16  1  0.181924  0.502946  0.750000  1
  Lu  Lu17  1  0.681924  0.997054  0.750000  1
  Lu  Lu18  1  0.818076  0.497054  0.250000  1
  Lu  Lu19  1  0.318076  0.002946  0.250000  1
  Sn  Sn20  1  0.314528  0.042264  0.042258  1
  Sn  Sn21  1  0.814528  0.457736  0.457742  1
  Sn  Sn22  1  0.685472  0.957736  0.542258  1
  Sn  Sn23  1  0.185472  0.542264  0.957742  1
  Sn  Sn24  1  0.685472  0.957736  0.957742  1
  Sn  Sn25  1  0.185472  0.542264  0.542258  1
  Sn  Sn26  1  0.314528  0.042264  0.457742  1
  Sn  Sn27  1  0.814528  0.457736  0.042258  1
  Sn  Sn28  1  0.545863  0.626278  0.750000  1
  Sn  Sn29  1  0.045863  0.873722  0.750000  1
  Sn  Sn30  1  0.454137  0.373722  0.250000  1
  Sn  Sn31  1  0.954137  0.126278  0.250000  1
  Sn  Sn32  1  0.317326  0.144921  0.750000  1
  Sn  Sn33  1  0.817326  0.355079  0.750000  1
  Sn  Sn34  1  0.682674  0.855079  0.250000  1
  Sn  Sn35  1  0.182674  0.644921  0.250000  1
