# generated using pymatgen
data_Na26Si14Au41
_symmetry_space_group_name_H-M   'P 1'
_cell_length_a   12.56630972
_cell_length_b   12.56631050
_cell_length_c   12.56631000
_cell_angle_alpha   109.61583414
_cell_angle_beta   109.55476614
_cell_angle_gamma   109.24330789
_symmetry_Int_Tables_number   1
_chemical_formula_structural   Na26Si14Au41
_chemical_formula_sum   'Na26 Si14 Au41'
_cell_volume   1527.55250650
_cell_formula_units_Z   1
loop_
 _symmetry_equiv_pos_site_id
 _symmetry_equiv_pos_as_xyz
  1  'x, y, z'
loop_
 _atom_site_type_symbol
 _atom_site_label
 _atom_site_symmetry_multiplicity
 _atom_site_fract_x
 _atom_site_fract_y
 _atom_site_fract_z
 _atom_site_occupancy
  Na  Na0  1  0.000813  0.118928  0.500061  1
  Na  Na1  1  0.381133  0.881072  0.881885  1
  Na  Na2  1  0.999187  0.499248  0.118115  1
  Na  Na3  1  0.618867  0.500752  0.499939  1
  Na  Na4  1  0.999187  0.881072  0.499939  1
  Na  Na5  1  0.618867  0.118928  0.118115  1
  Na  Na6  1  0.000813  0.500752  0.881885  1
  Na  Na7  1  0.381133  0.499248  0.500061  1
  Na  Na8  1  0.692683  0.692683  0.000000  1
  Na  Na9  1  0.307317  0.307317  0.000000  1
  Na  Na10  1  0.189909  0.000000  0.189909  1
  Na  Na11  1  0.810091  0.000000  0.810091  1
  Na  Na12  1  0.500000  0.803846  0.303846  1
  Na  Na13  1  0.500000  0.196154  0.696154  1
  Na  Na14  1  0.693185  0.081213  0.388028  1
  Na  Na15  1  0.306815  0.918787  0.611972  1
  Na  Na16  1  0.306815  0.694842  0.388028  1
  Na  Na17  1  0.693185  0.305158  0.611972  1
  Na  Na18  1  0.794156  0.608286  0.185869  1
  Na  Na19  1  0.205844  0.391714  0.814131  1
  Na  Na20  1  0.422417  0.608286  0.814131  1
  Na  Na21  1  0.577583  0.391714  0.185869  1
  Na  Na22  1  0.111218  0.813667  0.924886  1
  Na  Na23  1  0.888782  0.186333  0.075114  1
  Na  Na24  1  0.111218  0.186333  0.297551  1
  Na  Na25  1  0.888782  0.813667  0.702449  1
  Si  Si26  1  0.796786  0.987617  0.190831  1
  Si  Si27  1  0.203214  0.012383  0.809169  1
  Si  Si28  1  0.203214  0.394045  0.190831  1
  Si  Si29  1  0.796786  0.605955  0.809169  1
  Si  Si30  1  0.097037  0.800088  0.296949  1
  Si  Si31  1  0.902963  0.199912  0.703051  1
  Si  Si32  1  0.503140  0.800088  0.703051  1
  Si  Si33  1  0.496860  0.199912  0.296949  1
  Si  Si34  1  0.308261  0.708502  0.016763  1
  Si  Si35  1  0.691739  0.291498  0.983237  1
  Si  Si36  1  0.308261  0.291498  0.599758  1
  Si  Si37  1  0.691739  0.708502  0.400242  1
  Si  Si38  1  0.589201  0.000000  0.589201  1
  Si  Si39  1  0.410799  0.000000  0.410799  1
  Au  Au40  1  0.956932  0.910225  0.246531  1
  Au  Au41  1  0.336307  0.089775  0.046708  1
  Au  Au42  1  0.043068  0.289599  0.953292  1
  Au  Au43  1  0.663693  0.710401  0.753469  1
  Au  Au44  1  0.222131  0.770151  0.184967  1
  Au  Au45  1  0.777869  0.962836  0.548020  1
  Au  Au46  1  0.585184  0.037164  0.815033  1
  Au  Au47  1  0.414816  0.229849  0.451980  1
  Au  Au48  1  0.544870  0.837561  0.093326  1
  Au  Au49  1  0.744235  0.451544  0.906674  1
  Au  Au50  1  0.255765  0.162439  0.707310  1
  Au  Au51  1  0.455130  0.548456  0.292690  1
  Au  Au52  1  0.043068  0.089775  0.753469  1
  Au  Au53  1  0.663693  0.910225  0.953292  1
  Au  Au54  1  0.956932  0.710401  0.046708  1
  Au  Au55  1  0.336307  0.289599  0.246531  1
  Au  Au56  1  0.777869  0.229849  0.815033  1
  Au  Au57  1  0.222131  0.037164  0.451980  1
  Au  Au58  1  0.414816  0.962836  0.184967  1
  Au  Au59  1  0.585184  0.770151  0.548020  1
  Au  Au60  1  0.455130  0.162439  0.906674  1
  Au  Au61  1  0.255765  0.548456  0.093326  1
  Au  Au62  1  0.744235  0.837561  0.292690  1
  Au  Au63  1  0.544870  0.451544  0.707310  1
  Au  Au64  1  0.893990  0.222700  0.328709  1
  Au  Au65  1  0.106010  0.777300  0.671291  1
  Au  Au66  1  0.106010  0.434718  0.328709  1
  Au  Au67  1  0.893990  0.565282  0.671291  1
  Au  Au68  1  0.057368  0.664641  0.392728  1
  Au  Au69  1  0.942632  0.335359  0.607272  1
  Au  Au70  1  0.271913  0.664641  0.607272  1
  Au  Au71  1  0.728087  0.335359  0.392728  1
  Au  Au72  1  0.170483  0.610010  0.780492  1
  Au  Au73  1  0.829517  0.389990  0.219508  1
  Au  Au74  1  0.170483  0.389990  0.560473  1
  Au  Au75  1  0.829517  0.610010  0.439527  1
  Au  Au76  1  0.000000  0.500000  0.500000  1
  Au  Au77  1  0.500000  0.407522  0.907522  1
  Au  Au78  1  0.500000  0.592478  0.092478  1
  Au  Au79  1  0.093537  0.093537  0.000000  1
  Au  Au80  1  0.906463  0.906463  0.000000  1
