# generated using pymatgen
data_VNiI18
_symmetry_space_group_name_H-M   'P 1'
_cell_length_a   10.15131454
_cell_length_b   10.15131523
_cell_length_c   10.15131582
_cell_angle_alpha   91.44696960
_cell_angle_beta   91.44696556
_cell_angle_gamma   91.44697340
_symmetry_Int_Tables_number   1
_chemical_formula_structural   VNiI18
_chemical_formula_sum   'V1 Ni1 I18'
_cell_volume   1045.06702083
_cell_formula_units_Z   1
loop_
 _symmetry_equiv_pos_site_id
 _symmetry_equiv_pos_as_xyz
  1  'x, y, z'
loop_
 _atom_site_type_symbol
 _atom_site_label
 _atom_site_symmetry_multiplicity
 _atom_site_fract_x
 _atom_site_fract_y
 _atom_site_fract_z
 _atom_site_occupancy
  V  V0  1  0.500000  0.500000  0.500000  1
  Ni  Ni1  1  0.000000  0.000000  0.000000  1
  I  I2  1  0.736576  0.981997  0.028332  1
  I  I3  1  0.743046  0.130294  0.620534  1
  I  I4  1  0.028332  0.736576  0.981997  1
  I  I5  1  0.256954  0.869706  0.379466  1
  I  I6  1  0.130294  0.620534  0.743046  1
  I  I7  1  0.018003  0.971668  0.263424  1
  I  I8  1  0.620534  0.743046  0.130294  1
  I  I9  1  0.971668  0.263424  0.018003  1
  I  I10  1  0.869706  0.379466  0.256954  1
  I  I11  1  0.379466  0.256954  0.869706  1
  I  I12  1  0.981997  0.028332  0.736576  1
  I  I13  1  0.263424  0.018003  0.971668  1
  I  I14  1  0.768082  0.530336  0.488796  1
  I  I15  1  0.511204  0.231918  0.469664  1
  I  I16  1  0.469664  0.511204  0.231918  1
  I  I17  1  0.488796  0.768082  0.530336  1
  I  I18  1  0.530336  0.488796  0.768082  1
  I  I19  1  0.231918  0.469664  0.511204  1
