# generated using pymatgen
data_NpFe3As12Ru
_symmetry_space_group_name_H-M   'P 1'
_cell_length_a   7.26774399
_cell_length_b   7.26774435
_cell_length_c   7.24701100
_cell_angle_alpha   109.41344720
_cell_angle_beta   109.41344819
_cell_angle_gamma   109.52893040
_symmetry_Int_Tables_number   1
_chemical_formula_structural   NpFe3As12Ru
_chemical_formula_sum   'Np1 Fe3 As12 Ru1'
_cell_volume   294.88009191
_cell_formula_units_Z   1
loop_
 _symmetry_equiv_pos_site_id
 _symmetry_equiv_pos_as_xyz
  1  'x, y, z'
loop_
 _atom_site_type_symbol
 _atom_site_label
 _atom_site_symmetry_multiplicity
 _atom_site_fract_x
 _atom_site_fract_y
 _atom_site_fract_z
 _atom_site_occupancy
  Np  Np0  1  0.000000  0.000000  0.000000  1
  Fe  Fe1  1  0.500000  0.500000  0.500000  1
  Fe  Fe2  1  0.500000  0.000000  0.000000  1
  Fe  Fe3  1  0.000000  0.500000  0.000000  1
  As  As4  1  0.840570  0.648462  0.503025  1
  As  As5  1  0.159430  0.351538  0.496975  1
  As  As6  1  0.155691  0.659801  0.815969  1
  As  As7  1  0.844309  0.340199  0.184031  1
  As  As8  1  0.659801  0.504110  0.843832  1
  As  As9  1  0.340199  0.495890  0.156168  1
  As  As10  1  0.648462  0.807892  0.145436  1
  As  As11  1  0.351538  0.192108  0.854564  1
  As  As12  1  0.504110  0.844309  0.660279  1
  As  As13  1  0.495890  0.155691  0.339721  1
  As  As14  1  0.807892  0.159430  0.662455  1
  As  As15  1  0.192108  0.840570  0.337545  1
  Ru  Ru16  1  0.000000  0.000000  0.500000  1
