# generated using pymatgen
data_Ho2Lu10TcOs3
_symmetry_space_group_name_H-M   'P 1'
_cell_length_a   6.16155448
_cell_length_b   7.36855206
_cell_length_c   8.81395400
_cell_angle_alpha   90.00000000
_cell_angle_beta   90.00000000
_cell_angle_gamma   90.11253933
_symmetry_Int_Tables_number   1
_chemical_formula_structural   Ho2Lu10TcOs3
_chemical_formula_sum   'Ho2 Lu10 Tc1 Os3'
_cell_volume   400.16803164
_cell_formula_units_Z   1
loop_
 _symmetry_equiv_pos_site_id
 _symmetry_equiv_pos_as_xyz
  1  'x, y, z'
loop_
 _atom_site_type_symbol
 _atom_site_label
 _atom_site_symmetry_multiplicity
 _atom_site_fract_x
 _atom_site_fract_y
 _atom_site_fract_z
 _atom_site_occupancy
  Ho  Ho0  1  0.875232  0.538975  0.250000  1
  Ho  Ho1  1  0.622411  0.036954  0.250000  1
  Lu  Lu2  1  0.338942  0.673325  0.061002  1
  Lu  Lu3  1  0.161125  0.175109  0.438851  1
  Lu  Lu4  1  0.663329  0.326012  0.562639  1
  Lu  Lu5  1  0.839179  0.825374  0.936706  1
  Lu  Lu6  1  0.663329  0.326012  0.937361  1
  Lu  Lu7  1  0.839179  0.825374  0.563294  1
  Lu  Lu8  1  0.338942  0.673325  0.438998  1
  Lu  Lu9  1  0.161125  0.175109  0.061149  1
  Lu  Lu10  1  0.127554  0.460179  0.750000  1
  Lu  Lu11  1  0.372776  0.962569  0.750000  1
  Tc  Tc12  1  0.041378  0.880612  0.250000  1
  Os  Os13  1  0.457284  0.380106  0.250000  1
  Os  Os14  1  0.960799  0.120479  0.750000  1
  Os  Os15  1  0.537414  0.620484  0.750000  1
