# generated using pymatgen
data_Sr4Tb3Yb3Pt8
_symmetry_space_group_name_H-M   'P 1'
_cell_length_a   7.71063000
_cell_length_b   7.83082027
_cell_length_c   14.93100930
_cell_angle_alpha   90.08712955
_cell_angle_beta   90.00000000
_cell_angle_gamma   90.00000000
_symmetry_Int_Tables_number   1
_chemical_formula_structural   Sr4Tb3Yb3Pt8
_chemical_formula_sum   'Sr8 Tb6 Yb6 Pt16'
_cell_volume   901.54162635
_cell_formula_units_Z   2
loop_
 _symmetry_equiv_pos_site_id
 _symmetry_equiv_pos_as_xyz
  1  'x, y, z'
loop_
 _atom_site_type_symbol
 _atom_site_label
 _atom_site_symmetry_multiplicity
 _atom_site_fract_x
 _atom_site_fract_y
 _atom_site_fract_z
 _atom_site_occupancy
  Sr  Sr0  1  0.499319  0.325828  0.902921  1
  Sr  Sr1  1  0.999319  0.174172  0.597079  1
  Sr  Sr2  1  0.500892  0.677673  0.405494  1
  Sr  Sr3  1  0.000892  0.822327  0.094506  1
  Sr  Sr4  1  0.501373  0.676652  0.095781  1
  Sr  Sr5  1  0.001373  0.823348  0.404219  1
  Sr  Sr6  1  0.498672  0.322900  0.597622  1
  Sr  Sr7  1  0.998672  0.177100  0.902378  1
  Tb  Tb8  1  0.339989  0.834001  0.876215  1
  Tb  Tb9  1  0.839989  0.665999  0.623785  1
  Tb  Tb10  1  0.659778  0.167555  0.376155  1
  Tb  Tb11  1  0.159778  0.332445  0.123845  1
  Tb  Tb12  1  0.660939  0.166791  0.123345  1
  Tb  Tb13  1  0.160939  0.333209  0.376655  1
  Yb  Yb14  1  0.339911  0.832595  0.623128  1
  Yb  Yb15  1  0.839911  0.667405  0.876872  1
  Yb  Yb16  1  0.177644  0.494805  0.749968  1
  Yb  Yb17  1  0.677644  0.005195  0.750032  1
  Yb  Yb18  1  0.821302  0.509123  0.250137  1
  Yb  Yb19  1  0.321302  0.990877  0.249863  1
  Pt  Pt20  1  0.333110  0.045462  0.044046  1
  Pt  Pt21  1  0.833110  0.454538  0.455954  1
  Pt  Pt22  1  0.667588  0.955754  0.542348  1
  Pt  Pt23  1  0.167588  0.544246  0.957652  1
  Pt  Pt24  1  0.660576  0.961690  0.957493  1
  Pt  Pt25  1  0.160576  0.538310  0.542507  1
  Pt  Pt26  1  0.339139  0.047436  0.454412  1
  Pt  Pt27  1  0.839139  0.452564  0.045588  1
  Pt  Pt28  1  0.545281  0.634184  0.752428  1
  Pt  Pt29  1  0.045281  0.865816  0.747572  1
  Pt  Pt30  1  0.456272  0.364915  0.249283  1
  Pt  Pt31  1  0.956272  0.135085  0.250717  1
  Pt  Pt32  1  0.302082  0.120031  0.752831  1
  Pt  Pt33  1  0.802082  0.379969  0.747169  1
  Pt  Pt34  1  0.696134  0.883189  0.249876  1
  Pt  Pt35  1  0.196134  0.616811  0.250124  1
