# generated using pymatgen
data_Dy7YCo3Si12Ag
_symmetry_space_group_name_H-M   'P 1'
_cell_length_a   8.02981200
_cell_length_b   8.02981331
_cell_length_c   7.91550500
_cell_angle_alpha   89.99994292
_cell_angle_beta   90.00000000
_cell_angle_gamma   119.99996165
_symmetry_Int_Tables_number   1
_chemical_formula_structural   Dy7YCo3Si12Ag
_chemical_formula_sum   'Dy7 Y1 Co3 Si12 Ag1'
_cell_volume   441.99794746
_cell_formula_units_Z   1
loop_
 _symmetry_equiv_pos_site_id
 _symmetry_equiv_pos_as_xyz
  1  'x, y, z'
loop_
 _atom_site_type_symbol
 _atom_site_label
 _atom_site_symmetry_multiplicity
 _atom_site_fract_x
 _atom_site_fract_y
 _atom_site_fract_z
 _atom_site_occupancy
  Dy  Dy0  1  0.000000  0.000000  0.754425  1
  Dy  Dy1  1  0.020331  0.510166  0.243439  1
  Dy  Dy2  1  0.489834  0.510165  0.243438  1
  Dy  Dy3  1  0.501757  0.003514  0.753678  1
  Dy  Dy4  1  0.489834  0.979669  0.243438  1
  Dy  Dy5  1  0.501757  0.498244  0.753677  1
  Dy  Dy6  1  0.996486  0.498243  0.753678  1
  Y  Y7  1  0.000000  0.000000  0.248402  1
  Co  Co8  1  0.333333  0.666667  0.967407  1
  Co  Co9  1  0.333333  0.666667  0.536340  1
  Co  Co10  1  0.666667  0.333334  0.023912  1
  Si  Si11  1  0.170374  0.340750  0.997720  1
  Si  Si12  1  0.659250  0.829626  0.997719  1
  Si  Si13  1  0.173824  0.347648  0.498922  1
  Si  Si14  1  0.344599  0.172299  0.001859  1
  Si  Si15  1  0.170374  0.829625  0.997720  1
  Si  Si16  1  0.652352  0.826176  0.498921  1
  Si  Si17  1  0.827700  0.655401  0.001859  1
  Si  Si18  1  0.319917  0.159959  0.504223  1
  Si  Si19  1  0.173824  0.826176  0.498922  1
  Si  Si20  1  0.840041  0.680083  0.504224  1
  Si  Si21  1  0.827700  0.172299  0.001859  1
  Si  Si22  1  0.840041  0.159959  0.504224  1
  Ag  Ag23  1  0.666667  0.333333  0.469997  1
