# generated using pymatgen
data_LiLa5Pr11Cd3Pt4
_symmetry_space_group_name_H-M   'P 1'
_cell_length_a   10.13821551
_cell_length_b   10.15122938
_cell_length_c   10.15132424
_cell_angle_alpha   60.07582627
_cell_angle_beta   60.17831891
_cell_angle_gamma   60.18633977
_symmetry_Int_Tables_number   1
_chemical_formula_structural   LiLa5Pr11Cd3Pt4
_chemical_formula_sum   'Li1 La5 Pr11 Cd3 Pt4'
_cell_volume   741.18884238
_cell_formula_units_Z   1
loop_
 _symmetry_equiv_pos_site_id
 _symmetry_equiv_pos_as_xyz
  1  'x, y, z'
loop_
 _atom_site_type_symbol
 _atom_site_label
 _atom_site_symmetry_multiplicity
 _atom_site_fract_x
 _atom_site_fract_y
 _atom_site_fract_z
 _atom_site_occupancy
  Li  Li0  1  0.571117  0.571212  0.571213  1
  La  La1  1  0.348500  0.350630  0.350751  1
  La  La2  1  0.349888  0.349383  0.951352  1
  La  La3  1  0.350025  0.951191  0.349438  1
  La  La4  1  0.950516  0.350704  0.350604  1
  La  La5  1  0.811233  0.191174  0.190829  1
  Pr  Pr6  1  0.187130  0.812527  0.812510  1
  Pr  Pr7  1  0.193512  0.809277  0.191637  1
  Pr  Pr8  1  0.811957  0.187116  0.810730  1
  Pr  Pr9  1  0.193435  0.191663  0.809299  1
  Pr  Pr10  1  0.811926  0.810708  0.187080  1
  Pr  Pr11  1  0.935975  0.565321  0.565377  1
  Pr  Pr12  1  0.563001  0.935182  0.935150  1
  Pr  Pr13  1  0.564157  0.936014  0.565522  1
  Pr  Pr14  1  0.936842  0.562946  0.934706  1
  Pr  Pr15  1  0.564185  0.565502  0.935968  1
  Pr  Pr16  1  0.936822  0.934686  0.563013  1
  Cd  Cd17  1  0.581984  0.583998  0.254843  1
  Cd  Cd18  1  0.581978  0.254820  0.584013  1
  Cd  Cd19  1  0.254860  0.582574  0.582581  1
  Pt  Pt20  1  0.141740  0.145120  0.145061  1
  Pt  Pt21  1  0.143903  0.143217  0.570301  1
  Pt  Pt22  1  0.143855  0.570308  0.143259  1
  Pt  Pt23  1  0.571454  0.144726  0.144763  1
