# generated using pymatgen
data_Ho4Ga2(OsRu)3
_symmetry_space_group_name_H-M   'P 1'
_cell_length_a   5.30364190
_cell_length_b   5.33732076
_cell_length_c   8.87872700
_cell_angle_alpha   90.00000000
_cell_angle_beta   90.00000000
_cell_angle_gamma   120.21181143
_symmetry_Int_Tables_number   1
_chemical_formula_structural   Ho4Ga2(OsRu)3
_chemical_formula_sum   'Ho4 Ga2 Os3 Ru3'
_cell_volume   217.19405344
_cell_formula_units_Z   1
loop_
 _symmetry_equiv_pos_site_id
 _symmetry_equiv_pos_as_xyz
  1  'x, y, z'
loop_
 _atom_site_type_symbol
 _atom_site_label
 _atom_site_symmetry_multiplicity
 _atom_site_fract_x
 _atom_site_fract_y
 _atom_site_fract_z
 _atom_site_occupancy
  Ho  Ho0  1  0.666116  0.332914  0.568309  1
  Ho  Ho1  1  0.342030  0.670730  0.440448  1
  Ho  Ho2  1  0.342030  0.670730  0.059552  1
  Ho  Ho3  1  0.666116  0.332914  0.931691  1
  Ga  Ga4  1  0.826668  0.662909  0.250000  1
  Ga  Ga5  1  0.828100  0.164384  0.250000  1
  Os  Os6  1  0.165033  0.335909  0.750000  1
  Os  Os7  1  0.164338  0.831082  0.750000  1
  Os  Os8  1  0.647595  0.823908  0.750000  1
  Ru  Ru9  1  0.006719  0.002609  0.500430  1
  Ru  Ru10  1  0.006719  0.002609  0.999570  1
  Ru  Ru11  1  0.338534  0.169301  0.250000  1
