# generated using pymatgen
data_Na4Cd3S5
_symmetry_space_group_name_H-M   'P 1'
_cell_length_a   4.09879200
_cell_length_b   13.57562800
_cell_length_c   19.47844500
_cell_angle_alpha   90.00000000
_cell_angle_beta   90.00000000
_cell_angle_gamma   90.00000000
_symmetry_Int_Tables_number   1
_chemical_formula_structural   Na4Cd3S5
_chemical_formula_sum   'Na16 Cd12 S20'
_cell_volume   1083.85227168
_cell_formula_units_Z   4
loop_
 _symmetry_equiv_pos_site_id
 _symmetry_equiv_pos_as_xyz
  1  'x, y, z'
loop_
 _atom_site_type_symbol
 _atom_site_label
 _atom_site_symmetry_multiplicity
 _atom_site_fract_x
 _atom_site_fract_y
 _atom_site_fract_z
 _atom_site_occupancy
  Na  Na0  1  0.250000  0.276514  0.834221  1
  Na  Na1  1  0.750000  0.723486  0.165779  1
  Na  Na2  1  0.250000  0.776514  0.665779  1
  Na  Na3  1  0.750000  0.223486  0.334221  1
  Na  Na4  1  0.250000  0.111298  0.948150  1
  Na  Na5  1  0.750000  0.888702  0.051850  1
  Na  Na6  1  0.250000  0.611298  0.551850  1
  Na  Na7  1  0.750000  0.388702  0.448150  1
  Na  Na8  1  0.250000  0.007018  0.418501  1
  Na  Na9  1  0.750000  0.992982  0.581499  1
  Na  Na10  1  0.250000  0.507018  0.081499  1
  Na  Na11  1  0.750000  0.492982  0.918501  1
  Na  Na12  1  0.250000  0.501181  0.733732  1
  Na  Na13  1  0.750000  0.498819  0.266268  1
  Na  Na14  1  0.250000  0.001181  0.766268  1
  Na  Na15  1  0.750000  0.998819  0.233732  1
  Cd  Cd16  1  0.250000  0.575960  0.370447  1
  Cd  Cd17  1  0.750000  0.424040  0.629553  1
  Cd  Cd18  1  0.250000  0.075960  0.129553  1
  Cd  Cd19  1  0.750000  0.924040  0.870447  1
  Cd  Cd20  1  0.250000  0.317046  0.216753  1
  Cd  Cd21  1  0.750000  0.682954  0.783247  1
  Cd  Cd22  1  0.250000  0.817046  0.283247  1
  Cd  Cd23  1  0.750000  0.182954  0.716753  1
  Cd  Cd24  1  0.250000  0.206088  0.535126  1
  Cd  Cd25  1  0.750000  0.793912  0.464874  1
  Cd  Cd26  1  0.250000  0.706088  0.964874  1
  Cd  Cd27  1  0.750000  0.293912  0.035126  1
  S  S28  1  0.250000  0.114806  0.651461  1
  S  S29  1  0.750000  0.361682  0.752752  1
  S  S30  1  0.750000  0.861682  0.747248  1
  S  S31  1  0.250000  0.138318  0.252752  1
  S  S32  1  0.750000  0.145917  0.468250  1
  S  S33  1  0.250000  0.854083  0.531750  1
  S  S34  1  0.750000  0.645917  0.031750  1
  S  S35  1  0.250000  0.354083  0.968250  1
  S  S36  1  0.750000  0.114202  0.843508  1
  S  S37  1  0.250000  0.885798  0.156492  1
  S  S38  1  0.750000  0.614202  0.656492  1
  S  S39  1  0.250000  0.385798  0.343508  1
  S  S40  1  0.750000  0.107047  0.054120  1
  S  S41  1  0.250000  0.892953  0.945880  1
  S  S42  1  0.750000  0.607047  0.445880  1
  S  S43  1  0.250000  0.392953  0.554120  1
  S  S44  1  0.250000  0.614806  0.848539  1
  S  S45  1  0.750000  0.385194  0.151461  1
  S  S46  1  0.250000  0.638318  0.247248  1
  S  S47  1  0.750000  0.885194  0.348539  1
