# generated using pymatgen
data_Zr10CdBi5PbAu
_symmetry_space_group_name_H-M   'P 1'
_cell_length_a   8.94067941
_cell_length_b   8.93023866
_cell_length_c   6.00231201
_cell_angle_alpha   89.93352145
_cell_angle_beta   90.03320048
_cell_angle_gamma   119.96138362
_symmetry_Int_Tables_number   1
_chemical_formula_structural   Zr10CdBi5PbAu
_chemical_formula_sum   'Zr10 Cd1 Bi5 Pb1 Au1'
_cell_volume   415.19427580
_cell_formula_units_Z   1
loop_
 _symmetry_equiv_pos_site_id
 _symmetry_equiv_pos_as_xyz
  1  'x, y, z'
loop_
 _atom_site_type_symbol
 _atom_site_label
 _atom_site_symmetry_multiplicity
 _atom_site_fract_x
 _atom_site_fract_y
 _atom_site_fract_z
 _atom_site_occupancy
  Zr  Zr0  1  0.667308  0.333510  0.000680  1
  Zr  Zr1  1  0.332692  0.666203  0.000680  1
  Zr  Zr2  1  0.332455  0.666046  0.499235  1
  Zr  Zr3  1  0.667545  0.333591  0.499235  1
  Zr  Zr4  1  0.722658  0.722872  0.753681  1
  Zr  Zr5  1  0.277342  0.000215  0.753681  1
  Zr  Zr6  1  0.000000  0.276954  0.753890  1
  Zr  Zr7  1  0.277377  0.278454  0.246436  1
  Zr  Zr8  1  0.722623  0.001077  0.246436  1
  Zr  Zr9  1  0.000000  0.721332  0.246516  1
  Cd  Cd10  1  0.000000  0.000723  0.498664  1
  Bi  Bi11  1  0.380817  0.381405  0.747783  1
  Bi  Bi12  1  0.619183  0.000588  0.747783  1
  Bi  Bi13  1  0.000000  0.618108  0.747853  1
  Bi  Bi14  1  0.618319  0.618188  0.251876  1
  Bi  Bi15  1  0.381681  0.999869  0.251876  1
  Pb  Pb16  1  0.000000  0.379728  0.252310  1
  Au  Au17  1  0.000000  0.001136  0.001384  1
