# generated using pymatgen
data_Nb4VGeB2
_symmetry_space_group_name_H-M   'P 1'
_cell_length_a   7.30564234
_cell_length_b   7.30564236
_cell_length_c   7.30603889
_cell_angle_alpha   129.94556955
_cell_angle_beta   129.94556584
_cell_angle_gamma   73.49675374
_symmetry_Int_Tables_number   1
_chemical_formula_structural   Nb4VGeB2
_chemical_formula_sum   'Nb8 V2 Ge2 B4'
_cell_volume   223.67572444
_cell_formula_units_Z   2
loop_
 _symmetry_equiv_pos_site_id
 _symmetry_equiv_pos_as_xyz
  1  'x, y, z'
loop_
 _atom_site_type_symbol
 _atom_site_label
 _atom_site_symmetry_multiplicity
 _atom_site_fract_x
 _atom_site_fract_y
 _atom_site_fract_z
 _atom_site_occupancy
  Nb  Nb0  1  0.534366  0.697645  0.500004  1
  Nb  Nb1  1  0.197645  0.034366  0.500004  1
  Nb  Nb2  1  0.034358  0.534358  0.836697  1
  Nb  Nb3  1  0.697648  0.197648  0.163280  1
  Nb  Nb4  1  0.465634  0.302355  0.499996  1
  Nb  Nb5  1  0.802355  0.965634  0.499996  1
  Nb  Nb6  1  0.965642  0.465642  0.163303  1
  Nb  Nb7  1  0.302352  0.802352  0.836720  1
  V  V8  1  0.500000  0.500000  0.000000  1
  V  V9  1  0.000000  0.000000  0.000000  1
  Ge  Ge10  1  0.250011  0.249989  0.000000  1
  Ge  Ge11  1  0.749989  0.750011  0.000000  1
  B  B12  1  0.877706  0.622294  0.500000  1
  B  B13  1  0.122294  0.377706  0.500000  1
  B  B14  1  0.377700  0.877700  0.255396  1
  B  B15  1  0.622300  0.122300  0.744604  1
