# generated using pymatgen
data_Sr3Al2Br2O5
_symmetry_space_group_name_H-M   'P 1'
_cell_length_a   8.31726438
_cell_length_b   8.31726040
_cell_length_c   8.31726486
_cell_angle_alpha   109.47061308
_cell_angle_beta   109.46856892
_cell_angle_gamma   109.47443222
_symmetry_Int_Tables_number   1
_chemical_formula_structural   Sr3Al2Br2O5
_chemical_formula_sum   'Sr6 Al4 Br4 O10'
_cell_volume   442.91429852
_cell_formula_units_Z   2
loop_
 _symmetry_equiv_pos_site_id
 _symmetry_equiv_pos_as_xyz
  1  'x, y, z'
loop_
 _atom_site_type_symbol
 _atom_site_label
 _atom_site_symmetry_multiplicity
 _atom_site_fract_x
 _atom_site_fract_y
 _atom_site_fract_z
 _atom_site_occupancy
  Sr  Sr0  1  0.657719  0.407719  0.250001  1
  Sr  Sr1  1  0.250002  0.657608  0.407605  1
  Sr  Sr2  1  0.842281  0.092280  0.750000  1
  Sr  Sr3  1  0.407683  0.250000  0.657684  1
  Sr  Sr4  1  0.092319  0.749999  0.842319  1
  Sr  Sr5  1  0.749998  0.842393  0.092396  1
  Al  Al6  1  0.499884  0.999873  0.308194  1
  Al  Al7  1  0.308321  0.500127  0.000011  1
  Al  Al8  1  0.000117  0.308312  0.499987  1
  Al  Al9  1  0.191675  0.191688  0.191805  1
  Br  Br10  1  0.999959  0.885721  0.500004  1
  Br  Br11  1  0.614280  0.614278  0.614234  1
  Br  Br12  1  0.885719  0.499954  0.000000  1
  Br  Br13  1  0.500045  0.000046  0.885764  1
  O  O14  1  0.981225  0.981219  0.981285  1
  O  O15  1  0.000066  0.518782  0.500008  1
  O  O16  1  0.518770  0.500053  0.999993  1
  O  O17  1  0.499939  0.999946  0.518715  1
  O  O18  1  0.110542  0.360546  0.750001  1
  O  O19  1  0.750000  0.110621  0.360617  1
  O  O20  1  0.139411  0.250000  0.389411  1
  O  O21  1  0.249995  0.389379  0.139379  1
  O  O22  1  0.389454  0.139453  0.249995  1
  O  O23  1  0.360594  0.750000  0.110593  1
