# generated using pymatgen
data_Ho10IrRuPb6
_symmetry_space_group_name_H-M   'P 1'
_cell_length_a   9.33393500
_cell_length_b   9.33393490
_cell_length_c   6.49649900
_cell_angle_alpha   90.00000000
_cell_angle_beta   90.00000000
_cell_angle_gamma   119.99999681
_symmetry_Int_Tables_number   1
_chemical_formula_structural   Ho10IrRuPb6
_chemical_formula_sum   'Ho10 Ir1 Ru1 Pb6'
_cell_volume   490.16191191
_cell_formula_units_Z   1
loop_
 _symmetry_equiv_pos_site_id
 _symmetry_equiv_pos_as_xyz
  1  'x, y, z'
loop_
 _atom_site_type_symbol
 _atom_site_label
 _atom_site_symmetry_multiplicity
 _atom_site_fract_x
 _atom_site_fract_y
 _atom_site_fract_z
 _atom_site_occupancy
  Ho  Ho0  1  0.238811  0.000000  0.746933  1
  Ho  Ho1  1  0.761189  0.000000  0.253067  1
  Ho  Ho2  1  0.000000  0.238811  0.746933  1
  Ho  Ho3  1  0.000000  0.761189  0.253067  1
  Ho  Ho4  1  0.761189  0.761189  0.746933  1
  Ho  Ho5  1  0.238811  0.238811  0.253067  1
  Ho  Ho6  1  0.333333  0.666667  0.500000  1
  Ho  Ho7  1  0.666667  0.333333  0.500000  1
  Ho  Ho8  1  0.666667  0.333333  0.000000  1
  Ho  Ho9  1  0.333333  0.666667  0.000000  1
  Ir  Ir10  1  0.000000  0.000000  0.000000  1
  Ru  Ru11  1  0.000000  0.000000  0.500000  1
  Pb  Pb12  1  0.597668  0.000000  0.750883  1
  Pb  Pb13  1  0.402332  0.000000  0.249117  1
  Pb  Pb14  1  0.000000  0.597668  0.750883  1
  Pb  Pb15  1  0.000000  0.402332  0.249117  1
  Pb  Pb16  1  0.402332  0.402332  0.750883  1
  Pb  Pb17  1  0.597668  0.597668  0.249117  1
