# generated using pymatgen
data_Er8Si12Ir2PdPt
_symmetry_space_group_name_H-M   'P 1'
_cell_length_a   8.15624800
_cell_length_b   8.15624753
_cell_length_c   7.83257400
_cell_angle_alpha   90.00000000
_cell_angle_beta   90.00000000
_cell_angle_gamma   119.99999380
_symmetry_Int_Tables_number   1
_chemical_formula_structural   Er8Si12Ir2PdPt
_chemical_formula_sum   'Er8 Si12 Ir2 Pd1 Pt1'
_cell_volume   451.24872249
_cell_formula_units_Z   1
loop_
 _symmetry_equiv_pos_site_id
 _symmetry_equiv_pos_as_xyz
  1  'x, y, z'
loop_
 _atom_site_type_symbol
 _atom_site_label
 _atom_site_symmetry_multiplicity
 _atom_site_fract_x
 _atom_site_fract_y
 _atom_site_fract_z
 _atom_site_occupancy
  Er  Er0  1  0.513592  0.027185  0.249125  1
  Er  Er1  1  0.491257  0.982513  0.750171  1
  Er  Er2  1  0.972815  0.486408  0.249125  1
  Er  Er3  1  0.017487  0.508743  0.750171  1
  Er  Er4  1  0.513592  0.486408  0.249125  1
  Er  Er5  1  0.491257  0.508743  0.750171  1
  Er  Er6  1  0.000000  0.000000  0.251487  1
  Er  Er7  1  0.000000  0.000000  0.750175  1
  Si  Si8  1  0.164582  0.329163  0.003160  1
  Si  Si9  1  0.833209  0.666417  0.997371  1
  Si  Si10  1  0.670837  0.835418  0.003160  1
  Si  Si11  1  0.832879  0.665757  0.501616  1
  Si  Si12  1  0.333583  0.166791  0.997371  1
  Si  Si13  1  0.164764  0.329527  0.499996  1
  Si  Si14  1  0.164582  0.835418  0.003160  1
  Si  Si15  1  0.334243  0.167121  0.501616  1
  Si  Si16  1  0.833209  0.166791  0.997371  1
  Si  Si17  1  0.670473  0.835236  0.499996  1
  Si  Si18  1  0.832879  0.167121  0.501616  1
  Si  Si19  1  0.164764  0.835236  0.499996  1
  Ir  Ir20  1  0.666667  0.333333  0.961950  1
  Ir  Ir21  1  0.666667  0.333333  0.540598  1
  Pd  Pd22  1  0.333333  0.666667  0.458433  1
  Pt  Pt23  1  0.333333  0.666667  0.033044  1
