# generated using pymatgen
data_Ce3Y(B4Ru)4
_symmetry_space_group_name_H-M   'P 1'
_cell_length_a   3.61084800
_cell_length_b   5.99045460
_cell_length_c   11.61830608
_cell_angle_alpha   89.91643035
_cell_angle_beta   90.00000000
_cell_angle_gamma   90.00000000
_symmetry_Int_Tables_number   1
_chemical_formula_structural   Ce3Y(B4Ru)4
_chemical_formula_sum   'Ce3 Y1 B16 Ru4'
_cell_volume   251.31090821
_cell_formula_units_Z   1
loop_
 _symmetry_equiv_pos_site_id
 _symmetry_equiv_pos_as_xyz
  1  'x, y, z'
loop_
 _atom_site_type_symbol
 _atom_site_label
 _atom_site_symmetry_multiplicity
 _atom_site_fract_x
 _atom_site_fract_y
 _atom_site_fract_z
 _atom_site_occupancy
  Ce  Ce0  1  0.000000  0.629302  0.350288  1
  Ce  Ce1  1  0.000000  0.370676  0.650645  1
  Ce  Ce2  1  0.000000  0.128976  0.148705  1
  Y  Y3  1  0.000000  0.871126  0.850717  1
  B  B4  1  0.500000  0.787430  0.184613  1
  B  B5  1  0.500000  0.212318  0.814590  1
  B  B6  1  0.500000  0.286161  0.313954  1
  B  B7  1  0.500000  0.713502  0.686167  1
  B  B8  1  0.500000  0.863391  0.030785  1
  B  B9  1  0.500000  0.137051  0.968273  1
  B  B10  1  0.500000  0.362198  0.469088  1
  B  B11  1  0.500000  0.637060  0.531581  1
  B  B12  1  0.500000  0.888660  0.454346  1
  B  B13  1  0.500000  0.110925  0.546814  1
  B  B14  1  0.500000  0.388888  0.045144  1
  B  B15  1  0.500000  0.612639  0.953143  1
  B  B16  1  0.500000  0.976132  0.309289  1
  B  B17  1  0.500000  0.023790  0.691710  1
  B  B18  1  0.500000  0.474697  0.189968  1
  B  B19  1  0.500000  0.525125  0.809279  1
  Ru  Ru20  1  0.000000  0.639508  0.093591  1
  Ru  Ru21  1  0.000000  0.359607  0.907226  1
  Ru  Ru22  1  0.000000  0.140889  0.406492  1
  Ru  Ru23  1  0.000000  0.859949  0.593592  1
