# generated using pymatgen
data_Zr3InGa2PdPt2
_symmetry_space_group_name_H-M   'P 1'
_cell_length_a   7.33986042
_cell_length_b   7.34230145
_cell_length_c   7.12150744
_cell_angle_alpha   90.00000032
_cell_angle_beta   89.96663229
_cell_angle_gamma   120.01099100
_symmetry_Int_Tables_number   1
_chemical_formula_structural   Zr3InGa2PdPt2
_chemical_formula_sum   'Zr6 In2 Ga4 Pd2 Pt4'
_cell_volume   332.33368905
_cell_formula_units_Z   2
loop_
 _symmetry_equiv_pos_site_id
 _symmetry_equiv_pos_as_xyz
  1  'x, y, z'
loop_
 _atom_site_type_symbol
 _atom_site_label
 _atom_site_symmetry_multiplicity
 _atom_site_fract_x
 _atom_site_fract_y
 _atom_site_fract_z
 _atom_site_occupancy
  Zr  Zr0  1  0.385833  0.414687  0.749543  1
  Zr  Zr1  1  0.026995  0.606352  0.748135  1
  Zr  Zr2  1  0.587036  0.975602  0.743788  1
  Zr  Zr3  1  0.614167  0.028854  0.250457  1
  Zr  Zr4  1  0.973005  0.579356  0.251865  1
  Zr  Zr5  1  0.412964  0.388566  0.256212  1
  In  In6  1  0.252226  0.999441  0.999780  1
  In  In7  1  0.747774  0.747216  0.000220  1
  Ga  Ga8  1  0.000000  0.254673  0.000000  1
  Ga  Ga9  1  0.721379  0.719079  0.500570  1
  Ga  Ga10  1  0.278621  0.997699  0.499430  1
  Ga  Ga11  1  0.000000  0.284808  0.500000  1
  Pd  Pd12  1  0.000110  0.008020  0.714676  1
  Pd  Pd13  1  0.999890  0.007910  0.285324  1
  Pt  Pt14  1  0.671766  0.329610  0.961877  1
  Pt  Pt15  1  0.664857  0.332570  0.538554  1
  Pt  Pt16  1  0.335143  0.667714  0.461446  1
  Pt  Pt17  1  0.328234  0.657844  0.038123  1
