# generated using pymatgen
data_CsIn8GaRh2
_symmetry_space_group_name_H-M   'P 1'
_cell_length_a   8.80470077
_cell_length_b   8.94643529
_cell_length_c   4.52577500
_cell_angle_alpha   90.00000000
_cell_angle_beta   90.00000000
_cell_angle_gamma   120.53395179
_symmetry_Int_Tables_number   1
_chemical_formula_structural   CsIn8GaRh2
_chemical_formula_sum   'Cs1 In8 Ga1 Rh2'
_cell_volume   307.06214568
_cell_formula_units_Z   1
loop_
 _symmetry_equiv_pos_site_id
 _symmetry_equiv_pos_as_xyz
  1  'x, y, z'
loop_
 _atom_site_type_symbol
 _atom_site_label
 _atom_site_symmetry_multiplicity
 _atom_site_fract_x
 _atom_site_fract_y
 _atom_site_fract_z
 _atom_site_occupancy
  Cs  Cs0  1  0.000000  0.000000  0.000000  1
  In  In1  1  0.578588  0.789293  0.500000  1
  In  In2  1  0.202516  0.785435  0.500000  1
  In  In3  1  0.202516  0.417080  0.500000  1
  In  In4  1  0.797484  0.582920  0.500000  1
  In  In5  1  0.797484  0.214565  0.500000  1
  In  In6  1  0.421412  0.210707  0.500000  1
  In  In7  1  0.500000  0.500000  0.000000  1
  In  In8  1  0.500000  0.000000  0.000000  1
  Ga  Ga9  1  0.000000  0.500000  0.000000  1
  Rh  Rh10  1  0.320033  0.660016  0.000000  1
  Rh  Rh11  1  0.679967  0.339984  0.000000  1
