# generated using pymatgen
data_Dy2Si2PtRh3
_symmetry_space_group_name_H-M   'P 1'
_cell_length_a   9.06202274
_cell_length_b   9.06202233
_cell_length_c   4.08936100
_cell_angle_alpha   90.00000000
_cell_angle_beta   90.00000000
_cell_angle_gamma   154.55022328
_symmetry_Int_Tables_number   1
_chemical_formula_structural   Dy2Si2PtRh3
_chemical_formula_sum   'Dy2 Si2 Pt1 Rh3'
_cell_volume   144.30821365
_cell_formula_units_Z   1
loop_
 _symmetry_equiv_pos_site_id
 _symmetry_equiv_pos_as_xyz
  1  'x, y, z'
loop_
 _atom_site_type_symbol
 _atom_site_label
 _atom_site_symmetry_multiplicity
 _atom_site_fract_x
 _atom_site_fract_y
 _atom_site_fract_z
 _atom_site_occupancy
  Dy  Dy0  1  0.101264  0.898736  0.750000  1
  Dy  Dy1  1  0.901019  0.098981  0.250000  1
  Si  Si2  1  0.322309  0.677691  0.750000  1
  Si  Si3  1  0.678336  0.321664  0.250000  1
  Pt  Pt4  1  0.545791  0.454209  0.250000  1
  Rh  Rh5  1  0.452299  0.547701  0.750000  1
  Rh  Rh6  1  0.249757  0.750243  0.250000  1
  Rh  Rh7  1  0.749226  0.250774  0.750000  1
