# generated using pymatgen
data_Sr19LiAu16
_symmetry_space_group_name_H-M   'P 1'
_cell_length_a   8.26229300
_cell_length_b   8.50034656
_cell_length_c   16.08806600
_cell_angle_alpha   90.00000000
_cell_angle_beta   90.00000000
_cell_angle_gamma   90.04450690
_symmetry_Int_Tables_number   1
_chemical_formula_structural   Sr19LiAu16
_chemical_formula_sum   'Sr19 Li1 Au16'
_cell_volume   1129.90240427
_cell_formula_units_Z   1
loop_
 _symmetry_equiv_pos_site_id
 _symmetry_equiv_pos_as_xyz
  1  'x, y, z'
loop_
 _atom_site_type_symbol
 _atom_site_label
 _atom_site_symmetry_multiplicity
 _atom_site_fract_x
 _atom_site_fract_y
 _atom_site_fract_z
 _atom_site_occupancy
  Sr  Sr0  1  0.001851  0.189942  0.395597  1
  Sr  Sr1  1  0.851520  0.663106  0.373289  1
  Sr  Sr2  1  0.495244  0.328174  0.103620  1
  Sr  Sr3  1  0.158957  0.330462  0.620140  1
  Sr  Sr4  1  0.332404  0.827699  0.374837  1
  Sr  Sr5  1  0.158957  0.330462  0.879860  1
  Sr  Sr6  1  0.332404  0.827699  0.125163  1
  Sr  Sr7  1  0.495244  0.328174  0.396380  1
  Sr  Sr8  1  0.821734  0.510597  0.750000  1
  Sr  Sr9  1  0.001074  0.818296  0.904190  1
  Sr  Sr10  1  0.001074  0.818296  0.595810  1
  Sr  Sr11  1  0.499647  0.678561  0.595576  1
  Sr  Sr12  1  0.658802  0.166165  0.618215  1
  Sr  Sr13  1  0.322933  0.987113  0.750000  1
  Sr  Sr14  1  0.658802  0.166165  0.881785  1
  Sr  Sr15  1  0.670218  0.008749  0.250000  1
  Sr  Sr16  1  0.851520  0.663106  0.126711  1
  Sr  Sr17  1  0.499647  0.678561  0.904424  1
  Sr  Sr18  1  0.001851  0.189942  0.104403  1
  Li  Li19  1  0.197069  0.476937  0.250000  1
  Au  Au20  1  0.791870  0.365133  0.250000  1
  Au  Au21  1  0.454887  0.385271  0.750000  1
  Au  Au22  1  0.704347  0.870020  0.750000  1
  Au  Au23  1  0.821857  0.475801  0.543309  1
  Au  Au24  1  0.679063  0.972827  0.049400  1
  Au  Au25  1  0.821857  0.475801  0.956691  1
  Au  Au26  1  0.179984  0.527855  0.457154  1
  Au  Au27  1  0.179984  0.527855  0.042846  1
  Au  Au28  1  0.204532  0.627219  0.750000  1
  Au  Au29  1  0.298459  0.139687  0.250000  1
  Au  Au30  1  0.538266  0.610974  0.250000  1
  Au  Au31  1  0.037027  0.907739  0.250000  1
  Au  Au32  1  0.322435  0.021109  0.955816  1
  Au  Au33  1  0.952982  0.110569  0.750000  1
  Au  Au34  1  0.679063  0.972827  0.450600  1
  Au  Au35  1  0.322435  0.021109  0.544184  1
