# generated using pymatgen
data_CeY3Mg2Ir3
_symmetry_space_group_name_H-M   'P 1'
_cell_length_a   7.49054400
_cell_length_b   7.53718346
_cell_length_c   4.05790100
_cell_angle_alpha   90.00000000
_cell_angle_beta   90.00000000
_cell_angle_gamma   119.79552438
_symmetry_Int_Tables_number   1
_chemical_formula_structural   CeY3Mg2Ir3
_chemical_formula_sum   'Ce1 Y3 Mg2 Ir3'
_cell_volume   198.81341107
_cell_formula_units_Z   1
loop_
 _symmetry_equiv_pos_site_id
 _symmetry_equiv_pos_as_xyz
  1  'x, y, z'
loop_
 _atom_site_type_symbol
 _atom_site_label
 _atom_site_symmetry_multiplicity
 _atom_site_fract_x
 _atom_site_fract_y
 _atom_site_fract_z
 _atom_site_occupancy
  Ce  Ce0  1  0.743383  0.000000  0.000000  1
  Y  Y1  1  0.381188  0.000000  0.499999  1
  Y  Y2  1  0.031195  0.443215  0.499999  1
  Y  Y3  1  0.587979  0.556785  0.499999  1
  Mg  Mg4  1  0.247639  0.251631  0.000000  1
  Mg  Mg5  1  0.996009  0.748370  0.000000  1
  Ir  Ir6  1  0.670042  0.321525  0.000000  1
  Ir  Ir7  1  0.348516  0.678474  0.000000  1
  Ir  Ir8  1  0.994048  0.000000  0.499999  1
