# generated using pymatgen
data_CeEr(Be12Ni)2
_symmetry_space_group_name_H-M   'P 1'
_cell_length_a   7.26069156
_cell_length_b   7.31341508
_cell_length_c   7.23308469
_cell_angle_alpha   59.88471975
_cell_angle_beta   59.83137481
_cell_angle_gamma   59.50945393
_symmetry_Int_Tables_number   1
_chemical_formula_structural   CeEr(Be12Ni)2
_chemical_formula_sum   'Ce1 Er1 Be24 Ni2'
_cell_volume   269.98666769
_cell_formula_units_Z   1
loop_
 _symmetry_equiv_pos_site_id
 _symmetry_equiv_pos_as_xyz
  1  'x, y, z'
loop_
 _atom_site_type_symbol
 _atom_site_label
 _atom_site_symmetry_multiplicity
 _atom_site_fract_x
 _atom_site_fract_y
 _atom_site_fract_z
 _atom_site_occupancy
  Ce  Ce0  1  0.998439  0.001601  0.998361  1
  Er  Er1  1  0.500891  0.499128  0.500935  1
  Be  Be2  1  0.317072  0.539346  0.183268  1
  Be  Be3  1  0.183261  0.960331  0.317077  1
  Be  Be4  1  0.042621  0.685500  0.457434  1
  Be  Be5  1  0.457470  0.814450  0.042580  1
  Be  Be6  1  0.683241  0.035520  0.815700  1
  Be  Be7  1  0.815691  0.465525  0.683234  1
  Be  Be8  1  0.956252  0.545335  0.311661  1
  Be  Be9  1  0.542868  0.952391  0.190381  1
  Be  Be10  1  0.190393  0.314356  0.542878  1
  Be  Be11  1  0.311657  0.186739  0.956297  1
  Be  Be12  1  0.461383  0.034706  0.686359  1
  Be  Be13  1  0.038933  0.464814  0.813658  1
  Be  Be14  1  0.813660  0.682586  0.038903  1
  Be  Be15  1  0.686380  0.817548  0.461347  1
  Be  Be16  1  0.312631  0.957065  0.543027  1
  Be  Be17  1  0.187748  0.542700  0.955837  1
  Be  Be18  1  0.543091  0.187297  0.312600  1
  Be  Be19  1  0.955767  0.313691  0.187799  1
  Be  Be20  1  0.686944  0.461935  0.039166  1
  Be  Be21  1  0.813707  0.038541  0.461251  1
  Be  Be22  1  0.039224  0.811931  0.686926  1
  Be  Be23  1  0.461212  0.686514  0.813683  1
  Be  Be24  1  0.250029  0.249958  0.250090  1
  Be  Be25  1  0.749499  0.750496  0.749475  1
  Ni  Ni26  1  0.548946  0.308687  0.951097  1
  Ni  Ni27  1  0.950990  0.191312  0.548978  1
