# generated using pymatgen
data_Pr8AlZn7Rh8
_symmetry_space_group_name_H-M   'P 1'
_cell_length_a   4.04892100
_cell_length_b   7.36557816
_cell_length_c   16.66547756
_cell_angle_alpha   90.12226198
_cell_angle_beta   90.00000000
_cell_angle_gamma   90.00000000
_symmetry_Int_Tables_number   1
_chemical_formula_structural   Pr8AlZn7Rh8
_chemical_formula_sum   'Pr8 Al1 Zn7 Rh8'
_cell_volume   497.00747427
_cell_formula_units_Z   1
loop_
 _symmetry_equiv_pos_site_id
 _symmetry_equiv_pos_as_xyz
  1  'x, y, z'
loop_
 _atom_site_type_symbol
 _atom_site_label
 _atom_site_symmetry_multiplicity
 _atom_site_fract_x
 _atom_site_fract_y
 _atom_site_fract_z
 _atom_site_occupancy
  Pr  Pr0  1  0.750000  0.452460  0.216315  1
  Pr  Pr1  1  0.750000  0.952790  0.281091  1
  Pr  Pr2  1  0.750000  0.831179  0.059943  1
  Pr  Pr3  1  0.250000  0.047981  0.716620  1
  Pr  Pr4  1  0.250000  0.168330  0.939467  1
  Pr  Pr5  1  0.250000  0.547041  0.783767  1
  Pr  Pr6  1  0.750000  0.335336  0.439357  1
  Pr  Pr7  1  0.250000  0.666658  0.562566  1
  Al  Al8  1  0.250000  0.996335  0.439354  1
  Zn  Zn9  1  0.750000  0.501398  0.939938  1
  Zn  Zn10  1  0.750000  0.002313  0.561495  1
  Zn  Zn11  1  0.250000  0.626459  0.348380  1
  Zn  Zn12  1  0.750000  0.372238  0.650264  1
  Zn  Zn13  1  0.750000  0.873724  0.849775  1
  Zn  Zn14  1  0.250000  0.498688  0.059821  1
  Zn  Zn15  1  0.250000  0.126595  0.149734  1
  Rh  Rh16  1  0.250000  0.238110  0.562788  1
  Rh  Rh17  1  0.750000  0.256682  0.065671  1
  Rh  Rh18  1  0.250000  0.238335  0.317884  1
  Rh  Rh19  1  0.750000  0.253679  0.813425  1
  Rh  Rh20  1  0.250000  0.743370  0.934627  1
  Rh  Rh21  1  0.750000  0.753190  0.686139  1
  Rh  Rh22  1  0.750000  0.772068  0.434955  1
  Rh  Rh23  1  0.250000  0.745041  0.186627  1
