# generated using pymatgen
data_Tb2Ga5Co2Ni
_symmetry_space_group_name_H-M   'P 1'
_cell_length_a   8.32880101
_cell_length_b   8.32880097
_cell_length_c   5.51614721
_cell_angle_alpha   70.61705063
_cell_angle_beta   70.61704611
_cell_angle_gamma   95.82767579
_symmetry_Int_Tables_number   1
_chemical_formula_structural   Tb2Ga5Co2Ni
_chemical_formula_sum   'Tb4 Ga10 Co4 Ni2'
_cell_volume   330.72792035
_cell_formula_units_Z   2
loop_
 _symmetry_equiv_pos_site_id
 _symmetry_equiv_pos_as_xyz
  1  'x, y, z'
loop_
 _atom_site_type_symbol
 _atom_site_label
 _atom_site_symmetry_multiplicity
 _atom_site_fract_x
 _atom_site_fract_y
 _atom_site_fract_z
 _atom_site_occupancy
  Tb  Tb0  1  0.579608  0.864323  0.779239  1
  Tb  Tb1  1  0.135677  0.420392  0.720761  1
  Tb  Tb2  1  0.418022  0.131144  0.224840  1
  Tb  Tb3  1  0.868856  0.581978  0.275160  1
  Ga  Ga4  1  0.498437  0.501563  0.750000  1
  Ga  Ga5  1  0.499125  0.500875  0.250000  1
  Ga  Ga6  1  0.258809  0.090109  0.825004  1
  Ga  Ga7  1  0.909891  0.741191  0.674996  1
  Ga  Ga8  1  0.736581  0.908239  0.178653  1
  Ga  Ga9  1  0.091761  0.263419  0.321347  1
  Ga  Ga10  1  0.795822  0.204178  0.750000  1
  Ga  Ga11  1  0.205682  0.794318  0.250000  1
  Ga  Ga12  1  0.206170  0.793830  0.750000  1
  Ga  Ga13  1  0.795401  0.204599  0.250000  1
  Co  Co14  1  0.440235  0.735875  0.411007  1
  Co  Co15  1  0.264125  0.559765  0.088993  1
  Co  Co16  1  0.999920  0.000080  0.750000  1
  Co  Co17  1  0.999400  0.000600  0.250000  1
  Ni  Ni18  1  0.558617  0.262141  0.590703  1
  Ni  Ni19  1  0.737859  0.441383  0.909297  1
