# generated using pymatgen
data_Hf3Sc(Co3Tc)2
_symmetry_space_group_name_H-M   'P 1'
_cell_length_a   4.94542000
_cell_length_b   4.94541969
_cell_length_c   8.11799800
_cell_angle_alpha   90.00000000
_cell_angle_beta   90.00000000
_cell_angle_gamma   120.00000204
_symmetry_Int_Tables_number   1
_chemical_formula_structural   Hf3Sc(Co3Tc)2
_chemical_formula_sum   'Hf3 Sc1 Co6 Tc2'
_cell_volume   171.94355340
_cell_formula_units_Z   1
loop_
 _symmetry_equiv_pos_site_id
 _symmetry_equiv_pos_as_xyz
  1  'x, y, z'
loop_
 _atom_site_type_symbol
 _atom_site_label
 _atom_site_symmetry_multiplicity
 _atom_site_fract_x
 _atom_site_fract_y
 _atom_site_fract_z
 _atom_site_occupancy
  Hf  Hf0  1  0.333333  0.666667  0.568453  1
  Hf  Hf1  1  0.666667  0.333333  0.433331  1
  Hf  Hf2  1  0.666667  0.333333  0.060751  1
  Sc  Sc3  1  0.333333  0.666667  0.936694  1
  Co  Co4  1  0.828675  0.171325  0.749201  1
  Co  Co5  1  0.657690  0.828845  0.250839  1
  Co  Co6  1  0.171155  0.828845  0.250839  1
  Co  Co7  1  0.828675  0.657349  0.749201  1
  Co  Co8  1  0.171155  0.342310  0.250839  1
  Co  Co9  1  0.342651  0.171325  0.749201  1
  Tc  Tc10  1  0.000000  0.000000  0.500723  1
  Tc  Tc11  1  0.000000  0.000000  0.999926  1
