# generated using pymatgen
data_ThGaI
_symmetry_space_group_name_H-M   'P 1'
_cell_length_a   4.23714800
_cell_length_b   4.23714867
_cell_length_c   12.67116100
_cell_angle_alpha   90.00000000
_cell_angle_beta   90.00000000
_cell_angle_gamma   120.00001041
_symmetry_Int_Tables_number   1
_chemical_formula_structural   ThGaI
_chemical_formula_sum   'Th2 Ga2 I2'
_cell_volume   197.01274911
_cell_formula_units_Z   2
loop_
 _symmetry_equiv_pos_site_id
 _symmetry_equiv_pos_as_xyz
  1  'x, y, z'
loop_
 _atom_site_type_symbol
 _atom_site_label
 _atom_site_symmetry_multiplicity
 _atom_site_fract_x
 _atom_site_fract_y
 _atom_site_fract_z
 _atom_site_occupancy
  Th  Th0  1  0.000000  0.000000  0.839315  1
  Th  Th1  1  0.000000  0.000000  0.160685  1
  Ga  Ga2  1  0.333333  0.666667  0.996689  1
  Ga  Ga3  1  0.666667  0.333333  0.003311  1
  I  I4  1  0.666667  0.333333  0.667117  1
  I  I5  1  0.333333  0.666667  0.332883  1
