# generated using pymatgen
data_Dy2ErLu9Os4
_symmetry_space_group_name_H-M   'P 1'
_cell_length_a   7.36156243
_cell_length_b   8.83204000
_cell_length_c   6.19709200
_cell_angle_alpha   90.00000000
_cell_angle_beta   89.91875663
_cell_angle_gamma   90.00000000
_symmetry_Int_Tables_number   1
_chemical_formula_structural   Dy2ErLu9Os4
_chemical_formula_sum   'Dy2 Er1 Lu9 Os4'
_cell_volume   402.91972970
_cell_formula_units_Z   1
loop_
 _symmetry_equiv_pos_site_id
 _symmetry_equiv_pos_as_xyz
  1  'x, y, z'
loop_
 _atom_site_type_symbol
 _atom_site_label
 _atom_site_symmetry_multiplicity
 _atom_site_fract_x
 _atom_site_fract_y
 _atom_site_fract_z
 _atom_site_occupancy
  Dy  Dy0  1  0.039627  0.250000  0.627757  1
  Dy  Dy1  1  0.460713  0.750000  0.127763  1
  Er  Er2  1  0.538975  0.250000  0.872674  1
  Lu  Lu3  1  0.675418  0.062114  0.335742  1
  Lu  Lu4  1  0.173161  0.438497  0.164678  1
  Lu  Lu5  1  0.325211  0.562500  0.663368  1
  Lu  Lu6  1  0.825676  0.937187  0.834430  1
  Lu  Lu7  1  0.325211  0.937500  0.663368  1
  Lu  Lu8  1  0.825676  0.562813  0.834430  1
  Lu  Lu9  1  0.675418  0.437886  0.335742  1
  Lu  Lu10  1  0.173161  0.061503  0.164678  1
  Lu  Lu11  1  0.960885  0.750000  0.372585  1
  Os  Os12  1  0.881893  0.250000  0.042956  1
  Os  Os13  1  0.383403  0.250000  0.457551  1
  Os  Os14  1  0.116364  0.750000  0.960526  1
  Os  Os15  1  0.619206  0.750000  0.541753  1
