# generated using pymatgen
data_Dy2Ho2Pa(FeB3)2
_symmetry_space_group_name_H-M   'P 1'
_cell_length_a   5.43234747
_cell_length_b   5.43234670
_cell_length_c   7.92788962
_cell_angle_alpha   69.96403939
_cell_angle_beta   69.96404077
_cell_angle_gamma   59.99998014
_symmetry_Int_Tables_number   1
_chemical_formula_structural   Dy2Ho2Pa(FeB3)2
_chemical_formula_sum   'Dy2 Ho2 Pa1 Fe2 B6'
_cell_volume   186.08162027
_cell_formula_units_Z   1
loop_
 _symmetry_equiv_pos_site_id
 _symmetry_equiv_pos_as_xyz
  1  'x, y, z'
loop_
 _atom_site_type_symbol
 _atom_site_label
 _atom_site_symmetry_multiplicity
 _atom_site_fract_x
 _atom_site_fract_y
 _atom_site_fract_z
 _atom_site_occupancy
  Dy  Dy0  1  0.412674  0.412674  0.761976  1
  Dy  Dy1  1  0.587326  0.587326  0.238024  1
  Ho  Ho2  1  0.254056  0.254056  0.237833  1
  Ho  Ho3  1  0.745944  0.745944  0.762167  1
  Pa  Pa4  1  0.000000  0.000000  0.000000  1
  Fe  Fe5  1  0.108285  0.108285  0.675146  1
  Fe  Fe6  1  0.891715  0.891715  0.324854  1
  B  B7  1  0.167030  0.832970  0.500000  1
  B  B8  1  0.832970  0.500000  0.500000  1
  B  B9  1  0.500000  0.167030  0.500000  1
  B  B10  1  0.167030  0.500000  0.500000  1
  B  B11  1  0.500000  0.832970  0.500000  1
  B  B12  1  0.832970  0.167030  0.500000  1
