# generated using pymatgen
data_Co5Si3W4
_symmetry_space_group_name_H-M   'P 1'
_cell_length_a   4.73669388
_cell_length_b   4.73669348
_cell_length_c   7.52940100
_cell_angle_alpha   90.00000000
_cell_angle_beta   90.00000000
_cell_angle_gamma   119.73308871
_symmetry_Int_Tables_number   1
_chemical_formula_structural   Co5Si3W4
_chemical_formula_sum   'Co5 Si3 W4'
_cell_volume   146.69099501
_cell_formula_units_Z   1
loop_
 _symmetry_equiv_pos_site_id
 _symmetry_equiv_pos_as_xyz
  1  'x, y, z'
loop_
 _atom_site_type_symbol
 _atom_site_label
 _atom_site_symmetry_multiplicity
 _atom_site_fract_x
 _atom_site_fract_y
 _atom_site_fract_z
 _atom_site_occupancy
  Co  Co0  1  0.675125  0.823909  0.500000  1
  Co  Co1  1  0.176091  0.324875  0.500000  1
  Co  Co2  1  0.826335  0.173665  0.000000  1
  Co  Co3  1  0.339408  0.170953  0.000000  1
  Co  Co4  1  0.829047  0.660592  0.000000  1
  Si  Si5  1  0.990218  0.009782  0.244173  1
  Si  Si6  1  0.990218  0.009782  0.755827  1
  Si  Si7  1  0.185627  0.814373  0.500000  1
  W  W8  1  0.329716  0.670284  0.819443  1
  W  W9  1  0.664262  0.335738  0.691057  1
  W  W10  1  0.664262  0.335738  0.308943  1
  W  W11  1  0.329716  0.670284  0.180557  1
