# generated using pymatgen
data_Zn22CoIr2
_symmetry_space_group_name_H-M   'P 1'
_cell_length_a   7.74668438
_cell_length_b   7.74668536
_cell_length_c   7.76380140
_cell_angle_alpha   72.15612167
_cell_angle_beta   72.15611863
_cell_angle_gamma   58.24713289
_symmetry_Int_Tables_number   1
_chemical_formula_structural   Zn22CoIr2
_chemical_formula_sum   'Zn22 Co1 Ir2'
_cell_volume   371.00630702
_cell_formula_units_Z   1
loop_
 _symmetry_equiv_pos_site_id
 _symmetry_equiv_pos_as_xyz
  1  'x, y, z'
loop_
 _atom_site_type_symbol
 _atom_site_label
 _atom_site_symmetry_multiplicity
 _atom_site_fract_x
 _atom_site_fract_y
 _atom_site_fract_z
 _atom_site_occupancy
  Zn  Zn0  1  0.351013  0.738682  0.306158  1
  Zn  Zn1  1  0.657707  0.259637  0.685661  1
  Zn  Zn2  1  0.259637  0.657707  0.685662  1
  Zn  Zn3  1  0.738682  0.351013  0.306158  1
  Zn  Zn4  1  0.677810  0.325729  0.001254  1
  Zn  Zn5  1  0.325729  0.677811  0.001254  1
  Zn  Zn6  1  0.827050  0.827050  0.789823  1
  Zn  Zn7  1  0.169005  0.169005  0.216971  1
  Zn  Zn8  1  0.973689  0.973690  0.172684  1
  Zn  Zn9  1  0.026455  0.026455  0.827115  1
  Zn  Zn10  1  0.355032  0.355032  0.276420  1
  Zn  Zn11  1  0.647387  0.647387  0.728956  1
  Zn  Zn12  1  0.685163  0.685163  0.376649  1
  Zn  Zn13  1  0.311632  0.311632  0.623850  1
  Zn  Zn14  1  0.658200  0.026600  0.457260  1
  Zn  Zn15  1  0.343785  0.971984  0.542191  1
  Zn  Zn16  1  0.971984  0.343785  0.542191  1
  Zn  Zn17  1  0.026600  0.658199  0.457260  1
  Zn  Zn18  1  0.620967  0.990676  0.102134  1
  Zn  Zn19  1  0.389248  0.993532  0.899088  1
  Zn  Zn20  1  0.993532  0.389248  0.899088  1
  Zn  Zn21  1  0.990676  0.620968  0.102134  1
  Co  Co22  1  0.657821  0.657821  0.054095  1
  Ir  Ir23  1  0.341857  0.341857  0.945577  1
  Ir  Ir24  1  0.999336  0.999335  0.500367  1
