# generated using pymatgen
data_Dy11Y(ThSn2)8
_symmetry_space_group_name_H-M   'P 1'
_cell_length_a   8.13254500
_cell_length_b   8.23314401
_cell_length_c   15.55468700
_cell_angle_alpha   90.00000000
_cell_angle_beta   90.00000000
_cell_angle_gamma   89.99781482
_symmetry_Int_Tables_number   1
_chemical_formula_structural   Dy11Y(ThSn2)8
_chemical_formula_sum   'Dy11 Y1 Th8 Sn16'
_cell_volume   1041.48606352
_cell_formula_units_Z   1
loop_
 _symmetry_equiv_pos_site_id
 _symmetry_equiv_pos_as_xyz
  1  'x, y, z'
loop_
 _atom_site_type_symbol
 _atom_site_label
 _atom_site_symmetry_multiplicity
 _atom_site_fract_x
 _atom_site_fract_y
 _atom_site_fract_z
 _atom_site_occupancy
  Dy  Dy0  1  0.363137  0.836358  0.876490  1
  Dy  Dy1  1  0.863113  0.663616  0.623525  1
  Dy  Dy2  1  0.637026  0.163706  0.376564  1
  Dy  Dy3  1  0.136867  0.336478  0.123448  1
  Dy  Dy4  1  0.637026  0.163706  0.123436  1
  Dy  Dy5  1  0.136867  0.336478  0.376552  1
  Dy  Dy6  1  0.363137  0.836358  0.623510  1
  Dy  Dy7  1  0.863113  0.663616  0.876475  1
  Dy  Dy8  1  0.191811  0.497674  0.750000  1
  Dy  Dy9  1  0.691818  0.002345  0.750000  1
  Dy  Dy10  1  0.808216  0.502360  0.250000  1
  Y  Y11  1  0.308189  0.997666  0.250000  1
  Th  Th12  1  0.519161  0.320643  0.903455  1
  Th  Th13  1  0.019119  0.179309  0.596553  1
  Th  Th14  1  0.480902  0.679297  0.403427  1
  Th  Th15  1  0.980696  0.820631  0.096592  1
  Th  Th16  1  0.480902  0.679297  0.096573  1
  Th  Th17  1  0.980696  0.820631  0.403408  1
  Th  Th18  1  0.519161  0.320643  0.596545  1
  Th  Th19  1  0.019119  0.179309  0.903447  1
  Sn  Sn20  1  0.297275  0.038684  0.042106  1
  Sn  Sn21  1  0.797268  0.461349  0.457856  1
  Sn  Sn22  1  0.702706  0.961336  0.542219  1
  Sn  Sn23  1  0.202737  0.538647  0.957788  1
  Sn  Sn24  1  0.702706  0.961336  0.957781  1
  Sn  Sn25  1  0.202737  0.538647  0.542212  1
  Sn  Sn26  1  0.297275  0.038684  0.457894  1
  Sn  Sn27  1  0.797268  0.461349  0.042144  1
  Sn  Sn28  1  0.558877  0.621260  0.750000  1
  Sn  Sn29  1  0.058910  0.878699  0.750000  1
  Sn  Sn30  1  0.441098  0.378784  0.250000  1
  Sn  Sn31  1  0.941036  0.121296  0.250000  1
  Sn  Sn32  1  0.325056  0.142189  0.750000  1
  Sn  Sn33  1  0.825063  0.357801  0.750000  1
  Sn  Sn34  1  0.675030  0.857718  0.250000  1
  Sn  Sn35  1  0.174883  0.642105  0.250000  1
