# generated using pymatgen
data_Hf4Mn3CrAs4
_symmetry_space_group_name_H-M   'P 1'
_cell_length_a   3.71877800
_cell_length_b   6.59331533
_cell_length_c   7.76661362
_cell_angle_alpha   90.19610005
_cell_angle_beta   90.00000000
_cell_angle_gamma   90.00000000
_symmetry_Int_Tables_number   1
_chemical_formula_structural   Hf4Mn3CrAs4
_chemical_formula_sum   'Hf4 Mn3 Cr1 As4'
_cell_volume   190.42907409
_cell_formula_units_Z   1
loop_
 _symmetry_equiv_pos_site_id
 _symmetry_equiv_pos_as_xyz
  1  'x, y, z'
loop_
 _atom_site_type_symbol
 _atom_site_label
 _atom_site_symmetry_multiplicity
 _atom_site_fract_x
 _atom_site_fract_y
 _atom_site_fract_z
 _atom_site_occupancy
  Hf  Hf0  1  0.250000  0.464399  0.175630  1
  Hf  Hf1  1  0.750000  0.535316  0.824912  1
  Hf  Hf2  1  0.750000  0.035436  0.674375  1
  Hf  Hf3  1  0.250000  0.963735  0.325597  1
  Mn  Mn4  1  0.250000  0.865519  0.939096  1
  Mn  Mn5  1  0.750000  0.135315  0.061500  1
  Mn  Mn6  1  0.750000  0.638296  0.436932  1
  Cr  Cr7  1  0.250000  0.363368  0.561405  1
  As  As8  1  0.250000  0.736003  0.629701  1
  As  As9  1  0.750000  0.262539  0.371357  1
  As  As10  1  0.750000  0.762262  0.129077  1
  As  As11  1  0.250000  0.237814  0.870418  1
