# generated using pymatgen
data_Lu4Co9Si5
_symmetry_space_group_name_H-M   'P 1'
_cell_length_a   11.26427474
_cell_length_b   11.26427440
_cell_length_c   11.26427407
_cell_angle_alpha   26.35134761
_cell_angle_beta   26.35135140
_cell_angle_gamma   26.35134467
_symmetry_Int_Tables_number   1
_chemical_formula_structural   Lu4Co9Si5
_chemical_formula_sum   'Lu4 Co9 Si5'
_cell_volume   248.16627459
_cell_formula_units_Z   1
loop_
 _symmetry_equiv_pos_site_id
 _symmetry_equiv_pos_as_xyz
  1  'x, y, z'
loop_
 _atom_site_type_symbol
 _atom_site_label
 _atom_site_symmetry_multiplicity
 _atom_site_fract_x
 _atom_site_fract_y
 _atom_site_fract_z
 _atom_site_occupancy
  Lu  Lu0  1  0.949632  0.949632  0.949632  1
  Lu  Lu1  1  0.851917  0.851917  0.851917  1
  Lu  Lu2  1  0.148083  0.148083  0.148083  1
  Lu  Lu3  1  0.050368  0.050368  0.050368  1
  Co  Co4  1  0.609618  0.609618  0.106976  1
  Co  Co5  1  0.893024  0.390382  0.390382  1
  Co  Co6  1  0.500000  0.000000  0.500000  1
  Co  Co7  1  0.390382  0.893024  0.390382  1
  Co  Co8  1  0.500000  0.500000  0.000000  1
  Co  Co9  1  0.106976  0.609618  0.609618  1
  Co  Co10  1  0.000000  0.500000  0.500000  1
  Co  Co11  1  0.390382  0.390382  0.893024  1
  Co  Co12  1  0.609618  0.106976  0.609618  1
  Si  Si13  1  0.278678  0.278678  0.278678  1
  Si  Si14  1  0.500000  0.500000  0.500000  1
  Si  Si15  1  0.388101  0.388101  0.388101  1
  Si  Si16  1  0.721322  0.721322  0.721322  1
  Si  Si17  1  0.611899  0.611899  0.611899  1
