# generated using pymatgen
data_CsAc2CuS4
_symmetry_space_group_name_H-M   'P 1'
_cell_length_a   4.32005600
_cell_length_b   7.79595451
_cell_length_c   14.59423900
_cell_angle_alpha   90.00000000
_cell_angle_beta   90.00000000
_cell_angle_gamma   73.91456723
_symmetry_Int_Tables_number   1
_chemical_formula_structural   CsAc2CuS4
_chemical_formula_sum   'Cs2 Ac4 Cu2 S8'
_cell_volume   472.27564935
_cell_formula_units_Z   2
loop_
 _symmetry_equiv_pos_site_id
 _symmetry_equiv_pos_as_xyz
  1  'x, y, z'
loop_
 _atom_site_type_symbol
 _atom_site_label
 _atom_site_symmetry_multiplicity
 _atom_site_fract_x
 _atom_site_fract_y
 _atom_site_fract_z
 _atom_site_occupancy
  Cs  Cs0  1  0.895475  0.209051  0.250000  1
  Cs  Cs1  1  0.104525  0.790949  0.750000  1
  Ac  Ac2  1  0.634078  0.731844  0.059810  1
  Ac  Ac3  1  0.634078  0.731844  0.440190  1
  Ac  Ac4  1  0.365921  0.268157  0.559810  1
  Ac  Ac5  1  0.365921  0.268157  0.940190  1
  Cu  Cu6  1  0.167398  0.665203  0.250000  1
  Cu  Cu7  1  0.832602  0.334796  0.750000  1
  S  S8  1  0.000000  0.000000  0.000000  1
  S  S9  1  0.256656  0.486687  0.114371  1
  S  S10  1  0.582869  0.834264  0.250000  1
  S  S11  1  0.256656  0.486687  0.385629  1
  S  S12  1  0.000000  0.000000  0.500000  1
  S  S13  1  0.743344  0.513312  0.614370  1
  S  S14  1  0.417131  0.165737  0.750000  1
  S  S15  1  0.743344  0.513312  0.885629  1
