# generated using pymatgen
data_Lu3Ga2CuC
_symmetry_space_group_name_H-M   'P 1'
_cell_length_a   8.91788752
_cell_length_b   8.91788862
_cell_length_c   8.91788800
_cell_angle_alpha   60.00000229
_cell_angle_beta   59.99999821
_cell_angle_gamma   60.00000503
_symmetry_Int_Tables_number   1
_chemical_formula_structural   Lu3Ga2CuC
_chemical_formula_sum   'Lu12 Ga8 Cu4 C4'
_cell_volume   501.50015097
_cell_formula_units_Z   4
loop_
 _symmetry_equiv_pos_site_id
 _symmetry_equiv_pos_as_xyz
  1  'x, y, z'
loop_
 _atom_site_type_symbol
 _atom_site_label
 _atom_site_symmetry_multiplicity
 _atom_site_fract_x
 _atom_site_fract_y
 _atom_site_fract_z
 _atom_site_occupancy
  Lu  Lu0  1  0.945991  0.945991  0.554009  1
  Lu  Lu1  1  0.695991  0.304009  0.304009  1
  Lu  Lu2  1  0.304009  0.695991  0.695991  1
  Lu  Lu3  1  0.695991  0.695991  0.304009  1
  Lu  Lu4  1  0.695991  0.304009  0.695991  1
  Lu  Lu5  1  0.304009  0.695991  0.304009  1
  Lu  Lu6  1  0.554009  0.945991  0.554009  1
  Lu  Lu7  1  0.554009  0.945991  0.945991  1
  Lu  Lu8  1  0.945991  0.554009  0.554009  1
  Lu  Lu9  1  0.945991  0.554009  0.945991  1
  Lu  Lu10  1  0.304009  0.304009  0.695991  1
  Lu  Lu11  1  0.554009  0.554009  0.945991  1
  Ga  Ga12  1  0.920800  0.237601  0.920800  1
  Ga  Ga13  1  0.329200  0.329200  0.012399  1
  Ga  Ga14  1  0.012399  0.329200  0.329200  1
  Ga  Ga15  1  0.329200  0.329200  0.329200  1
  Ga  Ga16  1  0.237601  0.920800  0.920800  1
  Ga  Ga17  1  0.920800  0.920800  0.920800  1
  Ga  Ga18  1  0.920800  0.920800  0.237601  1
  Ga  Ga19  1  0.329200  0.012399  0.329200  1
  Cu  Cu20  1  0.125000  0.625000  0.125000  1
  Cu  Cu21  1  0.125000  0.125000  0.625000  1
  Cu  Cu22  1  0.625000  0.125000  0.125000  1
  Cu  Cu23  1  0.125000  0.125000  0.125000  1
  C  C24  1  0.625000  0.125000  0.625000  1
  C  C25  1  0.625000  0.625000  0.125000  1
  C  C26  1  0.125000  0.625000  0.625000  1
  C  C27  1  0.625000  0.625000  0.625000  1
