# generated using pymatgen
data_NdDy2Ni2Rh7
_symmetry_space_group_name_H-M   'P 1'
_cell_length_a   5.30097649
_cell_length_b   5.30097717
_cell_length_c   8.98554295
_cell_angle_alpha   72.84411515
_cell_angle_beta   72.84411456
_cell_angle_gamma   60.00001012
_symmetry_Int_Tables_number   1
_chemical_formula_structural   NdDy2Ni2Rh7
_chemical_formula_sum   'Nd1 Dy2 Ni2 Rh7'
_cell_volume   205.59383047
_cell_formula_units_Z   1
loop_
 _symmetry_equiv_pos_site_id
 _symmetry_equiv_pos_as_xyz
  1  'x, y, z'
loop_
 _atom_site_type_symbol
 _atom_site_label
 _atom_site_symmetry_multiplicity
 _atom_site_fract_x
 _atom_site_fract_y
 _atom_site_fract_z
 _atom_site_occupancy
  Nd  Nd0  1  0.000000  0.000000  0.000000  1
  Dy  Dy1  1  0.139602  0.139602  0.581194  1
  Dy  Dy2  1  0.860398  0.860398  0.418806  1
  Ni  Ni3  1  0.333284  0.333284  0.000149  1
  Ni  Ni4  1  0.666716  0.666716  0.999851  1
  Rh  Rh5  1  0.078596  0.581330  0.758743  1
  Rh  Rh6  1  0.581330  0.581330  0.758743  1
  Rh  Rh7  1  0.581330  0.078596  0.758743  1
  Rh  Rh8  1  0.921404  0.418670  0.241257  1
  Rh  Rh9  1  0.418670  0.418670  0.241257  1
  Rh  Rh10  1  0.418670  0.921404  0.241257  1
  Rh  Rh11  1  0.500000  0.500000  0.500000  1
