# generated using pymatgen
data_Na8ZrSb4
_symmetry_space_group_name_H-M   'P 1'
_cell_length_a   10.52187155
_cell_length_b   10.52186660
_cell_length_c   10.52187503
_cell_angle_alpha   60.07100765
_cell_angle_beta   60.07095329
_cell_angle_gamma   60.07098176
_symmetry_Int_Tables_number   1
_chemical_formula_structural   Na8ZrSb4
_chemical_formula_sum   'Na16 Zr2 Sb8'
_cell_volume   825.01523834
_cell_formula_units_Z   2
loop_
 _symmetry_equiv_pos_site_id
 _symmetry_equiv_pos_as_xyz
  1  'x, y, z'
loop_
 _atom_site_type_symbol
 _atom_site_label
 _atom_site_symmetry_multiplicity
 _atom_site_fract_x
 _atom_site_fract_y
 _atom_site_fract_z
 _atom_site_occupancy
  Na  Na0  1  0.625000  0.125000  0.625000  1
  Na  Na1  1  0.625000  0.625000  0.125000  1
  Na  Na2  1  0.125000  0.625000  0.625000  1
  Na  Na3  1  0.625000  0.625000  0.625000  1
  Na  Na4  1  0.021598  0.021597  0.478412  1
  Na  Na5  1  0.771588  0.228402  0.228402  1
  Na  Na6  1  0.228380  0.771624  0.771624  1
  Na  Na7  1  0.771625  0.771625  0.228380  1
  Na  Na8  1  0.771624  0.228381  0.771624  1
  Na  Na9  1  0.228402  0.771588  0.228402  1
  Na  Na10  1  0.478376  0.021619  0.478376  1
  Na  Na11  1  0.478412  0.021598  0.021598  1
  Na  Na12  1  0.021620  0.478376  0.478376  1
  Na  Na13  1  0.021598  0.478412  0.021598  1
  Na  Na14  1  0.228402  0.228403  0.771588  1
  Na  Na15  1  0.478375  0.478375  0.021620  1
  Zr  Zr16  1  0.499906  0.499906  0.499905  1
  Zr  Zr17  1  0.750094  0.750094  0.750095  1
  Sb  Sb18  1  0.420381  0.859879  0.859879  1
  Sb  Sb19  1  0.859812  0.859812  0.859812  1
  Sb  Sb20  1  0.829619  0.390121  0.390121  1
  Sb  Sb21  1  0.390188  0.390188  0.390188  1
  Sb  Sb22  1  0.390121  0.390121  0.829619  1
  Sb  Sb23  1  0.859879  0.420381  0.859879  1
  Sb  Sb24  1  0.859879  0.859879  0.420381  1
  Sb  Sb25  1  0.390121  0.829619  0.390121  1
