# generated using pymatgen
data_Pa(MnB3)2
_symmetry_space_group_name_H-M   'P 1'
_cell_length_a   5.41751261
_cell_length_b   5.41751326
_cell_length_c   5.41751275
_cell_angle_alpha   146.54990806
_cell_angle_beta   108.91469448
_cell_angle_gamma   80.87863609
_symmetry_Int_Tables_number   1
_chemical_formula_structural   Pa(MnB3)2
_chemical_formula_sum   'Pa1 Mn2 B6'
_cell_volume   80.97745140
_cell_formula_units_Z   1
loop_
 _symmetry_equiv_pos_site_id
 _symmetry_equiv_pos_as_xyz
  1  'x, y, z'
loop_
 _atom_site_type_symbol
 _atom_site_label
 _atom_site_symmetry_multiplicity
 _atom_site_fract_x
 _atom_site_fract_y
 _atom_site_fract_z
 _atom_site_occupancy
  Pa  Pa0  1  0.000000  0.000000  0.000000  1
  Mn  Mn1  1  0.655312  0.155312  0.499999  1
  Mn  Mn2  1  0.344688  0.844687  0.499999  1
  B  B3  1  0.643159  0.500000  0.143159  1
  B  B4  1  0.542229  0.304132  0.238097  1
  B  B5  1  0.933966  0.695868  0.238097  1
  B  B6  1  0.066033  0.304131  0.761902  1
  B  B7  1  0.457771  0.695867  0.761902  1
  B  B8  1  0.356840  0.499999  0.856839  1
