# generated using pymatgen
data_LiZr(U3Bi5)2
_symmetry_space_group_name_H-M   'P 1'
_cell_length_a   9.48198700
_cell_length_b   9.48198844
_cell_length_c   6.39564000
_cell_angle_alpha   90.00000000
_cell_angle_beta   90.00000000
_cell_angle_gamma   119.99999845
_symmetry_Int_Tables_number   1
_chemical_formula_structural   LiZr(U3Bi5)2
_chemical_formula_sum   'Li1 Zr1 U6 Bi10'
_cell_volume   497.98174858
_cell_formula_units_Z   1
loop_
 _symmetry_equiv_pos_site_id
 _symmetry_equiv_pos_as_xyz
  1  'x, y, z'
loop_
 _atom_site_type_symbol
 _atom_site_label
 _atom_site_symmetry_multiplicity
 _atom_site_fract_x
 _atom_site_fract_y
 _atom_site_fract_z
 _atom_site_occupancy
  Li  Li0  1  0.000000  0.000000  0.000000  1
  Zr  Zr1  1  0.000000  0.000000  0.500000  1
  U  U2  1  0.386742  0.000000  0.748060  1
  U  U3  1  0.386742  0.386742  0.251940  1
  U  U4  1  0.000000  0.613258  0.251940  1
  U  U5  1  0.000000  0.386742  0.748060  1
  U  U6  1  0.613258  0.613258  0.748060  1
  U  U7  1  0.613258  0.000000  0.251940  1
  Bi  Bi8  1  0.666667  0.333333  0.500000  1
  Bi  Bi9  1  0.333333  0.666667  0.000000  1
  Bi  Bi10  1  0.734083  0.000000  0.755274  1
  Bi  Bi11  1  0.734083  0.734083  0.244726  1
  Bi  Bi12  1  0.333333  0.666667  0.500000  1
  Bi  Bi13  1  0.666667  0.333333  0.000000  1
  Bi  Bi14  1  0.265917  0.000000  0.244726  1
  Bi  Bi15  1  0.265917  0.265917  0.755274  1
  Bi  Bi16  1  0.000000  0.734083  0.755274  1
  Bi  Bi17  1  0.000000  0.265917  0.244726  1
