# generated using pymatgen
data_TbErPa2(Al3Rh)6
_symmetry_space_group_name_H-M   'P 1'
_cell_length_a   7.59640402
_cell_length_b   7.59969463
_cell_length_c   9.38471200
_cell_angle_alpha   89.99772300
_cell_angle_beta   90.00010154
_cell_angle_gamma   119.62659542
_symmetry_Int_Tables_number   1
_chemical_formula_structural   TbErPa2(Al3Rh)6
_chemical_formula_sum   'Tb1 Er1 Pa2 Al18 Rh6'
_cell_volume   470.95305557
_cell_formula_units_Z   1
loop_
 _symmetry_equiv_pos_site_id
 _symmetry_equiv_pos_as_xyz
  1  'x, y, z'
loop_
 _atom_site_type_symbol
 _atom_site_label
 _atom_site_symmetry_multiplicity
 _atom_site_fract_x
 _atom_site_fract_y
 _atom_site_fract_z
 _atom_site_occupancy
  Tb  Tb0  1  0.669720  0.993775  0.750001  1
  Er  Er1  1  0.329998  0.006255  0.249958  1
  Pa  Pa2  1  0.996928  0.670739  0.750004  1
  Pa  Pa3  1  0.003060  0.329215  0.250000  1
  Al  Al4  1  0.129779  0.126465  0.750003  1
  Al  Al5  1  0.870925  0.873921  0.250006  1
  Al  Al6  1  0.000557  0.332246  0.576875  1
  Al  Al7  1  0.000100  0.668248  0.422419  1
  Al  Al8  1  0.000078  0.668231  0.077586  1
  Al  Al9  1  0.337429  0.002624  0.925757  1
  Al  Al10  1  0.000560  0.332251  0.923132  1
  Al  Al11  1  0.662079  0.997448  0.075393  1
  Al  Al12  1  0.662067  0.997446  0.424608  1
  Al  Al13  1  0.337425  0.002618  0.574221  1
  Al  Al14  1  0.334810  0.332974  0.053449  1
  Al  Al15  1  0.665106  0.666612  0.947304  1
  Al  Al16  1  0.665107  0.666610  0.552701  1
  Al  Al17  1  0.334806  0.332958  0.446555  1
  Al  Al18  1  0.339789  0.548397  0.750004  1
  Al  Al19  1  0.659902  0.450903  0.250008  1
  Al  Al20  1  0.549035  0.341163  0.750003  1
  Al  Al21  1  0.450469  0.658877  0.250008  1
  Rh  Rh22  1  0.674892  0.329219  0.499553  1
  Rh  Rh23  1  0.324902  0.670889  0.500127  1
  Rh  Rh24  1  0.324912  0.670862  0.999916  1
  Rh  Rh25  1  0.674943  0.329145  0.000461  1
  Rh  Rh26  1  0.000298  0.999911  0.499739  1
  Rh  Rh27  1  0.000323  0.999996  0.000211  1
