# generated using pymatgen
data_Pr4TmSn3
_symmetry_space_group_name_H-M   'P 1'
_cell_length_a   6.82831100
_cell_length_b   9.27084528
_cell_length_c   9.27144609
_cell_angle_alpha   119.99732215
_cell_angle_beta   90.00190001
_cell_angle_gamma   89.99717947
_symmetry_Int_Tables_number   1
_chemical_formula_structural   Pr4TmSn3
_chemical_formula_sum   'Pr8 Tm2 Sn6'
_cell_volume   508.30274308
_cell_formula_units_Z   2
loop_
 _symmetry_equiv_pos_site_id
 _symmetry_equiv_pos_as_xyz
  1  'x, y, z'
loop_
 _atom_site_type_symbol
 _atom_site_label
 _atom_site_symmetry_multiplicity
 _atom_site_fract_x
 _atom_site_fract_y
 _atom_site_fract_z
 _atom_site_occupancy
  Pr  Pr0  1  0.500001  0.333305  0.666628  1
  Pr  Pr1  1  0.499997  0.666678  0.333370  1
  Pr  Pr2  1  0.752837  0.242557  0.999996  1
  Pr  Pr3  1  0.752851  0.757445  0.757455  1
  Pr  Pr4  1  0.752849  0.999993  0.242550  1
  Pr  Pr5  1  0.247157  0.757448  0.999997  1
  Pr  Pr6  1  0.247154  0.242553  0.242545  1
  Pr  Pr7  1  0.247156  0.000012  0.757456  1
  Tm  Tm8  1  0.999997  0.666667  0.333326  1
  Tm  Tm9  1  0.000000  0.333339  0.666676  1
  Sn  Sn10  1  0.762248  0.602503  0.999999  1
  Sn  Sn11  1  0.762303  0.397485  0.397484  1
  Sn  Sn12  1  0.762309  0.000000  0.602517  1
  Sn  Sn13  1  0.237754  0.397499  0.000001  1
  Sn  Sn14  1  0.237695  0.602519  0.602521  1
  Sn  Sn15  1  0.237692  0.999998  0.397480  1
