# generated using pymatgen
data_Nd16Dy4Bi5Pb11
_symmetry_space_group_name_H-M   'P 1'
_cell_length_a   8.40822343
_cell_length_b   8.45519567
_cell_length_c   16.14695400
_cell_angle_alpha   90.10738566
_cell_angle_beta   89.98162877
_cell_angle_gamma   89.83797664
_symmetry_Int_Tables_number   1
_chemical_formula_structural   Nd16Dy4Bi5Pb11
_chemical_formula_sum   'Nd16 Dy4 Bi5 Pb11'
_cell_volume   1147.93154925
_cell_formula_units_Z   1
loop_
 _symmetry_equiv_pos_site_id
 _symmetry_equiv_pos_as_xyz
  1  'x, y, z'
loop_
 _atom_site_type_symbol
 _atom_site_label
 _atom_site_symmetry_multiplicity
 _atom_site_fract_x
 _atom_site_fract_y
 _atom_site_fract_z
 _atom_site_occupancy
  Nd  Nd0  1  0.380781  0.841964  0.880313  1
  Nd  Nd1  1  0.881699  0.656842  0.620128  1
  Nd  Nd2  1  0.618375  0.156135  0.379923  1
  Nd  Nd3  1  0.116349  0.341955  0.119706  1
  Nd  Nd4  1  0.621384  0.160344  0.119994  1
  Nd  Nd5  1  0.121804  0.340347  0.380910  1
  Nd  Nd6  1  0.377223  0.841606  0.619734  1
  Nd  Nd7  1  0.879051  0.657025  0.880268  1
  Nd  Nd8  1  0.549483  0.332479  0.894671  1
  Nd  Nd9  1  0.048118  0.172614  0.604563  1
  Nd  Nd10  1  0.451603  0.672331  0.395201  1
  Nd  Nd11  1  0.953839  0.826366  0.104747  1
  Nd  Nd12  1  0.456155  0.669685  0.105336  1
  Nd  Nd13  1  0.961571  0.825770  0.397309  1
  Nd  Nd14  1  0.538805  0.326832  0.603203  1
  Nd  Nd15  1  0.043480  0.175524  0.895996  1
  Dy  Dy16  1  0.212238  0.500212  0.746875  1
  Dy  Dy17  1  0.712748  0.001415  0.749616  1
  Dy  Dy18  1  0.787753  0.499225  0.248479  1
  Dy  Dy19  1  0.288009  0.998800  0.252721  1
  Bi  Bi20  1  0.275008  0.021568  0.049458  1
  Bi  Bi21  1  0.774036  0.475376  0.451636  1
  Bi  Bi22  1  0.725357  0.976328  0.548535  1
  Bi  Bi23  1  0.224794  0.523984  0.951369  1
  Bi  Bi24  1  0.725062  0.978515  0.950671  1
  Pb  Pb25  1  0.223489  0.527139  0.546554  1
  Pb  Pb26  1  0.277054  0.025640  0.453180  1
  Pb  Pb27  1  0.774436  0.475715  0.047060  1
  Pb  Pb28  1  0.573999  0.628539  0.749550  1
  Pb  Pb29  1  0.074072  0.872474  0.751201  1
  Pb  Pb30  1  0.424772  0.370990  0.250009  1
  Pb  Pb31  1  0.925990  0.127142  0.250458  1
  Pb  Pb32  1  0.351503  0.150195  0.751324  1
  Pb  Pb33  1  0.851260  0.350123  0.749264  1
  Pb  Pb34  1  0.650418  0.849559  0.250566  1
  Pb  Pb35  1  0.148280  0.649237  0.249474  1
