# generated using pymatgen
data_Er2Al9OsRu4
_symmetry_space_group_name_H-M   'P 1'
_cell_length_a   7.96202620
_cell_length_b   7.96202520
_cell_length_c   7.96202406
_cell_angle_alpha   134.47288522
_cell_angle_beta   134.47287649
_cell_angle_gamma   66.35033495
_symmetry_Int_Tables_number   1
_chemical_formula_structural   Er2Al9OsRu4
_chemical_formula_sum   'Er2 Al9 Os1 Ru4'
_cell_volume   252.99963715
_cell_formula_units_Z   1
loop_
 _symmetry_equiv_pos_site_id
 _symmetry_equiv_pos_as_xyz
  1  'x, y, z'
loop_
 _atom_site_type_symbol
 _atom_site_label
 _atom_site_symmetry_multiplicity
 _atom_site_fract_x
 _atom_site_fract_y
 _atom_site_fract_z
 _atom_site_occupancy
  Er  Er0  1  0.000000  0.500000  0.500000  1
  Er  Er1  1  0.500000  0.000000  0.500000  1
  Al  Al2  1  0.438737  0.861301  0.000000  1
  Al  Al3  1  0.138699  0.138699  0.577436  1
  Al  Al4  1  0.861301  0.438737  0.000000  1
  Al  Al5  1  0.861301  0.861301  0.422564  1
  Al  Al6  1  0.561263  0.138699  0.000000  1
  Al  Al7  1  0.138699  0.561263  0.000000  1
  Al  Al8  1  0.561263  0.561263  0.422564  1
  Al  Al9  1  0.000000  0.000000  0.000000  1
  Al  Al10  1  0.438737  0.438737  0.577436  1
  Os  Os11  1  0.500000  0.500000  0.000000  1
  Ru  Ru12  1  0.182671  0.182671  0.000000  1
  Ru  Ru13  1  0.817329  0.817329  0.000000  1
  Ru  Ru14  1  0.250000  0.750000  0.500000  1
  Ru  Ru15  1  0.750000  0.250000  0.500000  1
