# generated using pymatgen
data_Y2Ti3Co9As6P
_symmetry_space_group_name_H-M   'P 1'
_cell_length_a   3.74584800
_cell_length_b   9.46668364
_cell_length_c   9.46668400
_cell_angle_alpha   119.99999425
_cell_angle_beta   90.00000000
_cell_angle_gamma   90.00000000
_symmetry_Int_Tables_number   1
_chemical_formula_structural   Y2Ti3Co9As6P
_chemical_formula_sum   'Y2 Ti3 Co9 As6 P1'
_cell_volume   290.72109921
_cell_formula_units_Z   1
loop_
 _symmetry_equiv_pos_site_id
 _symmetry_equiv_pos_as_xyz
  1  'x, y, z'
loop_
 _atom_site_type_symbol
 _atom_site_label
 _atom_site_symmetry_multiplicity
 _atom_site_fract_x
 _atom_site_fract_y
 _atom_site_fract_z
 _atom_site_occupancy
  Y  Y0  1  0.000000  0.666667  0.333333  1
  Y  Y1  1  0.500000  0.333333  0.666667  1
  Ti  Ti2  1  0.500000  0.785603  0.894684  1
  Ti  Ti3  1  0.500000  0.109080  0.214397  1
  Ti  Ti4  1  0.500000  0.105316  0.890920  1
  Co  Co5  1  0.000000  0.573789  0.941439  1
  Co  Co6  1  0.000000  0.367650  0.426211  1
  Co  Co7  1  0.000000  0.058561  0.632350  1
  Co  Co8  1  0.000000  0.884525  0.154161  1
  Co  Co9  1  0.000000  0.269637  0.115475  1
  Co  Co10  1  0.000000  0.845839  0.730363  1
  Co  Co11  1  0.500000  0.948755  0.383929  1
  Co  Co12  1  0.500000  0.435173  0.051245  1
  Co  Co13  1  0.500000  0.616071  0.564827  1
  As  As14  1  0.500000  0.709989  0.121882  1
  As  As15  1  0.500000  0.411891  0.290011  1
  As  As16  1  0.500000  0.878118  0.588109  1
  As  As17  1  0.000000  0.582123  0.695569  1
  As  As18  1  0.000000  0.113446  0.417877  1
  As  As19  1  0.000000  0.304431  0.886554  1
  P  P20  1  0.000000  0.000000  0.000000  1
