# generated using pymatgen
data_Pr3Nd5(Ga5Cl2)2
_symmetry_space_group_name_H-M   'P 1'
_cell_length_a   11.38394480
_cell_length_b   11.38259505
_cell_length_c   4.21090400
_cell_angle_alpha   90.00000000
_cell_angle_beta   90.00000000
_cell_angle_gamma   93.84116619
_symmetry_Int_Tables_number   1
_chemical_formula_structural   Pr3Nd5(Ga5Cl2)2
_chemical_formula_sum   'Pr3 Nd5 Ga10 Cl4'
_cell_volume   544.41829110
_cell_formula_units_Z   1
loop_
 _symmetry_equiv_pos_site_id
 _symmetry_equiv_pos_as_xyz
  1  'x, y, z'
loop_
 _atom_site_type_symbol
 _atom_site_label
 _atom_site_symmetry_multiplicity
 _atom_site_fract_x
 _atom_site_fract_y
 _atom_site_fract_z
 _atom_site_occupancy
  Pr  Pr0  1  0.680499  0.041086  0.500000  1
  Pr  Pr1  1  0.319519  0.958941  0.500000  1
  Pr  Pr2  1  0.041031  0.680382  0.500000  1
  Nd  Nd3  1  0.959126  0.320096  0.500000  1
  Nd  Nd4  1  0.733592  0.733488  0.000000  1
  Nd  Nd5  1  0.266353  0.266419  0.000000  1
  Nd  Nd6  1  0.366229  0.633658  0.000000  1
  Nd  Nd7  1  0.633755  0.366265  0.000000  1
  Ga  Ga8  1  0.580098  0.580012  0.500000  1
  Ga  Ga9  1  0.419920  0.419926  0.500000  1
  Ga  Ga10  1  0.536961  0.899886  0.000000  1
  Ga  Ga11  1  0.463038  0.100123  0.000000  1
  Ga  Ga12  1  0.899898  0.536795  0.000000  1
  Ga  Ga13  1  0.099704  0.462567  0.000000  1
  Ga  Ga14  1  0.512559  0.782908  0.500000  1
  Ga  Ga15  1  0.487462  0.217093  0.500000  1
  Ga  Ga16  1  0.216983  0.487355  0.500000  1
  Ga  Ga17  1  0.783139  0.512238  0.500000  1
  Cl  Cl18  1  0.128210  0.128908  0.500000  1
  Cl  Cl19  1  0.871416  0.871417  0.500000  1
  Cl  Cl20  1  0.823623  0.177340  0.000000  1
  Cl  Cl21  1  0.176885  0.823097  0.000000  1
