# generated using pymatgen
data_NaPr(PtRh)2
_symmetry_space_group_name_H-M   'P 1'
_cell_length_a   5.40835674
_cell_length_b   5.40835560
_cell_length_c   5.40835681
_cell_angle_alpha   119.88026048
_cell_angle_beta   120.33339946
_cell_angle_gamma   89.81551924
_symmetry_Int_Tables_number   1
_chemical_formula_structural   NaPr(PtRh)2
_chemical_formula_sum   'Na1 Pr1 Pt2 Rh2'
_cell_volume   111.67811837
_cell_formula_units_Z   1
loop_
 _symmetry_equiv_pos_site_id
 _symmetry_equiv_pos_as_xyz
  1  'x, y, z'
loop_
 _atom_site_type_symbol
 _atom_site_label
 _atom_site_symmetry_multiplicity
 _atom_site_fract_x
 _atom_site_fract_y
 _atom_site_fract_z
 _atom_site_occupancy
  Na  Na0  1  0.124237  0.874237  0.250000  1
  Pr  Pr1  1  0.876437  0.126437  0.750000  1
  Pt  Pt2  1  0.499543  0.500597  0.501054  1
  Pt  Pt3  1  0.499543  0.998489  0.998946  1
  Rh  Rh4  1  0.500341  0.500119  0.000222  1
  Rh  Rh5  1  0.999897  0.500119  0.499778  1
