# generated using pymatgen
data_Ca3Yb7Al3GaAs12
_symmetry_space_group_name_H-M   'P 1'
_cell_length_a   4.16584000
_cell_length_b   11.37313845
_cell_length_c   13.15698604
_cell_angle_alpha   89.95776220
_cell_angle_beta   90.00000000
_cell_angle_gamma   90.00000000
_symmetry_Int_Tables_number   1
_chemical_formula_structural   Ca3Yb7Al3GaAs12
_chemical_formula_sum   'Ca3 Yb7 Al3 Ga1 As12'
_cell_volume   623.36039745
_cell_formula_units_Z   1
loop_
 _symmetry_equiv_pos_site_id
 _symmetry_equiv_pos_as_xyz
  1  'x, y, z'
loop_
 _atom_site_type_symbol
 _atom_site_label
 _atom_site_symmetry_multiplicity
 _atom_site_fract_x
 _atom_site_fract_y
 _atom_site_fract_z
 _atom_site_occupancy
  Ca  Ca0  1  0.500000  0.998918  0.500475  1
  Ca  Ca1  1  0.500000  0.500382  0.000025  1
  Ca  Ca2  1  0.500000  0.590522  0.749710  1
  Yb  Yb3  1  0.500000  0.672014  0.484244  1
  Yb  Yb4  1  0.500000  0.328457  0.515584  1
  Yb  Yb5  1  0.500000  0.827846  0.984679  1
  Yb  Yb6  1  0.500000  0.171754  0.017487  1
  Yb  Yb7  1  0.500000  0.910810  0.249553  1
  Yb  Yb8  1  0.500000  0.090213  0.750442  1
  Yb  Yb9  1  0.500000  0.408870  0.249912  1
  Al  Al10  1  0.000000  0.329530  0.713224  1
  Al  Al11  1  0.000000  0.669725  0.286347  1
  Al  Al12  1  0.000000  0.831272  0.786864  1
  Ga  Ga13  1  0.000000  0.169596  0.212404  1
  As  As14  1  0.000000  0.978362  0.094281  1
  As  As15  1  0.000000  0.020269  0.904721  1
  As  As16  1  0.000000  0.480662  0.404201  1
  As  As17  1  0.000000  0.518272  0.594713  1
  As  As18  1  0.500000  0.161380  0.321399  1
  As  As19  1  0.500000  0.839153  0.680759  1
  As  As20  1  0.500000  0.661169  0.180732  1
  As  As21  1  0.500000  0.338569  0.819339  1
  As  As22  1  0.000000  0.342893  0.096147  1
  As  As23  1  0.000000  0.659890  0.903476  1
  As  As24  1  0.000000  0.841091  0.402295  1
  As  As25  1  0.000000  0.158379  0.596983  1
