# generated using pymatgen
data_HoTmSi(Ni2As)6
_symmetry_space_group_name_H-M   'P 1'
_cell_length_a   9.33550500
_cell_length_b   9.33550483
_cell_length_c   3.82000800
_cell_angle_alpha   90.00000000
_cell_angle_beta   90.00000000
_cell_angle_gamma   120.00001029
_symmetry_Int_Tables_number   1
_chemical_formula_structural   HoTmSi(Ni2As)6
_chemical_formula_sum   'Ho1 Tm1 Si1 Ni12 As6'
_cell_volume   288.31715434
_cell_formula_units_Z   1
loop_
 _symmetry_equiv_pos_site_id
 _symmetry_equiv_pos_as_xyz
  1  'x, y, z'
loop_
 _atom_site_type_symbol
 _atom_site_label
 _atom_site_symmetry_multiplicity
 _atom_site_fract_x
 _atom_site_fract_y
 _atom_site_fract_z
 _atom_site_occupancy
  Ho  Ho0  1  0.000000  0.000000  0.000000  1
  Tm  Tm1  1  0.333333  0.666667  0.500000  1
  Si  Si2  1  0.666667  0.333333  0.000000  1
  Ni  Ni3  1  0.815350  0.609454  0.000000  1
  Ni  Ni4  1  0.390546  0.205896  0.000000  1
  Ni  Ni5  1  0.794104  0.184650  0.000000  1
  Ni  Ni6  1  0.043681  0.757463  0.500000  1
  Ni  Ni7  1  0.242537  0.286218  0.500000  1
  Ni  Ni8  1  0.713782  0.956319  0.500000  1
  Ni  Ni9  1  0.106562  0.389532  0.000000  1
  Ni  Ni10  1  0.610468  0.717031  0.000000  1
  Ni  Ni11  1  0.282969  0.893438  0.000000  1
  Ni  Ni12  1  0.860614  0.419784  0.500000  1
  Ni  Ni13  1  0.580216  0.440830  0.500000  1
  Ni  Ni14  1  0.559170  0.139386  0.500000  1
  As  As15  1  0.775290  0.738924  0.500000  1
  As  As16  1  0.261076  0.036365  0.500000  1
  As  As17  1  0.963635  0.224710  0.500000  1
  As  As18  1  0.068666  0.616758  0.000000  1
  As  As19  1  0.383242  0.451908  0.000000  1
  As  As20  1  0.548092  0.931334  0.000000  1
