# generated using pymatgen
data_Tm12Th4MgCo4Pd3
_symmetry_space_group_name_H-M   'P 1'
_cell_length_a   9.26256687
_cell_length_b   9.33566766
_cell_length_c   9.33566700
_cell_angle_alpha   60.00000587
_cell_angle_beta   59.73859330
_cell_angle_gamma   59.73858844
_symmetry_Int_Tables_number   1
_chemical_formula_structural   Tm12Th4MgCo4Pd3
_chemical_formula_sum   'Tm12 Th4 Mg1 Co4 Pd3'
_cell_volume   568.56455417
_cell_formula_units_Z   1
loop_
 _symmetry_equiv_pos_site_id
 _symmetry_equiv_pos_as_xyz
  1  'x, y, z'
loop_
 _atom_site_type_symbol
 _atom_site_label
 _atom_site_symmetry_multiplicity
 _atom_site_fract_x
 _atom_site_fract_y
 _atom_site_fract_z
 _atom_site_occupancy
  Tm  Tm0  1  0.807980  0.190956  0.190956  1
  Tm  Tm1  1  0.186929  0.813067  0.813067  1
  Tm  Tm2  1  0.186929  0.813067  0.186937  1
  Tm  Tm3  1  0.807980  0.190956  0.810109  1
  Tm  Tm4  1  0.186929  0.186937  0.813067  1
  Tm  Tm5  1  0.807980  0.810109  0.190956  1
  Tm  Tm6  1  0.929080  0.566001  0.566001  1
  Tm  Tm7  1  0.565375  0.934191  0.934191  1
  Tm  Tm8  1  0.565375  0.934191  0.566244  1
  Tm  Tm9  1  0.929080  0.566001  0.938918  1
  Tm  Tm10  1  0.565375  0.566244  0.934191  1
  Tm  Tm11  1  0.929080  0.938918  0.566001  1
  Th  Th12  1  0.347368  0.347389  0.347389  1
  Th  Th13  1  0.347368  0.347389  0.957856  1
  Th  Th14  1  0.347368  0.957856  0.347389  1
  Th  Th15  1  0.933166  0.355611  0.355611  1
  Mg  Mg16  1  0.302995  0.565668  0.565668  1
  Co  Co17  1  0.140456  0.145072  0.145072  1
  Co  Co18  1  0.140456  0.145072  0.569402  1
  Co  Co19  1  0.140456  0.569402  0.145072  1
  Co  Co20  1  0.568624  0.143792  0.143792  1
  Pd  Pd21  1  0.587884  0.589480  0.589480  1
  Pd  Pd22  1  0.587884  0.589480  0.233154  1
  Pd  Pd23  1  0.587884  0.233154  0.589480  1
