# generated using pymatgen
data_Zr10CdBi5B2
_symmetry_space_group_name_H-M   'P 1'
_cell_length_a   8.72835998
_cell_length_b   8.70642526
_cell_length_c   5.86220800
_cell_angle_alpha   90.00000000
_cell_angle_beta   90.00000000
_cell_angle_gamma   119.91691418
_symmetry_Int_Tables_number   1
_chemical_formula_structural   Zr10CdBi5B2
_chemical_formula_sum   'Zr10 Cd1 Bi5 B2'
_cell_volume   386.12451518
_cell_formula_units_Z   1
loop_
 _symmetry_equiv_pos_site_id
 _symmetry_equiv_pos_as_xyz
  1  'x, y, z'
loop_
 _atom_site_type_symbol
 _atom_site_label
 _atom_site_symmetry_multiplicity
 _atom_site_fract_x
 _atom_site_fract_y
 _atom_site_fract_z
 _atom_site_occupancy
  Zr  Zr0  1  0.667268  0.334040  0.002034  1
  Zr  Zr1  1  0.332732  0.666774  0.002034  1
  Zr  Zr2  1  0.332732  0.666774  0.497966  1
  Zr  Zr3  1  0.667268  0.334040  0.497966  1
  Zr  Zr4  1  0.774782  0.773263  0.750000  1
  Zr  Zr5  1  0.225218  0.998481  0.750000  1
  Zr  Zr6  1  0.000000  0.223452  0.750000  1
  Zr  Zr7  1  0.222424  0.227813  0.250000  1
  Zr  Zr8  1  0.777576  0.005388  0.250000  1
  Zr  Zr9  1  0.000000  0.771445  0.250000  1
  Cd  Cd10  1  0.000000  0.399378  0.250000  1
  Bi  Bi11  1  0.397450  0.397929  0.750000  1
  Bi  Bi12  1  0.602550  0.000479  0.750000  1
  Bi  Bi13  1  0.000000  0.594310  0.750000  1
  Bi  Bi14  1  0.602566  0.604288  0.250000  1
  Bi  Bi15  1  0.397434  0.001722  0.250000  1
  B  B16  1  0.000000  0.000212  0.000884  1
  B  B17  1  0.000000  0.000212  0.499116  1
