# generated using pymatgen
data_LaScAl2Au3
_symmetry_space_group_name_H-M   'P 1'
_cell_length_a   4.44738200
_cell_length_b   7.32702000
_cell_length_c   8.93848400
_cell_angle_alpha   90.00000000
_cell_angle_beta   90.00000000
_cell_angle_gamma   90.00000000
_symmetry_Int_Tables_number   1
_chemical_formula_structural   LaScAl2Au3
_chemical_formula_sum   'La2 Sc2 Al4 Au6'
_cell_volume   291.26994788
_cell_formula_units_Z   2
loop_
 _symmetry_equiv_pos_site_id
 _symmetry_equiv_pos_as_xyz
  1  'x, y, z'
loop_
 _atom_site_type_symbol
 _atom_site_label
 _atom_site_symmetry_multiplicity
 _atom_site_fract_x
 _atom_site_fract_y
 _atom_site_fract_z
 _atom_site_occupancy
  La  La0  1  0.500000  0.000000  0.745666  1
  La  La1  1  0.000000  0.500000  0.254334  1
  Sc  Sc2  1  0.000000  0.000000  0.347604  1
  Sc  Sc3  1  0.500000  0.500000  0.652396  1
  Al  Al4  1  0.000000  0.309954  0.888477  1
  Al  Al5  1  0.500000  0.190046  0.111523  1
  Al  Al6  1  0.000000  0.690046  0.888477  1
  Al  Al7  1  0.500000  0.809954  0.111523  1
  Au  Au8  1  0.000000  0.732850  0.598141  1
  Au  Au9  1  0.500000  0.767150  0.401859  1
  Au  Au10  1  0.500000  0.500000  0.967267  1
  Au  Au11  1  0.000000  0.000000  0.032733  1
  Au  Au12  1  0.500000  0.232850  0.401859  1
  Au  Au13  1  0.000000  0.267150  0.598141  1
