# generated using pymatgen
data_Nd3Fe2Sb3O14
_symmetry_space_group_name_H-M   'P 1'
_cell_length_a   7.32748746
_cell_length_b   7.32837162
_cell_length_c   7.31002504
_cell_angle_alpha   117.68502870
_cell_angle_beta   62.30674609
_cell_angle_gamma   117.54958812
_symmetry_Int_Tables_number   1
_chemical_formula_structural   Nd3Fe2Sb3O14
_chemical_formula_sum   'Nd3 Fe2 Sb3 O14'
_cell_volume   292.16241863
_cell_formula_units_Z   1
loop_
 _symmetry_equiv_pos_site_id
 _symmetry_equiv_pos_as_xyz
  1  'x, y, z'
loop_
 _atom_site_type_symbol
 _atom_site_label
 _atom_site_symmetry_multiplicity
 _atom_site_fract_x
 _atom_site_fract_y
 _atom_site_fract_z
 _atom_site_occupancy
  Nd  Nd0  1  0.999997  0.500004  0.000007  1
  Nd  Nd1  1  0.500009  0.000015  0.000008  1
  Nd  Nd2  1  0.500001  0.500005  0.499983  1
  Fe  Fe3  1  0.500153  0.499860  0.999952  1
  Fe  Fe4  1  0.999828  0.999965  0.500002  1
  Sb  Sb5  1  0.499999  0.000001  0.500003  1
  Sb  Sb6  1  0.000008  0.500013  0.500010  1
  Sb  Sb7  1  0.000005  0.000005  0.999999  1
  O  O8  1  0.613684  0.386313  0.112006  1
  O  O9  1  0.386313  0.613709  0.887969  1
  O  O10  1  0.073822  0.318889  0.180069  1
  O  O11  1  0.681099  0.926007  0.180042  1
  O  O12  1  0.679132  0.320873  0.580159  1
  O  O13  1  0.926179  0.681117  0.819941  1
  O  O14  1  0.318913  0.074010  0.819968  1
  O  O15  1  0.320865  0.679146  0.419877  1
  O  O16  1  0.649078  0.907466  0.591244  1
  O  O17  1  0.092561  0.350892  0.591186  1
  O  O18  1  0.091380  0.908705  0.150523  1
  O  O19  1  0.350926  0.092557  0.408754  1
  O  O20  1  0.907431  0.649135  0.408811  1
  O  O21  1  0.908620  0.091313  0.849487  1
