# generated using pymatgen
data_Zr4ZnCuO
_symmetry_space_group_name_H-M   'P 1'
_cell_length_a   8.80601775
_cell_length_b   8.81078667
_cell_length_c   8.80601800
_cell_angle_alpha   60.01790215
_cell_angle_beta   59.99999904
_cell_angle_gamma   60.01789814
_symmetry_Int_Tables_number   1
_chemical_formula_structural   Zr4ZnCuO
_chemical_formula_sum   'Zr16 Zn4 Cu4 O4'
_cell_volume   483.25489319
_cell_formula_units_Z   4
loop_
 _symmetry_equiv_pos_site_id
 _symmetry_equiv_pos_as_xyz
  1  'x, y, z'
loop_
 _atom_site_type_symbol
 _atom_site_label
 _atom_site_symmetry_multiplicity
 _atom_site_fract_x
 _atom_site_fract_y
 _atom_site_fract_z
 _atom_site_occupancy
  Zr  Zr0  1  0.316687  0.681214  0.316692  1
  Zr  Zr1  1  0.932315  0.566101  0.932313  1
  Zr  Zr2  1  0.682048  0.316738  0.682062  1
  Zr  Zr3  1  0.682083  0.316710  0.319138  1
  Zr  Zr4  1  0.316695  0.681202  0.685418  1
  Zr  Zr5  1  0.622522  0.135521  0.120969  1
  Zr  Zr6  1  0.935103  0.933445  0.565716  1
  Zr  Zr7  1  0.685406  0.681204  0.316702  1
  Zr  Zr8  1  0.126410  0.620772  0.126416  1
  Zr  Zr9  1  0.120972  0.135525  0.622523  1
  Zr  Zr10  1  0.319133  0.316730  0.682083  1
  Zr  Zr11  1  0.120977  0.135533  0.120964  1
  Zr  Zr12  1  0.569253  0.566110  0.932308  1
  Zr  Zr13  1  0.565713  0.933457  0.935098  1
  Zr  Zr14  1  0.932304  0.566126  0.569249  1
  Zr  Zr15  1  0.565729  0.933428  0.565729  1
  Zn  Zn16  1  0.265642  0.913277  0.910533  1
  Zn  Zn17  1  0.910534  0.913280  0.910538  1
  Zn  Zn18  1  0.910524  0.913278  0.265655  1
  Zn  Zn19  1  0.338129  0.985603  0.338143  1
  Cu  Cu20  1  0.332951  0.335150  0.332937  1
  Cu  Cu21  1  0.999020  0.335183  0.332920  1
  Cu  Cu22  1  0.332919  0.335202  0.999000  1
  Cu  Cu23  1  0.915260  0.254264  0.915210  1
  O  O24  1  0.625690  0.624346  0.625694  1
  O  O25  1  0.124265  0.624344  0.625694  1
  O  O26  1  0.625692  0.624342  0.124268  1
  O  O27  1  0.626024  0.121924  0.626027  1
