# generated using pymatgen
data_Th10HgBi3Pb4
_symmetry_space_group_name_H-M   'P 1'
_cell_length_a   9.78438100
_cell_length_b   9.78438118
_cell_length_c   6.65884400
_cell_angle_alpha   90.00000000
_cell_angle_beta   90.00000000
_cell_angle_gamma   119.99999602
_symmetry_Int_Tables_number   1
_chemical_formula_structural   Th10HgBi3Pb4
_chemical_formula_sum   'Th10 Hg1 Bi3 Pb4'
_cell_volume   552.07261993
_cell_formula_units_Z   1
loop_
 _symmetry_equiv_pos_site_id
 _symmetry_equiv_pos_as_xyz
  1  'x, y, z'
loop_
 _atom_site_type_symbol
 _atom_site_label
 _atom_site_symmetry_multiplicity
 _atom_site_fract_x
 _atom_site_fract_y
 _atom_site_fract_z
 _atom_site_occupancy
  Th  Th0  1  0.666667  0.333333  0.501159  1
  Th  Th1  1  0.333333  0.666667  0.501159  1
  Th  Th2  1  0.333333  0.666667  0.998559  1
  Th  Th3  1  0.666667  0.333333  0.998559  1
  Th  Th4  1  0.719552  0.719552  0.251913  1
  Th  Th5  1  0.280448  0.000000  0.251913  1
  Th  Th6  1  0.000000  0.280448  0.251913  1
  Th  Th7  1  0.280443  0.280443  0.748066  1
  Th  Th8  1  0.719557  0.000000  0.748066  1
  Th  Th9  1  0.000000  0.719557  0.748066  1
  Hg  Hg10  1  0.000000  0.000000  0.500981  1
  Bi  Bi11  1  0.378799  0.378799  0.250532  1
  Bi  Bi12  1  0.621201  0.000000  0.250532  1
  Bi  Bi13  1  0.000000  0.621201  0.250532  1
  Pb  Pb14  1  0.000000  0.000000  0.999808  1
  Pb  Pb15  1  0.622035  0.622035  0.749414  1
  Pb  Pb16  1  0.377965  0.000000  0.749414  1
  Pb  Pb17  1  0.000000  0.377965  0.749414  1
