# generated using pymatgen
data_DyHoHf2(Al3Ir)6
_symmetry_space_group_name_H-M   'P 1'
_cell_length_a   7.51956607
_cell_length_b   7.50473954
_cell_length_c   9.34208500
_cell_angle_alpha   90.00000000
_cell_angle_beta   90.00000000
_cell_angle_gamma   119.74953753
_symmetry_Int_Tables_number   1
_chemical_formula_structural   DyHoHf2(Al3Ir)6
_chemical_formula_sum   'Dy1 Ho1 Hf2 Al18 Ir6'
_cell_volume   457.71317165
_cell_formula_units_Z   1
loop_
 _symmetry_equiv_pos_site_id
 _symmetry_equiv_pos_as_xyz
  1  'x, y, z'
loop_
 _atom_site_type_symbol
 _atom_site_label
 _atom_site_symmetry_multiplicity
 _atom_site_fract_x
 _atom_site_fract_y
 _atom_site_fract_z
 _atom_site_occupancy
  Dy  Dy0  1  0.670445  0.994485  0.250000  1
  Ho  Ho1  1  0.329600  0.005532  0.750000  1
  Hf  Hf2  1  0.995463  0.670963  0.250000  1
  Hf  Hf3  1  0.004559  0.329039  0.750000  1
  Al  Al4  1  0.126374  0.124287  0.250000  1
  Al  Al5  1  0.873818  0.875776  0.750000  1
  Al  Al6  1  0.000154  0.337100  0.075430  1
  Al  Al7  1  0.000020  0.663072  0.924448  1
  Al  Al8  1  0.000020  0.663072  0.575552  1
  Al  Al9  1  0.332080  0.998389  0.421909  1
  Al  Al10  1  0.000154  0.337100  0.424570  1
  Al  Al11  1  0.667750  0.001623  0.578349  1
  Al  Al12  1  0.667750  0.001623  0.921651  1
  Al  Al13  1  0.332080  0.998389  0.078091  1
  Al  Al14  1  0.331373  0.333660  0.557373  1
  Al  Al15  1  0.668622  0.666180  0.442758  1
  Al  Al16  1  0.668622  0.666180  0.057242  1
  Al  Al17  1  0.331373  0.333660  0.942627  1
  Al  Al18  1  0.334275  0.547387  0.250000  1
  Al  Al19  1  0.665548  0.452391  0.750000  1
  Al  Al20  1  0.553352  0.343475  0.250000  1
  Al  Al21  1  0.446574  0.656622  0.750000  1
  Ir  Ir22  1  0.672768  0.328109  0.999503  1
  Ir  Ir23  1  0.327093  0.671863  0.000331  1
  Ir  Ir24  1  0.327093  0.671863  0.499669  1
  Ir  Ir25  1  0.672768  0.328109  0.500497  1
  Ir  Ir26  1  0.000136  0.000025  0.999908  1
  Ir  Ir27  1  0.000136  0.000025  0.500092  1
