# generated using pymatgen
data_Zn5Ga6SiRh12
_symmetry_space_group_name_H-M   'P 1'
_cell_length_a   4.25893700
_cell_length_b   6.07110700
_cell_length_c   12.83727500
_cell_angle_alpha   90.00000000
_cell_angle_beta   89.99801363
_cell_angle_gamma   90.00000000
_symmetry_Int_Tables_number   1
_chemical_formula_structural   Zn5Ga6SiRh12
_chemical_formula_sum   'Zn5 Ga6 Si1 Rh12'
_cell_volume   331.92651612
_cell_formula_units_Z   1
loop_
 _symmetry_equiv_pos_site_id
 _symmetry_equiv_pos_as_xyz
  1  'x, y, z'
loop_
 _atom_site_type_symbol
 _atom_site_label
 _atom_site_symmetry_multiplicity
 _atom_site_fract_x
 _atom_site_fract_y
 _atom_site_fract_z
 _atom_site_occupancy
  Zn  Zn0  1  0.499862  0.000000  0.165050  1
  Zn  Zn1  1  0.999834  0.500000  0.332927  1
  Zn  Zn2  1  0.500000  0.000000  0.500000  1
  Zn  Zn3  1  0.000166  0.500000  0.667073  1
  Zn  Zn4  1  0.500138  0.000000  0.834950  1
  Ga  Ga5  1  0.000000  0.000000  0.000000  1
  Ga  Ga6  1  0.499875  0.500000  0.173244  1
  Ga  Ga7  1  0.999854  0.000000  0.332933  1
  Ga  Ga8  1  0.500000  0.500000  0.500000  1
  Ga  Ga9  1  0.000146  0.000000  0.667068  1
  Ga  Ga10  1  0.500125  0.500000  0.826757  1
  Si  Si11  1  0.000000  0.500000  0.000000  1
  Rh  Rh12  1  0.500000  0.265089  0.000000  1
  Rh  Rh13  1  0.500000  0.734910  0.000000  1
  Rh  Rh14  1  0.999879  0.257105  0.158543  1
  Rh  Rh15  1  0.999879  0.742894  0.158543  1
  Rh  Rh16  1  0.499868  0.247081  0.331961  1
  Rh  Rh17  1  0.499868  0.752920  0.331961  1
  Rh  Rh18  1  0.000000  0.250834  0.500000  1
  Rh  Rh19  1  0.000000  0.749167  0.500000  1
  Rh  Rh20  1  0.500132  0.247081  0.668039  1
  Rh  Rh21  1  0.500132  0.752920  0.668039  1
  Rh  Rh22  1  0.000120  0.257105  0.841457  1
  Rh  Rh23  1  0.000120  0.742894  0.841457  1
