# generated using pymatgen
data_Y3Er9InCo4Pt
_symmetry_space_group_name_H-M   'P 1'
_cell_length_a   8.27175957
_cell_length_b   8.27151035
_cell_length_c   8.26138807
_cell_angle_alpha   110.88757017
_cell_angle_beta   110.65132905
_cell_angle_gamma   106.95899693
_symmetry_Int_Tables_number   1
_chemical_formula_structural   Y3Er9InCo4Pt
_chemical_formula_sum   'Y3 Er9 In1 Co4 Pt1'
_cell_volume   434.19498840
_cell_formula_units_Z   1
loop_
 _symmetry_equiv_pos_site_id
 _symmetry_equiv_pos_as_xyz
  1  'x, y, z'
loop_
 _atom_site_type_symbol
 _atom_site_label
 _atom_site_symmetry_multiplicity
 _atom_site_fract_x
 _atom_site_fract_y
 _atom_site_fract_z
 _atom_site_occupancy
  Y  Y0  1  0.187071  0.289652  0.476732  1
  Y  Y1  1  0.812437  0.709821  0.522287  1
  Y  Y2  1  0.187375  0.709986  0.897377  1
  Er  Er3  1  0.814028  0.290224  0.104270  1
  Er  Er4  1  0.314892  0.620680  0.305481  1
  Er  Er5  1  0.684905  0.378896  0.695006  1
  Er  Er6  1  0.316134  0.010221  0.695068  1
  Er  Er7  1  0.684880  0.990699  0.305540  1
  Er  Er8  1  0.415117  0.216500  0.197897  1
  Er  Er9  1  0.586163  0.784532  0.802566  1
  Er  Er10  1  0.018015  0.216390  0.802535  1
  Er  Er11  1  0.981395  0.782807  0.197900  1
  In  In12  1  0.499920  0.500049  0.999965  1
  Co  Co13  1  0.111423  0.611697  0.497975  1
  Co  Co14  1  0.886180  0.386459  0.497971  1
  Co  Co15  1  0.378854  0.000061  0.378916  1
  Co  Co16  1  0.621269  0.000341  0.621598  1
  Pt  Pt17  1  0.999941  0.000983  0.000916  1
