# generated using pymatgen
data_VFe3(CoW2)3
_symmetry_space_group_name_H-M   'P 1'
_cell_length_a   9.05101224
_cell_length_b   9.05101290
_cell_length_c   9.05101164
_cell_angle_alpha   30.74866433
_cell_angle_beta   30.74865987
_cell_angle_gamma   30.74866294
_symmetry_Int_Tables_number   1
_chemical_formula_structural   VFe3(CoW2)3
_chemical_formula_sum   'V1 Fe3 Co3 W6'
_cell_volume   171.87458553
_cell_formula_units_Z   1
loop_
 _symmetry_equiv_pos_site_id
 _symmetry_equiv_pos_as_xyz
  1  'x, y, z'
loop_
 _atom_site_type_symbol
 _atom_site_label
 _atom_site_symmetry_multiplicity
 _atom_site_fract_x
 _atom_site_fract_y
 _atom_site_fract_z
 _atom_site_occupancy
  V  V0  1  0.999514  0.999514  0.999514  1
  Fe  Fe1  1  0.906940  0.416224  0.906940  1
  Fe  Fe2  1  0.416224  0.906940  0.906940  1
  Fe  Fe3  1  0.906940  0.906940  0.416224  1
  Co  Co4  1  0.585052  0.092344  0.092344  1
  Co  Co5  1  0.092344  0.092344  0.585052  1
  Co  Co6  1  0.092344  0.585052  0.092344  1
  W  W7  1  0.166132  0.166132  0.166132  1
  W  W8  1  0.834848  0.834848  0.834848  1
  W  W9  1  0.347009  0.347009  0.347009  1
  W  W10  1  0.652825  0.652825  0.652825  1
  W  W11  1  0.450255  0.450255  0.450255  1
  W  W12  1  0.549574  0.549574  0.549574  1
