# generated using pymatgen
data_Hf7ScTa7Ti5Si16
_symmetry_space_group_name_H-M   'P 1'
_cell_length_a   6.84948865
_cell_length_b   6.85464661
_cell_length_c   12.61377900
_cell_angle_alpha   89.99632218
_cell_angle_beta   89.94960940
_cell_angle_gamma   89.96093668
_symmetry_Int_Tables_number   1
_chemical_formula_structural   Hf7ScTa7Ti5Si16
_chemical_formula_sum   'Hf7 Sc1 Ta7 Ti5 Si16'
_cell_volume   592.22695153
_cell_formula_units_Z   1
loop_
 _symmetry_equiv_pos_site_id
 _symmetry_equiv_pos_as_xyz
  1  'x, y, z'
loop_
 _atom_site_type_symbol
 _atom_site_label
 _atom_site_symmetry_multiplicity
 _atom_site_fract_x
 _atom_site_fract_y
 _atom_site_fract_z
 _atom_site_occupancy
  Hf  Hf0  1  0.342346  0.998968  0.470829  1
  Hf  Hf1  1  0.501134  0.842847  0.719531  1
  Hf  Hf2  1  0.497066  0.157882  0.221327  1
  Hf  Hf3  1  0.841180  0.503199  0.280773  1
  Hf  Hf4  1  0.160790  0.499041  0.780072  1
  Hf  Hf5  1  0.656023  0.001150  0.969987  1
  Hf  Hf6  1  0.999259  0.342004  0.529840  1
  Sc  Sc7  1  0.998766  0.660012  0.030027  1
  Ta  Ta8  1  0.330855  0.328947  0.999848  1
  Ta  Ta9  1  0.170072  0.830028  0.250346  1
  Ta  Ta10  1  0.829989  0.170246  0.748923  1
  Ta  Ta11  1  0.670907  0.669685  0.499618  1
  Ta  Ta12  1  0.153765  0.004067  0.872404  1
  Ta  Ta13  1  0.495704  0.651235  0.124532  1
  Ta  Ta14  1  0.504091  0.347547  0.622882  1
  Ti  Ti15  1  0.652158  0.494407  0.875966  1
  Ti  Ti16  1  0.347970  0.503492  0.377322  1
  Ti  Ti17  1  0.847397  0.995636  0.373514  1
  Ti  Ti18  1  0.005228  0.151731  0.127901  1
  Ti  Ti19  1  0.994972  0.847289  0.626271  1
  Si  Si20  1  0.205611  0.133275  0.674842  1
  Si  Si21  1  0.366562  0.704774  0.926052  1
  Si  Si22  1  0.635303  0.291442  0.424242  1
  Si  Si23  1  0.707878  0.359988  0.073200  1
  Si  Si24  1  0.291482  0.638598  0.573055  1
  Si  Si25  1  0.794702  0.867423  0.177762  1
  Si  Si26  1  0.135259  0.206241  0.324661  1
  Si  Si27  1  0.860968  0.792556  0.822069  1
  Si  Si28  1  0.295604  0.956292  0.064526  1
  Si  Si29  1  0.544700  0.798576  0.315434  1
  Si  Si30  1  0.457383  0.203699  0.813581  1
  Si  Si31  1  0.800154  0.546645  0.686388  1
  Si  Si32  1  0.198980  0.453858  0.187188  1
  Si  Si33  1  0.705801  0.043139  0.561849  1
  Si  Si34  1  0.954052  0.300098  0.937170  1
  Si  Si35  1  0.045889  0.703984  0.436071  1
