# generated using pymatgen
data_Tm8ReTc2B24Ru
_symmetry_space_group_name_H-M   'P 1'
_cell_length_a   3.63559800
_cell_length_b   9.08849222
_cell_length_c   11.45822598
_cell_angle_alpha   89.94734273
_cell_angle_beta   90.00000000
_cell_angle_gamma   90.00000000
_symmetry_Int_Tables_number   1
_chemical_formula_structural   Tm8ReTc2B24Ru
_chemical_formula_sum   'Tm8 Re1 Tc2 B24 Ru1'
_cell_volume   378.60373628
_cell_formula_units_Z   1
loop_
 _symmetry_equiv_pos_site_id
 _symmetry_equiv_pos_as_xyz
  1  'x, y, z'
loop_
 _atom_site_type_symbol
 _atom_site_label
 _atom_site_symmetry_multiplicity
 _atom_site_fract_x
 _atom_site_fract_y
 _atom_site_fract_z
 _atom_site_occupancy
  Tm  Tm0  1  0.000000  0.323273  0.413871  1
  Tm  Tm1  1  0.000000  0.675455  0.584148  1
  Tm  Tm2  1  0.000000  0.822129  0.087438  1
  Tm  Tm3  1  0.000000  0.178540  0.914109  1
  Tm  Tm4  1  0.000000  0.942084  0.371178  1
  Tm  Tm5  1  0.000000  0.057753  0.630339  1
  Tm  Tm6  1  0.000000  0.444104  0.129532  1
  Tm  Tm7  1  0.000000  0.557790  0.869425  1
  Re  Re8  1  0.000000  0.137720  0.178267  1
  Tc  Tc9  1  0.000000  0.638492  0.320467  1
  Tc  Tc10  1  0.000000  0.361647  0.680050  1
  B  B11  1  0.500000  0.552721  0.433232  1
  B  B12  1  0.500000  0.447009  0.566460  1
  B  B13  1  0.500000  0.052531  0.066138  1
  B  B14  1  0.500000  0.946280  0.933064  1
  B  B15  1  0.500000  0.748894  0.419369  1
  B  B16  1  0.500000  0.250389  0.580830  1
  B  B17  1  0.500000  0.250215  0.080510  1
  B  B18  1  0.500000  0.750926  0.918977  1
  B  B19  1  0.500000  0.792215  0.265361  1
  B  B20  1  0.500000  0.207842  0.735495  1
  B  B21  1  0.500000  0.292574  0.234926  1
  B  B22  1  0.500000  0.708740  0.764828  1
  B  B23  1  0.500000  0.630826  0.184999  1
  B  B24  1  0.500000  0.369372  0.815548  1
  B  B25  1  0.500000  0.130100  0.314937  1
  B  B26  1  0.500000  0.868997  0.685060  1
  B  B27  1  0.500000  0.980497  0.212030  1
  B  B28  1  0.500000  0.017590  0.788216  1
  B  B29  1  0.500000  0.481344  0.287875  1
  B  B30  1  0.500000  0.518748  0.711760  1
  B  B31  1  0.500000  0.601907  0.027779  1
  B  B32  1  0.500000  0.400145  0.971756  1
  B  B33  1  0.500000  0.101003  0.472262  1
  B  B34  1  0.500000  0.898459  0.528859  1
  Ru  Ru35  1  0.000000  0.861691  0.820903  1
