# generated using pymatgen
data_TbDy(BiO4)2
_symmetry_space_group_name_H-M   'P 1'
_cell_length_a   5.53656645
_cell_length_b   7.86015753
_cell_length_c   7.83115421
_cell_angle_alpha   83.23463717
_cell_angle_beta   90.29373276
_cell_angle_gamma   91.84046297
_symmetry_Int_Tables_number   1
_chemical_formula_structural   TbDy(BiO4)2
_chemical_formula_sum   'Tb2 Dy2 Bi4 O16'
_cell_volume   338.25049130
_cell_formula_units_Z   2
loop_
 _symmetry_equiv_pos_site_id
 _symmetry_equiv_pos_as_xyz
  1  'x, y, z'
loop_
 _atom_site_type_symbol
 _atom_site_label
 _atom_site_symmetry_multiplicity
 _atom_site_fract_x
 _atom_site_fract_y
 _atom_site_fract_z
 _atom_site_occupancy
  Tb  Tb0  1  0.258815  0.126099  0.619192  1
  Tb  Tb1  1  0.741185  0.873901  0.380808  1
  Dy  Dy2  1  0.219216  0.148423  0.115525  1
  Dy  Dy3  1  0.780784  0.851577  0.884475  1
  Bi  Bi4  1  0.236973  0.663024  0.181332  1
  Bi  Bi5  1  0.763027  0.336976  0.818668  1
  Bi  Bi6  1  0.724748  0.338106  0.321223  1
  Bi  Bi7  1  0.275252  0.661894  0.678777  1
  O  O8  1  0.092592  0.418133  0.676547  1
  O  O9  1  0.907408  0.581867  0.323453  1
  O  O10  1  0.584126  0.323359  0.573685  1
  O  O11  1  0.415874  0.676641  0.426315  1
  O  O12  1  0.900112  0.328884  0.074965  1
  O  O13  1  0.099888  0.671116  0.925035  1
  O  O14  1  0.395135  0.417946  0.184624  1
  O  O15  1  0.604865  0.582054  0.815376  1
  O  O16  1  0.027429  0.892831  0.166186  1
  O  O17  1  0.972571  0.107169  0.833814  1
  O  O18  1  0.499678  0.104833  0.328102  1
  O  O19  1  0.500322  0.895167  0.671898  1
  O  O20  1  0.464070  0.175773  0.886890  1
  O  O21  1  0.535930  0.824227  0.113110  1
  O  O22  1  0.994029  0.157124  0.387961  1
  O  O23  1  0.005971  0.842876  0.612039  1
