# generated using pymatgen
data_Dy8Ho4Co4SnRu
_symmetry_space_group_name_H-M   'P 1'
_cell_length_a   8.28588768
_cell_length_b   8.28588713
_cell_length_c   8.28588706
_cell_angle_alpha   111.30488834
_cell_angle_beta   110.61618142
_cell_angle_gamma   106.53274871
_symmetry_Int_Tables_number   1
_chemical_formula_structural   Dy8Ho4Co4SnRu
_chemical_formula_sum   'Dy8 Ho4 Co4 Sn1 Ru1'
_cell_volume   437.04543444
_cell_formula_units_Z   1
loop_
 _symmetry_equiv_pos_site_id
 _symmetry_equiv_pos_as_xyz
  1  'x, y, z'
loop_
 _atom_site_type_symbol
 _atom_site_label
 _atom_site_symmetry_multiplicity
 _atom_site_fract_x
 _atom_site_fract_y
 _atom_site_fract_z
 _atom_site_occupancy
  Dy  Dy0  1  0.407655  0.214654  0.193001  1
  Dy  Dy1  1  0.592345  0.785346  0.806999  1
  Dy  Dy2  1  0.021653  0.214654  0.806999  1
  Dy  Dy3  1  0.978347  0.785346  0.193001  1
  Dy  Dy4  1  0.184156  0.287225  0.471381  1
  Dy  Dy5  1  0.815844  0.712775  0.528619  1
  Dy  Dy6  1  0.184156  0.712775  0.896931  1
  Dy  Dy7  1  0.815844  0.287225  0.103069  1
  Ho  Ho8  1  0.313573  0.621503  0.307931  1
  Ho  Ho9  1  0.686427  0.378497  0.692069  1
  Ho  Ho10  1  0.313573  0.005642  0.692069  1
  Ho  Ho11  1  0.686427  0.994358  0.307931  1
  Co  Co12  1  0.378225  0.000000  0.378225  1
  Co  Co13  1  0.621775  0.000000  0.621775  1
  Co  Co14  1  0.111699  0.611699  0.500000  1
  Co  Co15  1  0.888301  0.388301  0.500000  1
  Sn  Sn16  1  0.500000  0.500000  0.000000  1
  Ru  Ru17  1  0.000000  0.000000  0.000000  1
