# generated using pymatgen
data_NdTh(Be2Rh3)2
_symmetry_space_group_name_H-M   'P 1'
_cell_length_a   6.46912822
_cell_length_b   6.46912838
_cell_length_c   6.47259582
_cell_angle_alpha   130.01768201
_cell_angle_beta   115.94090538
_cell_angle_gamma   85.35122930
_symmetry_Int_Tables_number   1
_chemical_formula_structural   NdTh(Be2Rh3)2
_chemical_formula_sum   'Nd1 Th1 Be4 Rh6'
_cell_volume   178.48825500
_cell_formula_units_Z   1
loop_
 _symmetry_equiv_pos_site_id
 _symmetry_equiv_pos_as_xyz
  1  'x, y, z'
loop_
 _atom_site_type_symbol
 _atom_site_label
 _atom_site_symmetry_multiplicity
 _atom_site_fract_x
 _atom_site_fract_y
 _atom_site_fract_z
 _atom_site_occupancy
  Nd  Nd0  1  0.250052  0.976364  0.726416  1
  Th  Th1  1  0.750019  0.032214  0.282234  1
  Be  Be2  1  0.577093  0.362271  0.785273  1
  Be  Be3  1  0.414461  0.629364  0.214846  1
  Be  Be4  1  0.085482  0.300386  0.214846  1
  Be  Be5  1  0.923001  0.708180  0.785273  1
  Rh  Rh6  1  0.227919  0.491490  0.726704  1
  Rh  Rh7  1  0.735214  0.998787  0.726704  1
  Rh  Rh8  1  0.764987  0.491831  0.263764  1
  Rh  Rh9  1  0.271933  0.998778  0.263764  1
  Rh  Rh10  1  0.507463  0.504744  0.512208  1
  Rh  Rh11  1  0.992375  0.505591  0.997966  1
