# generated using pymatgen
data_Dy5GaSiSb
_symmetry_space_group_name_H-M   'P 1'
_cell_length_a   6.45289800
_cell_length_b   8.67890409
_cell_length_c   8.64095200
_cell_angle_alpha   119.85558759
_cell_angle_beta   89.99994482
_cell_angle_gamma   89.99999998
_symmetry_Int_Tables_number   1
_chemical_formula_structural   Dy5GaSiSb
_chemical_formula_sum   'Dy10 Ga2 Si2 Sb2'
_cell_volume   419.70298635
_cell_formula_units_Z   2
loop_
 _symmetry_equiv_pos_site_id
 _symmetry_equiv_pos_as_xyz
  1  'x, y, z'
loop_
 _atom_site_type_symbol
 _atom_site_label
 _atom_site_symmetry_multiplicity
 _atom_site_fract_x
 _atom_site_fract_y
 _atom_site_fract_z
 _atom_site_occupancy
  Dy  Dy0  1  0.498025  0.351784  0.676370  1
  Dy  Dy1  1  0.498023  0.648215  0.324586  1
  Dy  Dy2  1  0.001976  0.648215  0.324585  1
  Dy  Dy3  1  0.001978  0.351787  0.676371  1
  Dy  Dy4  1  0.750000  0.249225  0.011717  1
  Dy  Dy5  1  0.750001  0.750774  0.762492  1
  Dy  Dy6  1  0.750000  0.000002  0.234545  1
  Dy  Dy7  1  0.250001  0.748944  0.986550  1
  Dy  Dy8  1  0.250000  0.251056  0.237607  1
  Dy  Dy9  1  0.249999  0.000000  0.765047  1
  Ga  Ga10  1  0.749998  0.605838  0.003979  1
  Ga  Ga11  1  0.750000  0.394165  0.398141  1
  Si  Si12  1  0.250001  0.391734  0.995818  1
  Si  Si13  1  0.250001  0.608263  0.604081  1
  Sb  Sb14  1  0.750001  0.000000  0.606555  1
  Sb  Sb15  1  0.250001  0.000000  0.391555  1
