# generated using pymatgen
data_YTm3Au2
_symmetry_space_group_name_H-M   'P 1'
_cell_length_a   7.09904200
_cell_length_b   4.88647700
_cell_length_c   8.86006700
_cell_angle_alpha   90.00000000
_cell_angle_beta   90.00000000
_cell_angle_gamma   90.00000000
_symmetry_Int_Tables_number   1
_chemical_formula_structural   YTm3Au2
_chemical_formula_sum   'Y2 Tm6 Au4'
_cell_volume   307.34957052
_cell_formula_units_Z   2
loop_
 _symmetry_equiv_pos_site_id
 _symmetry_equiv_pos_as_xyz
  1  'x, y, z'
loop_
 _atom_site_type_symbol
 _atom_site_label
 _atom_site_symmetry_multiplicity
 _atom_site_fract_x
 _atom_site_fract_y
 _atom_site_fract_z
 _atom_site_occupancy
  Y  Y0  1  0.515161  0.250000  0.821861  1
  Y  Y1  1  0.984839  0.749999  0.321861  1
  Tm  Tm2  1  0.149992  0.250000  0.078981  1
  Tm  Tm3  1  0.350009  0.749999  0.578981  1
  Tm  Tm4  1  0.649069  0.250000  0.420897  1
  Tm  Tm5  1  0.850932  0.749999  0.920897  1
  Tm  Tm6  1  0.014186  0.250000  0.675584  1
  Tm  Tm7  1  0.485814  0.749999  0.175584  1
  Au  Au8  1  0.246874  0.250000  0.401191  1
  Au  Au9  1  0.253125  0.749999  0.901191  1
  Au  Au10  1  0.745412  0.250000  0.101485  1
  Au  Au11  1  0.754589  0.749999  0.601485  1
