# generated using pymatgen
data_Hf5(ZrPt5)2
_symmetry_space_group_name_H-M   'P 1'
_cell_length_a   8.19405221
_cell_length_b   8.19405297
_cell_length_c   9.64821400
_cell_angle_alpha   90.00000000
_cell_angle_beta   90.00000000
_cell_angle_gamma   107.89711086
_symmetry_Int_Tables_number   1
_chemical_formula_structural   Hf5(ZrPt5)2
_chemical_formula_sum   'Hf10 Zr4 Pt20'
_cell_volume   616.45783069
_cell_formula_units_Z   2
loop_
 _symmetry_equiv_pos_site_id
 _symmetry_equiv_pos_as_xyz
  1  'x, y, z'
loop_
 _atom_site_type_symbol
 _atom_site_label
 _atom_site_symmetry_multiplicity
 _atom_site_fract_x
 _atom_site_fract_y
 _atom_site_fract_z
 _atom_site_occupancy
  Hf  Hf0  1  0.690133  0.309867  0.000000  1
  Hf  Hf1  1  0.309867  0.690133  0.000000  1
  Hf  Hf2  1  0.809867  0.190133  0.500000  1
  Hf  Hf3  1  0.190133  0.809867  0.500000  1
  Hf  Hf4  1  0.000000  0.000000  0.000000  1
  Hf  Hf5  1  0.500000  0.500000  0.500000  1
  Hf  Hf6  1  0.002589  0.502589  0.250000  1
  Hf  Hf7  1  0.997411  0.497411  0.750000  1
  Hf  Hf8  1  0.497411  0.997411  0.750000  1
  Hf  Hf9  1  0.502589  0.002589  0.250000  1
  Zr  Zr10  1  0.316688  0.316688  0.184120  1
  Zr  Zr11  1  0.683312  0.683312  0.815880  1
  Zr  Zr12  1  0.183312  0.183312  0.684120  1
  Zr  Zr13  1  0.816688  0.816688  0.315880  1
  Pt  Pt14  1  0.854014  0.146799  0.208868  1
  Pt  Pt15  1  0.145986  0.853201  0.791132  1
  Pt  Pt16  1  0.645986  0.353201  0.708868  1
  Pt  Pt17  1  0.646799  0.354014  0.291132  1
  Pt  Pt18  1  0.354014  0.646799  0.291132  1
  Pt  Pt19  1  0.353201  0.645986  0.708868  1
  Pt  Pt20  1  0.853201  0.145986  0.791132  1
  Pt  Pt21  1  0.146799  0.854014  0.208868  1
  Pt  Pt22  1  0.937595  0.644411  0.000124  1
  Pt  Pt23  1  0.062405  0.355589  0.999876  1
  Pt  Pt24  1  0.562405  0.855589  0.500124  1
  Pt  Pt25  1  0.144411  0.437595  0.499876  1
  Pt  Pt26  1  0.437595  0.144411  0.499876  1
  Pt  Pt27  1  0.855589  0.562405  0.500124  1
  Pt  Pt28  1  0.355589  0.062405  0.999876  1
  Pt  Pt29  1  0.644411  0.937595  0.000124  1
  Pt  Pt30  1  0.107223  0.107223  0.393861  1
  Pt  Pt31  1  0.892777  0.892777  0.606139  1
  Pt  Pt32  1  0.392777  0.392777  0.893861  1
  Pt  Pt33  1  0.607223  0.607223  0.106139  1
