# generated using pymatgen
data_Ce3PSe2
_symmetry_space_group_name_H-M   'P 1'
_cell_length_a   7.23518953
_cell_length_b   7.23518928
_cell_length_c   7.23518972
_cell_angle_alpha   146.49918280
_cell_angle_beta   131.87018746
_cell_angle_gamma   59.91242617
_symmetry_Int_Tables_number   1
_chemical_formula_structural   Ce3PSe2
_chemical_formula_sum   'Ce3 P1 Se2'
_cell_volume   154.25778051
_cell_formula_units_Z   1
loop_
 _symmetry_equiv_pos_site_id
 _symmetry_equiv_pos_as_xyz
  1  'x, y, z'
loop_
 _atom_site_type_symbol
 _atom_site_label
 _atom_site_symmetry_multiplicity
 _atom_site_fract_x
 _atom_site_fract_y
 _atom_site_fract_z
 _atom_site_occupancy
  Ce  Ce0  1  0.000000  0.000000  0.000000  1
  Ce  Ce1  1  0.658117  0.658117  0.000000  1
  Ce  Ce2  1  0.341883  0.341883  0.000000  1
  P  P3  1  0.500000  0.000000  0.500000  1
  Se  Se4  1  0.168941  0.668941  0.500000  1
  Se  Se5  1  0.831059  0.331059  0.500000  1
