# generated using pymatgen
data_Eu2(Ga3Pd)3
_symmetry_space_group_name_H-M   'P 1'
_cell_length_a   7.73499200
_cell_length_b   7.73499155
_cell_length_c   9.64779700
_cell_angle_alpha   90.00000000
_cell_angle_beta   90.00000000
_cell_angle_gamma   119.59354984
_symmetry_Int_Tables_number   1
_chemical_formula_structural   Eu2(Ga3Pd)3
_chemical_formula_sum   'Eu4 Ga18 Pd6'
_cell_volume   501.92946768
_cell_formula_units_Z   2
loop_
 _symmetry_equiv_pos_site_id
 _symmetry_equiv_pos_as_xyz
  1  'x, y, z'
loop_
 _atom_site_type_symbol
 _atom_site_label
 _atom_site_symmetry_multiplicity
 _atom_site_fract_x
 _atom_site_fract_y
 _atom_site_fract_z
 _atom_site_occupancy
  Eu  Eu0  1  0.996820  0.668827  0.250000  1
  Eu  Eu1  1  0.003180  0.331173  0.750000  1
  Eu  Eu2  1  0.668827  0.996820  0.250000  1
  Eu  Eu3  1  0.331173  0.003180  0.750000  1
  Ga  Ga4  1  0.129313  0.129313  0.250000  1
  Ga  Ga5  1  0.870687  0.870687  0.750000  1
  Ga  Ga6  1  0.000235  0.334752  0.078821  1
  Ga  Ga7  1  0.999765  0.665248  0.921179  1
  Ga  Ga8  1  0.999765  0.665248  0.578821  1
  Ga  Ga9  1  0.334752  0.000235  0.421179  1
  Ga  Ga10  1  0.000235  0.334752  0.421179  1
  Ga  Ga11  1  0.665248  0.999765  0.578821  1
  Ga  Ga12  1  0.665248  0.999765  0.921179  1
  Ga  Ga13  1  0.334752  0.000235  0.078821  1
  Ga  Ga14  1  0.332322  0.332322  0.563452  1
  Ga  Ga15  1  0.667678  0.667678  0.436548  1
  Ga  Ga16  1  0.667678  0.667678  0.063452  1
  Ga  Ga17  1  0.332322  0.332322  0.936548  1
  Ga  Ga18  1  0.338302  0.542566  0.250000  1
  Ga  Ga19  1  0.661698  0.457434  0.750000  1
  Ga  Ga20  1  0.542566  0.338302  0.250000  1
  Ga  Ga21  1  0.457434  0.661698  0.750000  1
  Pd  Pd22  1  0.669405  0.330595  0.000000  1
  Pd  Pd23  1  0.330595  0.669405  0.000000  1
  Pd  Pd24  1  0.330595  0.669405  0.500000  1
  Pd  Pd25  1  0.669405  0.330595  0.500000  1
  Pd  Pd26  1  0.000000  0.000000  0.000000  1
  Pd  Pd27  1  0.000000  0.000000  0.500000  1
