# generated using pymatgen
data_K9Rb7(ZrSe4)4
_symmetry_space_group_name_H-M   'P 1'
_cell_length_a   8.51215178
_cell_length_b   10.58077600
_cell_length_c   15.69524324
_cell_angle_alpha   90.00000000
_cell_angle_beta   90.07165852
_cell_angle_gamma   90.00000000
_symmetry_Int_Tables_number   1
_chemical_formula_structural   K9Rb7(ZrSe4)4
_chemical_formula_sum   'K9 Rb7 Zr4 Se16'
_cell_volume   1413.59366575
_cell_formula_units_Z   1
loop_
 _symmetry_equiv_pos_site_id
 _symmetry_equiv_pos_as_xyz
  1  'x, y, z'
loop_
 _atom_site_type_symbol
 _atom_site_label
 _atom_site_symmetry_multiplicity
 _atom_site_fract_x
 _atom_site_fract_y
 _atom_site_fract_z
 _atom_site_occupancy
  K  K0  1  0.523309  0.750000  0.931085  1
  K  K1  1  0.837135  0.055869  0.269670  1
  K  K2  1  0.336741  0.943515  0.228365  1
  K  K3  1  0.161925  0.557099  0.730747  1
  K  K4  1  0.663157  0.443544  0.771628  1
  K  K5  1  0.161925  0.942901  0.730747  1
  K  K6  1  0.663157  0.056456  0.771628  1
  K  K7  1  0.837135  0.444131  0.269670  1
  K  K8  1  0.336741  0.556485  0.228365  1
  Rb  Rb9  1  0.000907  0.998860  0.999576  1
  Rb  Rb10  1  0.499301  0.000318  0.500437  1
  Rb  Rb11  1  0.000907  0.501140  0.999576  1
  Rb  Rb12  1  0.499301  0.499682  0.500437  1
  Rb  Rb13  1  0.985707  0.750000  0.429798  1
  Rb  Rb14  1  0.487348  0.250000  0.070653  1
  Rb  Rb15  1  0.013355  0.250000  0.570956  1
  Zr  Zr16  1  0.760759  0.750000  0.673355  1
  Zr  Zr17  1  0.237067  0.250000  0.327196  1
  Zr  Zr18  1  0.736634  0.750000  0.170958  1
  Zr  Zr19  1  0.264472  0.250000  0.828824  1
  Se  Se20  1  0.964875  0.250000  0.822507  1
  Se  Se21  1  0.536633  0.250000  0.321084  1
  Se  Se22  1  0.461515  0.750000  0.677871  1
  Se  Se23  1  0.036256  0.750000  0.177425  1
  Se  Se24  1  0.642228  0.552530  0.095336  1
  Se  Se25  1  0.143319  0.448381  0.402098  1
  Se  Se26  1  0.358085  0.049624  0.902489  1
  Se  Se27  1  0.855558  0.948036  0.598449  1
  Se  Se28  1  0.358085  0.450376  0.902489  1
  Se  Se29  1  0.855558  0.551964  0.598449  1
  Se  Se30  1  0.642228  0.947470  0.095336  1
  Se  Se31  1  0.143319  0.051619  0.402098  1
  Se  Se32  1  0.618282  0.750000  0.321364  1
  Se  Se33  1  0.118645  0.250000  0.176649  1
  Se  Se34  1  0.380987  0.250000  0.678178  1
  Se  Se35  1  0.877450  0.750000  0.824508  1
