# generated using pymatgen
data_Tb3ThP7Ir8
_symmetry_space_group_name_H-M   'P 1'
_cell_length_a   3.96465000
_cell_length_b   12.73588990
_cell_length_c   13.13321492
_cell_angle_alpha   81.34403343
_cell_angle_beta   90.00000000
_cell_angle_gamma   90.00000000
_symmetry_Int_Tables_number   1
_chemical_formula_structural   Tb3ThP7Ir8
_chemical_formula_sum   'Tb6 Th2 P14 Ir16'
_cell_volume   655.58669563
_cell_formula_units_Z   2
loop_
 _symmetry_equiv_pos_site_id
 _symmetry_equiv_pos_as_xyz
  1  'x, y, z'
loop_
 _atom_site_type_symbol
 _atom_site_label
 _atom_site_symmetry_multiplicity
 _atom_site_fract_x
 _atom_site_fract_y
 _atom_site_fract_z
 _atom_site_occupancy
  Tb  Tb0  1  0.750000  0.791506  0.561033  1
  Tb  Tb1  1  0.250000  0.206466  0.440809  1
  Tb  Tb2  1  0.750000  0.480230  0.707938  1
  Tb  Tb3  1  0.250000  0.519370  0.293588  1
  Tb  Tb4  1  0.750000  0.719016  0.899773  1
  Tb  Tb5  1  0.250000  0.103337  0.792529  1
  Th  Th6  1  0.750000  0.892500  0.211879  1
  Th  Th7  1  0.250000  0.283169  0.103048  1
  P  P8  1  0.250000  0.906231  0.411939  1
  P  P9  1  0.750000  0.474185  0.127633  1
  P  P10  1  0.250000  0.528861  0.870486  1
  P  P11  1  0.750000  0.093187  0.590033  1
  P  P12  1  0.250000  0.745118  0.080792  1
  P  P13  1  0.750000  0.256861  0.917145  1
  P  P14  1  0.750000  0.157904  0.283286  1
  P  P15  1  0.250000  0.843461  0.716260  1
  P  P16  1  0.250000  0.053518  0.097429  1
  P  P17  1  0.750000  0.947016  0.897772  1
  P  P18  1  0.250000  0.311930  0.688621  1
  P  P19  1  0.750000  0.682158  0.313156  1
  P  P20  1  0.250000  0.607268  0.567531  1
  P  P21  1  0.750000  0.391161  0.435546  1
  Ir  Ir22  1  0.250000  0.990470  0.574568  1
  Ir  Ir23  1  0.750000  0.008426  0.421841  1
  Ir  Ir24  1  0.250000  0.663395  0.730550  1
  Ir  Ir25  1  0.750000  0.339317  0.269384  1
  Ir  Ir26  1  0.250000  0.552895  0.046880  1
  Ir  Ir27  1  0.750000  0.447810  0.952550  1
  Ir  Ir28  1  0.250000  0.062722  0.272366  1
  Ir  Ir29  1  0.750000  0.940026  0.724953  1
  Ir  Ir30  1  0.250000  0.422560  0.524702  1
  Ir  Ir31  1  0.750000  0.576724  0.477222  1
  Ir  Ir32  1  0.250000  0.917188  0.994658  1
  Ir  Ir33  1  0.750000  0.084059  0.000928  1
  Ir  Ir34  1  0.250000  0.727959  0.397016  1
  Ir  Ir35  1  0.750000  0.271721  0.604490  1
  Ir  Ir36  1  0.250000  0.340635  0.858499  1
  Ir  Ir37  1  0.750000  0.659641  0.141170  1
