# generated using pymatgen
data_VRu3F20
_symmetry_space_group_name_H-M   'P 1'
_cell_length_a   10.33096337
_cell_length_b   5.65555915
_cell_length_c   7.63464772
_cell_angle_alpha   89.94721849
_cell_angle_beta   90.34308511
_cell_angle_gamma   90.05555861
_symmetry_Int_Tables_number   1
_chemical_formula_structural   VRu3F20
_chemical_formula_sum   'V1 Ru3 F20'
_cell_volume   446.06402685
_cell_formula_units_Z   1
loop_
 _symmetry_equiv_pos_site_id
 _symmetry_equiv_pos_as_xyz
  1  'x, y, z'
loop_
 _atom_site_type_symbol
 _atom_site_label
 _atom_site_symmetry_multiplicity
 _atom_site_fract_x
 _atom_site_fract_y
 _atom_site_fract_z
 _atom_site_occupancy
  V  V0  1  0.890967  0.015889  0.427301  1
  Ru  Ru1  1  0.385862  0.983727  0.577055  1
  Ru  Ru2  1  0.781488  0.515826  0.128650  1
  Ru  Ru3  1  0.280091  0.484000  0.876886  1
  F  F4  1  0.269325  0.989980  0.388554  1
  F  F5  1  0.481878  0.976181  0.785188  1
  F  F6  1  0.772020  0.774036  0.310483  1
  F  F7  1  0.486072  0.754521  0.473648  1
  F  F8  1  0.980235  0.781265  0.512532  1
  F  F9  1  0.785095  0.742899  0.954685  1
  F  F10  1  0.288441  0.730933  0.033550  1
  F  F11  1  0.269734  0.724380  0.676486  1
  F  F12  1  0.961660  0.522577  0.160038  1
  F  F13  1  0.600878  0.511660  0.136378  1
  F  F14  1  0.099500  0.487880  0.868329  1
  F  F15  1  0.458651  0.477145  0.840887  1
  F  F16  1  0.776641  0.275816  0.324542  1
  F  F17  1  0.787596  0.271288  0.968693  1
  F  F18  1  0.285452  0.257244  0.049936  1
  F  F19  1  0.480796  0.231070  0.487298  1
  F  F20  1  0.985393  0.234695  0.524633  1
  F  F21  1  0.264803  0.220844  0.693638  1
  F  F22  1  0.962942  0.023901  0.219254  1
  F  F23  1  0.765292  0.012242  0.581357  1
