# generated using pymatgen
data_Th10CuSn7
_symmetry_space_group_name_H-M   'P 1'
_cell_length_a   6.57513802
_cell_length_b   9.62914187
_cell_length_c   9.62931701
_cell_angle_alpha   119.99940454
_cell_angle_beta   89.99995567
_cell_angle_gamma   90.00007928
_symmetry_Int_Tables_number   1
_chemical_formula_structural   Th10CuSn7
_chemical_formula_sum   'Th10 Cu1 Sn7'
_cell_volume   527.98450911
_cell_formula_units_Z   1
loop_
 _symmetry_equiv_pos_site_id
 _symmetry_equiv_pos_as_xyz
  1  'x, y, z'
loop_
 _atom_site_type_symbol
 _atom_site_label
 _atom_site_symmetry_multiplicity
 _atom_site_fract_x
 _atom_site_fract_y
 _atom_site_fract_z
 _atom_site_occupancy
  Th  Th0  1  0.500000  0.333341  0.666684  1
  Th  Th1  1  0.500000  0.666657  0.333316  1
  Th  Th2  1  0.000002  0.666660  0.333321  1
  Th  Th3  1  0.000002  0.333339  0.666679  1
  Th  Th4  1  0.739144  0.271319  0.000000  1
  Th  Th5  1  0.739155  0.728678  0.728671  1
  Th  Th6  1  0.739155  0.000008  0.271329  1
  Th  Th7  1  0.260851  0.728683  0.000000  1
  Th  Th8  1  0.260850  0.271320  0.271328  1
  Th  Th9  1  0.260850  0.999992  0.728672  1
  Cu  Cu10  1  0.499999  0.000000  0.000000  1
  Sn  Sn11  1  0.752704  0.619535  0.000000  1
  Sn  Sn12  1  0.752719  0.380492  0.380486  1
  Sn  Sn13  1  0.752719  0.000006  0.619514  1
  Sn  Sn14  1  0.247282  0.380470  0.000000  1
  Sn  Sn15  1  0.247283  0.619506  0.619515  1
  Sn  Sn16  1  0.247283  0.999992  0.380485  1
  Sn  Sn17  1  0.000001  0.000001  0.000000  1
