# generated using pymatgen
data_Tb16Al4IrPd3
_symmetry_space_group_name_H-M   'P 1'
_cell_length_a   9.61670626
_cell_length_b   9.66026431
_cell_length_c   9.61670500
_cell_angle_alpha   60.14904538
_cell_angle_beta   60.00000090
_cell_angle_gamma   60.14903916
_symmetry_Int_Tables_number   1
_chemical_formula_structural   Tb16Al4IrPd3
_chemical_formula_sum   'Tb16 Al4 Ir1 Pd3'
_cell_volume   633.14234667
_cell_formula_units_Z   1
loop_
 _symmetry_equiv_pos_site_id
 _symmetry_equiv_pos_as_xyz
  1  'x, y, z'
loop_
 _atom_site_type_symbol
 _atom_site_label
 _atom_site_symmetry_multiplicity
 _atom_site_fract_x
 _atom_site_fract_y
 _atom_site_fract_z
 _atom_site_occupancy
  Tb  Tb0  1  0.106667  0.680001  0.106667  1
  Tb  Tb1  1  0.943197  0.944078  0.556362  1
  Tb  Tb2  1  0.941996  0.554059  0.941996  1
  Tb  Tb3  1  0.313319  0.688521  0.313319  1
  Tb  Tb4  1  0.941996  0.554059  0.561948  1
  Tb  Tb5  1  0.308921  0.316512  0.687283  1
  Tb  Tb6  1  0.102647  0.108031  0.102647  1
  Tb  Tb7  1  0.561948  0.554059  0.941996  1
  Tb  Tb8  1  0.102647  0.108031  0.686677  1
  Tb  Tb9  1  0.687283  0.316512  0.687283  1
  Tb  Tb10  1  0.684842  0.688521  0.313319  1
  Tb  Tb11  1  0.687283  0.316512  0.308921  1
  Tb  Tb12  1  0.313319  0.688521  0.684842  1
  Tb  Tb13  1  0.556362  0.944078  0.556362  1
  Tb  Tb14  1  0.686677  0.108031  0.102647  1
  Tb  Tb15  1  0.556362  0.944078  0.943197  1
  Al  Al16  1  0.328313  0.325905  0.328313  1
  Al  Al17  1  0.017469  0.325905  0.328313  1
  Al  Al18  1  0.327696  0.016910  0.327696  1
  Al  Al19  1  0.328313  0.325905  0.017469  1
  Ir  Ir20  1  0.893929  0.318215  0.893929  1
  Pd  Pd21  1  0.896219  0.891185  0.896219  1
  Pd  Pd22  1  0.896219  0.891185  0.316376  1
  Pd  Pd23  1  0.316376  0.891185  0.896219  1
