# generated using pymatgen
data_Ta3(Al2Cu)2
_symmetry_space_group_name_H-M   'P 1'
_cell_length_a   8.74797075
_cell_length_b   8.81348382
_cell_length_c   8.14131200
_cell_angle_alpha   90.00000000
_cell_angle_beta   90.00000000
_cell_angle_gamma   120.97675622
_symmetry_Int_Tables_number   1
_chemical_formula_structural   Ta3(Al2Cu)2
_chemical_formula_sum   'Ta12 Al16 Cu8'
_cell_volume   538.17155752
_cell_formula_units_Z   4
loop_
 _symmetry_equiv_pos_site_id
 _symmetry_equiv_pos_as_xyz
  1  'x, y, z'
loop_
 _atom_site_type_symbol
 _atom_site_label
 _atom_site_symmetry_multiplicity
 _atom_site_fract_x
 _atom_site_fract_y
 _atom_site_fract_z
 _atom_site_occupancy
  Ta  Ta0  1  0.328263  0.991798  0.064767  1
  Ta  Ta1  1  0.671737  0.008202  0.935233  1
  Ta  Ta2  1  0.997730  0.328774  0.067416  1
  Ta  Ta3  1  0.671737  0.008202  0.564767  1
  Ta  Ta4  1  0.997730  0.328774  0.432584  1
  Ta  Ta5  1  0.002270  0.671226  0.932584  1
  Ta  Ta6  1  0.328263  0.991798  0.435233  1
  Ta  Ta7  1  0.002270  0.671226  0.567416  1
  Ta  Ta8  1  0.667540  0.663552  0.064653  1
  Ta  Ta9  1  0.332460  0.336448  0.935347  1
  Ta  Ta10  1  0.332460  0.336448  0.564653  1
  Ta  Ta11  1  0.667540  0.663552  0.435347  1
  Al  Al12  1  0.344438  0.848304  0.750000  1
  Al  Al13  1  0.653998  0.505489  0.750000  1
  Al  Al14  1  0.655562  0.151696  0.250000  1
  Al  Al15  1  0.346002  0.494511  0.250000  1
  Al  Al16  1  0.844816  0.342473  0.750000  1
  Al  Al17  1  0.155184  0.657527  0.250000  1
  Al  Al18  1  0.339855  0.665313  0.505252  1
  Al  Al19  1  0.660145  0.334687  0.494748  1
  Al  Al20  1  0.660145  0.334687  0.005252  1
  Al  Al21  1  0.339855  0.665313  0.994748  1
  Al  Al22  1  0.179575  0.009595  0.750000  1
  Al  Al23  1  0.820425  0.990405  0.250000  1
  Al  Al24  1  0.009057  0.181107  0.750000  1
  Al  Al25  1  0.990943  0.818893  0.250000  1
  Al  Al26  1  0.824931  0.834222  0.750000  1
  Al  Al27  1  0.175069  0.165778  0.250000  1
  Cu  Cu28  1  0.000000  0.000000  0.500000  1
  Cu  Cu29  1  0.000000  0.000000  0.000000  1
  Cu  Cu30  1  0.167145  0.501939  0.750000  1
  Cu  Cu31  1  0.832855  0.498061  0.250000  1
  Cu  Cu32  1  0.505556  0.672762  0.750000  1
  Cu  Cu33  1  0.503485  0.171070  0.750000  1
  Cu  Cu34  1  0.494444  0.327238  0.250000  1
  Cu  Cu35  1  0.496515  0.828930  0.250000  1
