# generated using pymatgen
data_Ca14CdSb11
_symmetry_space_group_name_H-M   'P 1'
_cell_length_a   16.32875127
_cell_length_b   16.32875065
_cell_length_c   16.32875100
_cell_angle_alpha   118.33509099
_cell_angle_beta   118.33508982
_cell_angle_gamma   92.90873859
_symmetry_Int_Tables_number   1
_chemical_formula_structural   Ca14CdSb11
_chemical_formula_sum   'Ca56 Cd4 Sb44'
_cell_volume   3151.61190325
_cell_formula_units_Z   4
loop_
 _symmetry_equiv_pos_site_id
 _symmetry_equiv_pos_as_xyz
  1  'x, y, z'
loop_
 _atom_site_type_symbol
 _atom_site_label
 _atom_site_symmetry_multiplicity
 _atom_site_fract_x
 _atom_site_fract_y
 _atom_site_fract_z
 _atom_site_occupancy
  Ca  Ca0  1  0.493401  0.096301  0.350768  1
  Ca  Ca1  1  0.004467  0.107367  0.850768  1
  Ca  Ca2  1  0.352615  0.374384  0.661675  1
  Ca  Ca3  1  0.857367  0.506599  0.602900  1
  Ca  Ca4  1  0.403699  0.006599  0.649232  1
  Ca  Ca5  1  0.125000  0.729882  0.104882  1
  Ca  Ca6  1  0.256599  0.153699  0.149232  1
  Ca  Ca7  1  0.472389  0.252473  0.132923  1
  Ca  Ca8  1  0.277611  0.997527  0.367077  1
  Ca  Ca9  1  0.625616  0.287290  0.978231  1
  Ca  Ca10  1  0.089466  0.722389  0.719917  1
  Ca  Ca11  1  0.440941  0.602615  0.478231  1
  Ca  Ca12  1  0.212710  0.874384  0.021769  1
  Ca  Ca13  1  0.125616  0.147385  0.338325  1
  Ca  Ca14  1  0.245533  0.596301  0.602900  1
  Ca  Ca15  1  0.504467  0.653699  0.897100  1
  Ca  Ca16  1  0.770118  0.375000  0.895118  1
  Ca  Ca17  1  0.397385  0.875616  0.838325  1
  Ca  Ca18  1  0.630451  0.910534  0.632923  1
  Ca  Ca19  1  0.479882  0.875000  0.104882  1
  Ca  Ca20  1  0.125000  0.229882  0.604882  1
  Ca  Ca21  1  0.625000  0.020118  0.895118  1
  Ca  Ca22  1  0.346301  0.243401  0.850768  1
  Ca  Ca23  1  0.357367  0.754467  0.350768  1
  Ca  Ca24  1  0.247527  0.027611  0.867077  1
  Ca  Ca25  1  0.940941  0.462710  0.838325  1
  Ca  Ca26  1  0.747527  0.880451  0.219917  1
  Ca  Ca27  1  0.037290  0.559059  0.161675  1
  Ca  Ca28  1  0.777611  0.410534  0.280083  1
  Ca  Ca29  1  0.160534  0.380451  0.132923  1
  Ca  Ca30  1  0.309059  0.647385  0.021769  1
  Ca  Ca31  1  0.002473  0.369549  0.280083  1
  Ca  Ca32  1  0.619549  0.752473  0.780083  1
  Ca  Ca33  1  0.660534  0.527611  0.780083  1
  Ca  Ca34  1  0.270118  0.375000  0.395118  1
  Ca  Ca35  1  0.756599  0.607367  0.102900  1
  Ca  Ca36  1  0.993401  0.642633  0.397100  1
  Ca  Ca37  1  0.852615  0.190941  0.978231  1
  Ca  Ca38  1  0.897385  0.059059  0.521769  1
  Ca  Ca39  1  0.712710  0.690941  0.338325  1
  Ca  Ca40  1  0.846301  0.995533  0.102900  1
  Ca  Ca41  1  0.119549  0.339466  0.867077  1
  Ca  Ca42  1  0.903699  0.254467  0.397100  1
  Ca  Ca43  1  0.892633  0.743401  0.897100  1
  Ca  Ca44  1  0.502473  0.222389  0.632923  1
  Ca  Ca45  1  0.625000  0.520118  0.395118  1
  Ca  Ca46  1  0.624384  0.102615  0.161675  1
  Ca  Ca47  1  0.589466  0.869549  0.367077  1
  Ca  Ca48  1  0.130451  0.497527  0.719917  1
  Ca  Ca49  1  0.979882  0.875000  0.604882  1
  Ca  Ca50  1  0.392633  0.495533  0.149232  1
  Ca  Ca51  1  0.537290  0.375616  0.478231  1
  Ca  Ca52  1  0.124384  0.962710  0.521769  1
  Ca  Ca53  1  0.972389  0.839466  0.219917  1
  Ca  Ca54  1  0.809059  0.787290  0.661675  1
  Ca  Ca55  1  0.745533  0.142633  0.649232  1
  Cd  Cd56  1  0.500000  0.500000  0.000000  1
  Cd  Cd57  1  0.750000  0.250000  0.500000  1
  Cd  Cd58  1  0.000000  0.000000  0.000000  1
  Cd  Cd59  1  0.250000  0.750000  0.500000  1
  Sb  Sb60  1  0.788310  0.934911  0.860787  1
  Sb  Sb61  1  0.447361  0.542254  0.644491  1
  Sb  Sb62  1  0.385823  0.385823  0.271646  1
  Sb  Sb63  1  0.864177  0.635823  0.500000  1
  Sb  Sb64  1  0.292254  0.147763  0.594894  1
  Sb  Sb65  1  0.574123  0.434911  0.146600  1
  Sb  Sb66  1  0.961690  0.315089  0.639213  1
  Sb  Sb67  1  0.565089  0.711690  0.139213  1
  Sb  Sb68  1  0.684911  0.324123  0.646600  1
  Sb  Sb69  1  0.184911  0.538310  0.360787  1
  Sb  Sb70  1  0.461690  0.822478  0.646600  1
  Sb  Sb71  1  0.302639  0.707746  0.855509  1
  Sb  Sb72  1  0.792254  0.197361  0.144491  1
  Sb  Sb73  1  0.552870  0.697361  0.405106  1
  Sb  Sb74  1  0.065089  0.925877  0.853400  1
  Sb  Sb75  1  0.947361  0.302870  0.905106  1
  Sb  Sb76  1  0.750000  0.750000  0.000000  1
  Sb  Sb77  1  0.852237  0.447130  0.144491  1
  Sb  Sb78  1  0.635823  0.135823  0.771646  1
  Sb  Sb79  1  0.697130  0.602237  0.644491  1
  Sb  Sb80  1  0.957746  0.052639  0.355509  1
  Sb  Sb81  1  0.802639  0.947130  0.594894  1
  Sb  Sb82  1  0.500000  0.000000  0.500000  1
  Sb  Sb83  1  0.114177  0.114177  0.728354  1
  Sb  Sb84  1  0.052870  0.647763  0.855509  1
  Sb  Sb85  1  0.072478  0.211690  0.146600  1
  Sb  Sb86  1  0.288310  0.427522  0.853400  1
  Sb  Sb87  1  0.397763  0.042254  0.094894  1
  Sb  Sb88  1  0.897763  0.802870  0.355509  1
  Sb  Sb89  1  0.177522  0.824123  0.639213  1
  Sb  Sb90  1  0.000000  0.500000  0.500000  1
  Sb  Sb91  1  0.197130  0.552639  0.094894  1
  Sb  Sb92  1  0.135823  0.364177  0.500000  1
  Sb  Sb93  1  0.175877  0.815089  0.353400  1
  Sb  Sb94  1  0.457746  0.102237  0.905106  1
  Sb  Sb95  1  0.074123  0.927522  0.139213  1
  Sb  Sb96  1  0.675877  0.322478  0.360787  1
  Sb  Sb97  1  0.352237  0.207746  0.405106  1
  Sb  Sb98  1  0.250000  0.250000  0.000000  1
  Sb  Sb99  1  0.572478  0.425877  0.860787  1
  Sb  Sb100  1  0.677522  0.038310  0.353400  1
  Sb  Sb101  1  0.885823  0.614177  0.000000  1
  Sb  Sb102  1  0.614177  0.885823  0.000000  1
  Sb  Sb103  1  0.364177  0.864177  0.228354  1
