# generated using pymatgen
data_U2P7Ru12
_symmetry_space_group_name_H-M   'P 1'
_cell_length_a   9.56375928
_cell_length_b   9.56707696
_cell_length_c   3.82472000
_cell_angle_alpha   90.00000000
_cell_angle_beta   90.00000000
_cell_angle_gamma   120.01642847
_symmetry_Int_Tables_number   1
_chemical_formula_structural   U2P7Ru12
_chemical_formula_sum   'U2 P7 Ru12'
_cell_volume   303.01649065
_cell_formula_units_Z   1
loop_
 _symmetry_equiv_pos_site_id
 _symmetry_equiv_pos_as_xyz
  1  'x, y, z'
loop_
 _atom_site_type_symbol
 _atom_site_label
 _atom_site_symmetry_multiplicity
 _atom_site_fract_x
 _atom_site_fract_y
 _atom_site_fract_z
 _atom_site_occupancy
  U  U0  1  0.666744  0.333236  0.500000  1
  U  U1  1  0.333405  0.666774  0.000000  1
  P  P2  1  0.599464  0.709579  0.500000  1
  P  P3  1  0.999943  0.000021  0.000000  1
  P  P4  1  0.290231  0.889768  0.500000  1
  P  P5  1  0.110299  0.400602  0.500000  1
  P  P6  1  0.889828  0.597198  0.000000  1
  P  P7  1  0.402849  0.292609  0.000000  1
  P  P8  1  0.707417  0.110224  0.000000  1
  Ru  Ru9  1  0.550488  0.931798  0.500000  1
  Ru  Ru10  1  0.381386  0.449284  0.500000  1
  Ru  Ru11  1  0.886658  0.137392  0.500000  1
  Ru  Ru12  1  0.250402  0.113145  0.500000  1
  Ru  Ru13  1  0.862770  0.749611  0.500000  1
  Ru  Ru14  1  0.729551  0.877722  0.000000  1
  Ru  Ru15  1  0.122249  0.851867  0.000000  1
  Ru  Ru16  1  0.148146  0.270422  0.000000  1
  Ru  Ru17  1  0.448839  0.074729  0.000000  1
  Ru  Ru18  1  0.925323  0.374171  0.000000  1
  Ru  Ru19  1  0.625976  0.551139  0.000000  1
  Ru  Ru20  1  0.068033  0.618708  0.500000  1
