# generated using pymatgen
data_Tb2Y4NiBr10
_symmetry_space_group_name_H-M   'P 1'
_cell_length_a   7.34097256
_cell_length_b   9.17289327
_cell_length_c   9.26024900
_cell_angle_alpha   107.97752754
_cell_angle_beta   96.93663587
_cell_angle_gamma   105.32199373
_symmetry_Int_Tables_number   1
_chemical_formula_structural   Tb2Y4NiBr10
_chemical_formula_sum   'Tb2 Y4 Ni1 Br10'
_cell_volume   557.95385113
_cell_formula_units_Z   1
loop_
 _symmetry_equiv_pos_site_id
 _symmetry_equiv_pos_as_xyz
  1  'x, y, z'
loop_
 _atom_site_type_symbol
 _atom_site_label
 _atom_site_symmetry_multiplicity
 _atom_site_fract_x
 _atom_site_fract_y
 _atom_site_fract_z
 _atom_site_occupancy
  Tb  Tb0  1  0.124696  0.046943  0.758376  1
  Tb  Tb1  1  0.875304  0.953057  0.241624  1
  Y  Y2  1  0.970733  0.294558  0.093232  1
  Y  Y3  1  0.029267  0.705442  0.906768  1
  Y  Y4  1  0.645845  0.869087  0.824072  1
  Y  Y5  1  0.354155  0.130913  0.175928  1
  Ni  Ni6  1  0.000000  0.000000  0.000000  1
  Br  Br7  1  0.547833  0.178581  0.916088  1
  Br  Br8  1  0.452167  0.821419  0.083912  1
  Br  Br9  1  0.750529  0.916471  0.543141  1
  Br  Br10  1  0.249471  0.083529  0.456859  1
  Br  Br11  1  0.086750  0.372522  0.829479  1
  Br  Br12  1  0.913250  0.627478  0.170521  1
  Br  Br13  1  0.219557  0.744937  0.655508  1
  Br  Br14  1  0.780443  0.255063  0.344492  1
  Br  Br15  1  0.647408  0.547371  0.726785  1
  Br  Br16  1  0.352592  0.452629  0.273215  1
