# generated using pymatgen
data_Yb5Pr8Y7Si16
_symmetry_space_group_name_H-M   'P 1'
_cell_length_a   7.51005861
_cell_length_b   7.88064358
_cell_length_c   14.99134354
_cell_angle_alpha   89.96455513
_cell_angle_beta   90.09253680
_cell_angle_gamma   90.08601681
_symmetry_Int_Tables_number   1
_chemical_formula_structural   Yb5Pr8Y7Si16
_chemical_formula_sum   'Yb5 Pr8 Y7 Si16'
_cell_volume   887.24677728
_cell_formula_units_Z   1
loop_
 _symmetry_equiv_pos_site_id
 _symmetry_equiv_pos_as_xyz
  1  'x, y, z'
loop_
 _atom_site_type_symbol
 _atom_site_label
 _atom_site_symmetry_multiplicity
 _atom_site_fract_x
 _atom_site_fract_y
 _atom_site_fract_z
 _atom_site_occupancy
  Yb  Yb0  1  0.321258  0.180699  0.622207  1
  Yb  Yb1  1  0.650807  0.989353  0.749025  1
  Yb  Yb2  1  0.846875  0.487434  0.249926  1
  Yb  Yb3  1  0.346312  0.012819  0.249760  1
  Yb  Yb4  1  0.153959  0.509377  0.748725  1
  Pr  Pr5  1  0.025288  0.181532  0.400605  1
  Pr  Pr6  1  0.525608  0.317842  0.400800  1
  Pr  Pr7  1  0.473956  0.681826  0.901060  1
  Pr  Pr8  1  0.474350  0.681355  0.599390  1
  Pr  Pr9  1  0.974901  0.818599  0.599158  1
  Pr  Pr10  1  0.974681  0.818284  0.902202  1
  Pr  Pr11  1  0.525701  0.318870  0.099001  1
  Pr  Pr12  1  0.025747  0.181899  0.099606  1
  Y  Y13  1  0.677796  0.819325  0.375859  1
  Y  Y14  1  0.178673  0.680871  0.376478  1
  Y  Y15  1  0.823229  0.317137  0.876964  1
  Y  Y16  1  0.822190  0.318880  0.623569  1
  Y  Y17  1  0.322277  0.182231  0.877096  1
  Y  Y18  1  0.178256  0.681492  0.123345  1
  Y  Y19  1  0.678405  0.818770  0.123110  1
  Si  Si20  1  0.261904  0.883712  0.752031  1
  Si  Si21  1  0.469051  0.607031  0.249946  1
  Si  Si22  1  0.030025  0.106863  0.752238  1
  Si  Si23  1  0.534032  0.396682  0.751515  1
  Si  Si24  1  0.141565  0.473283  0.536252  1
  Si  Si25  1  0.968765  0.891686  0.250032  1
  Si  Si26  1  0.735357  0.112086  0.249776  1
  Si  Si27  1  0.852963  0.531696  0.035525  1
  Si  Si28  1  0.353011  0.968930  0.035691  1
  Si  Si29  1  0.147060  0.467934  0.964304  1
  Si  Si30  1  0.650454  0.030830  0.534739  1
  Si  Si31  1  0.356490  0.966773  0.461893  1
  Si  Si32  1  0.852433  0.532104  0.463492  1
  Si  Si33  1  0.765889  0.612368  0.750899  1
  Si  Si34  1  0.234198  0.388204  0.249883  1
  Si  Si35  1  0.646533  0.031220  0.963896  1
