# generated using pymatgen
data_Na6MgNi3(SbO6)2
_symmetry_space_group_name_H-M   'P 1'
_cell_length_a   9.29881300
_cell_length_b   5.36911099
_cell_length_c   5.70562541
_cell_angle_alpha   71.69145937
_cell_angle_beta   90.00000000
_cell_angle_gamma   90.00000000
_symmetry_Int_Tables_number   1
_chemical_formula_structural   Na6MgNi3(SbO6)2
_chemical_formula_sum   'Na6 Mg1 Ni3 Sb2 O12'
_cell_volume   270.44105312
_cell_formula_units_Z   1
loop_
 _symmetry_equiv_pos_site_id
 _symmetry_equiv_pos_as_xyz
  1  'x, y, z'
loop_
 _atom_site_type_symbol
 _atom_site_label
 _atom_site_symmetry_multiplicity
 _atom_site_fract_x
 _atom_site_fract_y
 _atom_site_fract_z
 _atom_site_occupancy
  Na  Na0  1  0.999213  0.500000  0.500000  1
  Na  Na1  1  0.825857  0.000000  0.500000  1
  Na  Na2  1  0.171990  0.000000  0.500000  1
  Na  Na3  1  0.502098  0.000000  0.500000  1
  Na  Na4  1  0.325973  0.500000  0.500000  1
  Na  Na5  1  0.674023  0.500000  0.500000  1
  Mg  Mg6  1  0.333873  0.000000  0.000000  1
  Ni  Ni7  1  0.166428  0.500000  0.000000  1
  Ni  Ni8  1  0.833656  0.500000  0.000000  1
  Ni  Ni9  1  0.666107  0.000000  0.000000  1
  Sb  Sb10  1  0.999436  0.000000  0.000000  1
  Sb  Sb11  1  0.500582  0.500000  0.000000  1
  O  O12  1  0.158773  0.226543  0.795042  1
  O  O13  1  0.999843  0.250319  0.203616  1
  O  O14  1  0.999843  0.749681  0.796384  1
  O  O15  1  0.840269  0.227165  0.795553  1
  O  O16  1  0.158773  0.773457  0.204958  1
  O  O17  1  0.840269  0.772835  0.204447  1
  O  O18  1  0.659934  0.727460  0.795991  1
  O  O19  1  0.499944  0.748884  0.204455  1
  O  O20  1  0.499944  0.251116  0.795545  1
  O  O21  1  0.341618  0.727955  0.795046  1
  O  O22  1  0.659934  0.272540  0.204009  1
  O  O23  1  0.341618  0.272045  0.204954  1
