# generated using pymatgen
data_HfZn2InRh4
_symmetry_space_group_name_H-M   'P 1'
_cell_length_a   4.45109600
_cell_length_b   6.24725000
_cell_length_c   13.40406900
_cell_angle_alpha   90.00000000
_cell_angle_beta   90.00110065
_cell_angle_gamma   90.00000000
_symmetry_Int_Tables_number   1
_chemical_formula_structural   HfZn2InRh4
_chemical_formula_sum   'Hf3 Zn6 In3 Rh12'
_cell_volume   372.72841421
_cell_formula_units_Z   3
loop_
 _symmetry_equiv_pos_site_id
 _symmetry_equiv_pos_as_xyz
  1  'x, y, z'
loop_
 _atom_site_type_symbol
 _atom_site_label
 _atom_site_symmetry_multiplicity
 _atom_site_fract_x
 _atom_site_fract_y
 _atom_site_fract_z
 _atom_site_occupancy
  Hf  Hf0  1  0.000005  0.000000  0.998763  1
  Hf  Hf1  1  0.499904  0.500000  0.166656  1
  Hf  Hf2  1  0.999894  0.000000  0.334517  1
  Zn  Zn3  1  0.000003  0.500000  0.000502  1
  Zn  Zn4  1  0.499901  0.000000  0.166662  1
  Zn  Zn5  1  0.999899  0.500000  0.332798  1
  Zn  Zn6  1  0.499983  0.000000  0.500542  1
  Zn  Zn7  1  0.000121  0.500000  0.666660  1
  Zn  Zn8  1  0.500112  0.000000  0.832739  1
  In  In9  1  0.499997  0.500000  0.501707  1
  In  In10  1  0.000210  0.000000  0.666697  1
  In  In11  1  0.500167  0.500000  0.831749  1
  Rh  Rh12  1  0.499995  0.251080  0.001113  1
  Rh  Rh13  1  0.499995  0.748921  0.001113  1
  Rh  Rh14  1  0.999904  0.249732  0.166629  1
  Rh  Rh15  1  0.999904  0.750267  0.166629  1
  Rh  Rh16  1  0.499896  0.251136  0.332226  1
  Rh  Rh17  1  0.499896  0.748863  0.332226  1
  Rh  Rh18  1  0.999962  0.248421  0.496754  1
  Rh  Rh19  1  0.999962  0.751579  0.496754  1
  Rh  Rh20  1  0.499968  0.249215  0.666683  1
  Rh  Rh21  1  0.499968  0.750784  0.666683  1
  Rh  Rh22  1  0.000179  0.248581  0.836599  1
  Rh  Rh23  1  0.000179  0.751418  0.836599  1
