# generated using pymatgen
data_LaSm11(SiAu)12
_symmetry_space_group_name_H-M   'P 1'
_cell_length_a   4.43980100
_cell_length_b   7.71812806
_cell_length_c   22.94742200
_cell_angle_alpha   89.99291795
_cell_angle_beta   90.00000000
_cell_angle_gamma   90.00000000
_symmetry_Int_Tables_number   1
_chemical_formula_structural   LaSm11(SiAu)12
_chemical_formula_sum   'La1 Sm11 Si12 Au12'
_cell_volume   786.33821766
_cell_formula_units_Z   1
loop_
 _symmetry_equiv_pos_site_id
 _symmetry_equiv_pos_as_xyz
  1  'x, y, z'
loop_
 _atom_site_type_symbol
 _atom_site_label
 _atom_site_symmetry_multiplicity
 _atom_site_fract_x
 _atom_site_fract_y
 _atom_site_fract_z
 _atom_site_occupancy
  La  La0  1  0.250000  0.755508  0.498636  1
  Sm  Sm1  1  0.250000  0.741155  0.330363  1
  Sm  Sm2  1  0.750000  0.253279  0.668393  1
  Sm  Sm3  1  0.750000  0.238157  0.164868  1
  Sm  Sm4  1  0.250000  0.754319  0.835128  1
  Sm  Sm5  1  0.250000  0.758833  0.164834  1
  Sm  Sm6  1  0.750000  0.246039  0.835442  1
  Sm  Sm7  1  0.750000  0.257141  0.330266  1
  Sm  Sm8  1  0.250000  0.748695  0.668893  1
  Sm  Sm9  1  0.250000  0.739739  0.999755  1
  Sm  Sm10  1  0.750000  0.259654  0.000857  1
  Sm  Sm11  1  0.750000  0.246383  0.499392  1
  Si  Si12  1  0.250000  0.084175  0.079409  1
  Si  Si13  1  0.750000  0.916196  0.922608  1
  Si  Si14  1  0.750000  0.581720  0.417633  1
  Si  Si15  1  0.250000  0.415342  0.582275  1
  Si  Si16  1  0.250000  0.083388  0.247447  1
  Si  Si17  1  0.750000  0.916545  0.753960  1
  Si  Si18  1  0.750000  0.583266  0.247769  1
  Si  Si19  1  0.250000  0.416072  0.753304  1
  Si  Si20  1  0.250000  0.085906  0.415810  1
  Si  Si21  1  0.750000  0.918807  0.583528  1
  Si  Si22  1  0.750000  0.584017  0.083281  1
  Si  Si23  1  0.250000  0.415042  0.919212  1
  Au  Au24  1  0.250000  0.416129  0.243139  1
  Au  Au25  1  0.750000  0.582978  0.753332  1
  Au  Au26  1  0.750000  0.916369  0.252166  1
  Au  Au27  1  0.250000  0.083982  0.750767  1
  Au  Au28  1  0.250000  0.414894  0.412607  1
  Au  Au29  1  0.750000  0.582591  0.587773  1
  Au  Au30  1  0.750000  0.916694  0.078555  1
  Au  Au31  1  0.250000  0.082154  0.920383  1
  Au  Au32  1  0.250000  0.417510  0.088156  1
  Au  Au33  1  0.750000  0.583195  0.914429  1
  Au  Au34  1  0.750000  0.918915  0.405839  1
  Au  Au35  1  0.250000  0.085212  0.589791  1
