# generated using pymatgen
data_Ho2Sc3Tl3InCuRh
_symmetry_space_group_name_H-M   'P 1'
_cell_length_a   3.51913200
_cell_length_b   7.79553437
_cell_length_c   17.71563000
_cell_angle_alpha   89.79403553
_cell_angle_beta   90.00000000
_cell_angle_gamma   90.00000000
_symmetry_Int_Tables_number   1
_chemical_formula_structural   Ho2Sc3Tl3InCuRh
_chemical_formula_sum   'Ho4 Sc6 Tl6 In2 Cu2 Rh2'
_cell_volume   485.99885150
_cell_formula_units_Z   2
loop_
 _symmetry_equiv_pos_site_id
 _symmetry_equiv_pos_as_xyz
  1  'x, y, z'
loop_
 _atom_site_type_symbol
 _atom_site_label
 _atom_site_symmetry_multiplicity
 _atom_site_fract_x
 _atom_site_fract_y
 _atom_site_fract_z
 _atom_site_occupancy
  Ho  Ho0  1  0.000000  0.744283  0.783152  1
  Ho  Ho1  1  0.000000  0.255717  0.216848  1
  Ho  Ho2  1  0.000000  0.259537  0.716861  1
  Ho  Ho3  1  0.000000  0.740463  0.283139  1
  Sc  Sc4  1  0.000000  0.000000  0.000000  1
  Sc  Sc5  1  0.000000  0.500000  0.500000  1
  Sc  Sc6  1  0.000000  0.878868  0.583457  1
  Sc  Sc7  1  0.000000  0.121132  0.416543  1
  Sc  Sc8  1  0.000000  0.379164  0.912209  1
  Sc  Sc9  1  0.000000  0.620836  0.087791  1
  Tl  Tl10  1  0.500000  0.798511  0.439567  1
  Tl  Tl11  1  0.500000  0.201489  0.560433  1
  Tl  Tl12  1  0.500000  0.301436  0.058529  1
  Tl  Tl13  1  0.500000  0.698564  0.941471  1
  Tl  Tl14  1  0.500000  0.922252  0.148498  1
  Tl  Tl15  1  0.500000  0.077748  0.851502  1
  In  In16  1  0.500000  0.416647  0.354343  1
  In  In17  1  0.500000  0.583353  0.645657  1
  Cu  Cu18  1  0.500000  0.960529  0.692692  1
  Cu  Cu19  1  0.500000  0.039471  0.307308  1
  Rh  Rh20  1  0.500000  0.463742  0.805188  1
  Rh  Rh21  1  0.500000  0.536258  0.194812  1
