# generated using pymatgen
data_TbDyHo2(TiAl3)2
_symmetry_space_group_name_H-M   'P 1'
_cell_length_a   9.52849543
_cell_length_b   9.52849514
_cell_length_c   9.52849609
_cell_angle_alpha   34.77887236
_cell_angle_beta   34.77887498
_cell_angle_gamma   34.77887956
_symmetry_Int_Tables_number   1
_chemical_formula_structural   TbDyHo2(TiAl3)2
_chemical_formula_sum   'Tb1 Dy1 Ho2 Ti2 Al6'
_cell_volume   251.23391618
_cell_formula_units_Z   1
loop_
 _symmetry_equiv_pos_site_id
 _symmetry_equiv_pos_as_xyz
  1  'x, y, z'
loop_
 _atom_site_type_symbol
 _atom_site_label
 _atom_site_symmetry_multiplicity
 _atom_site_fract_x
 _atom_site_fract_y
 _atom_site_fract_z
 _atom_site_occupancy
  Tb  Tb0  1  0.813096  0.813096  0.813096  1
  Dy  Dy1  1  0.186833  0.186833  0.186833  1
  Ho  Ho2  1  0.313406  0.313406  0.313406  1
  Ho  Ho3  1  0.686535  0.686535  0.686535  1
  Ti  Ti4  1  0.500050  0.500050  0.500050  1
  Ti  Ti5  1  0.000042  0.000042  0.000042  1
  Al  Al6  1  0.250055  0.250055  0.749416  1
  Al  Al7  1  0.749966  0.749966  0.250581  1
  Al  Al8  1  0.250055  0.749416  0.250055  1
  Al  Al9  1  0.749966  0.250581  0.749966  1
  Al  Al10  1  0.749416  0.250055  0.250055  1
  Al  Al11  1  0.250581  0.749966  0.749966  1
