# generated using pymatgen
data_Pr16Tm4(Ir3Rh)3
_symmetry_space_group_name_H-M   'P 1'
_cell_length_a   11.21387800
_cell_length_b   11.21387800
_cell_length_c   6.57436800
_cell_angle_alpha   90.00000000
_cell_angle_beta   90.00000000
_cell_angle_gamma   90.00000000
_symmetry_Int_Tables_number   1
_chemical_formula_structural   Pr16Tm4(Ir3Rh)3
_chemical_formula_sum   'Pr16 Tm4 Ir9 Rh3'
_cell_volume   826.73374351
_cell_formula_units_Z   1
loop_
 _symmetry_equiv_pos_site_id
 _symmetry_equiv_pos_as_xyz
  1  'x, y, z'
loop_
 _atom_site_type_symbol
 _atom_site_label
 _atom_site_symmetry_multiplicity
 _atom_site_fract_x
 _atom_site_fract_y
 _atom_site_fract_z
 _atom_site_occupancy
  Pr  Pr0  1  0.287497  0.086749  0.383905  1
  Pr  Pr1  1  0.287184  0.912514  0.883773  1
  Pr  Pr2  1  0.712816  0.087486  0.883773  1
  Pr  Pr3  1  0.712503  0.913251  0.383905  1
  Pr  Pr4  1  0.587486  0.787184  0.883773  1
  Pr  Pr5  1  0.586749  0.212503  0.383905  1
  Pr  Pr6  1  0.413251  0.787497  0.383905  1
  Pr  Pr7  1  0.412514  0.212816  0.883773  1
  Pr  Pr8  1  0.212023  0.412694  0.615931  1
  Pr  Pr9  1  0.212560  0.587638  0.117860  1
  Pr  Pr10  1  0.787440  0.412362  0.117860  1
  Pr  Pr11  1  0.787977  0.587306  0.615931  1
  Pr  Pr12  1  0.912362  0.712560  0.117860  1
  Pr  Pr13  1  0.912694  0.287977  0.615931  1
  Pr  Pr14  1  0.087306  0.712023  0.615931  1
  Pr  Pr15  1  0.087638  0.287440  0.117860  1
  Tm  Tm16  1  0.000000  0.000000  0.500090  1
  Tm  Tm17  1  0.000000  0.000000  0.999972  1
  Tm  Tm18  1  0.500000  0.500000  0.999972  1
  Tm  Tm19  1  0.500000  0.500000  0.500090  1
  Ir  Ir20  1  0.852512  0.146604  0.249623  1
  Ir  Ir21  1  0.852946  0.852847  0.748994  1
  Ir  Ir22  1  0.147054  0.147153  0.748994  1
  Ir  Ir23  1  0.147488  0.853396  0.249623  1
  Ir  Ir24  1  0.647153  0.352946  0.748994  1
  Ir  Ir25  1  0.646604  0.647488  0.249623  1
  Ir  Ir26  1  0.353396  0.352512  0.249623  1
  Ir  Ir27  1  0.352847  0.647054  0.748994  1
  Ir  Ir28  1  0.000000  0.500000  0.381889  1
  Rh  Rh29  1  0.500000  0.000000  0.117012  1
  Rh  Rh30  1  0.500000  0.000000  0.617049  1
  Rh  Rh31  1  0.000000  0.500000  0.883585  1
