# generated using pymatgen
data_YHo2Si2GeRh6
_symmetry_space_group_name_H-M   'P 1'
_cell_length_a   5.58549300
_cell_length_b   5.58504141
_cell_length_c   15.17515600
_cell_angle_alpha   90.00000000
_cell_angle_beta   90.00000000
_cell_angle_gamma   119.99737888
_symmetry_Int_Tables_number   1
_chemical_formula_structural   YHo2Si2GeRh6
_chemical_formula_sum   'Y2 Ho4 Si4 Ge2 Rh12'
_cell_volume   409.98047647
_cell_formula_units_Z   2
loop_
 _symmetry_equiv_pos_site_id
 _symmetry_equiv_pos_as_xyz
  1  'x, y, z'
loop_
 _atom_site_type_symbol
 _atom_site_label
 _atom_site_symmetry_multiplicity
 _atom_site_fract_x
 _atom_site_fract_y
 _atom_site_fract_z
 _atom_site_occupancy
  Y  Y0  1  0.666671  0.333332  0.750000  1
  Y  Y1  1  0.333329  0.666668  0.250000  1
  Ho  Ho2  1  0.666667  0.333334  0.962554  1
  Ho  Ho3  1  0.666667  0.333334  0.537446  1
  Ho  Ho4  1  0.333333  0.666666  0.037446  1
  Ho  Ho5  1  0.333333  0.666666  0.462554  1
  Si  Si6  1  0.666652  0.333356  0.250000  1
  Si  Si7  1  0.000013  0.999972  0.250000  1
  Si  Si8  1  0.999987  0.000028  0.750000  1
  Si  Si9  1  0.333348  0.666644  0.750000  1
  Ge  Ge10  1  0.000000  0.000000  0.500000  1
  Ge  Ge11  1  0.000000  0.000000  0.000000  1
  Rh  Rh12  1  0.167718  0.335427  0.867658  1
  Rh  Rh13  1  0.167718  0.335427  0.632342  1
  Rh  Rh14  1  0.664543  0.832282  0.867652  1
  Rh  Rh15  1  0.335457  0.167718  0.367652  1
  Rh  Rh16  1  0.832282  0.664573  0.367658  1
  Rh  Rh17  1  0.832289  0.167702  0.367637  1
  Rh  Rh18  1  0.832289  0.167702  0.132363  1
  Rh  Rh19  1  0.335457  0.167718  0.132348  1
  Rh  Rh20  1  0.664543  0.832282  0.632348  1
  Rh  Rh21  1  0.167711  0.832298  0.632363  1
  Rh  Rh22  1  0.832282  0.664573  0.132342  1
  Rh  Rh23  1  0.167711  0.832298  0.867637  1
