# generated using pymatgen
data_Ca2Er3Tm(GeRh2)6
_symmetry_space_group_name_H-M   'P 1'
_cell_length_a   5.60012800
_cell_length_b   5.60012877
_cell_length_c   15.43125200
_cell_angle_alpha   90.00000000
_cell_angle_beta   90.00000000
_cell_angle_gamma   119.99999546
_symmetry_Int_Tables_number   1
_chemical_formula_structural   Ca2Er3Tm(GeRh2)6
_chemical_formula_sum   'Ca2 Er3 Tm1 Ge6 Rh12'
_cell_volume   419.10976716
_cell_formula_units_Z   1
loop_
 _symmetry_equiv_pos_site_id
 _symmetry_equiv_pos_as_xyz
  1  'x, y, z'
loop_
 _atom_site_type_symbol
 _atom_site_label
 _atom_site_symmetry_multiplicity
 _atom_site_fract_x
 _atom_site_fract_y
 _atom_site_fract_z
 _atom_site_occupancy
  Ca  Ca0  1  0.333333  0.666667  0.749973  1
  Ca  Ca1  1  0.666667  0.333333  0.250021  1
  Er  Er2  1  0.666667  0.333333  0.459361  1
  Er  Er3  1  0.666667  0.333333  0.040666  1
  Er  Er4  1  0.333333  0.666667  0.959313  1
  Tm  Tm5  1  0.333333  0.666667  0.540663  1
  Ge  Ge6  1  0.000000  0.000000  0.250027  1
  Ge  Ge7  1  0.000000  0.000000  0.749979  1
  Ge  Ge8  1  0.333333  0.666667  0.250017  1
  Ge  Ge9  1  0.666667  0.333333  0.749985  1
  Ge  Ge10  1  0.000000  0.000000  0.999990  1
  Ge  Ge11  1  0.000000  0.000000  0.500009  1
  Rh  Rh12  1  0.168705  0.337411  0.125641  1
  Rh  Rh13  1  0.831295  0.662591  0.874354  1
  Rh  Rh14  1  0.662589  0.831295  0.125641  1
  Rh  Rh15  1  0.831307  0.662613  0.625597  1
  Rh  Rh16  1  0.337409  0.168705  0.874354  1
  Rh  Rh17  1  0.168722  0.337444  0.374406  1
  Rh  Rh18  1  0.168705  0.831295  0.125641  1
  Rh  Rh19  1  0.337387  0.168693  0.625597  1
  Rh  Rh20  1  0.831295  0.168705  0.874354  1
  Rh  Rh21  1  0.662556  0.831278  0.374406  1
  Rh  Rh22  1  0.831307  0.168693  0.625597  1
  Rh  Rh23  1  0.168722  0.831278  0.374406  1
