# generated using pymatgen
data_DyTm6CoI12
_symmetry_space_group_name_H-M   'P 1'
_cell_length_a   9.67238005
_cell_length_b   9.67237782
_cell_length_c   9.67237880
_cell_angle_alpha   106.79711360
_cell_angle_beta   106.79710903
_cell_angle_gamma   106.79711783
_symmetry_Int_Tables_number   1
_chemical_formula_structural   DyTm6CoI12
_chemical_formula_sum   'Dy1 Tm6 Co1 I12'
_cell_volume   757.74035720
_cell_formula_units_Z   1
loop_
 _symmetry_equiv_pos_site_id
 _symmetry_equiv_pos_as_xyz
  1  'x, y, z'
loop_
 _atom_site_type_symbol
 _atom_site_label
 _atom_site_symmetry_multiplicity
 _atom_site_fract_x
 _atom_site_fract_y
 _atom_site_fract_z
 _atom_site_occupancy
  Dy  Dy0  1  0.500000  0.500000  0.500000  1
  Tm  Tm1  1  0.283584  0.090038  0.021197  1
  Tm  Tm2  1  0.021197  0.283584  0.090038  1
  Tm  Tm3  1  0.090038  0.021197  0.283584  1
  Tm  Tm4  1  0.716416  0.909962  0.978803  1
  Tm  Tm5  1  0.978803  0.716416  0.909962  1
  Tm  Tm6  1  0.909962  0.978803  0.716416  1
  Co  Co7  1  0.000000  0.000000  0.000000  1
  I  I8  1  0.462430  0.159244  0.385696  1
  I  I9  1  0.385696  0.462430  0.159244  1
  I  I10  1  0.159244  0.385696  0.462430  1
  I  I11  1  0.537570  0.840756  0.614304  1
  I  I12  1  0.614304  0.537570  0.840756  1
  I  I13  1  0.840756  0.614304  0.537570  1
  I  I14  1  0.323569  0.776515  0.929626  1
  I  I15  1  0.929626  0.323569  0.776515  1
  I  I16  1  0.776515  0.929626  0.323569  1
  I  I17  1  0.676431  0.223485  0.070374  1
  I  I18  1  0.070374  0.676431  0.223485  1
  I  I19  1  0.223485  0.070374  0.676431  1
