# generated using pymatgen
data_Ho2Tm2Si4RuRh3
_symmetry_space_group_name_H-M   'P 1'
_cell_length_a   4.26730100
_cell_length_b   6.88099502
_cell_length_c   7.27243007
_cell_angle_alpha   90.01222296
_cell_angle_beta   90.00000000
_cell_angle_gamma   90.00000000
_symmetry_Int_Tables_number   1
_chemical_formula_structural   Ho2Tm2Si4RuRh3
_chemical_formula_sum   'Ho2 Tm2 Si4 Ru1 Rh3'
_cell_volume   213.54237317
_cell_formula_units_Z   1
loop_
 _symmetry_equiv_pos_site_id
 _symmetry_equiv_pos_as_xyz
  1  'x, y, z'
loop_
 _atom_site_type_symbol
 _atom_site_label
 _atom_site_symmetry_multiplicity
 _atom_site_fract_x
 _atom_site_fract_y
 _atom_site_fract_z
 _atom_site_occupancy
  Ho  Ho0  1  0.250000  0.992978  0.812177  1
  Ho  Ho1  1  0.250000  0.497847  0.686225  1
  Tm  Tm2  1  0.750000  0.005441  0.191203  1
  Tm  Tm3  1  0.750000  0.503756  0.311092  1
  Si  Si4  1  0.250000  0.299385  0.105870  1
  Si  Si5  1  0.750000  0.702445  0.901474  1
  Si  Si6  1  0.250000  0.796483  0.386166  1
  Si  Si7  1  0.750000  0.203391  0.606630  1
  Ru  Ru8  1  0.250000  0.653569  0.067925  1
  Rh  Rh9  1  0.750000  0.844074  0.567020  1
  Rh  Rh10  1  0.250000  0.156788  0.430067  1
  Rh  Rh11  1  0.750000  0.343845  0.934153  1
