# generated using pymatgen
data_GdPa5O12
_symmetry_space_group_name_H-M   'P 1'
_cell_length_a   6.71915228
_cell_length_b   6.71915285
_cell_length_c   6.72561700
_cell_angle_alpha   80.40924236
_cell_angle_beta   80.40923288
_cell_angle_gamma   119.99291445
_symmetry_Int_Tables_number   1
_chemical_formula_structural   GdPa5O12
_chemical_formula_sum   'Gd1 Pa5 O12'
_cell_volume   247.95384408
_cell_formula_units_Z   1
loop_
 _symmetry_equiv_pos_site_id
 _symmetry_equiv_pos_as_xyz
  1  'x, y, z'
loop_
 _atom_site_type_symbol
 _atom_site_label
 _atom_site_symmetry_multiplicity
 _atom_site_fract_x
 _atom_site_fract_y
 _atom_site_fract_z
 _atom_site_occupancy
  Gd  Gd0  1  0.500000  0.500000  0.500000  1
  Pa  Pa1  1  0.832665  0.167335  0.500000  1
  Pa  Pa2  1  0.167335  0.832665  0.500000  1
  Pa  Pa3  1  0.665938  0.334062  0.000000  1
  Pa  Pa4  1  0.000000  0.000000  0.000000  1
  Pa  Pa5  1  0.334062  0.665938  0.000000  1
  O  O6  1  0.114067  0.114067  0.629854  1
  O  O7  1  0.707763  0.042522  0.876848  1
  O  O8  1  0.957478  0.292237  0.123152  1
  O  O9  1  0.369703  0.369703  0.885563  1
  O  O10  1  0.042522  0.707763  0.876848  1
  O  O11  1  0.542483  0.201565  0.370255  1
  O  O12  1  0.885933  0.885933  0.370146  1
  O  O13  1  0.457517  0.798435  0.629745  1
  O  O14  1  0.630297  0.630297  0.114437  1
  O  O15  1  0.292237  0.957478  0.123152  1
  O  O16  1  0.798435  0.457517  0.629745  1
  O  O17  1  0.201565  0.542483  0.370255  1
