# generated using pymatgen
data_ScNb6VSe12
_symmetry_space_group_name_H-M   'P 1'
_cell_length_a   6.07452500
_cell_length_b   6.07452565
_cell_length_c   13.24125600
_cell_angle_alpha   90.00000000
_cell_angle_beta   90.00000000
_cell_angle_gamma   119.99999104
_symmetry_Int_Tables_number   1
_chemical_formula_structural   ScNb6VSe12
_chemical_formula_sum   'Sc1 Nb6 V1 Se12'
_cell_volume   423.14045301
_cell_formula_units_Z   1
loop_
 _symmetry_equiv_pos_site_id
 _symmetry_equiv_pos_as_xyz
  1  'x, y, z'
loop_
 _atom_site_type_symbol
 _atom_site_label
 _atom_site_symmetry_multiplicity
 _atom_site_fract_x
 _atom_site_fract_y
 _atom_site_fract_z
 _atom_site_occupancy
  Sc  Sc0  1  0.333333  0.666667  0.250000  1
  Nb  Nb1  1  0.000000  0.000000  0.507544  1
  Nb  Nb2  1  0.000000  0.000000  0.992456  1
  Nb  Nb3  1  0.333333  0.666667  0.993143  1
  Nb  Nb4  1  0.666667  0.333333  0.992579  1
  Nb  Nb5  1  0.666667  0.333333  0.507421  1
  Nb  Nb6  1  0.333333  0.666667  0.506857  1
  V  V7  1  0.666667  0.333333  0.750000  1
  Se  Se8  1  0.333144  0.327835  0.379982  1
  Se  Se9  1  0.672165  0.005309  0.379982  1
  Se  Se10  1  0.994691  0.666856  0.379982  1
  Se  Se11  1  0.330717  0.333542  0.633234  1
  Se  Se12  1  0.002825  0.669283  0.633234  1
  Se  Se13  1  0.666458  0.997175  0.633234  1
  Se  Se14  1  0.666458  0.669283  0.866766  1
  Se  Se15  1  0.330717  0.997175  0.866766  1
  Se  Se16  1  0.002825  0.333542  0.866766  1
  Se  Se17  1  0.672165  0.666856  0.120018  1
  Se  Se18  1  0.994691  0.327835  0.120018  1
  Se  Se19  1  0.333144  0.005309  0.120018  1
