# generated using pymatgen
data_Cs2Co(GeO3)2
_symmetry_space_group_name_H-M   'P 1'
_cell_length_a   6.18848393
_cell_length_b   6.18850000
_cell_length_c   11.25628300
_cell_angle_alpha   90.00000000
_cell_angle_beta   90.00000000
_cell_angle_gamma   69.00515037
_symmetry_Int_Tables_number   1
_chemical_formula_structural   Cs2Co(GeO3)2
_chemical_formula_sum   'Cs4 Co2 Ge4 O12'
_cell_volume   402.46802985
_cell_formula_units_Z   2
loop_
 _symmetry_equiv_pos_site_id
 _symmetry_equiv_pos_as_xyz
  1  'x, y, z'
loop_
 _atom_site_type_symbol
 _atom_site_label
 _atom_site_symmetry_multiplicity
 _atom_site_fract_x
 _atom_site_fract_y
 _atom_site_fract_z
 _atom_site_occupancy
  Cs  Cs0  1  0.555893  0.787740  0.174241  1
  Cs  Cs1  1  0.212260  0.444106  0.325757  1
  Cs  Cs2  1  0.444106  0.212260  0.674241  1
  Cs  Cs3  1  0.787740  0.555893  0.825757  1
  Co  Co4  1  0.311344  0.311341  0.999997  1
  Co  Co5  1  0.688657  0.688660  0.499997  1
  Ge  Ge6  1  0.866322  0.172430  0.108328  1
  Ge  Ge7  1  0.827572  0.133676  0.391675  1
  Ge  Ge8  1  0.133677  0.827569  0.608326  1
  Ge  Ge9  1  0.172427  0.866323  0.891676  1
  O  O10  1  0.941534  0.941541  0.000000  1
  O  O11  1  0.004580  0.369614  0.079353  1
  O  O12  1  0.562015  0.288688  0.114912  1
  O  O13  1  0.972970  0.027023  0.250000  1
  O  O14  1  0.711313  0.437981  0.385090  1
  O  O15  1  0.630382  0.995424  0.420648  1
  O  O16  1  0.058468  0.058461  0.500000  1
  O  O17  1  0.995421  0.630386  0.579352  1
  O  O18  1  0.437985  0.711312  0.614911  1
  O  O19  1  0.027030  0.972977  0.750001  1
  O  O20  1  0.288687  0.562019  0.885090  1
  O  O21  1  0.369618  0.004577  0.920648  1
