# generated using pymatgen
data_HoLu5Al16(SiOs)8
_symmetry_space_group_name_H-M   'P 1'
_cell_length_a   8.65899201
_cell_length_b   8.65899166
_cell_length_c   9.37311900
_cell_angle_alpha   90.00000000
_cell_angle_beta   90.00000000
_cell_angle_gamma   120.10031700
_symmetry_Int_Tables_number   1
_chemical_formula_structural   HoLu5Al16(SiOs)8
_chemical_formula_sum   'Ho1 Lu5 Al16 Si8 Os8'
_cell_volume   608.00832162
_cell_formula_units_Z   1
loop_
 _symmetry_equiv_pos_site_id
 _symmetry_equiv_pos_as_xyz
  1  'x, y, z'
loop_
 _atom_site_type_symbol
 _atom_site_label
 _atom_site_symmetry_multiplicity
 _atom_site_fract_x
 _atom_site_fract_y
 _atom_site_fract_z
 _atom_site_occupancy
  Ho  Ho0  1  0.805298  0.194702  0.750000  1
  Lu  Lu1  1  0.193592  0.390567  0.250000  1
  Lu  Lu2  1  0.806742  0.610159  0.750000  1
  Lu  Lu3  1  0.609433  0.806408  0.250000  1
  Lu  Lu4  1  0.389841  0.193258  0.750000  1
  Lu  Lu5  1  0.196268  0.803732  0.250000  1
  Al  Al6  1  0.165719  0.329033  0.578429  1
  Al  Al7  1  0.834682  0.671076  0.421033  1
  Al  Al8  1  0.670967  0.834281  0.578429  1
  Al  Al9  1  0.834682  0.671076  0.078967  1
  Al  Al10  1  0.328924  0.165318  0.421033  1
  Al  Al11  1  0.165719  0.329033  0.921571  1
  Al  Al12  1  0.164352  0.835648  0.578434  1
  Al  Al13  1  0.328924  0.165318  0.078967  1
  Al  Al14  1  0.835537  0.164463  0.420829  1
  Al  Al15  1  0.670967  0.834281  0.921571  1
  Al  Al16  1  0.835537  0.164463  0.079171  1
  Al  Al17  1  0.164352  0.835648  0.921566  1
  Al  Al18  1  0.564740  0.435260  0.250000  1
  Al  Al19  1  0.435559  0.564441  0.750000  1
  Al  Al20  1  0.000246  0.999754  0.250000  1
  Al  Al21  1  0.000377  0.999623  0.750000  1
  Si  Si22  1  0.334788  0.665212  0.042522  1
  Si  Si23  1  0.664652  0.335348  0.958418  1
  Si  Si24  1  0.664652  0.335348  0.541582  1
  Si  Si25  1  0.334788  0.665212  0.457478  1
  Si  Si26  1  0.563303  0.123613  0.250000  1
  Si  Si27  1  0.435529  0.875954  0.750000  1
  Si  Si28  1  0.876387  0.436697  0.250000  1
  Si  Si29  1  0.124046  0.564471  0.750000  1
  Os  Os30  1  0.499597  0.999739  0.000340  1
  Os  Os31  1  0.000261  0.500403  0.000340  1
  Os  Os32  1  0.499597  0.999739  0.499660  1
  Os  Os33  1  0.499884  0.500116  0.000131  1
  Os  Os34  1  0.000261  0.500403  0.499660  1
  Os  Os35  1  0.499884  0.500116  0.499869  1
  Os  Os36  1  0.999957  0.000043  0.999965  1
  Os  Os37  1  0.999957  0.000043  0.500035  1
