# generated using pymatgen
data_TlSeF5
_symmetry_space_group_name_H-M   'P 1'
_cell_length_a   6.06660900
_cell_length_b   11.17975000
_cell_length_c   13.61952300
_cell_angle_alpha   90.00000000
_cell_angle_beta   90.00000000
_cell_angle_gamma   90.00000000
_symmetry_Int_Tables_number   1
_chemical_formula_structural   TlSeF5
_chemical_formula_sum   'Tl8 Se8 F40'
_cell_volume   923.71925055
_cell_formula_units_Z   8
loop_
 _symmetry_equiv_pos_site_id
 _symmetry_equiv_pos_as_xyz
  1  'x, y, z'
loop_
 _atom_site_type_symbol
 _atom_site_label
 _atom_site_symmetry_multiplicity
 _atom_site_fract_x
 _atom_site_fract_y
 _atom_site_fract_z
 _atom_site_occupancy
  Tl  Tl0  1  0.750000  0.505152  0.098362  1
  Tl  Tl1  1  0.250000  0.657876  0.599071  1
  Tl  Tl2  1  0.750000  0.157876  0.900929  1
  Tl  Tl3  1  0.750000  0.994848  0.598362  1
  Tl  Tl4  1  0.250000  0.842124  0.099071  1
  Tl  Tl5  1  0.250000  0.494848  0.901638  1
  Tl  Tl6  1  0.750000  0.342124  0.400929  1
  Tl  Tl7  1  0.250000  0.005152  0.401638  1
  Se  Se8  1  0.750000  0.794845  0.927345  1
  Se  Se9  1  0.750000  0.705155  0.427345  1
  Se  Se10  1  0.250000  0.205155  0.072655  1
  Se  Se11  1  0.250000  0.294845  0.572655  1
  Se  Se12  1  0.750000  0.046910  0.244828  1
  Se  Se13  1  0.250000  0.546910  0.255172  1
  Se  Se14  1  0.250000  0.953090  0.755172  1
  Se  Se15  1  0.750000  0.453090  0.744828  1
  F  F16  1  0.750000  0.027230  0.375663  1
  F  F17  1  0.967225  0.914071  0.920971  1
  F  F18  1  0.750000  0.472770  0.875663  1
  F  F19  1  0.529888  0.573957  0.750048  1
  F  F20  1  0.470112  0.073957  0.749952  1
  F  F21  1  0.025553  0.184272  0.534443  1
  F  F22  1  0.750000  0.670689  0.554667  1
  F  F23  1  0.474447  0.315728  0.034443  1
  F  F24  1  0.250000  0.170689  0.945333  1
  F  F25  1  0.025553  0.315728  0.034443  1
  F  F26  1  0.750000  0.829311  0.054667  1
  F  F27  1  0.029888  0.426043  0.249952  1
  F  F28  1  0.529888  0.926043  0.250048  1
  F  F29  1  0.470112  0.426043  0.249952  1
  F  F30  1  0.967225  0.585929  0.420971  1
  F  F31  1  0.032775  0.414071  0.579029  1
  F  F32  1  0.974447  0.815728  0.465557  1
  F  F33  1  0.029888  0.073957  0.749952  1
  F  F34  1  0.532775  0.585929  0.420971  1
  F  F35  1  0.032220  0.837995  0.725970  1
  F  F36  1  0.250000  0.527230  0.124337  1
  F  F37  1  0.250000  0.972770  0.624337  1
  F  F38  1  0.525553  0.815728  0.465557  1
  F  F39  1  0.532775  0.914071  0.920971  1
  F  F40  1  0.967780  0.162005  0.274030  1
  F  F41  1  0.974447  0.684272  0.965557  1
  F  F42  1  0.525553  0.684272  0.965557  1
  F  F43  1  0.970112  0.573957  0.750048  1
  F  F44  1  0.532220  0.162005  0.274030  1
  F  F45  1  0.970112  0.926043  0.250048  1
  F  F46  1  0.467780  0.837995  0.725970  1
  F  F47  1  0.532220  0.337995  0.774030  1
  F  F48  1  0.032220  0.662005  0.225970  1
  F  F49  1  0.032775  0.085929  0.079029  1
  F  F50  1  0.474447  0.184272  0.534443  1
  F  F51  1  0.250000  0.329311  0.445333  1
  F  F52  1  0.467225  0.414071  0.579029  1
  F  F53  1  0.467225  0.085929  0.079029  1
  F  F54  1  0.967780  0.337995  0.774030  1
  F  F55  1  0.467780  0.662005  0.225970  1
