# generated using pymatgen
data_TmNi(Sn2Ru)3
_symmetry_space_group_name_H-M   'P 1'
_cell_length_a   6.84259100
_cell_length_b   6.84259066
_cell_length_c   6.89684419
_cell_angle_alpha   120.00456114
_cell_angle_beta   120.00456217
_cell_angle_gamma   88.58716044
_symmetry_Int_Tables_number   1
_chemical_formula_structural   TmNi(Sn2Ru)3
_chemical_formula_sum   'Tm1 Ni1 Sn6 Ru3'
_cell_volume   230.96742978
_cell_formula_units_Z   1
loop_
 _symmetry_equiv_pos_site_id
 _symmetry_equiv_pos_as_xyz
  1  'x, y, z'
loop_
 _atom_site_type_symbol
 _atom_site_label
 _atom_site_symmetry_multiplicity
 _atom_site_fract_x
 _atom_site_fract_y
 _atom_site_fract_z
 _atom_site_occupancy
  Tm  Tm0  1  0.978713  0.978713  0.961378  1
  Ni  Ni1  1  0.401736  0.401736  0.647750  1
  Sn  Sn2  1  0.002718  0.488557  0.495771  1
  Sn  Sn3  1  0.463955  0.463955  0.350512  1
  Sn  Sn4  1  0.541071  0.879627  0.004702  1
  Sn  Sn5  1  0.879627  0.541071  0.004702  1
  Sn  Sn6  1  0.124453  0.124453  0.663073  1
  Sn  Sn7  1  0.488557  0.002718  0.495771  1
  Ru  Ru8  1  0.763293  0.763293  0.376552  1
  Ru  Ru9  1  0.256903  0.598975  0.999893  1
  Ru  Ru10  1  0.598975  0.256903  0.999893  1
