# generated using pymatgen
data_Co2Te4Au
_symmetry_space_group_name_H-M   'P 1'
_cell_length_a   7.77096800
_cell_length_b   7.76821966
_cell_length_c   7.77127416
_cell_angle_alpha   89.99970542
_cell_angle_beta   120.02015835
_cell_angle_gamma   119.99050784
_symmetry_Int_Tables_number   1
_chemical_formula_structural   Co2Te4Au
_chemical_formula_sum   'Co4 Te8 Au2'
_cell_volume   331.66901906
_cell_formula_units_Z   2
loop_
 _symmetry_equiv_pos_site_id
 _symmetry_equiv_pos_as_xyz
  1  'x, y, z'
loop_
 _atom_site_type_symbol
 _atom_site_label
 _atom_site_symmetry_multiplicity
 _atom_site_fract_x
 _atom_site_fract_y
 _atom_site_fract_z
 _atom_site_occupancy
  Co  Co0  1  0.500004  0.500001  0.000004  1
  Co  Co1  1  0.000003  0.499999  0.500002  1
  Co  Co2  1  0.999996  0.000000  0.499997  1
  Co  Co3  1  0.499996  0.499999  0.499995  1
  Te  Te4  1  0.534511  0.732747  0.267237  1
  Te  Te5  1  0.534544  0.301792  0.267264  1
  Te  Te6  1  0.965606  0.732805  0.267226  1
  Te  Te7  1  0.034461  0.267237  0.301699  1
  Te  Te8  1  0.965534  0.732761  0.698293  1
  Te  Te9  1  0.465482  0.267253  0.732755  1
  Te  Te10  1  0.034410  0.267203  0.732794  1
  Te  Te11  1  0.465470  0.698209  0.732749  1
  Au  Au12  1  0.249844  0.874896  0.124974  1
  Au  Au13  1  0.750143  0.125103  0.875014  1
