# generated using pymatgen
data_Yb10Cu3Ag2Pt
_symmetry_space_group_name_H-M   'P 1'
_cell_length_a   8.88453195
_cell_length_b   8.88452698
_cell_length_c   8.89124305
_cell_angle_alpha   129.04828443
_cell_angle_beta   129.04815807
_cell_angle_gamma   74.87691653
_symmetry_Int_Tables_number   1
_chemical_formula_structural   Yb10Cu3Ag2Pt
_chemical_formula_sum   'Yb10 Cu3 Ag2 Pt1'
_cell_volume   412.39837987
_cell_formula_units_Z   1
loop_
 _symmetry_equiv_pos_site_id
 _symmetry_equiv_pos_as_xyz
  1  'x, y, z'
loop_
 _atom_site_type_symbol
 _atom_site_label
 _atom_site_symmetry_multiplicity
 _atom_site_fract_x
 _atom_site_fract_y
 _atom_site_fract_z
 _atom_site_occupancy
  Yb  Yb0  1  0.497224  0.501192  0.998416  1
  Yb  Yb1  1  0.001192  0.997224  0.998417  1
  Yb  Yb2  1  0.529660  0.029660  0.835631  1
  Yb  Yb3  1  0.191639  0.691640  0.157635  1
  Yb  Yb4  1  0.031527  0.197266  0.503231  1
  Yb  Yb5  1  0.697265  0.531527  0.503231  1
  Yb  Yb6  1  0.465995  0.965996  0.157636  1
  Yb  Yb7  1  0.805969  0.305969  0.835630  1
  Yb  Yb8  1  0.971703  0.805966  0.503231  1
  Yb  Yb9  1  0.305966  0.471704  0.503231  1
  Cu  Cu10  1  0.875338  0.375335  0.250669  1
  Cu  Cu11  1  0.618839  0.880773  0.499612  1
  Cu  Cu12  1  0.380778  0.118839  0.499618  1
  Ag  Ag13  1  0.250964  0.250966  0.001931  1
  Ag  Ag14  1  0.750964  0.750966  0.001931  1
  Pt  Pt15  1  0.124975  0.624975  0.749947  1
