# generated using pymatgen
data_Tm4NiB16Os3
_symmetry_space_group_name_H-M   'P 1'
_cell_length_a   3.52007300
_cell_length_b   5.90268900
_cell_length_c   11.41769100
_cell_angle_alpha   90.00068236
_cell_angle_beta   90.00000000
_cell_angle_gamma   90.00000000
_symmetry_Int_Tables_number   1
_chemical_formula_structural   Tm4NiB16Os3
_chemical_formula_sum   'Tm4 Ni1 B16 Os3'
_cell_volume   237.23559816
_cell_formula_units_Z   1
loop_
 _symmetry_equiv_pos_site_id
 _symmetry_equiv_pos_as_xyz
  1  'x, y, z'
loop_
 _atom_site_type_symbol
 _atom_site_label
 _atom_site_symmetry_multiplicity
 _atom_site_fract_x
 _atom_site_fract_y
 _atom_site_fract_z
 _atom_site_occupancy
  Tm  Tm0  1  0.000000  0.628720  0.352862  1
  Tm  Tm1  1  0.000000  0.372045  0.645976  1
  Tm  Tm2  1  0.000000  0.131269  0.152232  1
  Tm  Tm3  1  0.000000  0.870011  0.847850  1
  Ni  Ni4  1  0.000000  0.853250  0.599738  1
  B  B5  1  0.500000  0.789983  0.187250  1
  B  B6  1  0.500000  0.208237  0.811937  1
  B  B7  1  0.500000  0.289793  0.314995  1
  B  B8  1  0.500000  0.713136  0.684155  1
  B  B9  1  0.500000  0.864871  0.028996  1
  B  B10  1  0.500000  0.135491  0.969821  1
  B  B11  1  0.500000  0.366171  0.469933  1
  B  B12  1  0.500000  0.640555  0.531747  1
  B  B13  1  0.500000  0.888692  0.451264  1
  B  B14  1  0.500000  0.114723  0.545827  1
  B  B15  1  0.500000  0.386700  0.046940  1
  B  B16  1  0.500000  0.613654  0.951792  1
  B  B17  1  0.500000  0.978241  0.306877  1
  B  B18  1  0.500000  0.019417  0.690984  1
  B  B19  1  0.500000  0.474455  0.192586  1
  B  B20  1  0.500000  0.527513  0.805958  1
  Os  Os21  1  0.000000  0.642949  0.093096  1
  Os  Os22  1  0.000000  0.357687  0.905637  1
  Os  Os23  1  0.000000  0.132437  0.411548  1
