# generated using pymatgen
data_RbDy(TaBr3)6
_symmetry_space_group_name_H-M   'P 1'
_cell_length_a   10.74923751
_cell_length_b   10.74923700
_cell_length_c   10.74923713
_cell_angle_alpha   55.43239182
_cell_angle_beta   55.43238894
_cell_angle_gamma   55.43239603
_symmetry_Int_Tables_number   1
_chemical_formula_structural   RbDy(TaBr3)6
_chemical_formula_sum   'Rb1 Dy1 Ta6 Br18'
_cell_volume   785.08273911
_cell_formula_units_Z   1
loop_
 _symmetry_equiv_pos_site_id
 _symmetry_equiv_pos_as_xyz
  1  'x, y, z'
loop_
 _atom_site_type_symbol
 _atom_site_label
 _atom_site_symmetry_multiplicity
 _atom_site_fract_x
 _atom_site_fract_y
 _atom_site_fract_z
 _atom_site_occupancy
  Rb  Rb0  1  0.221586  0.221586  0.221586  1
  Dy  Dy1  1  0.498200  0.498200  0.498200  1
  Ta  Ta2  1  0.811231  0.140717  0.917616  1
  Ta  Ta3  1  0.917616  0.811231  0.140717  1
  Ta  Ta4  1  0.140717  0.917616  0.811231  1
  Ta  Ta5  1  0.189863  0.859764  0.081594  1
  Ta  Ta6  1  0.081594  0.189863  0.859764  1
  Ta  Ta7  1  0.859764  0.081594  0.189863  1
  Br  Br8  1  0.864064  0.411924  0.726167  1
  Br  Br9  1  0.726167  0.864064  0.411924  1
  Br  Br10  1  0.411924  0.726167  0.864064  1
  Br  Br11  1  0.135135  0.588248  0.276306  1
  Br  Br12  1  0.276306  0.135135  0.588248  1
  Br  Br13  1  0.588248  0.276306  0.135135  1
  Br  Br14  1  0.532987  0.340890  0.805397  1
  Br  Br15  1  0.805397  0.532987  0.340890  1
  Br  Br16  1  0.340890  0.805397  0.532987  1
  Br  Br17  1  0.464516  0.660718  0.195970  1
  Br  Br18  1  0.195970  0.464516  0.660718  1
  Br  Br19  1  0.660718  0.195970  0.464516  1
  Br  Br20  1  0.663175  0.938121  0.071284  1
  Br  Br21  1  0.071284  0.663175  0.938121  1
  Br  Br22  1  0.938121  0.071284  0.663175  1
  Br  Br23  1  0.339924  0.060685  0.925055  1
  Br  Br24  1  0.925055  0.339924  0.060685  1
  Br  Br25  1  0.060685  0.925055  0.339924  1
