# generated using pymatgen
data_NdMnRhO5
_symmetry_space_group_name_H-M   'P 1'
_cell_length_a   6.02170000
_cell_length_b   7.52250000
_cell_length_c   8.82330500
_cell_angle_alpha   90.00000000
_cell_angle_beta   90.00000000
_cell_angle_gamma   90.00000000
_symmetry_Int_Tables_number   1
_chemical_formula_structural   NdMnRhO5
_chemical_formula_sum   'Nd4 Mn4 Rh4 O20'
_cell_volume   399.68017204
_cell_formula_units_Z   4
loop_
 _symmetry_equiv_pos_site_id
 _symmetry_equiv_pos_as_xyz
  1  'x, y, z'
loop_
 _atom_site_type_symbol
 _atom_site_label
 _atom_site_symmetry_multiplicity
 _atom_site_fract_x
 _atom_site_fract_y
 _atom_site_fract_z
 _atom_site_occupancy
  Nd  Nd0  1  0.000000  0.362359  0.671992  1
  Nd  Nd1  1  0.000000  0.637641  0.328008  1
  Nd  Nd2  1  0.000000  0.862359  0.828008  1
  Nd  Nd3  1  0.000000  0.137641  0.171992  1
  Mn  Mn4  1  0.500000  0.088067  0.851960  1
  Mn  Mn5  1  0.500000  0.911933  0.148040  1
  Mn  Mn6  1  0.500000  0.588067  0.648040  1
  Mn  Mn7  1  0.500000  0.411933  0.351960  1
  Rh  Rh8  1  0.253930  0.500000  0.000000  1
  Rh  Rh9  1  0.746070  0.000000  0.500000  1
  Rh  Rh10  1  0.746070  0.500000  0.000000  1
  Rh  Rh11  1  0.253930  0.000000  0.500000  1
  O  O12  1  0.244394  0.897926  0.285970  1
  O  O13  1  0.244394  0.102074  0.714030  1
  O  O14  1  0.755606  0.397926  0.214030  1
  O  O15  1  0.755606  0.602074  0.785970  1
  O  O16  1  0.755606  0.102074  0.714030  1
  O  O17  1  0.755606  0.897926  0.285970  1
  O  O18  1  0.244394  0.602074  0.785970  1
  O  O19  1  0.244394  0.397926  0.214030  1
  O  O20  1  0.500000  0.347661  0.932598  1
  O  O21  1  0.500000  0.652339  0.067402  1
  O  O22  1  0.500000  0.847661  0.567402  1
  O  O23  1  0.500000  0.152339  0.432598  1
  O  O24  1  0.280863  0.000000  0.000000  1
  O  O25  1  0.719137  0.500000  0.500000  1
  O  O26  1  0.719137  0.000000  0.000000  1
  O  O27  1  0.280863  0.500000  0.500000  1
  O  O28  1  0.000000  0.167883  0.444670  1
  O  O29  1  0.000000  0.832117  0.555330  1
  O  O30  1  0.000000  0.667883  0.055330  1
  O  O31  1  0.000000  0.332117  0.944670  1
