# generated using pymatgen
data_Nb8VRe(SiB2)2
_symmetry_space_group_name_H-M   'P 1'
_cell_length_a   7.25937502
_cell_length_b   7.25937413
_cell_length_c   7.25937584
_cell_angle_alpha   129.81295779
_cell_angle_beta   129.81295396
_cell_angle_gamma   73.70595701
_symmetry_Int_Tables_number   1
_chemical_formula_structural   Nb8VRe(SiB2)2
_chemical_formula_sum   'Nb8 V1 Re1 Si2 B4'
_cell_volume   220.22889480
_cell_formula_units_Z   1
loop_
 _symmetry_equiv_pos_site_id
 _symmetry_equiv_pos_as_xyz
  1  'x, y, z'
loop_
 _atom_site_type_symbol
 _atom_site_label
 _atom_site_symmetry_multiplicity
 _atom_site_fract_x
 _atom_site_fract_y
 _atom_site_fract_z
 _atom_site_occupancy
  Nb  Nb0  1  0.807760  0.305751  0.838210  1
  Nb  Nb1  1  0.192240  0.694249  0.161790  1
  Nb  Nb2  1  0.467541  0.969549  0.161790  1
  Nb  Nb3  1  0.305751  0.467541  0.497991  1
  Nb  Nb4  1  0.030451  0.192240  0.497991  1
  Nb  Nb5  1  0.532459  0.030451  0.838210  1
  Nb  Nb6  1  0.694249  0.532459  0.502009  1
  Nb  Nb7  1  0.969549  0.807760  0.502009  1
  V  V8  1  0.000000  0.000000  0.000000  1
  Re  Re9  1  0.500000  0.500000  0.000000  1
  Si  Si10  1  0.249595  0.249595  0.000000  1
  Si  Si11  1  0.750405  0.750405  0.000000  1
  B  B12  1  0.117726  0.619537  0.737263  1
  B  B13  1  0.882274  0.380463  0.262737  1
  B  B14  1  0.619537  0.882274  0.501811  1
  B  B15  1  0.380463  0.117726  0.498189  1
