# generated using pymatgen
data_Hf3Sc2(Re3Tc)6
_symmetry_space_group_name_H-M   'P 1'
_cell_length_a   8.46365555
_cell_length_b   8.46511434
_cell_length_c   8.45121209
_cell_angle_alpha   109.43461425
_cell_angle_beta   109.42762076
_cell_angle_gamma   109.61442598
_symmetry_Int_Tables_number   1
_chemical_formula_structural   Hf3Sc2(Re3Tc)6
_chemical_formula_sum   'Hf3 Sc2 Re18 Tc6'
_cell_volume   465.74551878
_cell_formula_units_Z   1
loop_
 _symmetry_equiv_pos_site_id
 _symmetry_equiv_pos_as_xyz
  1  'x, y, z'
loop_
 _atom_site_type_symbol
 _atom_site_label
 _atom_site_symmetry_multiplicity
 _atom_site_fract_x
 _atom_site_fract_y
 _atom_site_fract_z
 _atom_site_occupancy
  Hf  Hf0  1  0.000201  0.628248  0.000000  1
  Hf  Hf1  1  0.000043  0.999791  0.629917  1
  Hf  Hf2  1  0.370126  0.369875  0.370083  1
  Sc  Sc3  1  0.996756  0.999095  0.000000  1
  Sc  Sc4  1  0.628006  0.999828  0.000000  1
  Re  Re5  1  0.323845  0.324967  0.721309  1
  Re  Re6  1  0.999476  0.674900  0.395930  1
  Re  Re7  1  0.675929  0.000539  0.396024  1
  Re  Re8  1  0.602537  0.603659  0.278691  1
  Re  Re9  1  0.279905  0.604515  0.603976  1
  Re  Re10  1  0.603546  0.278969  0.604070  1
  Re  Re11  1  0.376491  0.194298  0.000000  1
  Re  Re12  1  0.182142  0.807284  0.806499  1
  Re  Re13  1  0.375642  0.000784  0.193501  1
  Re  Re14  1  0.195868  0.377099  0.000000  1
  Re  Re15  1  0.000499  0.375055  0.192904  1
  Re  Re16  1  0.807597  0.182153  0.807096  1
  Re  Re17  1  0.808220  0.808251  0.183910  1
  Re  Re18  1  0.000535  0.192813  0.377308  1
  Re  Re19  1  0.194882  0.000682  0.378547  1
  Re  Re20  1  0.624311  0.624342  0.816090  1
  Re  Re21  1  0.816335  0.622133  0.621453  1
  Re  Re22  1  0.623227  0.815505  0.622692  1
  Tc  Tc23  1  0.396716  0.677212  0.000000  1
  Tc  Tc24  1  0.719947  0.322891  0.322164  1
  Tc  Tc25  1  0.397782  0.000727  0.677836  1
  Tc  Tc26  1  0.677435  0.396557  0.000000  1
  Tc  Tc27  1  0.999512  0.397425  0.677023  1
  Tc  Tc28  1  0.322489  0.720403  0.322977  1
