# generated using pymatgen
data_TbCe5Er2(AlRu)8
_symmetry_space_group_name_H-M   'P 1'
_cell_length_a   4.00189700
_cell_length_b   7.22458327
_cell_length_c   16.06035478
_cell_angle_alpha   90.38383957
_cell_angle_beta   90.00000000
_cell_angle_gamma   90.00000000
_symmetry_Int_Tables_number   1
_chemical_formula_structural   TbCe5Er2(AlRu)8
_chemical_formula_sum   'Tb1 Ce5 Er2 Al8 Ru8'
_cell_volume   464.32717015
_cell_formula_units_Z   1
loop_
 _symmetry_equiv_pos_site_id
 _symmetry_equiv_pos_as_xyz
  1  'x, y, z'
loop_
 _atom_site_type_symbol
 _atom_site_label
 _atom_site_symmetry_multiplicity
 _atom_site_fract_x
 _atom_site_fract_y
 _atom_site_fract_z
 _atom_site_occupancy
  Tb  Tb0  1  0.250000  0.669332  0.939053  1
  Ce  Ce1  1  0.750000  0.822792  0.437720  1
  Ce  Ce2  1  0.750000  0.455656  0.281895  1
  Ce  Ce3  1  0.750000  0.331600  0.062050  1
  Ce  Ce4  1  0.250000  0.043873  0.779894  1
  Ce  Ce5  1  0.250000  0.542842  0.719060  1
  Er  Er6  1  0.750000  0.960224  0.218447  1
  Er  Er7  1  0.250000  0.160451  0.559755  1
  Al  Al8  1  0.750000  0.487303  0.562653  1
  Al  Al9  1  0.750000  0.372919  0.852387  1
  Al  Al10  1  0.750000  0.997278  0.938220  1
  Al  Al11  1  0.750000  0.872519  0.645748  1
  Al  Al12  1  0.250000  0.483952  0.437714  1
  Al  Al13  1  0.250000  0.995859  0.066596  1
  Al  Al14  1  0.250000  0.639669  0.154164  1
  Al  Al15  1  0.250000  0.122110  0.344322  1
  Ru  Ru16  1  0.750000  0.764946  0.806475  1
  Ru  Ru17  1  0.250000  0.240063  0.938848  1
  Ru  Ru18  1  0.750000  0.259353  0.427591  1
  Ru  Ru19  1  0.250000  0.750109  0.324005  1
  Ru  Ru20  1  0.750000  0.767045  0.068826  1
  Ru  Ru21  1  0.750000  0.255145  0.691540  1
  Ru  Ru22  1  0.250000  0.272180  0.180985  1
  Ru  Ru23  1  0.250000  0.732779  0.562056  1
