# generated using pymatgen
data_YLuI18
_symmetry_space_group_name_H-M   'P 1'
_cell_length_a   10.38118755
_cell_length_b   10.39900007
_cell_length_c   10.38229712
_cell_angle_alpha   89.26826291
_cell_angle_beta   89.40733509
_cell_angle_gamma   89.24052375
_symmetry_Int_Tables_number   1
_chemical_formula_structural   YLuI18
_chemical_formula_sum   'Y1 Lu1 I18'
_cell_volume   1120.56230878
_cell_formula_units_Z   1
loop_
 _symmetry_equiv_pos_site_id
 _symmetry_equiv_pos_as_xyz
  1  'x, y, z'
loop_
 _atom_site_type_symbol
 _atom_site_label
 _atom_site_symmetry_multiplicity
 _atom_site_fract_x
 _atom_site_fract_y
 _atom_site_fract_z
 _atom_site_occupancy
  Y  Y0  1  0.500000  0.500000  0.500000  1
  Lu  Lu1  1  0.000000  0.000000  0.000000  1
  I  I2  1  0.791161  0.464484  0.504446  1
  I  I3  1  0.503171  0.790497  0.464205  1
  I  I4  1  0.464633  0.504160  0.790944  1
  I  I5  1  0.208839  0.535516  0.495554  1
  I  I6  1  0.496829  0.209503  0.535795  1
  I  I7  1  0.535367  0.495840  0.209056  1
  I  I8  1  0.895747  0.373238  0.751815  1
  I  I9  1  0.750331  0.894702  0.373215  1
  I  I10  1  0.373473  0.750852  0.895868  1
  I  I11  1  0.104253  0.626762  0.248185  1
  I  I12  1  0.249669  0.105298  0.626785  1
  I  I13  1  0.626527  0.249148  0.104132  1
  I  I14  1  0.012710  0.975341  0.712695  1
  I  I15  1  0.712641  0.012865  0.973349  1
  I  I16  1  0.973715  0.712975  0.011124  1
  I  I17  1  0.987290  0.024659  0.287305  1
  I  I18  1  0.287359  0.987135  0.026651  1
  I  I19  1  0.026285  0.287025  0.988876  1
