# generated using pymatgen
data_Ce3NdCdHgPt4
_symmetry_space_group_name_H-M   'P 1'
_cell_length_a   7.88908332
_cell_length_b   7.88690813
_cell_length_c   3.77359800
_cell_angle_alpha   90.00000000
_cell_angle_beta   90.00000000
_cell_angle_gamma   91.01302607
_symmetry_Int_Tables_number   1
_chemical_formula_structural   Ce3NdCdHgPt4
_chemical_formula_sum   'Ce3 Nd1 Cd1 Hg1 Pt4'
_cell_volume   234.75836341
_cell_formula_units_Z   1
loop_
 _symmetry_equiv_pos_site_id
 _symmetry_equiv_pos_as_xyz
  1  'x, y, z'
loop_
 _atom_site_type_symbol
 _atom_site_label
 _atom_site_symmetry_multiplicity
 _atom_site_fract_x
 _atom_site_fract_y
 _atom_site_fract_z
 _atom_site_occupancy
  Ce  Ce0  1  0.331600  0.826845  0.500000  1
  Ce  Ce1  1  0.827810  0.668428  0.500000  1
  Ce  Ce2  1  0.668458  0.171744  0.500000  1
  Nd  Nd3  1  0.173199  0.331472  0.500000  1
  Cd  Cd4  1  0.999413  0.001233  0.000000  1
  Hg  Hg5  1  0.499039  0.500828  0.000000  1
  Pt  Pt6  1  0.638112  0.869567  0.000000  1
  Pt  Pt7  1  0.123203  0.642790  0.000000  1
  Pt  Pt8  1  0.865005  0.368814  0.000000  1
  Pt  Pt9  1  0.374162  0.118278  0.000000  1
