# generated using pymatgen
data_Cu2AgGeTe4
_symmetry_space_group_name_H-M   'P 1'
_cell_length_a   7.39779245
_cell_length_b   7.39779214
_cell_length_c   7.39779305
_cell_angle_alpha   130.70927568
_cell_angle_beta   130.70926881
_cell_angle_gamma   72.27539417
_symmetry_Int_Tables_number   1
_chemical_formula_structural   Cu2AgGeTe4
_chemical_formula_sum   'Cu2 Ag1 Ge1 Te4'
_cell_volume   227.42442423
_cell_formula_units_Z   1
loop_
 _symmetry_equiv_pos_site_id
 _symmetry_equiv_pos_as_xyz
  1  'x, y, z'
loop_
 _atom_site_type_symbol
 _atom_site_label
 _atom_site_symmetry_multiplicity
 _atom_site_fract_x
 _atom_site_fract_y
 _atom_site_fract_z
 _atom_site_occupancy
  Cu  Cu0  1  0.750000  0.250000  0.500000  1
  Cu  Cu1  1  0.250000  0.750000  0.500000  1
  Ag  Ag2  1  0.000000  0.000000  0.000000  1
  Ge  Ge3  1  0.500000  0.500000  0.000000  1
  Te  Te4  1  0.878283  0.392741  0.000000  1
  Te  Te5  1  0.392741  0.878283  0.000000  1
  Te  Te6  1  0.121717  0.121717  0.514457  1
  Te  Te7  1  0.607259  0.607259  0.485543  1
