# generated using pymatgen
data_KMn2FeO6
_symmetry_space_group_name_H-M   'P 1'
_cell_length_a   5.02562112
_cell_length_b   5.02524691
_cell_length_c   13.30953581
_cell_angle_alpha   79.54944300
_cell_angle_beta   100.42933399
_cell_angle_gamma   120.03106475
_symmetry_Int_Tables_number   1
_chemical_formula_structural   KMn2FeO6
_chemical_formula_sum   'K2 Mn4 Fe2 O12'
_cell_volume   284.56834800
_cell_formula_units_Z   2
loop_
 _symmetry_equiv_pos_site_id
 _symmetry_equiv_pos_as_xyz
  1  'x, y, z'
loop_
 _atom_site_type_symbol
 _atom_site_label
 _atom_site_symmetry_multiplicity
 _atom_site_fract_x
 _atom_site_fract_y
 _atom_site_fract_z
 _atom_site_occupancy
  K  K0  1  0.406181  0.906296  0.250003  1
  K  K1  1  0.593910  0.093781  0.750004  1
  Mn  Mn2  1  0.165607  0.832904  0.500099  1
  Mn  Mn3  1  0.333147  0.665578  0.999980  1
  Mn  Mn4  1  0.667223  0.334366  0.000254  1
  Mn  Mn5  1  0.834158  0.167119  0.499821  1
  Fe  Fe6  1  0.499621  0.499986  0.499922  1
  Fe  Fe7  1  0.000345  0.000016  0.000135  1
  O  O8  1  0.524244  0.816281  0.576558  1
  O  O9  1  0.683693  0.975426  0.076610  1
  O  O10  1  0.316413  0.024476  0.923394  1
  O  O11  1  0.861692  0.474528  0.576513  1
  O  O12  1  0.475498  0.183804  0.423359  1
  O  O13  1  0.813274  0.863059  0.423248  1
  O  O14  1  0.025382  0.637974  0.076540  1
  O  O15  1  0.974755  0.361856  0.923441  1
  O  O16  1  0.637196  0.686736  0.923288  1
  O  O17  1  0.186534  0.137068  0.576677  1
  O  O18  1  0.363003  0.313208  0.076696  1
  O  O19  1  0.138122  0.525536  0.423454  1
