# generated using pymatgen
data_YHo3Th4(ReB6)4
_symmetry_space_group_name_H-M   'P 1'
_cell_length_a   3.76673200
_cell_length_b   9.25989802
_cell_length_c   11.68575203
_cell_angle_alpha   90.00756082
_cell_angle_beta   90.00000000
_cell_angle_gamma   90.00000000
_symmetry_Int_Tables_number   1
_chemical_formula_structural   YHo3Th4(ReB6)4
_chemical_formula_sum   'Y1 Ho3 Th4 Re4 B24'
_cell_volume   407.59381746
_cell_formula_units_Z   1
loop_
 _symmetry_equiv_pos_site_id
 _symmetry_equiv_pos_as_xyz
  1  'x, y, z'
loop_
 _atom_site_type_symbol
 _atom_site_label
 _atom_site_symmetry_multiplicity
 _atom_site_fract_x
 _atom_site_fract_y
 _atom_site_fract_z
 _atom_site_occupancy
  Y  Y0  1  0.000000  0.944798  0.372830  1
  Ho  Ho1  1  0.000000  0.055348  0.627516  1
  Ho  Ho2  1  0.000000  0.444702  0.127347  1
  Ho  Ho3  1  0.000000  0.555272  0.872630  1
  Th  Th4  1  0.000000  0.322224  0.414077  1
  Th  Th5  1  0.000000  0.677811  0.586030  1
  Th  Th6  1  0.000000  0.822027  0.085833  1
  Th  Th7  1  0.000000  0.177947  0.914074  1
  Re  Re8  1  0.000000  0.638667  0.320031  1
  Re  Re9  1  0.000000  0.360910  0.679920  1
  Re  Re10  1  0.000000  0.139368  0.179632  1
  Re  Re11  1  0.000000  0.860900  0.820079  1
  B  B12  1  0.500000  0.556056  0.430087  1
  B  B13  1  0.500000  0.443903  0.569938  1
  B  B14  1  0.500000  0.056104  0.069886  1
  B  B15  1  0.500000  0.943900  0.930069  1
  B  B16  1  0.500000  0.749320  0.417254  1
  B  B17  1  0.500000  0.250386  0.582824  1
  B  B18  1  0.500000  0.249662  0.082800  1
  B  B19  1  0.500000  0.750360  0.917184  1
  B  B20  1  0.500000  0.790493  0.266677  1
  B  B21  1  0.500000  0.209245  0.733180  1
  B  B22  1  0.500000  0.290816  0.233157  1
  B  B23  1  0.500000  0.709235  0.766836  1
  B  B24  1  0.500000  0.630330  0.186390  1
  B  B25  1  0.500000  0.369634  0.813580  1
  B  B26  1  0.500000  0.130678  0.313473  1
  B  B27  1  0.500000  0.869614  0.686443  1
  B  B28  1  0.500000  0.985260  0.213580  1
  B  B29  1  0.500000  0.014836  0.786180  1
  B  B30  1  0.500000  0.485132  0.286163  1
  B  B31  1  0.500000  0.514833  0.713831  1
  B  B32  1  0.500000  0.602759  0.028384  1
  B  B33  1  0.500000  0.397242  0.971604  1
  B  B34  1  0.500000  0.103110  0.471792  1
  B  B35  1  0.500000  0.897119  0.528690  1
