# generated using pymatgen
data_Nd6DyHoAu4
_symmetry_space_group_name_H-M   'P 1'
_cell_length_a   5.03970700
_cell_length_b   7.34164544
_cell_length_c   9.23845616
_cell_angle_alpha   89.90823204
_cell_angle_beta   90.00000000
_cell_angle_gamma   90.00000000
_symmetry_Int_Tables_number   1
_chemical_formula_structural   Nd6DyHoAu4
_chemical_formula_sum   'Nd6 Dy1 Ho1 Au4'
_cell_volume   341.82005539
_cell_formula_units_Z   1
loop_
 _symmetry_equiv_pos_site_id
 _symmetry_equiv_pos_as_xyz
  1  'x, y, z'
loop_
 _atom_site_type_symbol
 _atom_site_label
 _atom_site_symmetry_multiplicity
 _atom_site_fract_x
 _atom_site_fract_y
 _atom_site_fract_z
 _atom_site_occupancy
  Nd  Nd0  1  0.250000  0.489452  0.175818  1
  Nd  Nd1  1  0.750000  0.511147  0.824141  1
  Nd  Nd2  1  0.250000  0.990755  0.323424  1
  Nd  Nd3  1  0.750000  0.009024  0.676445  1
  Nd  Nd4  1  0.750000  0.651346  0.412616  1
  Nd  Nd5  1  0.250000  0.348567  0.587547  1
  Dy  Dy6  1  0.750000  0.149356  0.078409  1
  Ho  Ho7  1  0.250000  0.850752  0.921546  1
  Au  Au8  1  0.250000  0.244648  0.909787  1
  Au  Au9  1  0.750000  0.754879  0.089745  1
  Au  Au10  1  0.250000  0.757866  0.608266  1
  Au  Au11  1  0.750000  0.242209  0.392256  1
