# generated using pymatgen
data_YTmLu2(Al3Ir)6
_symmetry_space_group_name_H-M   'P 1'
_cell_length_a   7.53240468
_cell_length_b   7.52952369
_cell_length_c   9.43831100
_cell_angle_alpha   90.00000000
_cell_angle_beta   90.00000000
_cell_angle_gamma   119.48865395
_symmetry_Int_Tables_number   1
_chemical_formula_structural   YTmLu2(Al3Ir)6
_chemical_formula_sum   'Y1 Tm1 Lu2 Al18 Ir6'
_cell_volume   465.95165011
_cell_formula_units_Z   1
loop_
 _symmetry_equiv_pos_site_id
 _symmetry_equiv_pos_as_xyz
  1  'x, y, z'
loop_
 _atom_site_type_symbol
 _atom_site_label
 _atom_site_symmetry_multiplicity
 _atom_site_fract_x
 _atom_site_fract_y
 _atom_site_fract_z
 _atom_site_occupancy
  Y  Y0  1  0.671761  0.994683  0.250000  1
  Tm  Tm1  1  0.994852  0.671892  0.250000  1
  Lu  Lu2  1  0.005450  0.327748  0.750000  1
  Lu  Lu3  1  0.327752  0.005439  0.750000  1
  Al  Al4  1  0.130034  0.129412  0.250000  1
  Al  Al5  1  0.871270  0.871271  0.750000  1
  Al  Al6  1  0.001401  0.336032  0.073733  1
  Al  Al7  1  0.999627  0.664613  0.924474  1
  Al  Al8  1  0.999627  0.664613  0.575526  1
  Al  Al9  1  0.334559  0.000655  0.426312  1
  Al  Al10  1  0.001401  0.336032  0.426267  1
  Al  Al11  1  0.664624  0.999688  0.576152  1
  Al  Al12  1  0.664624  0.999688  0.923848  1
  Al  Al13  1  0.334559  0.000655  0.073688  1
  Al  Al14  1  0.332816  0.332804  0.553192  1
  Al  Al15  1  0.667044  0.666347  0.448688  1
  Al  Al16  1  0.667044  0.666347  0.051312  1
  Al  Al17  1  0.332816  0.332804  0.946808  1
  Al  Al18  1  0.338867  0.548227  0.250000  1
  Al  Al19  1  0.660155  0.450312  0.750000  1
  Al  Al20  1  0.549107  0.340383  0.250000  1
  Al  Al21  1  0.450144  0.660104  0.750000  1
  Ir  Ir22  1  0.672195  0.327919  0.999392  1
  Ir  Ir23  1  0.327264  0.671858  0.999396  1
  Ir  Ir24  1  0.327264  0.671858  0.500604  1
  Ir  Ir25  1  0.672195  0.327919  0.500608  1
  Ir  Ir26  1  0.000775  0.000348  0.999244  1
  Ir  Ir27  1  0.000775  0.000348  0.500756  1
