# generated using pymatgen
data_DyY2Ho(Mo2O7)2
_symmetry_space_group_name_H-M   'P 1'
_cell_length_a   7.37072684
_cell_length_b   7.37072737
_cell_length_c   7.29120786
_cell_angle_alpha   60.40159017
_cell_angle_beta   60.40158737
_cell_angle_gamma   60.81731589
_symmetry_Int_Tables_number   1
_chemical_formula_structural   DyY2Ho(Mo2O7)2
_chemical_formula_sum   'Dy1 Y2 Ho1 Mo4 O14'
_cell_volume   283.50345122
_cell_formula_units_Z   1
loop_
 _symmetry_equiv_pos_site_id
 _symmetry_equiv_pos_as_xyz
  1  'x, y, z'
loop_
 _atom_site_type_symbol
 _atom_site_label
 _atom_site_symmetry_multiplicity
 _atom_site_fract_x
 _atom_site_fract_y
 _atom_site_fract_z
 _atom_site_occupancy
  Dy  Dy0  1  0.125000  0.125000  0.625000  1
  Y  Y1  1  0.625000  0.125000  0.125000  1
  Y  Y2  1  0.125000  0.625000  0.125000  1
  Ho  Ho3  1  0.125000  0.125000  0.125000  1
  Mo  Mo4  1  0.125000  0.625000  0.625000  1
  Mo  Mo5  1  0.625000  0.125000  0.625000  1
  Mo  Mo6  1  0.625000  0.625000  0.125000  1
  Mo  Mo7  1  0.625000  0.625000  0.625000  1
  O  O8  1  0.712486  0.712486  0.287708  1
  O  O9  1  0.281842  0.281842  0.718834  1
  O  O10  1  0.718579  0.286386  0.709721  1
  O  O11  1  0.286213  0.719293  0.285013  1
  O  O12  1  0.286386  0.718579  0.709721  1
  O  O13  1  0.719293  0.286213  0.285013  1
  O  O14  1  0.537514  0.537514  0.962292  1
  O  O15  1  0.968158  0.968158  0.531166  1
  O  O16  1  0.531421  0.963614  0.540279  1
  O  O17  1  0.963787  0.530707  0.964987  1
  O  O18  1  0.963614  0.531421  0.540279  1
  O  O19  1  0.530707  0.963787  0.964987  1
  O  O20  1  0.253159  0.253159  0.245981  1
  O  O21  1  0.996841  0.996841  0.004019  1
