# generated using pymatgen
data_Cs4Dy3Bi9Se20
_symmetry_space_group_name_H-M   'P 1'
_cell_length_a   4.19525200
_cell_length_b   12.49590005
_cell_length_c   23.25228848
_cell_angle_alpha   90.03818711
_cell_angle_beta   90.00000000
_cell_angle_gamma   90.00000000
_symmetry_Int_Tables_number   1
_chemical_formula_structural   Cs4Dy3Bi9Se20
_chemical_formula_sum   'Cs4 Dy3 Bi9 Se20'
_cell_volume   1218.96490415
_cell_formula_units_Z   1
loop_
 _symmetry_equiv_pos_site_id
 _symmetry_equiv_pos_as_xyz
  1  'x, y, z'
loop_
 _atom_site_type_symbol
 _atom_site_label
 _atom_site_symmetry_multiplicity
 _atom_site_fract_x
 _atom_site_fract_y
 _atom_site_fract_z
 _atom_site_occupancy
  Cs  Cs0  1  0.250000  0.488378  0.210829  1
  Cs  Cs1  1  0.750000  0.510318  0.789650  1
  Cs  Cs2  1  0.750000  0.988340  0.287538  1
  Cs  Cs3  1  0.250000  0.009870  0.710933  1
  Dy  Dy4  1  0.250000  0.363867  0.023052  1
  Dy  Dy5  1  0.750000  0.636137  0.976774  1
  Dy  Dy6  1  0.750000  0.863137  0.476315  1
  Bi  Bi7  1  0.250000  0.133989  0.524431  1
  Bi  Bi8  1  0.250000  0.802049  0.119507  1
  Bi  Bi9  1  0.750000  0.197601  0.880044  1
  Bi  Bi10  1  0.750000  0.303189  0.380074  1
  Bi  Bi11  1  0.250000  0.695689  0.621326  1
  Bi  Bi12  1  0.250000  0.593730  0.427205  1
  Bi  Bi13  1  0.750000  0.408921  0.571755  1
  Bi  Bi14  1  0.750000  0.094117  0.072285  1
  Bi  Bi15  1  0.250000  0.905855  0.927272  1
  Se  Se16  1  0.250000  0.810030  0.395204  1
  Se  Se17  1  0.750000  0.196260  0.609186  1
  Se  Se18  1  0.750000  0.309087  0.104460  1
  Se  Se19  1  0.250000  0.690857  0.895326  1
  Se  Se20  1  0.250000  0.248095  0.305052  1
  Se  Se21  1  0.750000  0.750342  0.696229  1
  Se  Se22  1  0.750000  0.748014  0.194552  1
  Se  Se23  1  0.250000  0.251208  0.804894  1
  Se  Se24  1  0.250000  0.361476  0.480409  1
  Se  Se25  1  0.750000  0.645077  0.518890  1
  Se  Se26  1  0.750000  0.854758  0.018679  1
  Se  Se27  1  0.250000  0.145369  0.980916  1
  Se  Se28  1  0.250000  0.026081  0.150978  1
  Se  Se29  1  0.750000  0.973821  0.848460  1
  Se  Se30  1  0.750000  0.526929  0.348167  1
  Se  Se31  1  0.250000  0.473831  0.652108  1
  Se  Se32  1  0.250000  0.582867  0.056923  1
  Se  Se33  1  0.750000  0.417096  0.942933  1
  Se  Se34  1  0.750000  0.080714  0.439701  1
  Se  Se35  1  0.250000  0.912902  0.557942  1
