# generated using pymatgen
data_Ba4Al5Si3Au20
_symmetry_space_group_name_H-M   'P 1'
_cell_length_a   7.23422400
_cell_length_b   9.20642388
_cell_length_c   10.15473888
_cell_angle_alpha   90.42542621
_cell_angle_beta   90.00000000
_cell_angle_gamma   90.00000000
_symmetry_Int_Tables_number   1
_chemical_formula_structural   Ba4Al5Si3Au20
_chemical_formula_sum   'Ba4 Al5 Si3 Au20'
_cell_volume   676.30049835
_cell_formula_units_Z   1
loop_
 _symmetry_equiv_pos_site_id
 _symmetry_equiv_pos_as_xyz
  1  'x, y, z'
loop_
 _atom_site_type_symbol
 _atom_site_label
 _atom_site_symmetry_multiplicity
 _atom_site_fract_x
 _atom_site_fract_y
 _atom_site_fract_z
 _atom_site_occupancy
  Ba  Ba0  1  0.250000  0.243284  0.119822  1
  Ba  Ba1  1  0.250000  0.747297  0.378802  1
  Ba  Ba2  1  0.750000  0.755914  0.878541  1
  Ba  Ba3  1  0.750000  0.254299  0.619409  1
  Al  Al4  1  0.250000  0.056917  0.622893  1
  Al  Al5  1  0.250000  0.560377  0.875497  1
  Al  Al6  1  0.750000  0.944773  0.376534  1
  Al  Al7  1  0.750000  0.442031  0.123787  1
  Al  Al8  1  0.250000  0.347169  0.479777  1
  Si  Si9  1  0.250000  0.831095  0.031019  1
  Si  Si10  1  0.750000  0.666482  0.532873  1
  Si  Si11  1  0.750000  0.171123  0.966488  1
  Au  Au12  1  0.050744  0.107426  0.398582  1
  Au  Au13  1  0.451345  0.602172  0.101891  1
  Au  Au14  1  0.549473  0.897143  0.600562  1
  Au  Au15  1  0.949245  0.400544  0.898351  1
  Au  Au16  1  0.950527  0.897143  0.600562  1
  Au  Au17  1  0.550755  0.400544  0.898351  1
  Au  Au18  1  0.449256  0.107426  0.398582  1
  Au  Au19  1  0.048655  0.602172  0.101891  1
  Au  Au20  1  0.024563  0.072409  0.855243  1
  Au  Au21  1  0.466635  0.564534  0.635962  1
  Au  Au22  1  0.526097  0.922349  0.148316  1
  Au  Au23  1  0.966861  0.426283  0.352619  1
  Au  Au24  1  0.973903  0.922349  0.148316  1
  Au  Au25  1  0.533139  0.426283  0.352619  1
  Au  Au26  1  0.475437  0.072409  0.855243  1
  Au  Au27  1  0.033365  0.564534  0.635962  1
  Au  Au28  1  0.250000  0.310817  0.727057  1
  Au  Au29  1  0.250000  0.819714  0.787202  1
  Au  Au30  1  0.750000  0.684329  0.288566  1
  Au  Au31  1  0.750000  0.178658  0.208683  1
