# generated using pymatgen
data_TbYRh2F14
_symmetry_space_group_name_H-M   'P 1'
_cell_length_a   5.53166240
_cell_length_b   8.91822754
_cell_length_c   11.96289965
_cell_angle_alpha   62.41469295
_cell_angle_beta   89.91955647
_cell_angle_gamma   89.97549226
_symmetry_Int_Tables_number   1
_chemical_formula_structural   TbYRh2F14
_chemical_formula_sum   'Tb2 Y2 Rh4 F28'
_cell_volume   523.07256116
_cell_formula_units_Z   2
loop_
 _symmetry_equiv_pos_site_id
 _symmetry_equiv_pos_as_xyz
  1  'x, y, z'
loop_
 _atom_site_type_symbol
 _atom_site_label
 _atom_site_symmetry_multiplicity
 _atom_site_fract_x
 _atom_site_fract_y
 _atom_site_fract_z
 _atom_site_occupancy
  Tb  Tb0  1  0.260888  0.813511  0.264673  1
  Tb  Tb1  1  0.739112  0.186489  0.735327  1
  Y  Y2  1  0.761366  0.186478  0.235603  1
  Y  Y3  1  0.238634  0.813522  0.764397  1
  Rh  Rh4  1  0.758053  0.725956  0.043143  1
  Rh  Rh5  1  0.241947  0.274044  0.956857  1
  Rh  Rh6  1  0.258113  0.273832  0.456532  1
  Rh  Rh7  1  0.741887  0.726168  0.543468  1
  F  F8  1  0.937838  0.707555  0.415135  1
  F  F9  1  0.062162  0.292445  0.584865  1
  F  F10  1  0.437592  0.292816  0.084957  1
  F  F11  1  0.562408  0.707184  0.915043  1
  F  F12  1  0.466915  0.729086  0.134595  1
  F  F13  1  0.533085  0.270914  0.865405  1
  F  F14  1  0.967051  0.271015  0.365350  1
  F  F15  1  0.032949  0.728985  0.634650  1
  F  F16  1  0.950779  0.742744  0.173859  1
  F  F17  1  0.049221  0.257256  0.826141  1
  F  F18  1  0.451173  0.257154  0.325734  1
  F  F19  1  0.548827  0.742846  0.674266  1
  F  F20  1  0.768446  0.481211  0.139469  1
  F  F21  1  0.231554  0.518789  0.860531  1
  F  F22  1  0.268507  0.518201  0.360625  1
  F  F23  1  0.731493  0.481799  0.639375  1
  F  F24  1  0.943946  0.280964  0.043362  1
  F  F25  1  0.056054  0.719036  0.956638  1
  F  F26  1  0.444609  0.719155  0.456961  1
  F  F27  1  0.555391  0.280845  0.543039  1
  F  F28  1  0.739813  0.970262  0.450596  1
  F  F29  1  0.260187  0.029738  0.549404  1
  F  F30  1  0.239995  0.029705  0.049849  1
  F  F31  1  0.760005  0.970295  0.950151  1
  F  F32  1  0.590038  0.969351  0.230281  1
  F  F33  1  0.409962  0.030649  0.769719  1
  F  F34  1  0.089520  0.031413  0.269712  1
  F  F35  1  0.910480  0.968587  0.730288  1
