# generated using pymatgen
data_Tm4Al6IrOs
_symmetry_space_group_name_H-M   'P 1'
_cell_length_a   5.47222400
_cell_length_b   5.47222487
_cell_length_c   8.70753000
_cell_angle_alpha   90.00000000
_cell_angle_beta   90.00000000
_cell_angle_gamma   119.99999476
_symmetry_Int_Tables_number   1
_chemical_formula_structural   Tm4Al6IrOs
_chemical_formula_sum   'Tm4 Al6 Ir1 Os1'
_cell_volume   225.81533733
_cell_formula_units_Z   1
loop_
 _symmetry_equiv_pos_site_id
 _symmetry_equiv_pos_as_xyz
  1  'x, y, z'
loop_
 _atom_site_type_symbol
 _atom_site_label
 _atom_site_symmetry_multiplicity
 _atom_site_fract_x
 _atom_site_fract_y
 _atom_site_fract_z
 _atom_site_occupancy
  Tm  Tm0  1  0.333333  0.666667  0.443792  1
  Tm  Tm1  1  0.666667  0.333333  0.556208  1
  Tm  Tm2  1  0.666667  0.333333  0.947486  1
  Tm  Tm3  1  0.333333  0.666667  0.052514  1
  Al  Al4  1  0.836606  0.163394  0.249840  1
  Al  Al5  1  0.836606  0.673211  0.249840  1
  Al  Al6  1  0.326789  0.163394  0.249840  1
  Al  Al7  1  0.163394  0.836606  0.750160  1
  Al  Al8  1  0.163394  0.326789  0.750160  1
  Al  Al9  1  0.673211  0.836606  0.750160  1
  Ir  Ir10  1  0.000000  0.000000  0.000000  1
  Os  Os11  1  0.000000  0.000000  0.500000  1
