# generated using pymatgen
data_CsMnAsO4
_symmetry_space_group_name_H-M   'P 1'
_cell_length_a   5.76288300
_cell_length_b   9.81072800
_cell_length_c   10.07328000
_cell_angle_alpha   90.00000000
_cell_angle_beta   90.00000000
_cell_angle_gamma   90.00000000
_symmetry_Int_Tables_number   1
_chemical_formula_structural   CsMnAsO4
_chemical_formula_sum   'Cs4 Mn4 As4 O16'
_cell_volume   569.52388642
_cell_formula_units_Z   4
loop_
 _symmetry_equiv_pos_site_id
 _symmetry_equiv_pos_as_xyz
  1  'x, y, z'
loop_
 _atom_site_type_symbol
 _atom_site_label
 _atom_site_symmetry_multiplicity
 _atom_site_fract_x
 _atom_site_fract_y
 _atom_site_fract_z
 _atom_site_occupancy
  Cs  Cs0  1  0.765048  0.004057  0.792413  1
  Cs  Cs1  1  0.265048  0.495943  0.292413  1
  Cs  Cs2  1  0.265048  0.995943  0.207587  1
  Cs  Cs3  1  0.765048  0.504057  0.707587  1
  Mn  Mn4  1  0.251732  0.321963  0.916011  1
  Mn  Mn5  1  0.751732  0.178037  0.416011  1
  Mn  Mn6  1  0.251732  0.821963  0.583989  1
  Mn  Mn7  1  0.751732  0.678037  0.083989  1
  As  As8  1  0.752078  0.798800  0.412846  1
  As  As9  1  0.252078  0.201200  0.587154  1
  As  As10  1  0.752078  0.298800  0.087154  1
  As  As11  1  0.252078  0.701200  0.912846  1
  O  O12  1  0.579963  0.750174  0.545187  1
  O  O13  1  0.079963  0.749826  0.045187  1
  O  O14  1  0.637639  0.228704  0.229145  1
  O  O15  1  0.579963  0.250174  0.954813  1
  O  O16  1  0.030688  0.740362  0.441846  1
  O  O17  1  0.137639  0.271296  0.729145  1
  O  O18  1  0.530688  0.259638  0.558154  1
  O  O19  1  0.030688  0.240362  0.058154  1
  O  O20  1  0.254752  0.027874  0.606405  1
  O  O21  1  0.079963  0.249826  0.454813  1
  O  O22  1  0.754752  0.472126  0.106405  1
  O  O23  1  0.754752  0.972126  0.393595  1
  O  O24  1  0.254752  0.527874  0.893595  1
  O  O25  1  0.137639  0.771296  0.770855  1
  O  O26  1  0.637639  0.728704  0.270855  1
  O  O27  1  0.530688  0.759638  0.941846  1
