# generated using pymatgen
data_Li4Ac3Si3Pb
_symmetry_space_group_name_H-M   'P 1'
_cell_length_a   4.71537484
_cell_length_b   7.15983867
_cell_length_c   8.92794516
_cell_angle_alpha   113.63940245
_cell_angle_beta   105.31227954
_cell_angle_gamma   90.00000264
_symmetry_Int_Tables_number   1
_chemical_formula_structural   Li4Ac3Si3Pb
_chemical_formula_sum   'Li4 Ac3 Si3 Pb1'
_cell_volume   264.40457585
_cell_formula_units_Z   1
loop_
 _symmetry_equiv_pos_site_id
 _symmetry_equiv_pos_as_xyz
  1  'x, y, z'
loop_
 _atom_site_type_symbol
 _atom_site_label
 _atom_site_symmetry_multiplicity
 _atom_site_fract_x
 _atom_site_fract_y
 _atom_site_fract_z
 _atom_site_occupancy
  Li  Li0  1  0.668430  0.967798  0.336858  1
  Li  Li1  1  0.332214  0.015842  0.664429  1
  Li  Li2  1  0.332214  0.648586  0.664429  1
  Li  Li3  1  0.668430  0.369060  0.336858  1
  Ac  Ac4  1  0.992972  0.992972  0.985945  1
  Ac  Ac5  1  0.132395  0.632395  0.264792  1
  Ac  Ac6  1  0.874022  0.374022  0.748044  1
  Si  Si7  1  0.500749  0.671461  0.001499  1
  Si  Si8  1  0.500749  0.330039  0.001499  1
  Si  Si9  1  0.786366  0.786366  0.572731  1
  Pb  Pb10  1  0.211458  0.211458  0.422915  1
