# generated using pymatgen
data_Lu4Cu3NiPb2
_symmetry_space_group_name_H-M   'P 1'
_cell_length_a   7.47710719
_cell_length_b   7.47710719
_cell_length_c   3.63621600
_cell_angle_alpha   90.00000000
_cell_angle_beta   90.00000000
_cell_angle_gamma   90.16962440
_symmetry_Int_Tables_number   1
_chemical_formula_structural   Lu4Cu3NiPb2
_chemical_formula_sum   'Lu4 Cu3 Ni1 Pb2'
_cell_volume   203.28951686
_cell_formula_units_Z   1
loop_
 _symmetry_equiv_pos_site_id
 _symmetry_equiv_pos_as_xyz
  1  'x, y, z'
loop_
 _atom_site_type_symbol
 _atom_site_label
 _atom_site_symmetry_multiplicity
 _atom_site_fract_x
 _atom_site_fract_y
 _atom_site_fract_z
 _atom_site_occupancy
  Lu  Lu0  1  0.329017  0.159797  0.500000  1
  Lu  Lu1  1  0.832204  0.332204  0.500000  1
  Lu  Lu2  1  0.177117  0.677117  0.500000  1
  Lu  Lu3  1  0.659797  0.829017  0.500000  1
  Cu  Cu4  1  0.619388  0.119388  0.000000  1
  Cu  Cu5  1  0.121114  0.382060  0.000000  1
  Cu  Cu6  1  0.882060  0.621114  0.000000  1
  Ni  Ni7  1  0.380447  0.880447  0.000000  1
  Pb  Pb8  1  0.999691  0.999163  0.000000  1
  Pb  Pb9  1  0.499163  0.499691  0.000000  1
