# generated using pymatgen
data_Ce2LuUAs6Ru7
_symmetry_space_group_name_H-M   'P 1'
_cell_length_a   7.25089640
_cell_length_b   7.27620240
_cell_length_c   7.25550853
_cell_angle_alpha   109.66038350
_cell_angle_beta   109.43222500
_cell_angle_gamma   109.60627832
_symmetry_Int_Tables_number   1
_chemical_formula_structural   Ce2LuUAs6Ru7
_chemical_formula_sum   'Ce2 Lu1 U1 As6 Ru7'
_cell_volume   293.63161709
_cell_formula_units_Z   1
loop_
 _symmetry_equiv_pos_site_id
 _symmetry_equiv_pos_as_xyz
  1  'x, y, z'
loop_
 _atom_site_type_symbol
 _atom_site_label
 _atom_site_symmetry_multiplicity
 _atom_site_fract_x
 _atom_site_fract_y
 _atom_site_fract_z
 _atom_site_occupancy
  Ce  Ce0  1  0.000000  0.000000  0.500000  1
  Ce  Ce1  1  0.500000  0.000000  0.000000  1
  Lu  Lu2  1  0.500000  0.500000  0.500000  1
  U  U3  1  0.000000  0.500000  0.000000  1
  As  As4  1  0.317341  0.004997  0.317230  1
  As  As5  1  0.005099  0.316883  0.316783  1
  As  As6  1  0.994901  0.683117  0.683217  1
  As  As7  1  0.316909  0.316963  0.005267  1
  As  As8  1  0.683091  0.683037  0.994733  1
  As  As9  1  0.682659  0.995003  0.682770  1
  Ru  Ru10  1  0.752522  0.499908  0.247375  1
  Ru  Ru11  1  0.491761  0.744821  0.246875  1
  Ru  Ru12  1  0.508239  0.255179  0.753125  1
  Ru  Ru13  1  0.753102  0.255278  0.508336  1
  Ru  Ru14  1  0.246898  0.744722  0.491664  1
  Ru  Ru15  1  0.247478  0.500092  0.752625  1
  Ru  Ru16  1  0.000000  0.000000  0.000000  1
