# generated using pymatgen
data_Cs4Dy3Bi9S20
_symmetry_space_group_name_H-M   'P 1'
_cell_length_a   4.05176100
_cell_length_b   12.05039767
_cell_length_c   22.28544448
_cell_angle_alpha   90.00882336
_cell_angle_beta   90.00000000
_cell_angle_gamma   90.00000000
_symmetry_Int_Tables_number   1
_chemical_formula_structural   Cs4Dy3Bi9S20
_chemical_formula_sum   'Cs4 Dy3 Bi9 S20'
_cell_volume   1088.09419712
_cell_formula_units_Z   1
loop_
 _symmetry_equiv_pos_site_id
 _symmetry_equiv_pos_as_xyz
  1  'x, y, z'
loop_
 _atom_site_type_symbol
 _atom_site_label
 _atom_site_symmetry_multiplicity
 _atom_site_fract_x
 _atom_site_fract_y
 _atom_site_fract_z
 _atom_site_occupancy
  Cs  Cs0  1  0.250000  0.487364  0.211817  1
  Cs  Cs1  1  0.750000  0.511275  0.788483  1
  Cs  Cs2  1  0.750000  0.987486  0.286623  1
  Cs  Cs3  1  0.250000  0.011495  0.712177  1
  Dy  Dy4  1  0.250000  0.364163  0.023482  1
  Dy  Dy5  1  0.750000  0.635707  0.976350  1
  Dy  Dy6  1  0.750000  0.862982  0.475926  1
  Bi  Bi7  1  0.250000  0.134136  0.524626  1
  Bi  Bi8  1  0.250000  0.800214  0.119299  1
  Bi  Bi9  1  0.750000  0.199229  0.880312  1
  Bi  Bi10  1  0.750000  0.301899  0.379869  1
  Bi  Bi11  1  0.250000  0.697620  0.620890  1
  Bi  Bi12  1  0.250000  0.593336  0.426294  1
  Bi  Bi13  1  0.750000  0.408670  0.573120  1
  Bi  Bi14  1  0.750000  0.094373  0.073341  1
  Bi  Bi15  1  0.250000  0.905509  0.926353  1
  S  S16  1  0.250000  0.808521  0.396883  1
  S  S17  1  0.750000  0.197373  0.608366  1
  S  S18  1  0.750000  0.307835  0.102985  1
  S  S19  1  0.250000  0.692008  0.896842  1
  S  S20  1  0.250000  0.248816  0.306503  1
  S  S21  1  0.750000  0.750011  0.694160  1
  S  S22  1  0.750000  0.748245  0.192773  1
  S  S23  1  0.250000  0.250787  0.806767  1
  S  S24  1  0.250000  0.361318  0.481613  1
  S  S25  1  0.750000  0.645953  0.517280  1
  S  S26  1  0.750000  0.853007  0.017329  1
  S  S27  1  0.250000  0.146923  0.982386  1
  S  S28  1  0.250000  0.024012  0.150269  1
  S  S29  1  0.750000  0.975655  0.849323  1
  S  S30  1  0.750000  0.524548  0.348731  1
  S  S31  1  0.250000  0.476358  0.651413  1
  S  S32  1  0.250000  0.582609  0.055279  1
  S  S33  1  0.750000  0.417250  0.944563  1
  S  S34  1  0.750000  0.080076  0.441101  1
  S  S35  1  0.250000  0.913236  0.556469  1
