# generated using pymatgen
data_Nd5AuSe4
_symmetry_space_group_name_H-M   'P 1'
_cell_length_a   7.36301325
_cell_length_b   7.36301329
_cell_length_c   7.36301380
_cell_angle_alpha   99.69108614
_cell_angle_beta   99.69109071
_cell_angle_gamma   131.55417546
_symmetry_Int_Tables_number   1
_chemical_formula_structural   Nd5AuSe4
_chemical_formula_sum   'Nd5 Au1 Se4'
_cell_volume   272.41636845
_cell_formula_units_Z   1
loop_
 _symmetry_equiv_pos_site_id
 _symmetry_equiv_pos_as_xyz
  1  'x, y, z'
loop_
 _atom_site_type_symbol
 _atom_site_label
 _atom_site_symmetry_multiplicity
 _atom_site_fract_x
 _atom_site_fract_y
 _atom_site_fract_z
 _atom_site_occupancy
  Nd  Nd0  1  0.398173  0.800149  0.198321  1
  Nd  Nd1  1  0.000000  0.000000  0.000000  1
  Nd  Nd2  1  0.601827  0.199851  0.801679  1
  Nd  Nd3  1  0.199851  0.398173  0.598024  1
  Nd  Nd4  1  0.800149  0.601827  0.401976  1
  Au  Au5  1  0.500000  0.500000  0.000000  1
  Se  Se6  1  0.097495  0.698105  0.795599  1
  Se  Se7  1  0.698105  0.902505  0.600609  1
  Se  Se8  1  0.301895  0.097495  0.399391  1
  Se  Se9  1  0.902505  0.301895  0.204401  1
