# generated using pymatgen
data_EuY2Er(ZnSn)4
_symmetry_space_group_name_H-M   'P 1'
_cell_length_a   4.55254600
_cell_length_b   4.55254644
_cell_length_c   16.12732100
_cell_angle_alpha   90.00000000
_cell_angle_beta   90.00000000
_cell_angle_gamma   119.99999678
_symmetry_Int_Tables_number   1
_chemical_formula_structural   EuY2Er(ZnSn)4
_chemical_formula_sum   'Eu1 Y2 Er1 Zn4 Sn4'
_cell_volume   289.46869539
_cell_formula_units_Z   1
loop_
 _symmetry_equiv_pos_site_id
 _symmetry_equiv_pos_as_xyz
  1  'x, y, z'
loop_
 _atom_site_type_symbol
 _atom_site_label
 _atom_site_symmetry_multiplicity
 _atom_site_fract_x
 _atom_site_fract_y
 _atom_site_fract_z
 _atom_site_occupancy
  Eu  Eu0  1  0.000000  0.000000  0.998634  1
  Y  Y1  1  0.000000  0.000000  0.256710  1
  Y  Y2  1  0.000000  0.000000  0.501185  1
  Er  Er3  1  0.000000  0.000000  0.743108  1
  Zn  Zn4  1  0.333333  0.666667  0.169707  1
  Zn  Zn5  1  0.666667  0.333333  0.827626  1
  Zn  Zn6  1  0.666667  0.333333  0.658138  1
  Zn  Zn7  1  0.333333  0.666667  0.343578  1
  Sn  Sn8  1  0.333333  0.666667  0.610806  1
  Sn  Sn9  1  0.666667  0.333333  0.392308  1
  Sn  Sn10  1  0.666667  0.333333  0.123235  1
  Sn  Sn11  1  0.333333  0.666667  0.874964  1
