# generated using pymatgen
data_Y4UP12Ru18Pt
_symmetry_space_group_name_H-M   'P 1'
_cell_length_a   12.65006740
_cell_length_b   12.46203518
_cell_length_c   3.96884200
_cell_angle_alpha   90.00000000
_cell_angle_beta   90.00000000
_cell_angle_gamma   119.50949921
_symmetry_Int_Tables_number   1
_chemical_formula_structural   Y4UP12Ru18Pt
_chemical_formula_sum   'Y4 U1 P12 Ru18 Pt1'
_cell_volume   544.50472515
_cell_formula_units_Z   1
loop_
 _symmetry_equiv_pos_site_id
 _symmetry_equiv_pos_as_xyz
  1  'x, y, z'
loop_
 _atom_site_type_symbol
 _atom_site_label
 _atom_site_symmetry_multiplicity
 _atom_site_fract_x
 _atom_site_fract_y
 _atom_site_fract_z
 _atom_site_occupancy
  Y  Y0  1  0.811749  0.811270  0.500000  1
  Y  Y1  1  0.188251  0.999520  0.500000  1
  Y  Y2  1  0.665005  0.330913  0.000000  1
  Y  Y3  1  0.334995  0.665909  0.000000  1
  U  U4  1  0.000000  0.173963  0.500000  1
  P  P5  1  0.000000  0.815461  0.000000  1
  P  P6  1  0.188063  0.182197  0.000000  1
  P  P7  1  0.811937  0.994134  0.000000  1
  P  P8  1  0.692939  0.173082  0.500000  1
  P  P9  1  0.818751  0.520257  0.500000  1
  P  P10  1  0.477395  0.309306  0.500000  1
  P  P11  1  0.181249  0.701507  0.500000  1
  P  P12  1  0.522605  0.831911  0.500000  1
  P  P13  1  0.307061  0.480142  0.500000  1
  P  P14  1  0.000000  0.363935  0.000000  1
  P  P15  1  0.625470  0.626557  0.000000  1
  P  P16  1  0.374530  0.001087  0.000000  1
  Ru  Ru17  1  0.441250  0.447093  0.000000  1
  Ru  Ru18  1  0.558750  0.005842  0.000000  1
  Ru  Ru19  1  0.000000  0.712597  0.500000  1
  Ru  Ru20  1  0.281442  0.283958  0.500000  1
  Ru  Ru21  1  0.718558  0.002516  0.500000  1
  Ru  Ru22  1  0.813224  0.184075  0.000000  1
  Ru  Ru23  1  0.815248  0.620786  0.000000  1
  Ru  Ru24  1  0.378003  0.193734  0.000000  1
  Ru  Ru25  1  0.184752  0.805538  0.000000  1
  Ru  Ru26  1  0.621997  0.815730  0.000000  1
  Ru  Ru27  1  0.186776  0.370851  0.000000  1
  Ru  Ru28  1  0.872354  0.366085  0.500000  1
  Ru  Ru29  1  0.630635  0.511374  0.500000  1
  Ru  Ru30  1  0.495091  0.131449  0.500000  1
  Ru  Ru31  1  0.369365  0.880739  0.500000  1
  Ru  Ru32  1  0.504909  0.636356  0.500000  1
  Ru  Ru33  1  0.127646  0.493731  0.500000  1
  Ru  Ru34  1  0.000000  0.005969  0.000000  1
  Pt  Pt35  1  0.000000  0.550428  0.000000  1
