# generated using pymatgen
data_Dy3YAl15(GaIr2)3
_symmetry_space_group_name_H-M   'P 1'
_cell_length_a   7.53559901
_cell_length_b   7.53557198
_cell_length_c   9.54283300
_cell_angle_alpha   90.00000000
_cell_angle_beta   90.00000000
_cell_angle_gamma   119.40231375
_symmetry_Int_Tables_number   1
_chemical_formula_structural   Dy3YAl15(GaIr2)3
_chemical_formula_sum   'Dy3 Y1 Al15 Ga3 Ir6'
_cell_volume   472.09151565
_cell_formula_units_Z   1
loop_
 _symmetry_equiv_pos_site_id
 _symmetry_equiv_pos_as_xyz
  1  'x, y, z'
loop_
 _atom_site_type_symbol
 _atom_site_label
 _atom_site_symmetry_multiplicity
 _atom_site_fract_x
 _atom_site_fract_y
 _atom_site_fract_z
 _atom_site_occupancy
  Dy  Dy0  1  0.005909  0.325473  0.250000  1
  Dy  Dy1  1  0.670685  0.990921  0.750000  1
  Dy  Dy2  1  0.324675  0.003948  0.250000  1
  Y  Y3  1  0.997626  0.674951  0.750000  1
  Al  Al4  1  0.001395  0.335466  0.572145  1
  Al  Al5  1  0.998430  0.663960  0.426292  1
  Al  Al6  1  0.998430  0.663960  0.073708  1
  Al  Al7  1  0.336314  0.003197  0.927444  1
  Al  Al8  1  0.001395  0.335466  0.927855  1
  Al  Al9  1  0.664233  0.999336  0.073204  1
  Al  Al10  1  0.664233  0.999336  0.426796  1
  Al  Al11  1  0.336314  0.003197  0.572556  1
  Al  Al12  1  0.334178  0.334180  0.055983  1
  Al  Al13  1  0.666210  0.665828  0.949288  1
  Al  Al14  1  0.666210  0.665828  0.550712  1
  Al  Al15  1  0.334178  0.334180  0.444017  1
  Al  Al16  1  0.662446  0.450140  0.250000  1
  Al  Al17  1  0.550187  0.339381  0.750000  1
  Al  Al18  1  0.450603  0.662350  0.250000  1
  Ga  Ga19  1  0.131843  0.133021  0.750000  1
  Ga  Ga20  1  0.864614  0.864504  0.250000  1
  Ga  Ga21  1  0.339937  0.546726  0.750000  1
  Ir  Ir22  1  0.671307  0.329088  0.500229  1
  Ir  Ir23  1  0.328505  0.672663  0.497672  1
  Ir  Ir24  1  0.328505  0.672663  0.002328  1
  Ir  Ir25  1  0.671307  0.329088  0.999771  1
  Ir  Ir26  1  0.000163  0.000576  0.499833  1
  Ir  Ir27  1  0.000163  0.000576  0.000167  1
