# generated using pymatgen
data_Th2Ir5Rh2
_symmetry_space_group_name_H-M   'P 1'
_cell_length_a   5.34331703
_cell_length_b   5.34331820
_cell_length_c   13.66094987
_cell_angle_alpha   78.72202883
_cell_angle_beta   78.72203798
_cell_angle_gamma   60.00001062
_symmetry_Int_Tables_number   1
_chemical_formula_structural   Th2Ir5Rh2
_chemical_formula_sum   'Th4 Ir10 Rh4'
_cell_volume   329.05424744
_cell_formula_units_Z   2
loop_
 _symmetry_equiv_pos_site_id
 _symmetry_equiv_pos_as_xyz
  1  'x, y, z'
loop_
 _atom_site_type_symbol
 _atom_site_label
 _atom_site_symmetry_multiplicity
 _atom_site_fract_x
 _atom_site_fract_y
 _atom_site_fract_z
 _atom_site_occupancy
  Th  Th0  1  0.950326  0.950326  0.149023  1
  Th  Th1  1  0.049674  0.049674  0.850977  1
  Th  Th2  1  0.853187  0.853187  0.440437  1
  Th  Th3  1  0.146813  0.146813  0.559563  1
  Ir  Ir4  1  0.500000  0.500000  0.500000  1
  Ir  Ir5  1  0.000000  0.500000  0.000000  1
  Ir  Ir6  1  0.500000  0.000000  0.000000  1
  Ir  Ir7  1  0.500000  0.500000  0.000000  1
  Ir  Ir8  1  0.388778  0.388778  0.330312  1
  Ir  Ir9  1  0.892131  0.388778  0.330312  1
  Ir  Ir10  1  0.388778  0.892131  0.330312  1
  Ir  Ir11  1  0.611222  0.611222  0.669688  1
  Ir  Ir12  1  0.107869  0.611222  0.669688  1
  Ir  Ir13  1  0.611222  0.107869  0.669688  1
  Rh  Rh14  1  0.722062  0.722062  0.833813  1
  Rh  Rh15  1  0.277938  0.277938  0.166187  1
  Rh  Rh16  1  0.611192  0.611192  0.166423  1
  Rh  Rh17  1  0.388808  0.388808  0.833577  1
