# generated using pymatgen
data_Ta5Mo(PbS6)2
_symmetry_space_group_name_H-M   'P 1'
_cell_length_a   5.78175700
_cell_length_b   5.78201749
_cell_length_c   15.06034000
_cell_angle_alpha   90.00000000
_cell_angle_beta   90.00000000
_cell_angle_gamma   119.99668076
_symmetry_Int_Tables_number   1
_chemical_formula_structural   Ta5Mo(PbS6)2
_chemical_formula_sum   'Ta5 Mo1 Pb2 S12'
_cell_volume   436.03280948
_cell_formula_units_Z   1
loop_
 _symmetry_equiv_pos_site_id
 _symmetry_equiv_pos_as_xyz
  1  'x, y, z'
loop_
 _atom_site_type_symbol
 _atom_site_label
 _atom_site_symmetry_multiplicity
 _atom_site_fract_x
 _atom_site_fract_y
 _atom_site_fract_z
 _atom_site_occupancy
  Ta  Ta0  1  0.333077  0.666463  0.000000  1
  Ta  Ta1  1  0.999716  0.999799  0.000000  1
  Ta  Ta2  1  0.000055  0.000084  0.500000  1
  Ta  Ta3  1  0.666692  0.333405  0.500000  1
  Ta  Ta4  1  0.333576  0.666794  0.500000  1
  Mo  Mo5  1  0.666579  0.333226  0.000000  1
  Pb  Pb6  1  0.000018  0.000108  0.250709  1
  Pb  Pb7  1  0.000018  0.000108  0.749291  1
  S  S8  1  0.996937  0.659775  0.103047  1
  S  S9  1  0.662860  0.002837  0.103060  1
  S  S10  1  0.340002  0.336983  0.103011  1
  S  S11  1  0.663260  0.663301  0.396076  1
  S  S12  1  0.336942  0.000206  0.396096  1
  S  S13  1  0.000132  0.336909  0.396077  1
  S  S14  1  0.336942  0.000206  0.603904  1
  S  S15  1  0.000132  0.336909  0.603923  1
  S  S16  1  0.663260  0.663301  0.603924  1
  S  S17  1  0.340002  0.336983  0.896989  1
  S  S18  1  0.996937  0.659775  0.896952  1
  S  S19  1  0.662860  0.002837  0.896939  1
