# generated using pymatgen
data_Er20Mg3Os2Pd3
_symmetry_space_group_name_H-M   'P 1'
_cell_length_a   9.56391000
_cell_length_b   9.56390998
_cell_length_c   9.63728800
_cell_angle_alpha   90.00000000
_cell_angle_beta   90.00000000
_cell_angle_gamma   120.00000006
_symmetry_Int_Tables_number   1
_chemical_formula_structural   Er20Mg3Os2Pd3
_chemical_formula_sum   'Er20 Mg3 Os2 Pd3'
_cell_volume   763.40751256
_cell_formula_units_Z   1
loop_
 _symmetry_equiv_pos_site_id
 _symmetry_equiv_pos_as_xyz
  1  'x, y, z'
loop_
 _atom_site_type_symbol
 _atom_site_label
 _atom_site_symmetry_multiplicity
 _atom_site_fract_x
 _atom_site_fract_y
 _atom_site_fract_z
 _atom_site_occupancy
  Er  Er0  1  0.000000  0.000000  0.438446  1
  Er  Er1  1  0.000000  0.000000  0.061554  1
  Er  Er2  1  0.209850  0.790150  0.439600  1
  Er  Er3  1  0.209850  0.419701  0.439600  1
  Er  Er4  1  0.580299  0.790150  0.439600  1
  Er  Er5  1  0.790568  0.209432  0.554009  1
  Er  Er6  1  0.790568  0.581134  0.554009  1
  Er  Er7  1  0.418866  0.209432  0.554009  1
  Er  Er8  1  0.790568  0.209432  0.945991  1
  Er  Er9  1  0.790568  0.581134  0.945991  1
  Er  Er10  1  0.418866  0.209432  0.945991  1
  Er  Er11  1  0.209850  0.790150  0.060400  1
  Er  Er12  1  0.209850  0.419701  0.060400  1
  Er  Er13  1  0.580299  0.790150  0.060400  1
  Er  Er14  1  0.539703  0.460297  0.250000  1
  Er  Er15  1  0.539703  0.079408  0.250000  1
  Er  Er16  1  0.920592  0.460297  0.250000  1
  Er  Er17  1  0.460559  0.539441  0.750000  1
  Er  Er18  1  0.460559  0.921119  0.750000  1
  Er  Er19  1  0.078881  0.539441  0.750000  1
  Mg  Mg20  1  0.106241  0.893759  0.750000  1
  Mg  Mg21  1  0.106241  0.212479  0.750000  1
  Mg  Mg22  1  0.787521  0.893759  0.750000  1
  Os  Os23  1  0.333333  0.666667  0.250000  1
  Os  Os24  1  0.666667  0.333333  0.750000  1
  Pd  Pd25  1  0.866810  0.133190  0.250000  1
  Pd  Pd26  1  0.866810  0.733621  0.250000  1
  Pd  Pd27  1  0.266379  0.133190  0.250000  1
