# generated using pymatgen
data_Tm2MnFeCo10P7
_symmetry_space_group_name_H-M   'P 1'
_cell_length_a   9.01346995
_cell_length_b   8.99810122
_cell_length_c   3.59623500
_cell_angle_alpha   90.00000000
_cell_angle_beta   90.00000000
_cell_angle_gamma   120.06221953
_symmetry_Int_Tables_number   1
_chemical_formula_structural   Tm2MnFeCo10P7
_chemical_formula_sum   'Tm2 Mn1 Fe1 Co10 P7'
_cell_volume   252.43464320
_cell_formula_units_Z   1
loop_
 _symmetry_equiv_pos_site_id
 _symmetry_equiv_pos_as_xyz
  1  'x, y, z'
loop_
 _atom_site_type_symbol
 _atom_site_label
 _atom_site_symmetry_multiplicity
 _atom_site_fract_x
 _atom_site_fract_y
 _atom_site_fract_z
 _atom_site_occupancy
  Tm  Tm0  1  0.001002  0.998272  0.000000  1
  Tm  Tm1  1  0.666347  0.332808  0.500000  1
  Mn  Mn2  1  0.112273  0.544681  0.500000  1
  Fe  Fe3  1  0.430523  0.887602  0.500000  1
  Co  Co4  1  0.701946  0.606088  0.000000  1
  Co  Co5  1  0.394938  0.098374  0.000000  1
  Co  Co6  1  0.901948  0.296280  0.000000  1
  Co  Co7  1  0.217256  0.391918  0.000000  1
  Co  Co8  1  0.608468  0.823720  0.000000  1
  Co  Co9  1  0.175544  0.783296  0.000000  1
  Co  Co10  1  0.283317  0.231230  0.500000  1
  Co  Co11  1  0.768819  0.051051  0.500000  1
  Co  Co12  1  0.946363  0.717609  0.500000  1
  Co  Co13  1  0.458579  0.574229  0.500000  1
  P  P14  1  0.446674  0.368450  0.000000  1
  P  P15  1  0.631436  0.078354  0.000000  1
  P  P16  1  0.919278  0.552890  0.000000  1
  P  P17  1  0.042609  0.257434  0.500000  1
  P  P18  1  0.737173  0.781826  0.500000  1
  P  P19  1  0.220315  0.955841  0.500000  1
  P  P20  1  0.335191  0.668049  0.000000  1
