# generated using pymatgen
data_Li2Yb7Y(Si6Pd)2
_symmetry_space_group_name_H-M   'P 1'
_cell_length_a   8.28838800
_cell_length_b   8.28838701
_cell_length_c   8.22233900
_cell_angle_alpha   90.00000000
_cell_angle_beta   90.00000000
_cell_angle_gamma   119.99999596
_symmetry_Int_Tables_number   1
_chemical_formula_structural   Li2Yb7Y(Si6Pd)2
_chemical_formula_sum   'Li2 Yb7 Y1 Si12 Pd2'
_cell_volume   489.17710499
_cell_formula_units_Z   1
loop_
 _symmetry_equiv_pos_site_id
 _symmetry_equiv_pos_as_xyz
  1  'x, y, z'
loop_
 _atom_site_type_symbol
 _atom_site_label
 _atom_site_symmetry_multiplicity
 _atom_site_fract_x
 _atom_site_fract_y
 _atom_site_fract_z
 _atom_site_occupancy
  Li  Li0  1  0.333333  0.666667  0.003501  1
  Li  Li1  1  0.666667  0.333333  0.997667  1
  Yb  Yb2  1  0.500626  0.001253  0.258349  1
  Yb  Yb3  1  0.499360  0.998719  0.742822  1
  Yb  Yb4  1  0.998747  0.499374  0.258349  1
  Yb  Yb5  1  0.001281  0.500640  0.742822  1
  Yb  Yb6  1  0.500626  0.499374  0.258349  1
  Yb  Yb7  1  0.499360  0.500640  0.742822  1
  Yb  Yb8  1  0.000000  0.000000  0.250497  1
  Y  Y9  1  0.000000  0.000000  0.750753  1
  Si  Si10  1  0.162906  0.325812  0.996690  1
  Si  Si11  1  0.837037  0.674074  0.997827  1
  Si  Si12  1  0.674188  0.837094  0.996690  1
  Si  Si13  1  0.835748  0.671498  0.502427  1
  Si  Si14  1  0.325926  0.162963  0.997827  1
  Si  Si15  1  0.164297  0.328594  0.501479  1
  Si  Si16  1  0.162906  0.837094  0.996690  1
  Si  Si17  1  0.328502  0.164252  0.502427  1
  Si  Si18  1  0.837037  0.162963  0.997827  1
  Si  Si19  1  0.671406  0.835703  0.501479  1
  Si  Si20  1  0.835748  0.164252  0.502427  1
  Si  Si21  1  0.164297  0.835703  0.501479  1
  Pd  Pd22  1  0.666667  0.333333  0.500960  1
  Pd  Pd23  1  0.333333  0.666667  0.497837  1
