# generated using pymatgen
data_In(BBr)6
_symmetry_space_group_name_H-M   'P 1'
_cell_length_a   10.06087711
_cell_length_b   10.06087626
_cell_length_c   17.03895900
_cell_angle_alpha   107.17142209
_cell_angle_beta   72.82857941
_cell_angle_gamma   119.99999470
_symmetry_Int_Tables_number   1
_chemical_formula_structural   In(BBr)6
_chemical_formula_sum   'In4 B24 Br24'
_cell_volume   1404.16629259
_cell_formula_units_Z   4
loop_
 _symmetry_equiv_pos_site_id
 _symmetry_equiv_pos_as_xyz
  1  'x, y, z'
loop_
 _atom_site_type_symbol
 _atom_site_label
 _atom_site_symmetry_multiplicity
 _atom_site_fract_x
 _atom_site_fract_y
 _atom_site_fract_z
 _atom_site_occupancy
  In  In0  1  0.630673  0.369327  0.107981  1
  In  In1  1  0.199726  0.800273  0.400820  1
  In  In2  1  0.800272  0.199727  0.599180  1
  In  In3  1  0.369327  0.630673  0.892019  1
  B  B4  1  0.030993  0.187823  0.020013  1
  B  B5  1  0.812178  0.863183  0.020013  1
  B  B6  1  0.136817  0.969008  0.020013  1
  B  B7  1  0.882176  0.051323  0.084870  1
  B  B8  1  0.084278  0.117824  0.084870  1
  B  B9  1  0.948676  0.915721  0.084870  1
  B  B10  1  0.446064  0.355869  0.415372  1
  B  B11  1  0.644131  0.505568  0.415372  1
  B  B12  1  0.494432  0.553936  0.415372  1
  B  B13  1  0.560718  0.360888  0.480021  1
  B  B14  1  0.320149  0.439282  0.480021  1
  B  B15  1  0.639112  0.679851  0.480021  1
  B  B16  1  0.360888  0.320149  0.519979  1
  B  B17  1  0.679851  0.560718  0.519979  1
  B  B18  1  0.439281  0.639112  0.519979  1
  B  B19  1  0.505568  0.446064  0.584628  1
  B  B20  1  0.355869  0.494432  0.584628  1
  B  B21  1  0.553936  0.644131  0.584628  1
  B  B22  1  0.051324  0.084279  0.915130  1
  B  B23  1  0.915722  0.882176  0.915130  1
  B  B24  1  0.117825  0.948676  0.915130  1
  B  B25  1  0.863183  0.030992  0.979987  1
  B  B26  1  0.187822  0.136817  0.979987  1
  B  B27  1  0.969007  0.812177  0.979987  1
  Br  Br28  1  0.065902  0.405916  0.044898  1
  Br  Br29  1  0.594084  0.704883  0.044898  1
  Br  Br30  1  0.295118  0.934098  0.044898  1
  Br  Br31  1  0.745090  0.109900  0.180746  1
  Br  Br32  1  0.184063  0.254909  0.180746  1
  Br  Br33  1  0.890100  0.815937  0.180746  1
  Br  Br34  1  0.383059  0.188380  0.318952  1
  Br  Br35  1  0.811620  0.513631  0.318952  1
  Br  Br36  1  0.486369  0.616941  0.318952  1
  Br  Br37  1  0.629376  0.197477  0.453391  1
  Br  Br38  1  0.114711  0.370624  0.453391  1
  Br  Br39  1  0.802523  0.885290  0.453391  1
  Br  Br40  1  0.197477  0.114711  0.546610  1
  Br  Br41  1  0.885289  0.629376  0.546610  1
  Br  Br42  1  0.370624  0.802523  0.546610  1
  Br  Br43  1  0.513631  0.383059  0.681049  1
  Br  Br44  1  0.188380  0.486369  0.681049  1
  Br  Br45  1  0.616941  0.811620  0.681049  1
  Br  Br46  1  0.109900  0.184063  0.819254  1
  Br  Br47  1  0.815937  0.745091  0.819254  1
  Br  Br48  1  0.254910  0.890100  0.819254  1
  Br  Br49  1  0.704882  0.065902  0.955102  1
  Br  Br50  1  0.405916  0.295117  0.955102  1
  Br  Br51  1  0.934098  0.594084  0.955102  1
