# generated using pymatgen
data_Pr4YZn2Bi
_symmetry_space_group_name_H-M   'P 1'
_cell_length_a   8.83714112
_cell_length_b   8.83714180
_cell_length_c   8.83714198
_cell_angle_alpha   121.94348954
_cell_angle_beta   121.94349067
_cell_angle_gamma   86.66549900
_symmetry_Int_Tables_number   1
_chemical_formula_structural   Pr4YZn2Bi
_chemical_formula_sum   'Pr8 Y2 Zn4 Bi2'
_cell_volume   472.79396284
_cell_formula_units_Z   2
loop_
 _symmetry_equiv_pos_site_id
 _symmetry_equiv_pos_as_xyz
  1  'x, y, z'
loop_
 _atom_site_type_symbol
 _atom_site_label
 _atom_site_symmetry_multiplicity
 _atom_site_fract_x
 _atom_site_fract_y
 _atom_site_fract_z
 _atom_site_occupancy
  Pr  Pr0  1  0.794443  0.294443  0.803630  1
  Pr  Pr1  1  0.205557  0.705557  0.196370  1
  Pr  Pr2  1  0.490812  0.990812  0.196370  1
  Pr  Pr3  1  0.294443  0.490812  0.500000  1
  Pr  Pr4  1  0.009188  0.205557  0.500000  1
  Pr  Pr5  1  0.509188  0.009188  0.803630  1
  Pr  Pr6  1  0.705557  0.509188  0.500000  1
  Pr  Pr7  1  0.990812  0.794443  0.500000  1
  Y  Y8  1  0.000000  0.000000  0.000000  1
  Y  Y9  1  0.500000  0.500000  0.000000  1
  Zn  Zn10  1  0.147137  0.647137  0.794273  1
  Zn  Zn11  1  0.852863  0.352863  0.205727  1
  Zn  Zn12  1  0.647137  0.852863  0.500000  1
  Zn  Zn13  1  0.352863  0.147137  0.500000  1
  Bi  Bi14  1  0.250000  0.250000  0.000000  1
  Bi  Bi15  1  0.750000  0.750000  0.000000  1
