# generated using pymatgen
data_LiDy8Ni2Hg
_symmetry_space_group_name_H-M   'P 1'
_cell_length_a   9.50514574
_cell_length_b   9.49935341
_cell_length_c   9.50514697
_cell_angle_alpha   60.02015679
_cell_angle_beta   59.94775818
_cell_angle_gamma   60.02015622
_symmetry_Int_Tables_number   1
_chemical_formula_structural   LiDy8Ni2Hg
_chemical_formula_sum   'Li2 Dy16 Ni4 Hg2'
_cell_volume   606.81603316
_cell_formula_units_Z   2
loop_
 _symmetry_equiv_pos_site_id
 _symmetry_equiv_pos_as_xyz
  1  'x, y, z'
loop_
 _atom_site_type_symbol
 _atom_site_label
 _atom_site_symmetry_multiplicity
 _atom_site_fract_x
 _atom_site_fract_y
 _atom_site_fract_z
 _atom_site_occupancy
  Li  Li0  1  0.930119  0.215716  0.930119  1
  Li  Li1  1  0.930119  0.924046  0.930119  1
  Dy  Dy2  1  0.151155  0.546660  0.151155  1
  Dy  Dy3  1  0.683349  0.316651  0.683349  1
  Dy  Dy4  1  0.686423  0.311686  0.311808  1
  Dy  Dy5  1  0.935124  0.564005  0.564160  1
  Dy  Dy6  1  0.542418  0.152246  0.153090  1
  Dy  Dy7  1  0.153090  0.152246  0.542418  1
  Dy  Dy8  1  0.935124  0.936710  0.564160  1
  Dy  Dy9  1  0.306976  0.693024  0.306976  1
  Dy  Dy10  1  0.564160  0.936710  0.935124  1
  Dy  Dy11  1  0.563464  0.936536  0.563464  1
  Dy  Dy12  1  0.686423  0.690084  0.311808  1
  Dy  Dy13  1  0.564160  0.564005  0.935124  1
  Dy  Dy14  1  0.935112  0.564888  0.935112  1
  Dy  Dy15  1  0.311808  0.690084  0.686423  1
  Dy  Dy16  1  0.151155  0.151030  0.151155  1
  Dy  Dy17  1  0.311808  0.311686  0.686423  1
  Ni  Ni18  1  0.356363  0.358090  0.927458  1
  Ni  Ni19  1  0.356118  0.928849  0.356118  1
  Ni  Ni20  1  0.927458  0.358090  0.356363  1
  Ni  Ni21  1  0.356118  0.358916  0.356118  1
  Hg  Hg22  1  0.910596  0.919021  0.251361  1
  Hg  Hg23  1  0.251361  0.919021  0.910596  1
