# generated using pymatgen
data_Ho2Si13GeIr6
_symmetry_space_group_name_H-M   'P 1'
_cell_length_a   8.07231508
_cell_length_b   8.07231512
_cell_length_c   8.07231614
_cell_angle_alpha   56.59760584
_cell_angle_beta   56.59760560
_cell_angle_gamma   56.59759862
_symmetry_Int_Tables_number   1
_chemical_formula_structural   Ho2Si13GeIr6
_chemical_formula_sum   'Ho2 Si13 Ge1 Ir6'
_cell_volume   342.70875765
_cell_formula_units_Z   1
loop_
 _symmetry_equiv_pos_site_id
 _symmetry_equiv_pos_as_xyz
  1  'x, y, z'
loop_
 _atom_site_type_symbol
 _atom_site_label
 _atom_site_symmetry_multiplicity
 _atom_site_fract_x
 _atom_site_fract_y
 _atom_site_fract_z
 _atom_site_occupancy
  Ho  Ho0  1  0.000023  0.000023  0.000023  1
  Ho  Ho1  1  0.499977  0.499977  0.499977  1
  Si  Si2  1  0.250000  0.250000  0.250000  1
  Si  Si3  1  0.851174  0.066845  0.671317  1
  Si  Si4  1  0.671317  0.851174  0.066845  1
  Si  Si5  1  0.066845  0.671317  0.851174  1
  Si  Si6  1  0.648826  0.828683  0.433155  1
  Si  Si7  1  0.433155  0.648826  0.828683  1
  Si  Si8  1  0.828683  0.433155  0.648826  1
  Si  Si9  1  0.172761  0.561914  0.351381  1
  Si  Si10  1  0.561914  0.351381  0.172761  1
  Si  Si11  1  0.351381  0.172761  0.561914  1
  Si  Si12  1  0.938086  0.327239  0.148619  1
  Si  Si13  1  0.327239  0.148619  0.938086  1
  Si  Si14  1  0.148619  0.938086  0.327239  1
  Ge  Ge15  1  0.750000  0.750000  0.750000  1
  Ir  Ir16  1  0.076484  0.423516  0.750000  1
  Ir  Ir17  1  0.250000  0.929650  0.570350  1
  Ir  Ir18  1  0.570350  0.250000  0.929650  1
  Ir  Ir19  1  0.929650  0.570350  0.250000  1
  Ir  Ir20  1  0.423516  0.750000  0.076484  1
  Ir  Ir21  1  0.750000  0.076484  0.423516  1
