# generated using pymatgen
data_Sm3Sn3RuPt2
_symmetry_space_group_name_H-M   'P 1'
_cell_length_a   7.70241900
_cell_length_b   7.70242003
_cell_length_c   3.96746700
_cell_angle_alpha   90.00000000
_cell_angle_beta   90.00000000
_cell_angle_gamma   119.99999129
_symmetry_Int_Tables_number   1
_chemical_formula_structural   Sm3Sn3RuPt2
_chemical_formula_sum   'Sm3 Sn3 Ru1 Pt2'
_cell_volume   203.84418674
_cell_formula_units_Z   1
loop_
 _symmetry_equiv_pos_site_id
 _symmetry_equiv_pos_as_xyz
  1  'x, y, z'
loop_
 _atom_site_type_symbol
 _atom_site_label
 _atom_site_symmetry_multiplicity
 _atom_site_fract_x
 _atom_site_fract_y
 _atom_site_fract_z
 _atom_site_occupancy
  Sm  Sm0  1  0.406772  0.406772  0.000000  1
  Sm  Sm1  1  0.593228  0.000000  0.000000  1
  Sm  Sm2  1  0.000000  0.593228  0.000000  1
  Sn  Sn3  1  0.000000  0.252909  0.500000  1
  Sn  Sn4  1  0.747091  0.747091  0.500000  1
  Sn  Sn5  1  0.252909  0.000000  0.500000  1
  Ru  Ru6  1  0.000000  0.000000  0.000000  1
  Pt  Pt7  1  0.333333  0.666667  0.500000  1
  Pt  Pt8  1  0.666667  0.333333  0.500000  1
