# generated using pymatgen
data_Zr2H6PtRh
_symmetry_space_group_name_H-M   'P 1'
_cell_length_a   5.83821072
_cell_length_b   5.83821018
_cell_length_c   4.63715700
_cell_angle_alpha   90.00000000
_cell_angle_beta   90.00000000
_cell_angle_gamma   144.67191372
_symmetry_Int_Tables_number   1
_chemical_formula_structural   Zr2H6PtRh
_chemical_formula_sum   'Zr2 H6 Pt1 Rh1'
_cell_volume   91.39715126
_cell_formula_units_Z   1
loop_
 _symmetry_equiv_pos_site_id
 _symmetry_equiv_pos_as_xyz
  1  'x, y, z'
loop_
 _atom_site_type_symbol
 _atom_site_label
 _atom_site_symmetry_multiplicity
 _atom_site_fract_x
 _atom_site_fract_y
 _atom_site_fract_z
 _atom_site_occupancy
  Zr  Zr0  1  0.646700  0.353300  0.250001  1
  Zr  Zr1  1  0.354321  0.645679  0.750000  1
  H  H2  1  0.192571  0.807429  0.006194  1
  H  H3  1  0.432379  0.567621  0.250001  1
  H  H4  1  0.192571  0.807429  0.493805  1
  H  H5  1  0.803567  0.196433  0.515650  1
  H  H6  1  0.568127  0.431873  0.750000  1
  H  H7  1  0.803567  0.196433  0.984350  1
  Pt  Pt8  1  0.933350  0.066649  0.250001  1
  Rh  Rh9  1  0.072847  0.927152  0.750000  1
