# generated using pymatgen
data_AcEu3(SiPt)4
_symmetry_space_group_name_H-M   'P 1'
_cell_length_a   6.53350776
_cell_length_b   6.53350776
_cell_length_c   6.53350776
_cell_angle_alpha   89.60534445
_cell_angle_beta   89.60534445
_cell_angle_gamma   90.39465555
_symmetry_Int_Tables_number   1
_chemical_formula_structural   AcEu3(SiPt)4
_chemical_formula_sum   'Ac1 Eu3 Si4 Pt4'
_cell_volume   278.87410107
_cell_formula_units_Z   1
loop_
 _symmetry_equiv_pos_site_id
 _symmetry_equiv_pos_as_xyz
  1  'x, y, z'
loop_
 _atom_site_type_symbol
 _atom_site_label
 _atom_site_symmetry_multiplicity
 _atom_site_fract_x
 _atom_site_fract_y
 _atom_site_fract_z
 _atom_site_occupancy
  Ac  Ac0  1  0.373822  0.873822  0.626178  1
  Eu  Eu1  1  0.876853  0.619386  0.375561  1
  Eu  Eu2  1  0.624439  0.376853  0.880614  1
  Eu  Eu3  1  0.119386  0.124439  0.123147  1
  Si  Si4  1  0.670152  0.170152  0.329848  1
  Si  Si5  1  0.165258  0.336210  0.666890  1
  Si  Si6  1  0.333110  0.665258  0.163790  1
  Si  Si7  1  0.836210  0.833110  0.834742  1
  Pt  Pt8  1  0.082397  0.582397  0.917603  1
  Pt  Pt9  1  0.585009  0.917322  0.083958  1
  Pt  Pt10  1  0.916042  0.085009  0.582678  1
  Pt  Pt11  1  0.417322  0.416042  0.414991  1
