# generated using pymatgen
data_Cs6Rb2NaGaSb4
_symmetry_space_group_name_H-M   'P 1'
_cell_length_a   11.22338443
_cell_length_b   11.06316498
_cell_length_c   11.72557800
_cell_angle_alpha   90.00000000
_cell_angle_beta   90.00000000
_cell_angle_gamma   119.52891716
_symmetry_Int_Tables_number   1
_chemical_formula_structural   Cs6Rb2NaGaSb4
_chemical_formula_sum   'Cs12 Rb4 Na2 Ga2 Sb8'
_cell_volume   1266.80619860
_cell_formula_units_Z   2
loop_
 _symmetry_equiv_pos_site_id
 _symmetry_equiv_pos_as_xyz
  1  'x, y, z'
loop_
 _atom_site_type_symbol
 _atom_site_label
 _atom_site_symmetry_multiplicity
 _atom_site_fract_x
 _atom_site_fract_y
 _atom_site_fract_z
 _atom_site_occupancy
  Cs  Cs0  1  0.205375  0.414534  0.539579  1
  Cs  Cs1  1  0.794625  0.209159  0.039580  1
  Cs  Cs2  1  0.417709  0.210631  0.044251  1
  Cs  Cs3  1  0.582291  0.792922  0.544251  1
  Cs  Cs4  1  0.210201  0.789731  0.541873  1
  Cs  Cs5  1  0.789799  0.579530  0.458128  1
  Cs  Cs6  1  0.794625  0.209159  0.460420  1
  Cs  Cs7  1  0.789799  0.579530  0.041872  1
  Cs  Cs8  1  0.417709  0.210631  0.455749  1
  Cs  Cs9  1  0.582291  0.792922  0.955749  1
  Cs  Cs10  1  0.205375  0.414534  0.960421  1
  Cs  Cs11  1  0.210201  0.789731  0.958127  1
  Rb  Rb12  1  0.237920  0.120941  0.750000  1
  Rb  Rb13  1  0.762080  0.883020  0.250000  1
  Rb  Rb14  1  0.118162  0.884466  0.250000  1
  Rb  Rb15  1  0.881837  0.766304  0.750000  1
  Na  Na16  1  0.120652  0.243812  0.250000  1
  Na  Na17  1  0.879349  0.123161  0.750000  1
  Ga  Ga18  1  0.332649  0.666013  0.250000  1
  Ga  Ga19  1  0.667351  0.333363  0.750000  1
  Sb  Sb20  1  0.459799  0.513931  0.250000  1
  Sb  Sb21  1  0.943033  0.460234  0.750000  1
  Sb  Sb22  1  0.540201  0.054132  0.750000  1
  Sb  Sb23  1  0.470662  0.945483  0.250000  1
  Sb  Sb24  1  0.056967  0.517199  0.250000  1
  Sb  Sb25  1  0.529338  0.474822  0.750000  1
  Sb  Sb26  1  0.000000  0.010055  0.000000  1
  Sb  Sb27  1  0.000000  0.010055  0.500000  1
