# generated using pymatgen
data_Er5TmAl18(Si3Ru4)2
_symmetry_space_group_name_H-M   'P 1'
_cell_length_a   8.65265400
_cell_length_b   8.63294765
_cell_length_c   9.50125000
_cell_angle_alpha   90.00000000
_cell_angle_beta   90.00000000
_cell_angle_gamma   120.07554724
_symmetry_Int_Tables_number   1
_chemical_formula_structural   Er5TmAl18(Si3Ru4)2
_chemical_formula_sum   'Er5 Tm1 Al18 Si6 Ru8'
_cell_volume   614.17015128
_cell_formula_units_Z   1
loop_
 _symmetry_equiv_pos_site_id
 _symmetry_equiv_pos_as_xyz
  1  'x, y, z'
loop_
 _atom_site_type_symbol
 _atom_site_label
 _atom_site_symmetry_multiplicity
 _atom_site_fract_x
 _atom_site_fract_y
 _atom_site_fract_z
 _atom_site_occupancy
  Er  Er0  1  0.806398  0.612798  0.750000  1
  Er  Er1  1  0.609691  0.807944  0.250000  1
  Er  Er2  1  0.390320  0.192110  0.750000  1
  Er  Er3  1  0.198252  0.807944  0.250000  1
  Er  Er4  1  0.801791  0.192110  0.750000  1
  Tm  Tm5  1  0.193518  0.387036  0.250000  1
  Al  Al6  1  0.164725  0.329450  0.580768  1
  Al  Al7  1  0.835329  0.670657  0.419357  1
  Al  Al8  1  0.670455  0.834728  0.578891  1
  Al  Al9  1  0.835329  0.670657  0.080643  1
  Al  Al10  1  0.329696  0.165256  0.421167  1
  Al  Al11  1  0.164725  0.329450  0.919232  1
  Al  Al12  1  0.164273  0.834728  0.578891  1
  Al  Al13  1  0.329696  0.165256  0.078833  1
  Al  Al14  1  0.835560  0.165256  0.421167  1
  Al  Al15  1  0.670455  0.834728  0.921109  1
  Al  Al16  1  0.835560  0.165256  0.078833  1
  Al  Al17  1  0.164273  0.834728  0.921109  1
  Al  Al18  1  0.873987  0.434013  0.250000  1
  Al  Al19  1  0.126033  0.566062  0.750000  1
  Al  Al20  1  0.560026  0.434013  0.250000  1
  Al  Al21  1  0.440030  0.566062  0.750000  1
  Al  Al22  1  0.999085  0.998171  0.250000  1
  Al  Al23  1  0.000550  0.001101  0.750000  1
  Si  Si24  1  0.331925  0.663852  0.040004  1
  Si  Si25  1  0.668110  0.336220  0.959732  1
  Si  Si26  1  0.668110  0.336220  0.540268  1
  Si  Si27  1  0.331925  0.663852  0.459996  1
  Si  Si28  1  0.562754  0.125509  0.250000  1
  Si  Si29  1  0.437240  0.874480  0.750000  1
  Ru  Ru30  1  0.500048  0.000095  0.999794  1
  Ru  Ru31  1  0.000007  0.499978  0.999855  1
  Ru  Ru32  1  0.500048  0.000095  0.500206  1
  Ru  Ru33  1  0.499971  0.499978  0.999855  1
  Ru  Ru34  1  0.000007  0.499978  0.500145  1
  Ru  Ru35  1  0.499971  0.499978  0.500145  1
  Ru  Ru36  1  0.000062  0.000124  0.999958  1
  Ru  Ru37  1  0.000062  0.000124  0.500042  1
