# generated using pymatgen
data_Li4NdY3Si8
_symmetry_space_group_name_H-M   'P 1'
_cell_length_a   3.82634100
_cell_length_b   7.63468037
_cell_length_c   10.26134199
_cell_angle_alpha   89.84086965
_cell_angle_beta   90.00000000
_cell_angle_gamma   90.00000000
_symmetry_Int_Tables_number   1
_chemical_formula_structural   Li4NdY3Si8
_chemical_formula_sum   'Li4 Nd1 Y3 Si8'
_cell_volume   299.76230408
_cell_formula_units_Z   1
loop_
 _symmetry_equiv_pos_site_id
 _symmetry_equiv_pos_as_xyz
  1  'x, y, z'
loop_
 _atom_site_type_symbol
 _atom_site_label
 _atom_site_symmetry_multiplicity
 _atom_site_fract_x
 _atom_site_fract_y
 _atom_site_fract_z
 _atom_site_occupancy
  Li  Li0  1  0.250000  0.992152  0.391805  1
  Li  Li1  1  0.250000  0.488433  0.107038  1
  Li  Li2  1  0.750000  0.011298  0.610403  1
  Li  Li3  1  0.750000  0.510149  0.892773  1
  Nd  Nd4  1  0.750000  0.357939  0.363406  1
  Y  Y5  1  0.250000  0.137985  0.863137  1
  Y  Y6  1  0.250000  0.640549  0.636463  1
  Y  Y7  1  0.750000  0.860046  0.135662  1
  Si  Si8  1  0.250000  0.230845  0.573867  1
  Si  Si9  1  0.250000  0.731717  0.930836  1
  Si  Si10  1  0.750000  0.773297  0.430887  1
  Si  Si11  1  0.750000  0.263396  0.064627  1
  Si  Si12  1  0.250000  0.662072  0.321048  1
  Si  Si13  1  0.250000  0.153372  0.174891  1
  Si  Si14  1  0.750000  0.343961  0.681849  1
  Si  Si15  1  0.750000  0.842787  0.821308  1
