# generated using pymatgen
data_Ti2Be9Re
_symmetry_space_group_name_H-M   'P 1'
_cell_length_a   7.40980012
_cell_length_b   7.40979971
_cell_length_c   7.40980026
_cell_angle_alpha   34.73576000
_cell_angle_beta   34.73576327
_cell_angle_gamma   34.73575542
_symmetry_Int_Tables_number   1
_chemical_formula_structural   Ti2Be9Re
_chemical_formula_sum   'Ti2 Be9 Re1'
_cell_volume   117.88294776
_cell_formula_units_Z   1
loop_
 _symmetry_equiv_pos_site_id
 _symmetry_equiv_pos_as_xyz
  1  'x, y, z'
loop_
 _atom_site_type_symbol
 _atom_site_label
 _atom_site_symmetry_multiplicity
 _atom_site_fract_x
 _atom_site_fract_y
 _atom_site_fract_z
 _atom_site_occupancy
  Ti  Ti0  1  0.143578  0.143578  0.143578  1
  Ti  Ti1  1  0.996033  0.996033  0.996033  1
  Be  Be2  1  0.415411  0.919423  0.415411  1
  Be  Be3  1  0.415411  0.415411  0.919423  1
  Be  Be4  1  0.919423  0.415411  0.415411  1
  Be  Be5  1  0.587112  0.076066  0.587112  1
  Be  Be6  1  0.587112  0.587112  0.076066  1
  Be  Be7  1  0.076066  0.587112  0.587112  1
  Be  Be8  1  0.666986  0.666986  0.666986  1
  Be  Be9  1  0.336154  0.336154  0.336154  1
  Be  Be10  1  0.500293  0.500293  0.500293  1
  Re  Re11  1  0.856421  0.856421  0.856421  1
