# generated using pymatgen
data_Pa3Fe(NiSb2)2
_symmetry_space_group_name_H-M   'P 1'
_cell_length_a   8.14836269
_cell_length_b   8.14645642
_cell_length_c   8.14645572
_cell_angle_alpha   109.76973263
_cell_angle_beta   109.30395218
_cell_angle_gamma   109.30395328
_symmetry_Int_Tables_number   1
_chemical_formula_structural   Pa3Fe(NiSb2)2
_chemical_formula_sum   'Pa6 Fe2 Ni4 Sb8'
_cell_volume   416.45841714
_cell_formula_units_Z   2
loop_
 _symmetry_equiv_pos_site_id
 _symmetry_equiv_pos_as_xyz
  1  'x, y, z'
loop_
 _atom_site_type_symbol
 _atom_site_label
 _atom_site_symmetry_multiplicity
 _atom_site_fract_x
 _atom_site_fract_y
 _atom_site_fract_z
 _atom_site_occupancy
  Pa  Pa0  1  0.630389  0.372204  0.247619  1
  Pa  Pa1  1  0.375738  0.258857  0.627971  1
  Pa  Pa2  1  0.130389  0.747619  0.872204  1
  Pa  Pa3  1  0.744481  0.877206  0.117534  1
  Pa  Pa4  1  0.244481  0.617534  0.377206  1
  Pa  Pa5  1  0.875738  0.127971  0.758857  1
  Fe  Fe6  1  0.873189  0.248892  0.122393  1
  Fe  Fe7  1  0.373189  0.622393  0.748892  1
  Ni  Ni8  1  0.625689  0.749890  0.375832  1
  Ni  Ni9  1  0.750415  0.375695  0.625641  1
  Ni  Ni10  1  0.250415  0.125641  0.875695  1
  Ni  Ni11  1  0.125689  0.875832  0.249890  1
  Sb  Sb12  1  0.499625  0.998935  0.831352  1
  Sb  Sb13  1  0.165266  0.164976  0.166006  1
  Sb  Sb14  1  0.835615  0.501228  0.001540  1
  Sb  Sb15  1  0.999592  0.837012  0.499217  1
  Sb  Sb16  1  0.335615  0.501540  0.001228  1
  Sb  Sb17  1  0.999625  0.331352  0.498935  1
  Sb  Sb18  1  0.499592  0.999217  0.337012  1
  Sb  Sb19  1  0.665266  0.666006  0.664976  1
