# generated using pymatgen
data_YbDy2Pa(Al3Ir)6
_symmetry_space_group_name_H-M   'P 1'
_cell_length_a   7.57254259
_cell_length_b   7.56636392
_cell_length_c   9.44475400
_cell_angle_alpha   90.00000000
_cell_angle_beta   90.00000000
_cell_angle_gamma   119.50222489
_symmetry_Int_Tables_number   1
_chemical_formula_structural   YbDy2Pa(Al3Ir)6
_chemical_formula_sum   'Yb1 Dy2 Pa1 Al18 Ir6'
_cell_volume   470.98473906
_cell_formula_units_Z   1
loop_
 _symmetry_equiv_pos_site_id
 _symmetry_equiv_pos_as_xyz
  1  'x, y, z'
loop_
 _atom_site_type_symbol
 _atom_site_label
 _atom_site_symmetry_multiplicity
 _atom_site_fract_x
 _atom_site_fract_y
 _atom_site_fract_z
 _atom_site_occupancy
  Yb  Yb0  1  0.672892  0.994966  0.750000  1
  Dy  Dy1  1  0.003164  0.328795  0.250000  1
  Dy  Dy2  1  0.328941  0.003576  0.250000  1
  Pa  Pa3  1  0.995454  0.671992  0.750000  1
  Al  Al4  1  0.132517  0.130261  0.750000  1
  Al  Al5  1  0.872468  0.874113  0.250000  1
  Al  Al6  1  0.000377  0.331719  0.575450  1
  Al  Al7  1  0.998578  0.664296  0.421194  1
  Al  Al8  1  0.998578  0.664296  0.078806  1
  Al  Al9  1  0.340111  0.004387  0.924569  1
  Al  Al10  1  0.000377  0.331719  0.924550  1
  Al  Al11  1  0.665031  0.999202  0.073942  1
  Al  Al12  1  0.665031  0.999202  0.426058  1
  Al  Al13  1  0.340111  0.004387  0.575431  1
  Al  Al14  1  0.332314  0.332443  0.053532  1
  Al  Al15  1  0.663083  0.666578  0.949231  1
  Al  Al16  1  0.663083  0.666578  0.550769  1
  Al  Al17  1  0.332314  0.332443  0.446468  1
  Al  Al18  1  0.338108  0.547039  0.750000  1
  Al  Al19  1  0.659917  0.450136  0.250000  1
  Al  Al20  1  0.547746  0.343440  0.750000  1
  Al  Al21  1  0.451111  0.661607  0.250000  1
  Ir  Ir22  1  0.673743  0.330639  0.500733  1
  Ir  Ir23  1  0.324849  0.670873  0.501008  1
  Ir  Ir24  1  0.324849  0.670873  0.998992  1
  Ir  Ir25  1  0.673743  0.330639  0.999267  1
  Ir  Ir26  1  0.000752  0.996900  0.502227  1
  Ir  Ir27  1  0.000752  0.996900  0.997773  1
