# generated using pymatgen
data_CaErPa2(Ga3Ir)6
_symmetry_space_group_name_H-M   'P 1'
_cell_length_a   7.63151728
_cell_length_b   7.63292428
_cell_length_c   9.39487100
_cell_angle_alpha   90.00000000
_cell_angle_beta   90.00000000
_cell_angle_gamma   119.97475668
_symmetry_Int_Tables_number   1
_chemical_formula_structural   CaErPa2(Ga3Ir)6
_chemical_formula_sum   'Ca1 Er1 Pa2 Ga18 Ir6'
_cell_volume   474.06043804
_cell_formula_units_Z   1
loop_
 _symmetry_equiv_pos_site_id
 _symmetry_equiv_pos_as_xyz
  1  'x, y, z'
loop_
 _atom_site_type_symbol
 _atom_site_label
 _atom_site_symmetry_multiplicity
 _atom_site_fract_x
 _atom_site_fract_y
 _atom_site_fract_z
 _atom_site_occupancy
  Ca  Ca0  1  0.668426  0.995432  0.750000  1
  Er  Er1  1  0.331821  0.004846  0.250000  1
  Pa  Pa2  1  0.999161  0.668213  0.750000  1
  Pa  Pa3  1  0.000870  0.331465  0.250000  1
  Ga  Ga4  1  0.130485  0.128068  0.750000  1
  Ga  Ga5  1  0.869729  0.871865  0.250000  1
  Ga  Ga6  1  0.997778  0.329446  0.583211  1
  Ga  Ga7  1  0.001883  0.670335  0.416839  1
  Ga  Ga8  1  0.001883  0.670335  0.083161  1
  Ga  Ga9  1  0.338842  0.001684  0.920117  1
  Ga  Ga10  1  0.997778  0.329446  0.916789  1
  Ga  Ga11  1  0.661280  0.998187  0.079786  1
  Ga  Ga12  1  0.661280  0.998187  0.420214  1
  Ga  Ga13  1  0.338842  0.001684  0.579883  1
  Ga  Ga14  1  0.334309  0.331166  0.067975  1
  Ga  Ga15  1  0.665578  0.669017  0.931995  1
  Ga  Ga16  1  0.665578  0.669017  0.568005  1
  Ga  Ga17  1  0.334309  0.331166  0.432025  1
  Ga  Ga18  1  0.340391  0.545708  0.750000  1
  Ga  Ga19  1  0.659464  0.453914  0.250000  1
  Ga  Ga20  1  0.545499  0.339259  0.750000  1
  Ga  Ga21  1  0.454658  0.661464  0.250000  1
  Ir  Ir22  1  0.676700  0.332845  0.498863  1
  Ir  Ir23  1  0.322270  0.667165  0.499043  1
  Ir  Ir24  1  0.322270  0.667165  0.000957  1
  Ir  Ir25  1  0.676700  0.332845  0.001137  1
  Ir  Ir26  1  0.001109  0.000037  0.498911  1
  Ir  Ir27  1  0.001109  0.000037  0.001089  1
