# generated using pymatgen
data_YbDy6Co6Sn23
_symmetry_space_group_name_H-M   'P 1'
_cell_length_a   9.73080200
_cell_length_b   9.73080223
_cell_length_c   9.95567200
_cell_angle_alpha   90.00000000
_cell_angle_beta   90.00000000
_cell_angle_gamma   119.99999921
_symmetry_Int_Tables_number   1
_chemical_formula_structural   YbDy6Co6Sn23
_chemical_formula_sum   'Yb1 Dy6 Co6 Sn23'
_cell_volume   816.39154240
_cell_formula_units_Z   1
loop_
 _symmetry_equiv_pos_site_id
 _symmetry_equiv_pos_as_xyz
  1  'x, y, z'
loop_
 _atom_site_type_symbol
 _atom_site_label
 _atom_site_symmetry_multiplicity
 _atom_site_fract_x
 _atom_site_fract_y
 _atom_site_fract_z
 _atom_site_occupancy
  Yb  Yb0  1  0.000000  0.000000  0.000000  1
  Dy  Dy1  1  0.479191  0.520809  0.305606  1
  Dy  Dy2  1  0.520809  0.479191  0.694394  1
  Dy  Dy3  1  0.479191  0.958381  0.305606  1
  Dy  Dy4  1  0.520809  0.041619  0.694394  1
  Dy  Dy5  1  0.041619  0.520809  0.305606  1
  Dy  Dy6  1  0.958381  0.479191  0.694394  1
  Co  Co7  1  0.831867  0.168133  0.198485  1
  Co  Co8  1  0.168133  0.831867  0.801515  1
  Co  Co9  1  0.831867  0.663732  0.198485  1
  Co  Co10  1  0.168133  0.336268  0.801515  1
  Co  Co11  1  0.336268  0.168133  0.198485  1
  Co  Co12  1  0.663732  0.831867  0.801515  1
  Sn  Sn13  1  0.345321  0.000000  0.000000  1
  Sn  Sn14  1  0.654679  0.000000  0.000000  1
  Sn  Sn15  1  0.000000  0.345321  0.000000  1
  Sn  Sn16  1  0.000000  0.654679  0.000000  1
  Sn  Sn17  1  0.654679  0.654679  0.000000  1
  Sn  Sn18  1  0.345321  0.345321  0.000000  1
  Sn  Sn19  1  0.333333  0.666667  0.816663  1
  Sn  Sn20  1  0.666667  0.333333  0.183337  1
  Sn  Sn21  1  0.000000  0.000000  0.500000  1
  Sn  Sn22  1  0.781031  0.218969  0.451971  1
  Sn  Sn23  1  0.218969  0.781031  0.548029  1
  Sn  Sn24  1  0.781031  0.562062  0.451971  1
  Sn  Sn25  1  0.218969  0.437938  0.548029  1
  Sn  Sn26  1  0.437938  0.218969  0.451971  1
  Sn  Sn27  1  0.562062  0.781031  0.548029  1
  Sn  Sn28  1  0.333333  0.666667  0.117872  1
  Sn  Sn29  1  0.666667  0.333333  0.882128  1
  Sn  Sn30  1  0.117285  0.882715  0.274325  1
  Sn  Sn31  1  0.882715  0.117285  0.725675  1
  Sn  Sn32  1  0.117285  0.234570  0.274325  1
  Sn  Sn33  1  0.882715  0.765430  0.725675  1
  Sn  Sn34  1  0.765430  0.882715  0.274325  1
  Sn  Sn35  1  0.234570  0.117285  0.725675  1
