# generated using pymatgen
data_Er5Lu15(Cd3Co)2
_symmetry_space_group_name_H-M   'P 1'
_cell_length_a   9.43965719
_cell_length_b   9.43965702
_cell_length_c   9.48558300
_cell_angle_alpha   90.00000000
_cell_angle_beta   90.00000000
_cell_angle_gamma   120.02298731
_symmetry_Int_Tables_number   1
_chemical_formula_structural   Er5Lu15(Cd3Co)2
_chemical_formula_sum   'Er5 Lu15 Cd6 Co2'
_cell_volume   731.82367183
_cell_formula_units_Z   1
loop_
 _symmetry_equiv_pos_site_id
 _symmetry_equiv_pos_as_xyz
  1  'x, y, z'
loop_
 _atom_site_type_symbol
 _atom_site_label
 _atom_site_symmetry_multiplicity
 _atom_site_fract_x
 _atom_site_fract_y
 _atom_site_fract_z
 _atom_site_occupancy
  Er  Er0  1  0.541465  0.083681  0.250000  1
  Er  Er1  1  0.916319  0.458535  0.250000  1
  Er  Er2  1  0.458126  0.541874  0.750000  1
  Er  Er3  1  0.458357  0.917380  0.750000  1
  Er  Er4  1  0.082620  0.541643  0.750000  1
  Lu  Lu5  1  0.000145  0.999855  0.500248  1
  Lu  Lu6  1  0.000145  0.999855  0.999752  1
  Lu  Lu7  1  0.541379  0.458621  0.250000  1
  Lu  Lu8  1  0.212119  0.787881  0.436044  1
  Lu  Lu9  1  0.212659  0.423668  0.436256  1
  Lu  Lu10  1  0.576332  0.787341  0.436256  1
  Lu  Lu11  1  0.787817  0.212183  0.563328  1
  Lu  Lu12  1  0.787353  0.575771  0.563388  1
  Lu  Lu13  1  0.424229  0.212647  0.563388  1
  Lu  Lu14  1  0.787817  0.212183  0.936672  1
  Lu  Lu15  1  0.787353  0.575771  0.936612  1
  Lu  Lu16  1  0.424229  0.212647  0.936612  1
  Lu  Lu17  1  0.212119  0.787881  0.063956  1
  Lu  Lu18  1  0.212659  0.423668  0.063744  1
  Lu  Lu19  1  0.576332  0.787341  0.063744  1
  Cd  Cd20  1  0.885638  0.114362  0.250000  1
  Cd  Cd21  1  0.884425  0.770435  0.250000  1
  Cd  Cd22  1  0.229565  0.115575  0.250000  1
  Cd  Cd23  1  0.114342  0.885658  0.750000  1
  Cd  Cd24  1  0.114576  0.229016  0.750000  1
  Cd  Cd25  1  0.770984  0.885424  0.750000  1
  Co  Co26  1  0.333964  0.666036  0.250000  1
  Co  Co27  1  0.666932  0.333068  0.750000  1
