# generated using pymatgen
data_Ba3Hg10Bi
_symmetry_space_group_name_H-M   'P 1'
_cell_length_a   9.71297095
_cell_length_b   9.71296995
_cell_length_c   9.71297066
_cell_angle_alpha   147.65922906
_cell_angle_beta   117.61399371
_cell_angle_gamma   72.03753796
_symmetry_Int_Tables_number   1
_chemical_formula_structural   Ba3Hg10Bi
_chemical_formula_sum   'Ba3 Hg10 Bi1'
_cell_volume   427.61431671
_cell_formula_units_Z   1
loop_
 _symmetry_equiv_pos_site_id
 _symmetry_equiv_pos_as_xyz
  1  'x, y, z'
loop_
 _atom_site_type_symbol
 _atom_site_label
 _atom_site_symmetry_multiplicity
 _atom_site_fract_x
 _atom_site_fract_y
 _atom_site_fract_z
 _atom_site_occupancy
  Ba  Ba0  1  0.000000  0.000000  0.000000  1
  Ba  Ba1  1  0.697945  0.697945  0.000000  1
  Ba  Ba2  1  0.302055  0.302055  0.000000  1
  Hg  Hg3  1  0.126554  0.851940  0.274615  1
  Hg  Hg4  1  0.873446  0.148060  0.725385  1
  Hg  Hg5  1  0.422675  0.148060  0.274615  1
  Hg  Hg6  1  0.577325  0.851940  0.725385  1
  Hg  Hg7  1  0.018383  0.661336  0.357046  1
  Hg  Hg8  1  0.981617  0.338664  0.642954  1
  Hg  Hg9  1  0.695710  0.338664  0.357046  1
  Hg  Hg10  1  0.304290  0.661336  0.642954  1
  Hg  Hg11  1  0.689785  0.500000  0.189785  1
  Hg  Hg12  1  0.310215  0.500000  0.810215  1
  Bi  Bi13  1  0.500000  0.000000  0.500000  1
