# generated using pymatgen
data_Lu4Pa(TcB3)2
_symmetry_space_group_name_H-M   'P 1'
_cell_length_a   5.41046401
_cell_length_b   5.41046301
_cell_length_c   8.13486500
_cell_angle_alpha   70.57651667
_cell_angle_beta   70.57650918
_cell_angle_gamma   59.99999797
_symmetry_Int_Tables_number   1
_chemical_formula_structural   Lu4Pa(TcB3)2
_chemical_formula_sum   'Lu4 Pa1 Tc2 B6'
_cell_volume   190.41873440
_cell_formula_units_Z   1
loop_
 _symmetry_equiv_pos_site_id
 _symmetry_equiv_pos_as_xyz
  1  'x, y, z'
loop_
 _atom_site_type_symbol
 _atom_site_label
 _atom_site_symmetry_multiplicity
 _atom_site_fract_x
 _atom_site_fract_y
 _atom_site_fract_z
 _atom_site_occupancy
  Lu  Lu0  1  0.749767  0.749767  0.750701  1
  Lu  Lu1  1  0.250233  0.250233  0.249299  1
  Lu  Lu2  1  0.583926  0.583926  0.248224  1
  Lu  Lu3  1  0.416074  0.416074  0.751776  1
  Pa  Pa4  1  0.000000  0.000000  0.000000  1
  Tc  Tc5  1  0.893857  0.893857  0.318426  1
  Tc  Tc6  1  0.106143  0.106143  0.681574  1
  B  B7  1  0.500000  0.172593  0.500000  1
  B  B8  1  0.827407  0.500000  0.500000  1
  B  B9  1  0.172593  0.827407  0.500000  1
  B  B10  1  0.172593  0.500000  0.500000  1
  B  B11  1  0.827407  0.172593  0.500000  1
  B  B12  1  0.500000  0.827407  0.500000  1
