# generated using pymatgen
data_Gd2Er2ScSi4
_symmetry_space_group_name_H-M   'P 1'
_cell_length_a   7.26757000
_cell_length_b   7.60197100
_cell_length_c   14.49351600
_cell_angle_alpha   90.00000000
_cell_angle_beta   90.00000000
_cell_angle_gamma   90.00000000
_symmetry_Int_Tables_number   1
_chemical_formula_structural   Gd2Er2ScSi4
_chemical_formula_sum   'Gd8 Er8 Sc4 Si16'
_cell_volume   800.73569042
_cell_formula_units_Z   4
loop_
 _symmetry_equiv_pos_site_id
 _symmetry_equiv_pos_as_xyz
  1  'x, y, z'
loop_
 _atom_site_type_symbol
 _atom_site_label
 _atom_site_symmetry_multiplicity
 _atom_site_fract_x
 _atom_site_fract_y
 _atom_site_fract_z
 _atom_site_occupancy
  Gd  Gd0  1  0.016652  0.178634  0.401924  1
  Gd  Gd1  1  0.516652  0.321366  0.401924  1
  Gd  Gd2  1  0.483348  0.678634  0.901924  1
  Gd  Gd3  1  0.483348  0.678634  0.598076  1
  Gd  Gd4  1  0.983348  0.821366  0.598076  1
  Gd  Gd5  1  0.983348  0.821366  0.901924  1
  Gd  Gd6  1  0.516652  0.321366  0.098076  1
  Gd  Gd7  1  0.016652  0.178634  0.098076  1
  Er  Er8  1  0.323253  0.177576  0.624215  1
  Er  Er9  1  0.676747  0.822424  0.375785  1
  Er  Er10  1  0.176747  0.677576  0.375785  1
  Er  Er11  1  0.823253  0.322424  0.875785  1
  Er  Er12  1  0.823253  0.322424  0.624215  1
  Er  Er13  1  0.323253  0.177576  0.875785  1
  Er  Er14  1  0.176747  0.677576  0.124215  1
  Er  Er15  1  0.676747  0.822424  0.124215  1
  Sc  Sc16  1  0.656293  0.986396  0.750000  1
  Sc  Sc17  1  0.843707  0.486396  0.250000  1
  Sc  Sc18  1  0.343707  0.013604  0.250000  1
  Sc  Sc19  1  0.156293  0.513604  0.750000  1
  Si  Si20  1  0.280283  0.870798  0.750000  1
  Si  Si21  1  0.475294  0.604945  0.250000  1
  Si  Si22  1  0.024706  0.104945  0.750000  1
  Si  Si23  1  0.524706  0.395055  0.750000  1
  Si  Si24  1  0.150461  0.469166  0.539725  1
  Si  Si25  1  0.975294  0.895055  0.250000  1
  Si  Si26  1  0.719717  0.129202  0.250000  1
  Si  Si27  1  0.849539  0.530834  0.039725  1
  Si  Si28  1  0.349539  0.969166  0.039725  1
  Si  Si29  1  0.150461  0.469166  0.960275  1
  Si  Si30  1  0.650461  0.030834  0.539725  1
  Si  Si31  1  0.349539  0.969166  0.460275  1
  Si  Si32  1  0.849539  0.530834  0.460275  1
  Si  Si33  1  0.780283  0.629202  0.750000  1
  Si  Si34  1  0.219717  0.370798  0.250000  1
  Si  Si35  1  0.650461  0.030834  0.960275  1
