# generated using pymatgen
data_TmScFe6(SiB)2
_symmetry_space_group_name_H-M   'P 1'
_cell_length_a   5.06778200
_cell_length_b   5.06845596
_cell_length_c   6.59844700
_cell_angle_alpha   90.00006081
_cell_angle_beta   89.99998001
_cell_angle_gamma   119.99312908
_symmetry_Int_Tables_number   1
_chemical_formula_structural   TmScFe6(SiB)2
_chemical_formula_sum   'Tm1 Sc1 Fe6 Si2 B2'
_cell_volume   146.78985160
_cell_formula_units_Z   1
loop_
 _symmetry_equiv_pos_site_id
 _symmetry_equiv_pos_as_xyz
  1  'x, y, z'
loop_
 _atom_site_type_symbol
 _atom_site_label
 _atom_site_symmetry_multiplicity
 _atom_site_fract_x
 _atom_site_fract_y
 _atom_site_fract_z
 _atom_site_occupancy
  Tm  Tm0  1  0.999983  0.000000  0.999984  1
  Sc  Sc1  1  0.999986  0.000002  0.499994  1
  Fe  Fe2  1  0.499984  0.000000  0.284806  1
  Fe  Fe3  1  0.499983  0.500000  0.284853  1
  Fe  Fe4  1  0.999983  0.500000  0.284855  1
  Fe  Fe5  1  0.499983  0.000000  0.715191  1
  Fe  Fe6  1  0.499983  0.500000  0.715154  1
  Fe  Fe7  1  0.999983  0.500000  0.715157  1
  Si  Si8  1  0.333295  0.666633  0.999965  1
  Si  Si9  1  0.666673  0.333367  0.999965  1
  B  B10  1  0.333330  0.666682  0.500037  1
  B  B11  1  0.666635  0.333318  0.500037  1
